MODEL 1
REMARK VINA RESULT: -7.097403862      0.000      0.000
REMARK  5 active torsions:
REMARK  status: ('A' for Active; 'I' for Inactive)
REMARK       I    between atoms: C1_2  and  N1_3 
REMARK    1  A    between atoms: C1_2  and  C12_15 
REMARK    2  A    between atoms: N1_3  and  C2_4 
REMARK    3  A    between atoms: C2_4  and  C3_5 
REMARK    4  A    between atoms: C3_5  and  N2_6 
REMARK       I    between atoms: C12_15  and  N3_17 
REMARK    5  A    between atoms: N3_17  and  C13_19 
ROOT
HETATM    1  O1  UNL     1       5.626  -5.096 -57.170  1.00  0.00    -0.246 OA
HETATM    2  C1  UNL     1       5.768  -5.836 -56.188  1.00  0.00     0.379 C 
HETATM    3  N1  UNL     1       7.091  -6.082 -55.700  1.00  0.00    -0.405 NA
ENDROOT
BRANCH   2   4
HETATM    4  C12 UNL     1       4.587  -6.435 -55.563  1.00  0.00     0.324 C 
HETATM    5  O2  UNL     1       3.963  -7.368 -56.148  1.00  0.00    -0.261 OA
HETATM    6  N3  UNL     1       4.193  -5.932 -54.317  1.00  0.00    -0.347 N 
ATOM      7  H3  UNL     1       4.704  -5.152 -53.903  1.00  0.00     0.163 HD
BRANCH   6   8
HETATM    8  C13 UNL     1       3.063  -6.511 -53.604  1.00  0.00     0.085 C 
HETATM    9  C14 UNL     1       2.436  -5.443 -52.677  1.00  0.00     0.025 C 
HETATM   10  C15 UNL     1       1.073  -6.018 -52.323  1.00  0.00     0.002 C 
HETATM   11  C16 UNL     1       1.233  -7.324 -51.610  1.00  0.00     0.000 C 
HETATM   12  C17 UNL     1       2.618  -7.860 -51.515  1.00  0.00     0.002 C 
HETATM   13  C18 UNL     1       3.500  -7.605 -52.685  1.00  0.00     0.025 C 
ENDBRANCH   6   8
ENDBRANCH   2   4
BRANCH   3  14
HETATM   14  C2  UNL     1       8.308  -6.308 -55.253  1.00  0.00     0.253 C 
BRANCH  14  15
HETATM   15  C3  UNL     1       8.390  -7.484 -54.203  1.00  0.00     0.063 A 
HETATM   16  C9  UNL     1       7.422  -7.385 -53.076  1.00  0.00     0.034 A 
HETATM   17  C10 UNL     1       8.558  -7.027 -52.104  1.00  0.00     0.005 A 
HETATM   18  C11 UNL     1       9.485  -7.119 -53.286  1.00  0.00     0.034 A 
BRANCH  15  19
HETATM   19  N2  UNL     1       8.354  -8.777 -54.847  1.00  0.00    -0.361 N 
HETATM   20  C4  UNL     1       7.209  -9.520 -54.614  1.00  0.00     0.064 C 
HETATM   21  C5  UNL     1       6.542 -10.142 -55.796  1.00  0.00     0.045 C 
HETATM   22  C6  UNL     1       6.946  -9.441 -57.106  1.00  0.00     0.010 C 
HETATM   23  C7  UNL     1       8.437  -9.582 -57.149  1.00  0.00     0.045 C 
HETATM   24  C8  UNL     1       9.097  -8.825 -56.042  1.00  0.00     0.064 C 
ENDBRANCH  15  19
ENDBRANCH  14  15
ENDBRANCH   3  14
TORSDOF 5
ENDMDL
MODEL 2
REMARK VINA RESULT: -6.895952590      0.849      2.828
REMARK  5 active torsions:
REMARK  status: ('A' for Active; 'I' for Inactive)
REMARK       I    between atoms: C1_2  and  N1_3 
REMARK    1  A    between atoms: C1_2  and  C12_15 
REMARK    2  A    between atoms: N1_3  and  C2_4 
REMARK    3  A    between atoms: C2_4  and  C3_5 
REMARK    4  A    between atoms: C3_5  and  N2_6 
REMARK       I    between atoms: C12_15  and  N3_17 
REMARK    5  A    between atoms: N3_17  and  C13_19 
ROOT
HETATM    1  O1  UNL     1       5.817  -4.741 -56.502  1.00  0.00    -0.246 OA
HETATM    2  C1  UNL     1       5.955  -5.931 -56.191  1.00  0.00     0.379 C 
HETATM    3  N1  UNL     1       7.183  -6.588 -56.521  1.00  0.00    -0.405 NA
ENDROOT
BRANCH   2   4
HETATM    4  C12 UNL     1       4.863  -6.625 -55.504  1.00  0.00     0.324 C 
HETATM    5  O2  UNL     1       4.527  -7.791 -55.863  1.00  0.00    -0.261 OA
HETATM    6  N3  UNL     1       4.227  -5.946 -54.458  1.00  0.00    -0.347 N 
ATOM      7  H3  UNL     1       4.507  -4.992 -54.231  1.00  0.00     0.163 HD
BRANCH   6   8
HETATM    8  C13 UNL     1       3.170  -6.588 -53.688  1.00  0.00     0.085 C 
HETATM    9  C14 UNL     1       2.471  -5.536 -52.795  1.00  0.00     0.025 C 
HETATM   10  C15 UNL     1       1.174  -6.213 -52.377  1.00  0.00     0.002 C 
HETATM   11  C16 UNL     1       1.468  -7.462 -51.609  1.00  0.00     0.000 C 
HETATM   12  C17 UNL     1       2.898  -7.867 -51.527  1.00  0.00     0.002 C 
HETATM   13  C18 UNL     1       3.726  -7.592 -52.731  1.00  0.00     0.025 C 
ENDBRANCH   6   8
ENDBRANCH   2   4
BRANCH   3  14
HETATM   14  C2  UNL     1       8.312  -7.192 -56.825  1.00  0.00     0.253 C 
BRANCH  14  15
HETATM   15  C3  UNL     1       8.230  -8.766 -56.751  1.00  0.00     0.063 A 
HETATM   16  C9  UNL     1       9.110  -9.485 -57.712  1.00  0.00     0.034 A 
HETATM   17  C10 UNL     1       7.890  -9.901 -58.551  1.00  0.00     0.005 A 
HETATM   18  C11 UNL     1       7.054  -9.139 -57.559  1.00  0.00     0.034 A 
BRANCH  15  19
HETATM   19  N2  UNL     1       8.387  -9.245 -55.396  1.00  0.00    -0.361 N 
HETATM   20  C4  UNL     1       9.370  -8.608 -54.657  1.00  0.00     0.064 C 
HETATM   21  C5  UNL     1       9.009  -8.154 -53.282  1.00  0.00     0.045 C 
HETATM   22  C6  UNL     1       7.484  -8.021 -53.114  1.00  0.00     0.010 C 
HETATM   23  C7  UNL     1       6.963  -9.391 -53.421  1.00  0.00     0.045 C 
HETATM   24  C8  UNL     1       7.200  -9.767 -54.848  1.00  0.00     0.064 C 
ENDBRANCH  15  19
ENDBRANCH  14  15
ENDBRANCH   3  14
TORSDOF 5
ENDMDL
MODEL 3
REMARK VINA RESULT: -6.744250905      1.152      1.667
REMARK  5 active torsions:
REMARK  status: ('A' for Active; 'I' for Inactive)
REMARK       I    between atoms: C1_2  and  N1_3 
REMARK    1  A    between atoms: C1_2  and  C12_15 
REMARK    2  A    between atoms: N1_3  and  C2_4 
REMARK    3  A    between atoms: C2_4  and  C3_5 
REMARK    4  A    between atoms: C3_5  and  N2_6 
REMARK       I    between atoms: C12_15  and  N3_17 
REMARK    5  A    between atoms: N3_17  and  C13_19 
ROOT
HETATM    1  O1  UNL     1       5.967  -5.114 -57.094  1.00  0.00    -0.246 OA
HETATM    2  C1  UNL     1       5.883  -5.940 -56.176  1.00  0.00     0.379 C 
HETATM    3  N1  UNL     1       7.077  -6.582 -55.719  1.00  0.00    -0.405 NA
ENDROOT
BRANCH   2   4
HETATM    4  C12 UNL     1       4.572  -6.234 -55.594  1.00  0.00     0.324 C 
HETATM    5  O2  UNL     1       3.546  -6.290 -56.333  1.00  0.00    -0.261 OA
HETATM    6  N3  UNL     1       4.514  -6.445 -54.210  1.00  0.00    -0.347 N 
ATOM      7  H3  UNL     1       5.361  -6.351 -53.650  1.00  0.00     0.163 HD
BRANCH   6   8
HETATM    8  C13 UNL     1       3.258  -6.798 -53.563  1.00  0.00     0.085 C 
HETATM    9  C14 UNL     1       2.692  -5.560 -52.828  1.00  0.00     0.025 C 
HETATM   10  C15 UNL     1       1.239  -5.925 -52.560  1.00  0.00     0.002 C 
HETATM   11  C16 UNL     1       1.164  -7.145 -51.697  1.00  0.00     0.000 C 
HETATM   12  C17 UNL     1       2.455  -7.824 -51.399  1.00  0.00     0.002 C 
HETATM   13  C18 UNL     1       3.466  -7.817 -52.489  1.00  0.00     0.025 C 
ENDBRANCH   6   8
ENDBRANCH   2   4
BRANCH   3  14
HETATM   14  C2  UNL     1       8.176  -7.173 -55.300  1.00  0.00     0.253 C 
BRANCH  14  15
HETATM   15  C3  UNL     1       8.068  -8.746 -55.242  1.00  0.00     0.063 A 
HETATM   16  C9  UNL     1       6.732  -9.268 -54.848  1.00  0.00     0.034 A 
HETATM   17  C10 UNL     1       7.280  -9.696 -53.476  1.00  0.00     0.005 A 
HETATM   18  C11 UNL     1       8.601  -9.131 -53.923  1.00  0.00     0.034 A 
BRANCH  15  19
HETATM   19  N2  UNL     1       8.562  -9.359 -56.455  1.00  0.00    -0.361 N 
HETATM   20  C4  UNL     1       7.586  -9.817 -57.324  1.00  0.00     0.064 C 
HETATM   21  C5  UNL     1       7.722  -9.449 -58.764  1.00  0.00     0.045 C 
HETATM   22  C6  UNL     1       8.633  -8.222 -58.950  1.00  0.00     0.010 C 
HETATM   23  C7  UNL     1       9.935  -8.639 -58.339  1.00  0.00     0.045 C 
HETATM   24  C8  UNL     1       9.811  -8.855 -56.865  1.00  0.00     0.064 C 
ENDBRANCH  15  19
ENDBRANCH  14  15
ENDBRANCH   3  14
TORSDOF 5
ENDMDL
MODEL 4
REMARK VINA RESULT: -6.701670187      1.349      2.137
REMARK  5 active torsions:
REMARK  status: ('A' for Active; 'I' for Inactive)
REMARK       I    between atoms: C1_2  and  N1_3 
REMARK    1  A    between atoms: C1_2  and  C12_15 
REMARK    2  A    between atoms: N1_3  and  C2_4 
REMARK    3  A    between atoms: C2_4  and  C3_5 
REMARK    4  A    between atoms: C3_5  and  N2_6 
REMARK       I    between atoms: C12_15  and  N3_17 
REMARK    5  A    between atoms: N3_17  and  C13_19 
ROOT
HETATM    1  O1  UNL     1       4.530  -3.567 -56.397  1.00  0.00    -0.246 OA
HETATM    2  C1  UNL     1       4.880  -4.722 -56.121  1.00  0.00     0.379 C 
HETATM    3  N1  UNL     1       6.196  -5.147 -56.491  1.00  0.00    -0.405 NA
ENDROOT
BRANCH   2   4
HETATM    4  C12 UNL     1       3.942  -5.611 -55.434  1.00  0.00     0.324 C 
HETATM    5  O2  UNL     1       3.671  -6.748 -55.921  1.00  0.00    -0.261 OA
HETATM    6  N3  UNL     1       3.373  -5.149 -54.240  1.00  0.00    -0.347 N 
ATOM      7  H3  UNL     1       3.591  -4.210 -53.908  1.00  0.00     0.163 HD
BRANCH   6   8
HETATM    8  C13 UNL     1       2.474  -5.995 -53.468  1.00  0.00     0.085 C 
HETATM    9  C14 UNL     1       1.913  -5.192 -52.270  1.00  0.00     0.025 C 
HETATM   10  C15 UNL     1       0.719  -6.013 -51.806  1.00  0.00     0.002 C 
HETATM   11  C16 UNL     1       1.163  -7.376 -51.380  1.00  0.00     0.000 C 
HETATM   12  C17 UNL     1       2.595  -7.708 -51.615  1.00  0.00     0.002 C 
HETATM   13  C18 UNL     1       3.204  -7.143 -52.849  1.00  0.00     0.025 C 
ENDBRANCH   6   8
ENDBRANCH   2   4
BRANCH   3  14
HETATM   14  C2  UNL     1       7.406  -5.536 -56.831  1.00  0.00     0.253 C 
BRANCH  14  15
HETATM   15  C3  UNL     1       8.039  -6.584 -55.835  1.00  0.00     0.063 A 
HETATM   16  C9  UNL     1       8.951  -6.004 -54.813  1.00  0.00     0.034 A 
HETATM   17  C10 UNL     1      10.171  -6.608 -55.527  1.00  0.00     0.005 A 
HETATM   18  C11 UNL     1       9.202  -7.150 -56.543  1.00  0.00     0.034 A 
BRANCH  15  19
HETATM   19  N2  UNL     1       7.031  -7.440 -55.251  1.00  0.00    -0.361 N 
HETATM   20  C4  UNL     1       6.840  -8.651 -55.897  1.00  0.00     0.064 C 
HETATM   21  C5  UNL     1       6.798  -9.880 -55.051  1.00  0.00     0.045 C 
HETATM   22  C6  UNL     1       7.468  -9.649 -53.684  1.00  0.00     0.010 C 
HETATM   23  C7  UNL     1       6.695  -8.514 -53.087  1.00  0.00     0.045 C 
HETATM   24  C8  UNL     1       6.874  -7.251 -53.865  1.00  0.00     0.064 C 
ENDBRANCH  15  19
ENDBRANCH  14  15
ENDBRANCH   3  14
TORSDOF 5
ENDMDL
MODEL 5
REMARK VINA RESULT: -6.669659705      1.328      2.753
REMARK  5 active torsions:
REMARK  status: ('A' for Active; 'I' for Inactive)
REMARK       I    between atoms: C1_2  and  N1_3 
REMARK    1  A    between atoms: C1_2  and  C12_15 
REMARK    2  A    between atoms: N1_3  and  C2_4 
REMARK    3  A    between atoms: C2_4  and  C3_5 
REMARK    4  A    between atoms: C3_5  and  N2_6 
REMARK       I    between atoms: C12_15  and  N3_17 
REMARK    5  A    between atoms: N3_17  and  C13_19 
ROOT
HETATM    1  O1  UNL     1       5.191  -8.464 -56.641  1.00  0.00    -0.246 OA
HETATM    2  C1  UNL     1       5.343  -7.421 -55.991  1.00  0.00     0.379 C 
HETATM    3  N1  UNL     1       6.658  -6.868 -55.880  1.00  0.00    -0.405 NA
ENDROOT
BRANCH   2   4
HETATM    4  C12 UNL     1       4.181  -6.794 -55.359  1.00  0.00     0.324 C 
HETATM    5  O2  UNL     1       3.658  -5.762 -55.872  1.00  0.00    -0.261 OA
HETATM    6  N3  UNL     1       3.692  -7.382 -54.185  1.00  0.00    -0.347 N 
ATOM      7  H3  UNL     1       4.171  -8.189 -53.788  1.00  0.00     0.163 HD
BRANCH   6   8
HETATM    8  C13 UNL     1       2.506  -6.852 -53.526  1.00  0.00     0.085 C 
HETATM    9  C14 UNL     1       2.897  -5.624 -52.671  1.00  0.00     0.025 C 
HETATM   10  C15 UNL     1       1.569  -4.938 -52.384  1.00  0.00     0.002 C 
HETATM   11  C16 UNL     1       0.666  -5.858 -51.625  1.00  0.00     0.000 C 
HETATM   12  C17 UNL     1       1.155  -7.251 -51.429  1.00  0.00     0.002 C 
HETATM   13  C18 UNL     1       1.941  -7.832 -52.550  1.00  0.00     0.025 C 
ENDBRANCH   6   8
ENDBRANCH   2   4
BRANCH   3  14
HETATM   14  C2  UNL     1       7.868  -6.359 -55.778  1.00  0.00     0.253 C 
BRANCH  14  15
HETATM   15  C3  UNL     1       9.001  -7.447 -55.622  1.00  0.00     0.063 A 
HETATM   16  C9  UNL     1      10.367  -6.984 -55.986  1.00  0.00     0.034 A 
HETATM   17  C10 UNL     1      10.338  -7.836 -57.266  1.00  0.00     0.005 A 
HETATM   18  C11 UNL     1       8.951  -8.250 -56.857  1.00  0.00     0.034 A 
BRANCH  15  19
HETATM   19  N2  UNL     1       8.962  -8.074 -54.320  1.00  0.00    -0.361 N 
HETATM   20  C4  UNL     1       9.066  -7.207 -53.245  1.00  0.00     0.064 C 
HETATM   21  C5  UNL     1       8.084  -7.371 -52.133  1.00  0.00     0.045 C 
HETATM   22  C6  UNL     1       6.829  -8.132 -52.597  1.00  0.00     0.010 C 
HETATM   23  C7  UNL     1       7.359  -9.443 -53.091  1.00  0.00     0.045 C 
HETATM   24  C8  UNL     1       8.221  -9.271 -54.300  1.00  0.00     0.064 C 
ENDBRANCH  15  19
ENDBRANCH  14  15
ENDBRANCH   3  14
TORSDOF 5
ENDMDL
