MODEL 1
REMARK VINA RESULT: -7.526540056      0.000      0.000
REMARK  5 active torsions:
REMARK  status: ('A' for Active; 'I' for Inactive)
REMARK    1  A    between atoms: C2_2  and  C5_5 
REMARK    2  A    between atoms: C5_5  and  C6_6 
REMARK       I    between atoms: C6_6  and  N1_8 
REMARK    3  A    between atoms: N1_8  and  C7_10 
REMARK    4  A    between atoms: C7_10  and  C8_11 
REMARK       I    between atoms: C8_11  and  N2_13 
REMARK    5  A    between atoms: C12_17  and  N3_18 
ROOT
HETATM    1  C8  UNL     1     -22.790   9.937   3.525  1.00  0.00     0.237 C 
HETATM    2  O2  UNL     1     -22.421  10.446   4.607  1.00  0.00    -0.272 OA
HETATM    3  N2  UNL     1     -22.066  10.205   2.344  1.00  0.00    -0.351 N 
HETATM    4  C9  UNL     1     -22.517   9.614   1.109  1.00  0.00     0.126 C 
HETATM    5  C10 UNL     1     -23.319  10.618   0.278  1.00  0.00     0.023 C 
HETATM    6  C11 UNL     1     -22.395  11.606  -0.402  1.00  0.00     0.052 C 
HETATM    7  C12 UNL     1     -21.666  12.441   0.633  1.00  0.00     0.182 C 
HETATM    8 BR1  UNL     1     -22.848  13.144   1.968  1.00  0.00    -0.054 Br
HETATM    9  C13 UNL     1     -20.522  11.650   1.205  1.00  0.00     0.070 C 
HETATM   10  C14 UNL     1     -20.920  11.070   2.528  1.00  0.00     0.129 C 
ENDROOT
BRANCH   1  11
HETATM   11  C7  UNL     1     -23.974   9.066   3.502  1.00  0.00     0.225 C 
BRANCH  11  12
HETATM   12  N1  UNL     1     -25.134   9.609   4.168  1.00  0.00    -0.352 N 
HETATM   13  C6  UNL     1     -26.225  10.207   3.495  1.00  0.00     0.218 C 
HETATM   14  O1  UNL     1     -26.158  10.264   2.243  1.00  0.00    -0.274 OA
ATOM     15  H1  UNL     1     -25.168   9.559   5.186  1.00  0.00     0.162 HD
BRANCH  13  16
HETATM   16  C5  UNL     1     -27.388  10.740   4.216  1.00  0.00     0.111 C 
BRANCH  16  17
HETATM   17  C2  UNL     1     -28.506   9.777   4.385  1.00  0.00    -0.043 C 
HETATM   18  C1  UNL     1     -28.220   8.709   5.415  1.00  0.00     0.015 C 
HETATM   19  C3  UNL     1     -28.966   9.131   3.111  1.00  0.00     0.015 C 
HETATM   20  C4  UNL     1     -29.707  10.572   4.923  1.00  0.00     0.015 C 
ENDBRANCH  16  17
ENDBRANCH  13  16
ENDBRANCH  11  12
ENDBRANCH   1  11
BRANCH   7  21
HETATM   21  N3  UNL     1     -21.070  13.590  -0.063  1.00  0.00    -0.060 N 
ATOM     22  H33 UNL     1     -21.738  14.089  -0.650  1.00  0.00     0.276 HD
ATOM     23  H32 UNL     1     -20.843  14.361   0.567  1.00  0.00     0.276 HD
ATOM     24  H31 UNL     1     -20.260  13.250  -0.582  1.00  0.00     0.276 HD
ENDBRANCH   7  21
TORSDOF 5
ENDMDL
MODEL 2
REMARK VINA RESULT: -7.474352759      1.216      1.484
REMARK  5 active torsions:
REMARK  status: ('A' for Active; 'I' for Inactive)
REMARK    1  A    between atoms: C2_2  and  C5_5 
REMARK    2  A    between atoms: C5_5  and  C6_6 
REMARK       I    between atoms: C6_6  and  N1_8 
REMARK    3  A    between atoms: N1_8  and  C7_10 
REMARK    4  A    between atoms: C7_10  and  C8_11 
REMARK       I    between atoms: C8_11  and  N2_13 
REMARK    5  A    between atoms: C12_17  and  N3_18 
ROOT
HETATM    1  C8  UNL     1     -22.973  10.331   2.605  1.00  0.00     0.237 C 
HETATM    2  O2  UNL     1     -22.884  11.004   3.657  1.00  0.00    -0.272 OA
HETATM    3  N2  UNL     1     -22.158  10.653   1.500  1.00  0.00    -0.351 N 
HETATM    4  C9  UNL     1     -22.286   9.869   0.296  1.00  0.00     0.126 C 
HETATM    5  C10 UNL     1     -23.153  10.587  -0.740  1.00  0.00     0.023 C 
HETATM    6  C11 UNL     1     -22.372  11.696  -1.412  1.00  0.00     0.052 C 
HETATM    7  C12 UNL     1     -21.998  12.763  -0.401  1.00  0.00     0.182 C 
HETATM    8 BR1  UNL     1     -23.486  13.292   0.685  1.00  0.00    -0.054 Br
HETATM    9  C13 UNL     1     -20.808  12.305   0.397  1.00  0.00     0.070 C 
HETATM   10  C14 UNL     1     -21.263  11.768   1.720  1.00  0.00     0.129 C 
ENDROOT
BRANCH   1  11
HETATM   11  C7  UNL     1     -23.928   9.215   2.539  1.00  0.00     0.225 C 
BRANCH  11  12
HETATM   12  N1  UNL     1     -25.316   9.609   2.546  1.00  0.00    -0.352 N 
HETATM   13  C6  UNL     1     -26.361   8.816   3.075  1.00  0.00     0.218 C 
HETATM   14  O1  UNL     1     -26.040   7.703   3.557  1.00  0.00    -0.274 OA
ATOM     15  H1  UNL     1     -25.558  10.515   2.146  1.00  0.00     0.162 HD
BRANCH  13  16
HETATM   16  C5  UNL     1     -27.760   9.264   3.066  1.00  0.00     0.111 C 
BRANCH  16  17
HETATM   17  C2  UNL     1     -28.254   9.776   4.371  1.00  0.00    -0.043 C 
HETATM   18  C1  UNL     1     -27.478  10.972   4.871  1.00  0.00     0.015 C 
HETATM   19  C3  UNL     1     -28.330   8.741   5.455  1.00  0.00     0.015 C 
HETATM   20  C4  UNL     1     -29.692  10.269   4.144  1.00  0.00     0.015 C 
ENDBRANCH  16  17
ENDBRANCH  13  16
ENDBRANCH  11  12
ENDBRANCH   1  11
BRANCH   7  21
HETATM   21  N3  UNL     1     -21.565  13.952  -1.148  1.00  0.00    -0.060 N 
ATOM     22  H33 UNL     1     -21.961  13.997  -2.086  1.00  0.00     0.276 HD
ATOM     23  H32 UNL     1     -21.972  14.816  -0.789  1.00  0.00     0.276 HD
ATOM     24  H31 UNL     1     -20.545  13.963  -1.147  1.00  0.00     0.276 HD
ENDBRANCH   7  21
TORSDOF 5
ENDMDL
MODEL 3
REMARK VINA RESULT: -7.416235118      4.794      7.631
REMARK  5 active torsions:
REMARK  status: ('A' for Active; 'I' for Inactive)
REMARK    1  A    between atoms: C2_2  and  C5_5 
REMARK    2  A    between atoms: C5_5  and  C6_6 
REMARK       I    between atoms: C6_6  and  N1_8 
REMARK    3  A    between atoms: N1_8  and  C7_10 
REMARK    4  A    between atoms: C7_10  and  C8_11 
REMARK       I    between atoms: C8_11  and  N2_13 
REMARK    5  A    between atoms: C12_17  and  N3_18 
ROOT
HETATM    1  C8  UNL     1     -19.656   7.462   0.931  1.00  0.00     0.237 C 
HETATM    2  O2  UNL     1     -18.613   6.845   1.243  1.00  0.00    -0.272 OA
HETATM    3  N2  UNL     1     -19.944   8.700   1.543  1.00  0.00    -0.351 N 
HETATM    4  C9  UNL     1     -21.156   9.387   1.174  1.00  0.00     0.126 C 
HETATM    5  C10 UNL     1     -22.256   9.160   2.213  1.00  0.00     0.023 C 
HETATM    6  C11 UNL     1     -22.014  10.013   3.441  1.00  0.00     0.052 C 
HETATM    7  C12 UNL     1     -20.729   9.593   4.127  1.00  0.00     0.182 C 
HETATM    8 BR1  UNL     1     -20.612   7.694   4.359  1.00  0.00    -0.054 Br
HETATM    9  C13 UNL     1     -19.553  10.179   3.395  1.00  0.00     0.070 C 
HETATM   10  C14 UNL     1     -18.949   9.142   2.496  1.00  0.00     0.129 C 
ENDROOT
BRANCH   1  11
HETATM   11  C7  UNL     1     -20.567   6.884  -0.067  1.00  0.00     0.225 C 
BRANCH  11  12
HETATM   12  N1  UNL     1     -20.190   7.128  -1.439  1.00  0.00    -0.352 N 
HETATM   13  C6  UNL     1     -21.082   7.585  -2.437  1.00  0.00     0.218 C 
HETATM   14  O1  UNL     1     -22.272   7.778  -2.088  1.00  0.00    -0.274 OA
ATOM     15  H1  UNL     1     -19.220   6.960  -1.705  1.00  0.00     0.162 HD
BRANCH  13  16
HETATM   16  C5  UNL     1     -20.649   7.825  -3.819  1.00  0.00     0.111 C 
BRANCH  16  17
HETATM   17  C2  UNL     1     -20.068   9.171  -4.060  1.00  0.00    -0.043 C 
HETATM   18  C1  UNL     1     -18.607   9.263  -3.687  1.00  0.00     0.015 C 
HETATM   19  C3  UNL     1     -20.821  10.296  -3.413  1.00  0.00     0.015 C 
HETATM   20  C4  UNL     1     -20.133   9.424  -5.575  1.00  0.00     0.015 C 
ENDBRANCH  16  17
ENDBRANCH  13  16
ENDBRANCH  11  12
ENDBRANCH   1  11
BRANCH   7  21
HETATM   21  N3  UNL     1     -20.723  10.193   5.468  1.00  0.00    -0.060 N 
ATOM     22  H33 UNL     1     -21.507   9.884   6.043  1.00  0.00     0.276 HD
ATOM     23  H32 UNL     1     -19.973   9.835   6.060  1.00  0.00     0.276 HD
ATOM     24  H31 UNL     1     -20.689  11.206   5.353  1.00  0.00     0.276 HD
ENDBRANCH   7  21
TORSDOF 5
ENDMDL
MODEL 4
REMARK VINA RESULT: -7.397747490      3.120      3.683
REMARK  5 active torsions:
REMARK  status: ('A' for Active; 'I' for Inactive)
REMARK    1  A    between atoms: C2_2  and  C5_5 
REMARK    2  A    between atoms: C5_5  and  C6_6 
REMARK       I    between atoms: C6_6  and  N1_8 
REMARK    3  A    between atoms: N1_8  and  C7_10 
REMARK    4  A    between atoms: C7_10  and  C8_11 
REMARK       I    between atoms: C8_11  and  N2_13 
REMARK    5  A    between atoms: C12_17  and  N3_18 
ROOT
HETATM    1  C8  UNL     1     -23.348   9.557   4.019  1.00  0.00     0.237 C 
HETATM    2  O2  UNL     1     -23.281  10.804   3.939  1.00  0.00    -0.272 OA
HETATM    3  N2  UNL     1     -22.273   8.835   4.579  1.00  0.00    -0.351 N 
HETATM    4  C9  UNL     1     -22.370   7.398   4.651  1.00  0.00     0.126 C 
HETATM    5  C10 UNL     1     -21.594   6.736   3.510  1.00  0.00     0.023 C 
HETATM    6  C11 UNL     1     -20.107   6.762   3.791  1.00  0.00     0.052 C 
HETATM    7  C12 UNL     1     -19.605   8.193   3.833  1.00  0.00     0.182 C 
HETATM    8 BR1  UNL     1     -20.219   9.226   2.340  1.00  0.00    -0.054 Br
HETATM    9  C13 UNL     1     -19.944   8.806   5.164  1.00  0.00     0.070 C 
HETATM   10  C14 UNL     1     -21.171   9.657   5.031  1.00  0.00     0.129 C 
ENDROOT
BRANCH   1  11
HETATM   11  C7  UNL     1     -24.545   8.863   3.524  1.00  0.00     0.225 C 
BRANCH  11  12
HETATM   12  N1  UNL     1     -25.751   9.138   4.268  1.00  0.00    -0.352 N 
HETATM   13  C6  UNL     1     -26.953   8.405   4.128  1.00  0.00     0.218 C 
HETATM   14  O1  UNL     1     -26.950   7.466   3.296  1.00  0.00    -0.274 OA
ATOM     15  H1  UNL     1     -25.736   9.909   4.936  1.00  0.00     0.162 HD
BRANCH  13  16
HETATM   16  C5  UNL     1     -28.153   8.719   4.914  1.00  0.00     0.111 C 
BRANCH  16  17
HETATM   17  C2  UNL     1     -28.895   9.922   4.455  1.00  0.00    -0.043 C 
HETATM   18  C1  UNL     1     -30.345   9.922   4.879  1.00  0.00     0.015 C 
HETATM   19  C3  UNL     1     -28.806  10.181   2.980  1.00  0.00     0.015 C 
HETATM   20  C4  UNL     1     -28.253  11.136   5.146  1.00  0.00     0.015 C 
ENDBRANCH  16  17
ENDBRANCH  13  16
ENDBRANCH  11  12
ENDBRANCH   1  11
BRANCH   7  21
HETATM   21  N3  UNL     1     -18.138   8.152   3.755  1.00  0.00    -0.060 N 
ATOM     22  H33 UNL     1     -17.690   8.288   4.661  1.00  0.00     0.276 HD
ATOM     23  H32 UNL     1     -17.777   7.218   3.565  1.00  0.00     0.276 HD
ATOM     24  H31 UNL     1     -17.847   8.840   3.060  1.00  0.00     0.276 HD
ENDBRANCH   7  21
TORSDOF 5
ENDMDL
MODEL 5
REMARK VINA RESULT: -7.364518215      2.794      3.742
REMARK  5 active torsions:
REMARK  status: ('A' for Active; 'I' for Inactive)
REMARK    1  A    between atoms: C2_2  and  C5_5 
REMARK    2  A    between atoms: C5_5  and  C6_6 
REMARK       I    between atoms: C6_6  and  N1_8 
REMARK    3  A    between atoms: N1_8  and  C7_10 
REMARK    4  A    between atoms: C7_10  and  C8_11 
REMARK       I    between atoms: C8_11  and  N2_13 
REMARK    5  A    between atoms: C12_17  and  N3_18 
ROOT
HETATM    1  C8  UNL     1     -23.524   8.934   3.013  1.00  0.00     0.237 C 
HETATM    2  O2  UNL     1     -23.697   9.659   2.008  1.00  0.00    -0.272 OA
HETATM    3  N2  UNL     1     -22.326   9.038   3.750  1.00  0.00    -0.351 N 
HETATM    4  C9  UNL     1     -22.147   8.185   4.899  1.00  0.00     0.126 C 
HETATM    5  C10 UNL     1     -21.273   6.977   4.557  1.00  0.00     0.023 C 
HETATM    6  C11 UNL     1     -19.814   7.377   4.486  1.00  0.00     0.052 C 
HETATM    7  C12 UNL     1     -19.593   8.358   3.352  1.00  0.00     0.182 C 
HETATM    8 BR1  UNL     1     -20.409   7.780   1.717  1.00  0.00    -0.054 Br
HETATM    9  C13 UNL     1     -20.027   9.732   3.783  1.00  0.00     0.070 C 
HETATM   10  C14 UNL     1     -21.395  10.023   3.244  1.00  0.00     0.129 C 
ENDROOT
BRANCH   1  11
HETATM   11  C7  UNL     1     -24.574   7.985   3.409  1.00  0.00     0.225 C 
BRANCH  11  12
HETATM   12  N1  UNL     1     -25.668   8.570   4.147  1.00  0.00    -0.352 N 
HETATM   13  C6  UNL     1     -26.986   8.056   4.149  1.00  0.00     0.218 C 
HETATM   14  O1  UNL     1     -27.197   7.032   3.454  1.00  0.00    -0.274 OA
ATOM     15  H1  UNL     1     -25.479   9.405   4.702  1.00  0.00     0.162 HD
BRANCH  13  16
HETATM   16  C5  UNL     1     -28.066   8.683   4.922  1.00  0.00     0.111 C 
BRANCH  16  17
HETATM   17  C2  UNL     1     -28.488  10.018   4.425  1.00  0.00    -0.043 C 
HETATM   18  C1  UNL     1     -28.548  10.098   2.917  1.00  0.00     0.015 C 
HETATM   19  C3  UNL     1     -27.675  11.163   4.954  1.00  0.00     0.015 C 
HETATM   20  C4  UNL     1     -29.926  10.247   4.917  1.00  0.00     0.015 C 
ENDBRANCH  16  17
ENDBRANCH  13  16
ENDBRANCH  11  12
ENDBRANCH   1  11
BRANCH   7  21
HETATM   21  N3  UNL     1     -18.146   8.437   3.107  1.00  0.00    -0.060 N 
ATOM     22  H33 UNL     1     -17.664   9.040   3.774  1.00  0.00     0.276 HD
ATOM     23  H32 UNL     1     -17.658   7.570   3.332  1.00  0.00     0.276 HD
ATOM     24  H31 UNL     1     -18.012   8.729   2.139  1.00  0.00     0.276 HD
ENDBRANCH   7  21
TORSDOF 5
ENDMDL
