MODEL 1
REMARK VINA RESULT: -8.226280867      0.000      0.000
REMARK  4 active torsions:
REMARK  status: ('A' for Active; 'I' for Inactive)
REMARK       I    between atoms: C2_2  and  N1_4 
REMARK    1  A    between atoms: N1_4  and  C3_6 
REMARK    2  A    between atoms: N2_12  and  C9_13 
REMARK    3  A    between atoms: C9_13  and  C10_14 
REMARK       I    between atoms: N3_19  and  C14_20 
REMARK       I    between atoms: C14_20  and  N4_22 
REMARK    4  A    between atoms: N4_22  and  C15_24 
ROOT
HETATM    1  C10 UNL     1     -19.981   8.567   1.006  1.00  0.00     0.120 C 
HETATM    2  C11 UNL     1     -18.624   8.002   1.326  1.00  0.00     0.032 C 
HETATM    3  C12 UNL     1     -17.630   8.791   0.502  1.00  0.00     0.061 C 
HETATM    4  C13 UNL     1     -18.557   9.810  -0.191  1.00  0.00     0.275 C 
HETATM    5  F1  UNL     1     -17.968  10.352  -1.269  1.00  0.00    -0.227 F 
HETATM    6  N3  UNL     1     -19.733   8.997  -0.384  1.00  0.00    -0.296 N 
HETATM    7  C14 UNL     1     -20.420   8.736  -1.556  1.00  0.00     0.321 C 
HETATM    8  O2  UNL     1     -21.479   7.994  -1.445  1.00  0.00    -0.247 OA
HETATM    9  N4  UNL     1     -20.077   9.200  -2.840  1.00  0.00    -0.335 N 
ATOM     10  H4  UNL     1     -19.250   9.785  -2.952  1.00  0.00     0.165 HD
ENDROOT
BRANCH   1  11
HETATM   11  C9  UNL     1     -21.100   7.660   1.238  1.00  0.00     0.298 C 
BRANCH  11  12
HETATM   12  N2  UNL     1     -22.293   8.108   1.809  1.00  0.00     0.095 N 
HETATM   13  C5  UNL     1     -22.289   7.966   3.231  1.00  0.00     0.225 C 
HETATM   14  C4  UNL     1     -23.745   7.671   3.640  1.00  0.00     0.061 C 
HETATM   15  C6  UNL     1     -22.218   9.406   3.728  1.00  0.00     0.044 C 
HETATM   16  C3  UNL     1     -24.473   8.978   3.405  1.00  0.00     0.092 C 
HETATM   17  C7  UNL     1     -23.422   9.875   2.882  1.00  0.00     0.039 C 
HETATM   18  C8  UNL     1     -22.886   9.341   1.541  1.00  0.00     0.279 C 
BRANCH  16  19
HETATM   19  N1  UNL     1     -25.620   8.813   2.547  1.00  0.00    -0.356 N 
HETATM   20  C2  UNL     1     -26.734   9.671   2.726  1.00  0.00     0.213 C 
HETATM   21  C1  UNL     1     -27.934   9.536   1.867  1.00  0.00     0.117 C 
HETATM   22  O1  UNL     1     -26.744  10.569   3.611  1.00  0.00    -0.274 OA
ATOM     23  H1  UNL     1     -25.630   8.093   1.825  1.00  0.00     0.162 HD
ENDBRANCH  16  19
ENDBRANCH  11  12
ENDBRANCH   1  11
BRANCH   9  24
HETATM   24  C15 UNL     1     -20.875   8.865  -4.017  1.00  0.00     0.023 C 
HETATM   25  C16 UNL     1     -22.216   9.577  -3.955  1.00  0.00     0.037 C 
HETATM   26  C17 UNL     1     -20.161   9.393  -5.238  1.00  0.00     0.037 C 
HETATM   27  C18 UNL     1     -21.087   7.399  -4.192  1.00  0.00     0.037 C 
ENDBRANCH   9  24
TORSDOF 4
ENDMDL
MODEL 2
REMARK VINA RESULT: -8.166751378      2.387      2.926
REMARK  4 active torsions:
REMARK  status: ('A' for Active; 'I' for Inactive)
REMARK       I    between atoms: C2_2  and  N1_4 
REMARK    1  A    between atoms: N1_4  and  C3_6 
REMARK    2  A    between atoms: N2_12  and  C9_13 
REMARK    3  A    between atoms: C9_13  and  C10_14 
REMARK       I    between atoms: N3_19  and  C14_20 
REMARK       I    between atoms: C14_20  and  N4_22 
REMARK    4  A    between atoms: N4_22  and  C15_24 
ROOT
HETATM    1  C10 UNL     1     -22.876  11.178   0.619  1.00  0.00     0.120 C 
HETATM    2  C11 UNL     1     -21.869  12.149   1.171  1.00  0.00     0.032 C 
HETATM    3  C12 UNL     1     -21.318  12.910  -0.015  1.00  0.00     0.061 C 
HETATM    4  C13 UNL     1     -22.146  12.308  -1.169  1.00  0.00     0.275 C 
HETATM    5  F1  UNL     1     -21.563  12.532  -2.357  1.00  0.00    -0.227 F 
HETATM    6  N3  UNL     1     -22.274  10.947  -0.709  1.00  0.00    -0.296 N 
HETATM    7  C14 UNL     1     -21.938   9.778  -1.367  1.00  0.00     0.321 C 
HETATM    8  O2  UNL     1     -22.193   8.673  -0.736  1.00  0.00    -0.247 OA
HETATM    9  N4  UNL     1     -21.352   9.683  -2.644  1.00  0.00    -0.335 N 
ATOM     10  H4  UNL     1     -21.144  10.538  -3.159  1.00  0.00     0.165 HD
ENDROOT
BRANCH   1  11
HETATM   11  C9  UNL     1     -23.129  10.008   1.452  1.00  0.00     0.298 C 
BRANCH  11  12
HETATM   12  N2  UNL     1     -24.312   9.879   2.185  1.00  0.00     0.095 N 
HETATM   13  C5  UNL     1     -24.188   8.911   3.229  1.00  0.00     0.225 C 
HETATM   14  C4  UNL     1     -25.576   8.262   3.384  1.00  0.00     0.061 C 
HETATM   15  C6  UNL     1     -24.209   9.757   4.497  1.00  0.00     0.044 C 
HETATM   16  C3  UNL     1     -26.434   9.351   3.993  1.00  0.00     0.092 C 
HETATM   17  C7  UNL     1     -25.510  10.496   4.116  1.00  0.00     0.039 C 
HETATM   18  C8  UNL     1     -25.031  10.945   2.723  1.00  0.00     0.279 C 
BRANCH  16  19
HETATM   19  N1  UNL     1     -27.624   9.603   3.217  1.00  0.00    -0.356 N 
HETATM   20  C2  UNL     1     -28.817   9.956   3.895  1.00  0.00     0.213 C 
HETATM   21  C1  UNL     1     -30.062  10.223   3.138  1.00  0.00     0.117 C 
HETATM   22  O1  UNL     1     -28.862  10.055   5.151  1.00  0.00    -0.274 OA
ATOM     23  H1  UNL     1     -27.606   9.528   2.201  1.00  0.00     0.162 HD
ENDBRANCH  16  19
ENDBRANCH  11  12
ENDBRANCH   1  11
BRANCH   9  24
HETATM   24  C15 UNL     1     -21.036   8.392  -3.250  1.00  0.00     0.023 C 
HETATM   25  C16 UNL     1     -22.307   7.581  -3.437  1.00  0.00     0.037 C 
HETATM   26  C17 UNL     1     -20.477   8.643  -4.631  1.00  0.00     0.037 C 
HETATM   27  C18 UNL     1     -20.038   7.601  -2.474  1.00  0.00     0.037 C 
ENDBRANCH   9  24
TORSDOF 4
ENDMDL
MODEL 3
REMARK VINA RESULT: -8.101703054      2.697      7.513
REMARK  4 active torsions:
REMARK  status: ('A' for Active; 'I' for Inactive)
REMARK       I    between atoms: C2_2  and  N1_4 
REMARK    1  A    between atoms: N1_4  and  C3_6 
REMARK    2  A    between atoms: N2_12  and  C9_13 
REMARK    3  A    between atoms: C9_13  and  C10_14 
REMARK       I    between atoms: N3_19  and  C14_20 
REMARK       I    between atoms: C14_20  and  N4_22 
REMARK    4  A    between atoms: N4_22  and  C15_24 
ROOT
HETATM    1  C10 UNL     1     -21.796   8.432   2.277  1.00  0.00     0.120 C 
HETATM    2  C11 UNL     1     -20.752   8.626   3.343  1.00  0.00     0.032 C 
HETATM    3  C12 UNL     1     -21.212   7.821   4.539  1.00  0.00     0.061 C 
HETATM    4  C13 UNL     1     -22.499   7.174   3.988  1.00  0.00     0.275 C 
HETATM    5  F1  UNL     1     -23.292   6.740   4.981  1.00  0.00    -0.227 F 
HETATM    6  N3  UNL     1     -22.978   8.238   3.139  1.00  0.00    -0.296 N 
HETATM    7  C14 UNL     1     -24.213   8.859   3.146  1.00  0.00     0.321 C 
HETATM    8  O2  UNL     1     -24.400   9.771   2.242  1.00  0.00    -0.247 OA
HETATM    9  N4  UNL     1     -25.271   8.592   4.035  1.00  0.00    -0.335 N 
ATOM     10  H4  UNL     1     -25.148   7.879   4.753  1.00  0.00     0.165 HD
ENDROOT
BRANCH   1  11
HETATM   11  C9  UNL     1     -21.862   9.491   1.276  1.00  0.00     0.298 C 
BRANCH  11  12
HETATM   12  N2  UNL     1     -21.275   9.342   0.017  1.00  0.00     0.095 N 
HETATM   13  C5  UNL     1     -21.948   8.358  -0.771  1.00  0.00     0.225 C 
HETATM   14  C4  UNL     1     -20.869   7.697  -1.650  1.00  0.00     0.061 C 
HETATM   15  C6  UNL     1     -22.628   9.183  -1.858  1.00  0.00     0.044 C 
HETATM   16  C3  UNL     1     -20.490   8.770  -2.649  1.00  0.00     0.092 C 
HETATM   17  C7  UNL     1     -21.333   9.919  -2.265  1.00  0.00     0.039 C 
HETATM   18  C8  UNL     1     -20.971  10.394  -0.845  1.00  0.00     0.279 C 
BRANCH  16  19
HETATM   19  N1  UNL     1     -19.070   9.026  -2.657  1.00  0.00    -0.356 N 
HETATM   20  C2  UNL     1     -18.457   9.428  -3.870  1.00  0.00     0.213 C 
HETATM   21  C1  UNL     1     -17.002   9.701  -3.923  1.00  0.00     0.117 C 
HETATM   22  O1  UNL     1     -19.119   9.566  -4.934  1.00  0.00    -0.274 OA
ATOM     23  H1  UNL     1     -18.519   8.921  -1.806  1.00  0.00     0.162 HD
ENDBRANCH  16  19
ENDBRANCH  11  12
ENDBRANCH   1  11
BRANCH   9  24
HETATM   24  C15 UNL     1     -26.541   9.309   3.956  1.00  0.00     0.023 C 
HETATM   25  C16 UNL     1     -27.083   9.251   2.537  1.00  0.00     0.037 C 
HETATM   26  C17 UNL     1     -27.544   8.594   4.830  1.00  0.00     0.037 C 
HETATM   27  C18 UNL     1     -26.451  10.728   4.407  1.00  0.00     0.037 C 
ENDBRANCH   9  24
TORSDOF 4
ENDMDL
MODEL 4
REMARK VINA RESULT: -8.092469504      3.107      7.312
REMARK  4 active torsions:
REMARK  status: ('A' for Active; 'I' for Inactive)
REMARK       I    between atoms: C2_2  and  N1_4 
REMARK    1  A    between atoms: N1_4  and  C3_6 
REMARK    2  A    between atoms: N2_12  and  C9_13 
REMARK    3  A    between atoms: C9_13  and  C10_14 
REMARK       I    between atoms: N3_19  and  C14_20 
REMARK       I    between atoms: C14_20  and  N4_22 
REMARK    4  A    between atoms: N4_22  and  C15_24 
ROOT
HETATM    1  C10 UNL     1     -21.937  10.217   3.253  1.00  0.00     0.120 C 
HETATM    2  C11 UNL     1     -21.094  10.239   4.499  1.00  0.00     0.032 C 
HETATM    3  C12 UNL     1     -21.484   9.014   5.296  1.00  0.00     0.061 C 
HETATM    4  C13 UNL     1     -22.514   8.358   4.355  1.00  0.00     0.275 C 
HETATM    5  F1  UNL     1     -23.288   7.480   5.013  1.00  0.00    -0.227 F 
HETATM    6  N3  UNL     1     -23.130   9.533   3.789  1.00  0.00    -0.296 N 
HETATM    7  C14 UNL     1     -24.469   9.876   3.758  1.00  0.00     0.321 C 
HETATM    8  O2  UNL     1     -24.762  10.984   3.149  1.00  0.00    -0.247 OA
HETATM    9  N4  UNL     1     -25.528   9.138   4.321  1.00  0.00    -0.335 N 
ATOM     10  H4  UNL     1     -25.323   8.264   4.803  1.00  0.00     0.165 HD
ENDROOT
BRANCH   1  11
HETATM   11  C9  UNL     1     -22.138  11.515   2.619  1.00  0.00     0.298 C 
BRANCH  11  12
HETATM   12  N2  UNL     1     -21.983  11.684   1.240  1.00  0.00     0.095 N 
HETATM   13  C5  UNL     1     -23.231  11.939   0.592  1.00  0.00     0.225 C 
HETATM   14  C4  UNL     1     -23.128  11.306  -0.808  1.00  0.00     0.061 C 
HETATM   15  C6  UNL     1     -23.116  13.400   0.171  1.00  0.00     0.044 C 
HETATM   16  C3  UNL     1     -22.143  12.187  -1.548  1.00  0.00     0.092 C 
HETATM   17  C7  UNL     1     -21.762  13.203  -0.546  1.00  0.00     0.039 C 
HETATM   18  C8  UNL     1     -21.052  12.534   0.646  1.00  0.00     0.279 C 
BRANCH  16  19
HETATM   19  N1  UNL     1     -21.047  11.431  -2.102  1.00  0.00    -0.356 N 
HETATM   20  C2  UNL     1     -21.251  10.721  -3.312  1.00  0.00     0.213 C 
HETATM   21  C1  UNL     1     -20.153   9.931  -3.915  1.00  0.00     0.117 C 
HETATM   22  O1  UNL     1     -22.361  10.737  -3.910  1.00  0.00    -0.274 OA
ATOM     23  H1  UNL     1     -20.142  11.407  -1.632  1.00  0.00     0.162 HD
ENDBRANCH  16  19
ENDBRANCH  11  12
ENDBRANCH   1  11
BRANCH   9  24
HETATM   24  C15 UNL     1     -26.914   9.592   4.231  1.00  0.00     0.023 C 
HETATM   25  C16 UNL     1     -27.343   9.663   2.774  1.00  0.00     0.037 C 
HETATM   26  C17 UNL     1     -27.794   8.557   4.890  1.00  0.00     0.037 C 
HETATM   27  C18 UNL     1     -27.152  10.906   4.895  1.00  0.00     0.037 C 
ENDBRANCH   9  24
TORSDOF 4
ENDMDL
MODEL 5
REMARK VINA RESULT: -8.046522726      3.170      7.365
REMARK  4 active torsions:
REMARK  status: ('A' for Active; 'I' for Inactive)
REMARK       I    between atoms: C2_2  and  N1_4 
REMARK    1  A    between atoms: N1_4  and  C3_6 
REMARK    2  A    between atoms: N2_12  and  C9_13 
REMARK    3  A    between atoms: C9_13  and  C10_14 
REMARK       I    between atoms: N3_19  and  C14_20 
REMARK       I    between atoms: C14_20  and  N4_22 
REMARK    4  A    between atoms: N4_22  and  C15_24 
ROOT
HETATM    1  C10 UNL     1     -21.454  12.300   0.793  1.00  0.00     0.120 C 
HETATM    2  C11 UNL     1     -22.552  12.116  -0.220  1.00  0.00     0.032 C 
HETATM    3  C12 UNL     1     -23.854  12.317   0.525  1.00  0.00     0.061 C 
HETATM    4  C13 UNL     1     -23.341  12.668   1.937  1.00  0.00     0.275 C 
HETATM    5  F1  UNL     1     -24.300  12.497   2.861  1.00  0.00    -0.227 F 
HETATM    6  N3  UNL     1     -22.167  11.833   1.998  1.00  0.00    -0.296 N 
HETATM    7  C14 UNL     1     -21.827  10.888   2.949  1.00  0.00     0.321 C 
HETATM    8  O2  UNL     1     -20.684  10.298   2.786  1.00  0.00    -0.247 OA
HETATM    9  N4  UNL     1     -22.603  10.517   4.063  1.00  0.00    -0.335 N 
ATOM     10  H4  UNL     1     -23.506  10.968   4.213  1.00  0.00     0.165 HD
ENDROOT
BRANCH   1  11
HETATM   11  C9  UNL     1     -20.193  11.646   0.464  1.00  0.00     0.298 C 
BRANCH  11  12
HETATM   12  N2  UNL     1     -20.113  10.685  -0.547  1.00  0.00     0.095 N 
HETATM   13  C5  UNL     1     -19.476  11.197  -1.719  1.00  0.00     0.225 C 
HETATM   14  C4  UNL     1     -20.137  10.486  -2.916  1.00  0.00     0.061 C 
HETATM   15  C6  UNL     1     -18.143  10.457  -1.746  1.00  0.00     0.044 C 
HETATM   16  C3  UNL     1     -19.643   9.058  -2.824  1.00  0.00     0.092 C 
HETATM   17  C7  UNL     1     -18.788   9.060  -1.620  1.00  0.00     0.039 C 
HETATM   18  C8  UNL     1     -19.628   9.390  -0.372  1.00  0.00     0.279 C 
BRANCH  16  19
HETATM   19  N1  UNL     1     -20.728   8.108  -2.804  1.00  0.00    -0.356 N 
HETATM   20  C2  UNL     1     -21.158   7.538  -4.028  1.00  0.00     0.213 C 
HETATM   21  C1  UNL     1     -22.269   6.560  -4.054  1.00  0.00     0.117 C 
HETATM   22  O1  UNL     1     -20.617   7.840  -5.126  1.00  0.00    -0.274 OA
ATOM     23  H1  UNL     1     -21.178   7.852  -1.925  1.00  0.00     0.162 HD
ENDBRANCH  16  19
ENDBRANCH  11  12
ENDBRANCH   1  11
BRANCH   9  24
HETATM   24  C15 UNL     1     -22.150   9.502   5.011  1.00  0.00     0.023 C 
HETATM   25  C16 UNL     1     -20.797   9.893   5.583  1.00  0.00     0.037 C 
HETATM   26  C17 UNL     1     -23.117   9.473   6.171  1.00  0.00     0.037 C 
HETATM   27  C18 UNL     1     -22.077   8.132   4.425  1.00  0.00     0.037 C 
ENDBRANCH   9  24
TORSDOF 4
ENDMDL
