MODEL 1
REMARK VINA RESULT: -8.390781042      0.000      0.000
REMARK  4 active torsions:
REMARK  status: ('A' for Active; 'I' for Inactive)
REMARK       I    between atoms: N1_2  and  C2_4 
REMARK       I    between atoms: C2_4  and  N2_6 
REMARK       I    between atoms: N2_6  and  C3_8 
REMARK       I    between atoms: C3_8  and  N3_10 
REMARK    1  A    between atoms: C6_13  and  C7_14 
REMARK    2  A    between atoms: C7_14  and  C8_15 
REMARK    3  A    between atoms: C8_15  and  N4_16 
REMARK    4  A    between atoms: N4_16  and  C10_18 
ROOT
HETATM    1  C1  UNL     1     -21.655   6.774  -4.383  1.00  0.00     0.151 C 
HETATM    2  N1  UNL     1     -21.662   7.253  -2.990  1.00  0.00    -0.347 N 
ATOM      3  H1  UNL     1     -21.024   6.868  -2.294  1.00  0.00     0.163 HD
HETATM    4  C2  UNL     1     -22.583   8.261  -2.659  1.00  0.00     0.323 C 
HETATM    5  O1  UNL     1     -23.351   8.700  -3.578  1.00  0.00    -0.247 OA
HETATM    6  N2  UNL     1     -22.736   8.838  -1.392  1.00  0.00    -0.261 N 
ATOM      7  H2  UNL     1     -23.449   9.564  -1.318  1.00  0.00     0.175 HD
HETATM    8  C3  UNL     1     -22.036   8.547  -0.206  1.00  0.00     0.326 C 
HETATM    9  O2  UNL     1     -21.137   7.669  -0.226  1.00  0.00    -0.247 OA
HETATM   10  N3  UNL     1     -22.355   9.251   0.994  1.00  0.00    -0.333 N 
HETATM   11  C4  UNL     1     -23.381  10.245   1.018  1.00  0.00     0.128 C 
HETATM   12  C5  UNL     1     -23.722  10.693   2.424  1.00  0.00     0.030 C 
HETATM   13  C6  UNL     1     -23.806   9.516   3.371  1.00  0.00    -0.032 A 
HETATM   14  C15 UNL     1     -23.971   8.177   2.820  1.00  0.00     0.017 A 
HETATM   15  C16 UNL     1     -22.621   8.666   3.336  1.00  0.00     0.013 A 
HETATM   16  C17 UNL     1     -21.638   8.985   2.236  1.00  0.00     0.133 C 
ENDROOT
BRANCH  13  17
HETATM   17  C7  UNL     1     -24.482   9.895   4.697  1.00  0.00     0.040 C 
BRANCH  17  18
HETATM   18  C8  UNL     1     -25.893  10.320   4.466  1.00  0.00     0.273 C 
BRANCH  18  19
HETATM   19  N4  UNL     1     -26.915   9.346   4.537  1.00  0.00     0.089 N 
HETATM   20  C9  UNL     1     -27.672   9.620   5.775  1.00  0.00     0.310 C 
BRANCH  19  21
HETATM   21  C10 UNL     1     -27.800   9.128   3.461  1.00  0.00     0.226 C 
HETATM   22  C11 UNL     1     -29.240   9.371   3.738  1.00  0.00     0.062 C 
HETATM   23  C12 UNL     1     -29.869  10.224   2.611  1.00  0.00     0.169 C 
HETATM   24  O3  UNL     1     -29.540   9.581   1.424  1.00  0.00    -0.391 OA
HETATM   25  C13 UNL     1     -28.235   9.863   1.108  1.00  0.00     0.169 C 
HETATM   26  C14 UNL     1     -27.313   9.989   2.283  1.00  0.00     0.062 C 
ENDBRANCH  19  21
ENDBRANCH  18  19
ENDBRANCH  17  18
ENDBRANCH  13  17
TORSDOF 4
ENDMDL
MODEL 2
REMARK VINA RESULT: -8.014344758      2.445      2.845
REMARK  4 active torsions:
REMARK  status: ('A' for Active; 'I' for Inactive)
REMARK       I    between atoms: N1_2  and  C2_4 
REMARK       I    between atoms: C2_4  and  N2_6 
REMARK       I    between atoms: N2_6  and  C3_8 
REMARK       I    between atoms: C3_8  and  N3_10 
REMARK    1  A    between atoms: C6_13  and  C7_14 
REMARK    2  A    between atoms: C7_14  and  C8_15 
REMARK    3  A    between atoms: C8_15  and  N4_16 
REMARK    4  A    between atoms: N4_16  and  C10_18 
ROOT
HETATM    1  C1  UNL     1     -17.469   9.826  -3.131  1.00  0.00     0.151 C 
HETATM    2  N1  UNL     1     -18.445  10.361  -2.165  1.00  0.00    -0.347 N 
ATOM      3  H1  UNL     1     -18.149  10.936  -1.376  1.00  0.00     0.163 HD
HETATM    4  C2  UNL     1     -19.798  10.048  -2.374  1.00  0.00     0.323 C 
HETATM    5  O1  UNL     1     -20.100   9.327  -3.382  1.00  0.00    -0.247 OA
HETATM    6  N2  UNL     1     -20.863  10.462  -1.564  1.00  0.00    -0.261 N 
ATOM      7  H2  UNL     1     -21.789  10.152  -1.857  1.00  0.00     0.175 HD
HETATM    8  C3  UNL     1     -20.822  11.251  -0.398  1.00  0.00     0.326 C 
HETATM    9  O2  UNL     1     -19.714  11.675   0.015  1.00  0.00    -0.247 OA
HETATM   10  N3  UNL     1     -22.034  11.555   0.291  1.00  0.00    -0.333 N 
HETATM   11  C4  UNL     1     -23.293  11.069  -0.176  1.00  0.00     0.128 C 
HETATM   12  C5  UNL     1     -24.411  11.300   0.820  1.00  0.00     0.030 C 
HETATM   13  C6  UNL     1     -23.966  10.977   2.230  1.00  0.00    -0.032 A 
HETATM   14  C15 UNL     1     -22.784  10.147   2.425  1.00  0.00     0.017 A 
HETATM   15  C16 UNL     1     -22.735  11.661   2.614  1.00  0.00     0.013 A 
HETATM   16  C17 UNL     1     -22.029  12.383   1.492  1.00  0.00     0.133 C 
ENDROOT
BRANCH  13  17
HETATM   17  C7  UNL     1     -25.156  10.867   3.195  1.00  0.00     0.040 C 
BRANCH  17  18
HETATM   18  C8  UNL     1     -25.528   9.438   3.411  1.00  0.00     0.273 C 
BRANCH  18  19
HETATM   19  N4  UNL     1     -26.803   8.999   2.989  1.00  0.00     0.089 N 
HETATM   20  C9  UNL     1     -27.054   7.716   3.676  1.00  0.00     0.310 C 
BRANCH  19  21
HETATM   21  C10 UNL     1     -27.938   9.833   3.081  1.00  0.00     0.226 C 
HETATM   22  C11 UNL     1     -28.748   9.974   1.843  1.00  0.00     0.062 C 
HETATM   23  C12 UNL     1     -30.252   9.794   2.161  1.00  0.00     0.169 C 
HETATM   24  O3  UNL     1     -30.521  10.662   3.212  1.00  0.00    -0.391 OA
HETATM   25  C13 UNL     1     -30.059  10.109   4.379  1.00  0.00     0.169 C 
HETATM   26  C14 UNL     1     -28.796   9.313   4.246  1.00  0.00     0.062 C 
ENDBRANCH  19  21
ENDBRANCH  18  19
ENDBRANCH  17  18
ENDBRANCH  13  17
TORSDOF 4
ENDMDL
MODEL 3
REMARK VINA RESULT: -7.955463267      3.162      3.392
REMARK  4 active torsions:
REMARK  status: ('A' for Active; 'I' for Inactive)
REMARK       I    between atoms: N1_2  and  C2_4 
REMARK       I    between atoms: C2_4  and  N2_6 
REMARK       I    between atoms: N2_6  and  C3_8 
REMARK       I    between atoms: C3_8  and  N3_10 
REMARK    1  A    between atoms: C6_13  and  C7_14 
REMARK    2  A    between atoms: C7_14  and  C8_15 
REMARK    3  A    between atoms: C8_15  and  N4_16 
REMARK    4  A    between atoms: N4_16  and  C10_18 
ROOT
HETATM    1  C1  UNL     1     -16.511   9.476   0.241  1.00  0.00     0.151 C 
HETATM    2  N1  UNL     1     -17.686   9.664   1.111  1.00  0.00    -0.347 N 
ATOM      3  H1  UNL     1     -17.738   9.230   2.032  1.00  0.00     0.163 HD
HETATM    4  C2  UNL     1     -18.731  10.465   0.620  1.00  0.00     0.323 C 
HETATM    5  O1  UNL     1     -18.601  10.979  -0.539  1.00  0.00    -0.247 OA
HETATM    6  N2  UNL     1     -19.921  10.754   1.300  1.00  0.00    -0.261 N 
ATOM      7  H2  UNL     1     -20.578  11.357   0.805  1.00  0.00     0.175 HD
HETATM    8  C3  UNL     1     -20.329  10.321   2.576  1.00  0.00     0.326 C 
HETATM    9  O2  UNL     1     -19.564   9.583   3.245  1.00  0.00    -0.247 OA
HETATM   10  N3  UNL     1     -21.598  10.728   3.087  1.00  0.00    -0.333 N 
HETATM   11  C4  UNL     1     -22.470  11.562   2.324  1.00  0.00     0.128 C 
HETATM   12  C5  UNL     1     -23.850  11.677   2.938  1.00  0.00     0.030 C 
HETATM   13  C6  UNL     1     -24.347  10.333   3.426  1.00  0.00    -0.032 A 
HETATM   14  C15 UNL     1     -23.717   9.121   2.920  1.00  0.00     0.017 A 
HETATM   15  C16 UNL     1     -23.403   9.660   4.312  1.00  0.00     0.013 A 
HETATM   16  C17 UNL     1     -22.045  10.310   4.411  1.00  0.00     0.133 C 
ENDROOT
BRANCH  13  17
HETATM   17  C7  UNL     1     -25.853  10.355   3.727  1.00  0.00     0.040 C 
BRANCH  17  18
HETATM   18  C8  UNL     1     -26.632   9.874   2.549  1.00  0.00     0.273 C 
BRANCH  18  19
HETATM   19  N4  UNL     1     -27.535   8.801   2.726  1.00  0.00     0.089 N 
HETATM   20  C9  UNL     1     -27.040   8.022   3.878  1.00  0.00     0.310 C 
BRANCH  19  21
HETATM   21  C10 UNL     1     -28.923   9.019   2.843  1.00  0.00     0.226 C 
HETATM   22  C11 UNL     1     -29.413   9.411   4.190  1.00  0.00     0.062 C 
HETATM   23  C12 UNL     1     -30.374  10.619   4.083  1.00  0.00     0.169 C 
HETATM   24  O3  UNL     1     -31.320  10.264   3.130  1.00  0.00    -0.391 OA
HETATM   25  C13 UNL     1     -30.773  10.403   1.880  1.00  0.00     0.169 C 
HETATM   26  C14 UNL     1     -29.315  10.066   1.787  1.00  0.00     0.062 C 
ENDBRANCH  19  21
ENDBRANCH  18  19
ENDBRANCH  17  18
ENDBRANCH  13  17
TORSDOF 4
ENDMDL
MODEL 4
REMARK VINA RESULT: -7.892701815      1.675      1.811
REMARK  4 active torsions:
REMARK  status: ('A' for Active; 'I' for Inactive)
REMARK       I    between atoms: N1_2  and  C2_4 
REMARK       I    between atoms: C2_4  and  N2_6 
REMARK       I    between atoms: N2_6  and  C3_8 
REMARK       I    between atoms: C3_8  and  N3_10 
REMARK    1  A    between atoms: C6_13  and  C7_14 
REMARK    2  A    between atoms: C7_14  and  C8_15 
REMARK    3  A    between atoms: C8_15  and  N4_16 
REMARK    4  A    between atoms: N4_16  and  C10_18 
ROOT
HETATM    1  C1  UNL     1     -19.968   9.442  -4.571  1.00  0.00     0.151 C 
HETATM    2  N1  UNL     1     -20.391   9.708  -3.184  1.00  0.00    -0.347 N 
ATOM      3  H1  UNL     1     -19.734   9.641  -2.407  1.00  0.00     0.163 HD
HETATM    4  C2  UNL     1     -21.736  10.058  -2.976  1.00  0.00     0.323 C 
HETATM    5  O1  UNL     1     -22.504  10.127  -3.992  1.00  0.00    -0.247 OA
HETATM    6  N2  UNL     1     -22.319  10.344  -1.735  1.00  0.00    -0.261 N 
ATOM      7  H2  UNL     1     -23.309  10.586  -1.756  1.00  0.00     0.175 HD
HETATM    8  C3  UNL     1     -21.716  10.340  -0.462  1.00  0.00     0.326 C 
HETATM    9  O2  UNL     1     -20.496  10.059  -0.364  1.00  0.00    -0.247 OA
HETATM   10  N3  UNL     1     -22.498  10.655   0.689  1.00  0.00    -0.333 N 
HETATM   11  C4  UNL     1     -23.887  10.969   0.578  1.00  0.00     0.128 C 
HETATM   12  C5  UNL     1     -24.577  11.035   1.925  1.00  0.00     0.030 C 
HETATM   13  C6  UNL     1     -24.143   9.896   2.821  1.00  0.00    -0.032 A 
HETATM   14  C15 UNL     1     -23.514   8.727   2.222  1.00  0.00     0.017 A 
HETATM   15  C16 UNL     1     -22.694   9.788   2.950  1.00  0.00     0.013 A 
HETATM   16  C17 UNL     1     -21.902  10.676   2.021  1.00  0.00     0.133 C 
ENDROOT
BRANCH  13  17
HETATM   17  C7  UNL     1     -25.070   9.739   4.036  1.00  0.00     0.040 C 
BRANCH  17  18
HETATM   18  C8  UNL     1     -26.479  10.059   3.668  1.00  0.00     0.273 C 
BRANCH  18  19
HETATM   19  N4  UNL     1     -27.287   9.035   3.122  1.00  0.00     0.089 N 
HETATM   20  C9  UNL     1     -26.879   7.781   3.785  1.00  0.00     0.310 C 
BRANCH  19  21
HETATM   21  C10 UNL     1     -28.693   9.141   3.097  1.00  0.00     0.226 C 
HETATM   22  C11 UNL     1     -29.349   9.457   4.393  1.00  0.00     0.062 C 
HETATM   23  C12 UNL     1     -30.387  10.589   4.209  1.00  0.00     0.169 C 
HETATM   24  O3  UNL     1     -31.199  10.188   3.155  1.00  0.00    -0.391 OA
HETATM   25  C13 UNL     1     -30.538  10.403   1.972  1.00  0.00     0.169 C 
HETATM   26  C14 UNL     1     -29.056  10.183   2.027  1.00  0.00     0.062 C 
ENDBRANCH  19  21
ENDBRANCH  18  19
ENDBRANCH  17  18
ENDBRANCH  13  17
TORSDOF 4
ENDMDL
MODEL 5
REMARK VINA RESULT: -7.819997982      1.831      7.425
REMARK  4 active torsions:
REMARK  status: ('A' for Active; 'I' for Inactive)
REMARK       I    between atoms: N1_2  and  C2_4 
REMARK       I    between atoms: C2_4  and  N2_6 
REMARK       I    between atoms: N2_6  and  C3_8 
REMARK       I    between atoms: C3_8  and  N3_10 
REMARK    1  A    between atoms: C6_13  and  C7_14 
REMARK    2  A    between atoms: C7_14  and  C8_15 
REMARK    3  A    between atoms: C8_15  and  N4_16 
REMARK    4  A    between atoms: N4_16  and  C10_18 
ROOT
HETATM    1  C1  UNL     1     -30.168  10.470   3.909  1.00  0.00     0.151 C 
HETATM    2  N1  UNL     1     -28.695  10.412   3.928  1.00  0.00    -0.347 N 
ATOM      3  H1  UNL     1     -28.139  11.185   4.293  1.00  0.00     0.163 HD
HETATM    4  C2  UNL     1     -28.088   9.250   3.423  1.00  0.00     0.323 C 
HETATM    5  O1  UNL     1     -28.843   8.320   2.984  1.00  0.00    -0.247 OA
HETATM    6  N2  UNL     1     -26.709   9.015   3.358  1.00  0.00    -0.261 N 
ATOM      7  H2  UNL     1     -26.430   8.116   2.967  1.00  0.00     0.175 HD
HETATM    8  C3  UNL     1     -25.657   9.859   3.762  1.00  0.00     0.326 C 
HETATM    9  O2  UNL     1     -25.928  10.980   4.261  1.00  0.00    -0.247 OA
HETATM   10  N3  UNL     1     -24.306   9.429   3.599  1.00  0.00    -0.333 N 
HETATM   11  C4  UNL     1     -23.997   8.158   3.027  1.00  0.00     0.128 C 
HETATM   12  C5  UNL     1     -22.521   7.999   2.725  1.00  0.00     0.030 C 
HETATM   13  C6  UNL     1     -21.950   9.253   2.100  1.00  0.00    -0.032 A 
HETATM   14  C15 UNL     1     -22.861  10.223   1.506  1.00  0.00     0.017 A 
HETATM   15  C16 UNL     1     -22.228  10.458   2.875  1.00  0.00     0.013 A 
HETATM   16  C17 UNL     1     -23.192  10.272   4.021  1.00  0.00     0.133 C 
ENDROOT
BRANCH  13  17
HETATM   17  C7  UNL     1     -20.570   9.003   1.473  1.00  0.00     0.040 C 
BRANCH  17  18
HETATM   18  C8  UNL     1     -20.590   9.312   0.014  1.00  0.00     0.273 C 
BRANCH  18  19
HETATM   19  N4  UNL     1     -20.180   8.312  -0.896  1.00  0.00     0.089 N 
HETATM   20  C9  UNL     1     -19.474   7.286  -0.102  1.00  0.00     0.310 C 
BRANCH  19  21
HETATM   21  C10 UNL     1     -21.094   7.701  -1.781  1.00  0.00     0.226 C 
HETATM   22  C11 UNL     1     -22.447   8.313  -1.849  1.00  0.00     0.062 C 
HETATM   23  C12 UNL     1     -22.878   8.500  -3.323  1.00  0.00     0.169 C 
HETATM   24  O3  UNL     1     -22.698   7.262  -3.928  1.00  0.00    -0.391 OA
HETATM   25  C13 UNL     1     -21.363   7.081  -4.190  1.00  0.00     0.169 C 
HETATM   26  C14 UNL     1     -20.434   7.664  -3.169  1.00  0.00     0.062 C 
ENDBRANCH  19  21
ENDBRANCH  18  19
ENDBRANCH  17  18
ENDBRANCH  13  17
TORSDOF 4
ENDMDL
