MODEL 1
REMARK VINA RESULT: -9.000838663      0.000      0.000
REMARK  4 active torsions:
REMARK  status: ('A' for Active; 'I' for Inactive)
REMARK       I    between atoms: N1_2  and  C2_3 
REMARK    1  A    between atoms: N1_2  and  C11_20 
REMARK       I    between atoms: C2_3  and  N3_7 
REMARK    2  A    between atoms: C3_8  and  C4_9 
REMARK    3  A    between atoms: C4_9  and  C5_10 
REMARK    4  A    between atoms: C5_10  and  O1_11 
ROOT
HETATM    1  C1  UNL     1     -20.777   8.145  -0.273  1.00  0.00     0.175 C 
HETATM    2  N1  UNL     1     -20.821   9.620  -0.264  1.00  0.00    -0.191 N 
HETATM    3  C2  UNL     1     -20.887  10.204   1.037  1.00  0.00     0.695 C 
HETATM    4  N2  UNL     1     -19.847  10.972   1.254  1.00  0.00    -0.233 N 
ATOM      5  H21 UNL     1     -19.895  11.389   2.184  1.00  0.00     0.174 HD
ATOM      6  H22 UNL     1     -19.118  11.168   0.568  1.00  0.00     0.174 HD
HETATM    7  N3  UNL     1     -21.899   9.932   1.991  1.00  0.00    -0.114 N 
HETATM    8  C3  UNL     1     -23.350  10.319   1.780  1.00  0.00     0.133 C 
HETATM    9  C6  UNL     1     -24.118   9.745   2.955  1.00  0.00     0.021 C 
HETATM   10  C7  UNL     1     -23.982   8.226   2.985  1.00  0.00     0.029 C 
HETATM   11  C8  UNL     1     -22.422   7.919   3.242  1.00  0.00     0.153 C 
HETATM   12  N4  UNL     1     -22.014   9.293   3.218  1.00  0.00    -0.244 N 
HETATM   13  C9  UNL     1     -22.185   9.999   4.403  1.00  0.00     0.239 C 
HETATM   14  O2  UNL     1     -21.635  10.472   5.402  1.00  0.00    -0.272 OA
HETATM   15  C10 UNL     1     -23.765  10.245   4.334  1.00  0.00     0.111 C 
ENDROOT
BRANCH   2  16
HETATM   16  C11 UNL     1     -20.748  10.258  -1.530  1.00  0.00     0.040 C 
HETATM   17  C12 UNL     1     -21.918  10.210  -2.420  1.00  0.00     0.057 C 
HETATM   18  C13 UNL     1     -21.765   9.737  -3.819  1.00  0.00     0.014 C 
HETATM   19  C14 UNL     1     -20.608   8.869  -4.159  1.00  0.00    -0.044 C 
HETATM   20  C15 UNL     1     -21.021   7.498  -4.620  1.00  0.00     0.015 C 
HETATM   21  C16 UNL     1     -19.803   9.481  -5.293  1.00  0.00     0.015 C 
HETATM   22  C17 UNL     1     -19.643   8.690  -3.007  1.00  0.00     0.052 C 
HETATM   23  C18 UNL     1     -19.497  10.024  -2.316  1.00  0.00     0.217 C 
HETATM   24  F1  UNL     1     -18.323  10.207  -1.686  1.00  0.00    -0.243 F 
ENDBRANCH   2  16
BRANCH   8  25
HETATM   25  C4  UNL     1     -23.661  11.661   1.406  1.00  0.00     0.054 C 
BRANCH  25  26
HETATM   26  C5  UNL     1     -23.203  12.873   2.105  1.00  0.00     0.166 C 
BRANCH  26  27
HETATM   27  O1  UNL     1     -21.956  13.362   1.796  1.00  0.00    -0.401 OA
ATOM     28  H1  UNL     1     -21.883  13.970   1.070  1.00  0.00     0.209 HD
ENDBRANCH  26  27
ENDBRANCH  25  26
ENDBRANCH   8  25
TORSDOF 4
ENDMDL
MODEL 2
REMARK VINA RESULT: -8.905466594      2.123      3.218
REMARK  4 active torsions:
REMARK  status: ('A' for Active; 'I' for Inactive)
REMARK       I    between atoms: N1_2  and  C2_3 
REMARK    1  A    between atoms: N1_2  and  C11_20 
REMARK       I    between atoms: C2_3  and  N3_7 
REMARK    2  A    between atoms: C3_8  and  C4_9 
REMARK    3  A    between atoms: C4_9  and  C5_10 
REMARK    4  A    between atoms: C5_10  and  O1_11 
ROOT
HETATM    1  C1  UNL     1     -21.704  12.631   0.098  1.00  0.00     0.175 C 
HETATM    2  N1  UNL     1     -21.665  11.414  -0.737  1.00  0.00    -0.191 N 
HETATM    3  C2  UNL     1     -22.317  10.281  -0.164  1.00  0.00     0.695 C 
HETATM    4  N2  UNL     1     -23.303   9.878  -0.928  1.00  0.00    -0.233 N 
ATOM      5  H21 UNL     1     -23.768   9.068  -0.518  1.00  0.00     0.174 HD
ATOM      6  H22 UNL     1     -23.539  10.285  -1.833  1.00  0.00     0.174 HD
HETATM    7  N3  UNL     1     -21.989   9.714   1.093  1.00  0.00    -0.114 N 
HETATM    8  C3  UNL     1     -20.657   9.045   1.370  1.00  0.00     0.133 C 
HETATM    9  C6  UNL     1     -20.657   8.693   2.845  1.00  0.00     0.021 C 
HETATM   10  C7  UNL     1     -20.794   9.955   3.691  1.00  0.00     0.029 C 
HETATM   11  C8  UNL     1     -22.243  10.570   3.350  1.00  0.00     0.153 C 
HETATM   12  N4  UNL     1     -22.566   9.594   2.350  1.00  0.00    -0.244 N 
HETATM   13  C9  UNL     1     -23.066   8.385   2.820  1.00  0.00     0.239 C 
HETATM   14  O2  UNL     1     -24.070   7.684   2.977  1.00  0.00    -0.272 OA
HETATM   15  C10 UNL     1     -21.703   7.721   3.332  1.00  0.00     0.111 C 
ENDROOT
BRANCH   2  16
HETATM   16  C11 UNL     1     -21.032  11.541  -2.001  1.00  0.00     0.040 C 
HETATM   17  C12 UNL     1     -21.802  11.240  -3.217  1.00  0.00     0.057 C 
HETATM   18  C13 UNL     1     -21.266  10.282  -4.216  1.00  0.00     0.014 C 
HETATM   19  C14 UNL     1     -20.257   9.283  -3.779  1.00  0.00    -0.044 C 
HETATM   20  C15 UNL     1     -20.742   7.865  -3.911  1.00  0.00     0.015 C 
HETATM   21  C16 UNL     1     -19.003   9.390  -4.631  1.00  0.00     0.015 C 
HETATM   22  C17 UNL     1     -19.809   9.480  -2.347  1.00  0.00     0.052 C 
HETATM   23  C18 UNL     1     -19.657  10.963  -2.111  1.00  0.00     0.217 C 
HETATM   24  F1  UNL     1     -18.765  11.294  -1.161  1.00  0.00    -0.243 F 
ENDBRANCH   2  16
BRANCH   8  25
HETATM   25  C4  UNL     1     -20.186   8.041   0.471  1.00  0.00     0.054 C 
BRANCH  25  26
HETATM   26  C5  UNL     1     -20.873   6.776   0.166  1.00  0.00     0.166 C 
BRANCH  26  27
HETATM   27  O1  UNL     1     -22.098   6.840  -0.455  1.00  0.00    -0.401 OA
ATOM     28  H1  UNL     1     -22.801   6.303  -0.109  1.00  0.00     0.209 HD
ENDBRANCH  26  27
ENDBRANCH  25  26
ENDBRANCH   8  25
TORSDOF 4
ENDMDL
MODEL 3
REMARK VINA RESULT: -8.903823477      2.129      3.262
REMARK  4 active torsions:
REMARK  status: ('A' for Active; 'I' for Inactive)
REMARK       I    between atoms: N1_2  and  C2_3 
REMARK    1  A    between atoms: N1_2  and  C11_20 
REMARK       I    between atoms: C2_3  and  N3_7 
REMARK    2  A    between atoms: C3_8  and  C4_9 
REMARK    3  A    between atoms: C4_9  and  C5_10 
REMARK    4  A    between atoms: C5_10  and  O1_11 
ROOT
HETATM    1  C1  UNL     1     -22.273  12.691  -0.228  1.00  0.00     0.175 C 
HETATM    2  N1  UNL     1     -21.943  11.434  -0.928  1.00  0.00    -0.191 N 
HETATM    3  C2  UNL     1     -22.447  10.255  -0.300  1.00  0.00     0.695 C 
HETATM    4  N2  UNL     1     -23.267   9.618  -1.099  1.00  0.00    -0.233 N 
ATOM      5  H21 UNL     1     -23.626   8.776  -0.650  1.00  0.00     0.174 HD
ATOM      6  H22 UNL     1     -23.475   9.898  -2.057  1.00  0.00     0.174 HD
HETATM    7  N3  UNL     1     -22.157   9.867   1.032  1.00  0.00    -0.114 N 
HETATM    8  C3  UNL     1     -20.765   9.474   1.488  1.00  0.00     0.133 C 
HETATM    9  C6  UNL     1     -20.855   9.256   2.986  1.00  0.00     0.021 C 
HETATM   10  C7  UNL     1     -21.291  10.540   3.684  1.00  0.00     0.029 C 
HETATM   11  C8  UNL     1     -22.781  10.854   3.160  1.00  0.00     0.153 C 
HETATM   12  N4  UNL     1     -22.829   9.753   2.242  1.00  0.00    -0.244 N 
HETATM   13  C9  UNL     1     -23.161   8.520   2.788  1.00  0.00     0.239 C 
HETATM   14  O2  UNL     1     -24.041   7.666   2.931  1.00  0.00    -0.272 OA
HETATM   15  C10 UNL     1     -21.764   8.158   3.480  1.00  0.00     0.111 C 
ENDROOT
BRANCH   2  16
HETATM   16  C11 UNL     1     -21.216  11.563  -2.140  1.00  0.00     0.040 C 
HETATM   17  C12 UNL     1     -21.884  11.241  -3.410  1.00  0.00     0.057 C 
HETATM   18  C13 UNL     1     -21.255  10.285  -4.356  1.00  0.00     0.014 C 
HETATM   19  C14 UNL     1     -20.266   9.307  -3.834  1.00  0.00    -0.044 C 
HETATM   20  C15 UNL     1     -20.715   7.880  -3.991  1.00  0.00     0.015 C 
HETATM   21  C16 UNL     1     -18.952   9.431  -4.587  1.00  0.00     0.015 C 
HETATM   22  C17 UNL     1     -19.935   9.522  -2.372  1.00  0.00     0.052 C 
HETATM   23  C18 UNL     1     -19.826  11.009  -2.138  1.00  0.00     0.217 C 
HETATM   24  F1  UNL     1     -19.017  11.362  -1.124  1.00  0.00    -0.243 F 
ENDBRANCH   2  16
BRANCH   8  25
HETATM   25  C4  UNL     1     -20.041   8.497   0.741  1.00  0.00     0.054 C 
BRANCH  25  26
HETATM   26  C5  UNL     1     -18.686   8.013   1.050  1.00  0.00     0.166 C 
BRANCH  26  27
HETATM   27  O1  UNL     1     -18.529   6.679   1.339  1.00  0.00    -0.401 OA
ATOM     28  H1  UNL     1     -18.175   6.446   2.190  1.00  0.00     0.209 HD
ENDBRANCH  26  27
ENDBRANCH  25  26
ENDBRANCH   8  25
TORSDOF 4
ENDMDL
MODEL 4
REMARK VINA RESULT: -8.765054780      1.080      1.140
REMARK  4 active torsions:
REMARK  status: ('A' for Active; 'I' for Inactive)
REMARK       I    between atoms: N1_2  and  C2_3 
REMARK    1  A    between atoms: N1_2  and  C11_20 
REMARK       I    between atoms: C2_3  and  N3_7 
REMARK    2  A    between atoms: C3_8  and  C4_9 
REMARK    3  A    between atoms: C4_9  and  C5_10 
REMARK    4  A    between atoms: C5_10  and  O1_11 
ROOT
HETATM    1  C1  UNL     1     -20.714   8.056  -0.105  1.00  0.00     0.175 C 
HETATM    2  N1  UNL     1     -20.960   9.511  -0.142  1.00  0.00    -0.191 N 
HETATM    3  C2  UNL     1     -21.060  10.128   1.142  1.00  0.00     0.695 C 
HETATM    4  N2  UNL     1     -20.129  11.038   1.292  1.00  0.00    -0.233 N 
ATOM      5  H21 UNL     1     -20.200  11.479   2.209  1.00  0.00     0.174 HD
ATOM      6  H22 UNL     1     -19.459  11.306   0.571  1.00  0.00     0.174 HD
HETATM    7  N3  UNL     1     -21.991   9.757   2.144  1.00  0.00    -0.114 N 
HETATM    8  C3  UNL     1     -23.488   9.934   1.979  1.00  0.00     0.133 C 
HETATM    9  C6  UNL     1     -24.126   9.305   3.202  1.00  0.00     0.021 C 
HETATM   10  C7  UNL     1     -23.782   7.820   3.275  1.00  0.00     0.029 C 
HETATM   11  C8  UNL     1     -22.186   7.738   3.479  1.00  0.00     0.153 C 
HETATM   12  N4  UNL     1     -21.973   9.154   3.395  1.00  0.00    -0.244 N 
HETATM   13  C9  UNL     1     -22.197   9.873   4.562  1.00  0.00     0.239 C 
HETATM   14  O2  UNL     1     -21.682  10.454   5.523  1.00  0.00    -0.272 OA
HETATM   15  C10 UNL     1     -23.797   9.899   4.549  1.00  0.00     0.111 C 
ENDROOT
BRANCH   2  16
HETATM   16  C11 UNL     1     -21.021  10.105  -1.429  1.00  0.00     0.040 C 
HETATM   17  C12 UNL     1     -22.217   9.890  -2.257  1.00  0.00     0.057 C 
HETATM   18  C13 UNL     1     -22.075   9.386  -3.647  1.00  0.00     0.014 C 
HETATM   19  C14 UNL     1     -20.842   8.645  -4.017  1.00  0.00    -0.044 C 
HETATM   20  C15 UNL     1     -21.114   7.219  -4.413  1.00  0.00     0.015 C 
HETATM   21  C16 UNL     1     -20.167   9.302  -5.209  1.00  0.00     0.015 C 
HETATM   22  C17 UNL     1     -19.810   8.620  -2.910  1.00  0.00     0.052 C 
HETATM   23  C18 UNL     1     -19.789   9.987  -2.269  1.00  0.00     0.217 C 
HETATM   24  F1  UNL     1     -18.617  10.327  -1.706  1.00  0.00    -0.243 F 
ENDBRANCH   2  16
BRANCH   8  25
HETATM   25  C4  UNL     1     -23.993  11.206   1.576  1.00  0.00     0.054 C 
BRANCH  25  26
HETATM   26  C5  UNL     1     -24.387  11.576   0.207  1.00  0.00     0.166 C 
BRANCH  26  27
HETATM   27  O1  UNL     1     -25.216  10.720  -0.480  1.00  0.00    -0.401 OA
ATOM     28  H1  UNL     1     -26.037  10.472  -0.071  1.00  0.00     0.209 HD
ENDBRANCH  26  27
ENDBRANCH  25  26
ENDBRANCH   8  25
TORSDOF 4
ENDMDL
MODEL 5
REMARK VINA RESULT: -8.580394350      2.287      6.219
REMARK  4 active torsions:
REMARK  status: ('A' for Active; 'I' for Inactive)
REMARK       I    between atoms: N1_2  and  C2_3 
REMARK    1  A    between atoms: N1_2  and  C11_20 
REMARK       I    between atoms: C2_3  and  N3_7 
REMARK    2  A    between atoms: C3_8  and  C4_9 
REMARK    3  A    between atoms: C4_9  and  C5_10 
REMARK    4  A    between atoms: C5_10  and  O1_11 
ROOT
HETATM    1  C1  UNL     1     -19.120   7.414   0.764  1.00  0.00     0.175 C 
HETATM    2  N1  UNL     1     -20.342   8.014   1.333  1.00  0.00    -0.191 N 
HETATM    3  C2  UNL     1     -21.332   8.372   0.368  1.00  0.00     0.695 C 
HETATM    4  N2  UNL     1     -22.446   7.716   0.581  1.00  0.00    -0.233 N 
ATOM      5  H21 UNL     1     -23.153   7.972  -0.108  1.00  0.00     0.174 HD
ATOM      6  H22 UNL     1     -22.602   7.077   1.361  1.00  0.00     0.174 HD
HETATM    7  N3  UNL     1     -21.116   9.260  -0.716  1.00  0.00    -0.114 N 
HETATM    8  C3  UNL     1     -20.820  10.735  -0.522  1.00  0.00     0.133 C 
HETATM    9  C6  UNL     1     -20.530  11.294  -1.902  1.00  0.00     0.021 C 
HETATM   10  C7  UNL     1     -19.321  10.594  -2.514  1.00  0.00     0.029 C 
HETATM   11  C8  UNL     1     -19.743   9.052  -2.707  1.00  0.00     0.153 C 
HETATM   12  N4  UNL     1     -21.035   9.195  -2.100  1.00  0.00    -0.244 N 
HETATM   13  C9  UNL     1     -22.040   9.689  -2.922  1.00  0.00     0.239 C 
HETATM   14  O2  UNL     1     -23.042   9.418  -3.590  1.00  0.00    -0.272 OA
HETATM   15  C10 UNL     1     -21.636  11.237  -2.926  1.00  0.00     0.111 C 
ENDROOT
BRANCH   2  16
HETATM   16  C11 UNL     1     -20.392   8.116   2.747  1.00  0.00     0.040 C 
HETATM   17  C12 UNL     1     -21.172   7.127   3.506  1.00  0.00     0.057 C 
HETATM   18  C13 UNL     1     -22.193   7.582   4.485  1.00  0.00     0.014 C 
HETATM   19  C14 UNL     1     -22.767   8.944   4.339  1.00  0.00    -0.044 C 
HETATM   20  C15 UNL     1     -24.246   8.928   4.062  1.00  0.00     0.015 C 
HETATM   21  C16 UNL     1     -22.578   9.738   5.620  1.00  0.00     0.015 C 
HETATM   22  C17 UNL     1     -22.107   9.751   3.242  1.00  0.00     0.052 C 
HETATM   23  C18 UNL     1     -20.623   9.485   3.303  1.00  0.00     0.217 C 
HETATM   24  F1  UNL     1     -19.852  10.484   2.838  1.00  0.00    -0.243 F 
ENDBRANCH   2  16
BRANCH   8  25
HETATM   25  C4  UNL     1     -21.677  11.509   0.316  1.00  0.00     0.054 C 
BRANCH  25  26
HETATM   26  C5  UNL     1     -21.717  12.978   0.376  1.00  0.00     0.166 C 
BRANCH  26  27
HETATM   27  O1  UNL     1     -20.547  13.644   0.660  1.00  0.00    -0.401 OA
ATOM     28  H1  UNL     1     -20.480  14.089   1.496  1.00  0.00     0.209 HD
ENDBRANCH  26  27
ENDBRANCH  25  26
ENDBRANCH   8  25
TORSDOF 4
ENDMDL
