MODEL 1
REMARK VINA RESULT: -9.244331478      0.000      0.000
REMARK  3 active torsions:
REMARK  status: ('A' for Active; 'I' for Inactive)
REMARK    1  A    between atoms: C6_7  and  N1_8 
REMARK    2  A    between atoms: C6_7  and  C12_18 
REMARK       I    between atoms: N1_8  and  C7_10 
REMARK       I    between atoms: C7_10  and  N2_12 
REMARK       I    between atoms: C12_18  and  N3_20 
REMARK    3  A    between atoms: N3_20  and  C13_22 
ROOT
HETATM    1  C1  UNL     1     -20.414   8.847   4.641  1.00  0.00     0.053 C 
HETATM    2  C2  UNL     1     -21.573   8.645   3.694  1.00  0.00     0.110 C 
HETATM    3  F1  UNL     1     -21.176   7.862   2.641  1.00  0.00    -0.242 F 
HETATM    4  C3  UNL     1     -22.821   7.998   4.307  1.00  0.00     0.029 C 
HETATM    5  C4  UNL     1     -23.131   9.370   4.818  1.00  0.00     0.019 C 
HETATM    6  C5  UNL     1     -22.487   9.780   3.470  1.00  0.00     0.063 C 
HETATM    7  C6  UNL     1     -23.487   9.328   2.510  1.00  0.00     0.122 C 
HETATM    8  C18 UNL     1     -23.723   7.899   3.124  1.00  0.00     0.049 C 
ENDROOT
BRANCH   7   9
HETATM    9  N1  UNL     1     -23.082   9.163   1.154  1.00  0.00    -0.324 N 
HETATM   10  C7  UNL     1     -22.749  10.199   0.238  1.00  0.00     0.319 C 
HETATM   11  O1  UNL     1     -22.782  11.408   0.554  1.00  0.00    -0.247 OA
HETATM   12  N2  UNL     1     -22.331   9.875  -1.092  1.00  0.00    -0.330 N 
HETATM   13  C8  UNL     1     -21.712  10.944  -1.907  1.00  0.00     0.153 C 
HETATM   14  C11 UNL     1     -22.491   8.612  -1.752  1.00  0.00     0.153 C 
HETATM   15  C9  UNL     1     -21.484  10.426  -3.302  1.00  0.00     0.187 C 
HETATM   16  O2  UNL     1     -22.617   9.855  -3.841  1.00  0.00    -0.388 OA
HETATM   17  C10 UNL     1     -23.077   8.771  -3.141  1.00  0.00     0.187 C 
ATOM     18  H1  UNL     1     -23.026   8.206   0.805  1.00  0.00     0.165 HD
ENDBRANCH   7   9
BRANCH   7  19
HETATM   19  C12 UNL     1     -24.756  10.082   2.643  1.00  0.00     0.247 C 
HETATM   20  O3  UNL     1     -24.787  11.294   2.972  1.00  0.00    -0.271 OA
HETATM   21  N3  UNL     1     -25.984   9.385   2.394  1.00  0.00    -0.354 N 
ATOM     22  H3  UNL     1     -25.868   8.395   2.175  1.00  0.00     0.162 HD
BRANCH  21  23
HETATM   23  C13 UNL     1     -27.301   9.820   2.399  1.00  0.00     0.084 C 
HETATM   24  C14 UNL     1     -28.176   9.942   1.208  1.00  0.00     0.025 C 
HETATM   25  C15 UNL     1     -29.532  10.267   1.918  1.00  0.00     0.002 C 
HETATM   26  C16 UNL     1     -29.466   9.504   3.243  1.00  0.00     0.002 C 
HETATM   27  C17 UNL     1     -28.142   8.779   3.202  1.00  0.00     0.025 C 
ENDBRANCH  21  23
ENDBRANCH   7  19
TORSDOF 3
ENDMDL
MODEL 2
REMARK VINA RESULT: -8.954680180      1.311      1.423
REMARK  3 active torsions:
REMARK  status: ('A' for Active; 'I' for Inactive)
REMARK    1  A    between atoms: C6_7  and  N1_8 
REMARK    2  A    between atoms: C6_7  and  C12_18 
REMARK       I    between atoms: N1_8  and  C7_10 
REMARK       I    between atoms: C7_10  and  N2_12 
REMARK       I    between atoms: C12_18  and  N3_20 
REMARK    3  A    between atoms: N3_20  and  C13_22 
ROOT
HETATM    1  C1  UNL     1     -19.905   9.736   4.653  1.00  0.00     0.053 C 
HETATM    2  C2  UNL     1     -20.897   8.983   3.800  1.00  0.00     0.110 C 
HETATM    3  F1  UNL     1     -20.267   8.490   2.687  1.00  0.00    -0.242 F 
HETATM    4  C3  UNL     1     -21.603   7.809   4.490  1.00  0.00     0.029 C 
HETATM    5  C4  UNL     1     -22.499   8.853   5.080  1.00  0.00     0.019 C 
HETATM    6  C5  UNL     1     -22.268   9.518   3.700  1.00  0.00     0.063 C 
HETATM    7  C6  UNL     1     -23.001   8.626   2.810  1.00  0.00     0.122 C 
HETATM    8  C18 UNL     1     -22.447   7.271   3.384  1.00  0.00     0.049 C 
ENDROOT
BRANCH   7   9
HETATM    9  N1  UNL     1     -22.696   8.673   1.419  1.00  0.00    -0.324 N 
HETATM   10  C7  UNL     1     -22.690   9.830   0.593  1.00  0.00     0.319 C 
HETATM   11  O1  UNL     1     -22.965  10.968   1.032  1.00  0.00    -0.247 OA
HETATM   12  N2  UNL     1     -22.334   9.725  -0.790  1.00  0.00    -0.330 N 
HETATM   13  C8  UNL     1     -22.049  10.972  -1.533  1.00  0.00     0.153 C 
HETATM   14  C11 UNL     1     -22.266   8.518  -1.562  1.00  0.00     0.153 C 
HETATM   15  C9  UNL     1     -21.840  10.640  -2.986  1.00  0.00     0.187 C 
HETATM   16  O2  UNL     1     -22.859   9.867  -3.499  1.00  0.00    -0.388 OA
HETATM   17  C10 UNL     1     -22.997   8.651  -2.883  1.00  0.00     0.187 C 
ATOM     18  H1  UNL     1     -22.457   7.788   0.971  1.00  0.00     0.165 HD
ENDBRANCH   7   9
BRANCH   7  19
HETATM   19  C12 UNL     1     -24.458   8.658   3.080  1.00  0.00     0.247 C 
HETATM   20  O3  UNL     1     -25.126   7.617   3.303  1.00  0.00    -0.271 OA
HETATM   21  N3  UNL     1     -25.116   9.932   3.074  1.00  0.00    -0.354 N 
ATOM     22  H3  UNL     1     -24.508  10.718   2.842  1.00  0.00     0.162 HD
BRANCH  21  23
HETATM   23  C13 UNL     1     -26.434  10.283   3.326  1.00  0.00     0.084 C 
HETATM   24  C14 UNL     1     -27.630   9.512   2.909  1.00  0.00     0.025 C 
HETATM   25  C15 UNL     1     -28.734  10.320   3.668  1.00  0.00     0.002 C 
HETATM   26  C16 UNL     1     -28.046  10.803   4.948  1.00  0.00     0.002 C 
HETATM   27  C17 UNL     1     -26.651  10.233   4.872  1.00  0.00     0.025 C 
ENDBRANCH  21  23
ENDBRANCH   7  19
TORSDOF 3
ENDMDL
MODEL 3
REMARK VINA RESULT: -8.946975522      2.727      4.779
REMARK  3 active torsions:
REMARK  status: ('A' for Active; 'I' for Inactive)
REMARK    1  A    between atoms: C6_7  and  N1_8 
REMARK    2  A    between atoms: C6_7  and  C12_18 
REMARK       I    between atoms: N1_8  and  C7_10 
REMARK       I    between atoms: C7_10  and  N2_12 
REMARK       I    between atoms: C12_18  and  N3_20 
REMARK    3  A    between atoms: N3_20  and  C13_22 
ROOT
HETATM    1  C1  UNL     1     -22.114  12.763  -1.770  1.00  0.00     0.053 C 
HETATM    2  C2  UNL     1     -22.170  12.322  -0.327  1.00  0.00     0.110 C 
HETATM    3  F1  UNL     1     -20.947  11.835   0.054  1.00  0.00    -0.242 F 
HETATM    4  C3  UNL     1     -22.569  13.408   0.680  1.00  0.00     0.029 C 
HETATM    5  C4  UNL     1     -23.974  13.112   0.257  1.00  0.00     0.019 C 
HETATM    6  C5  UNL     1     -23.406  11.675   0.150  1.00  0.00     0.063 C 
HETATM    7  C6  UNL     1     -23.186  11.333   1.550  1.00  0.00     0.122 C 
HETATM    8  C18 UNL     1     -22.476  12.671   1.974  1.00  0.00     0.049 C 
ENDROOT
BRANCH   7   9
HETATM    9  N1  UNL     1     -22.303  10.255   1.843  1.00  0.00    -0.324 N 
HETATM   10  C7  UNL     1     -21.673   9.991   3.090  1.00  0.00     0.319 C 
HETATM   11  O1  UNL     1     -21.844  10.717   4.094  1.00  0.00    -0.247 OA
HETATM   12  N2  UNL     1     -20.827   8.846   3.241  1.00  0.00    -0.330 N 
HETATM   13  C8  UNL     1     -20.437   8.442   4.610  1.00  0.00     0.153 C 
HETATM   14  C11 UNL     1     -20.266   8.056   2.183  1.00  0.00     0.153 C 
HETATM   15  C9  UNL     1     -19.443   7.316   4.524  1.00  0.00     0.187 C 
HETATM   16  O2  UNL     1     -18.397   7.603   3.675  1.00  0.00    -0.388 OA
HETATM   17  C10 UNL     1     -18.780   7.824   2.378  1.00  0.00     0.187 C 
ATOM     18  H1  UNL     1     -22.103   9.606   1.081  1.00  0.00     0.165 HD
ENDBRANCH   7   9
BRANCH   7  19
HETATM   19  C12 UNL     1     -24.462  11.252   2.301  1.00  0.00     0.247 C 
HETATM   20  O3  UNL     1     -24.732  12.023   3.256  1.00  0.00    -0.271 OA
HETATM   21  N3  UNL     1     -25.406  10.244   1.918  1.00  0.00    -0.354 N 
ATOM     22  H3  UNL     1     -25.088   9.635   1.163  1.00  0.00     0.162 HD
BRANCH  21  23
HETATM   23  C13 UNL     1     -26.676   9.951   2.393  1.00  0.00     0.084 C 
HETATM   24  C14 UNL     1     -27.887   9.752   1.559  1.00  0.00     0.025 C 
HETATM   25  C15 UNL     1     -28.881   9.263   2.664  1.00  0.00     0.002 C 
HETATM   26  C16 UNL     1     -28.007   8.488   3.653  1.00  0.00     0.002 C 
HETATM   27  C17 UNL     1     -26.619   8.541   3.062  1.00  0.00     0.025 C 
ENDBRANCH  21  23
ENDBRANCH   7  19
TORSDOF 3
ENDMDL
MODEL 4
REMARK VINA RESULT: -8.881301180      2.496      6.747
REMARK  3 active torsions:
REMARK  status: ('A' for Active; 'I' for Inactive)
REMARK    1  A    between atoms: C6_7  and  N1_8 
REMARK    2  A    between atoms: C6_7  and  C12_18 
REMARK       I    between atoms: N1_8  and  C7_10 
REMARK       I    between atoms: C7_10  and  N2_12 
REMARK       I    between atoms: C12_18  and  N3_20 
REMARK    3  A    between atoms: N3_20  and  C13_22 
ROOT
HETATM    1  C1  UNL     1     -22.862  13.836  -0.097  1.00  0.00     0.053 C 
HETATM    2  C2  UNL     1     -23.258  12.384   0.021  1.00  0.00     0.110 C 
HETATM    3  F1  UNL     1     -24.622  12.270  -0.065  1.00  0.00    -0.242 F 
HETATM    4  C3  UNL     1     -22.649  11.445  -1.027  1.00  0.00     0.029 C 
HETATM    5  C4  UNL     1     -21.432  11.460  -0.156  1.00  0.00     0.019 C 
HETATM    6  C5  UNL     1     -22.503  11.536   0.962  1.00  0.00     0.063 C 
HETATM    7  C6  UNL     1     -23.098  10.206   0.897  1.00  0.00     0.122 C 
HETATM    8  C18 UNL     1     -23.271  10.140  -0.664  1.00  0.00     0.049 C 
ENDROOT
BRANCH   7   9
HETATM    9  N1  UNL     1     -24.380  10.021   1.491  1.00  0.00    -0.324 N 
HETATM   10  C7  UNL     1     -24.752  10.352   2.823  1.00  0.00     0.319 C 
HETATM   11  O1  UNL     1     -23.949  10.860   3.636  1.00  0.00    -0.247 OA
HETATM   12  N2  UNL     1     -26.093  10.131   3.272  1.00  0.00    -0.330 N 
HETATM   13  C8  UNL     1     -26.514  10.756   4.545  1.00  0.00     0.153 C 
HETATM   14  C11 UNL     1     -27.083   9.315   2.629  1.00  0.00     0.153 C 
HETATM   15  C9  UNL     1     -27.899  10.280   4.890  1.00  0.00     0.187 C 
HETATM   16  O2  UNL     1     -28.008   8.907   4.843  1.00  0.00    -0.388 OA
HETATM   17  C10 UNL     1     -27.758   8.373   3.606  1.00  0.00     0.187 C 
ATOM     18  H1  UNL     1     -25.104   9.611   0.901  1.00  0.00     0.165 HD
ENDBRANCH   7   9
BRANCH   7  19
HETATM   19  C12 UNL     1     -22.129   9.152   1.281  1.00  0.00     0.247 C 
HETATM   20  O3  UNL     1     -21.901   8.151   0.558  1.00  0.00    -0.271 OA
HETATM   21  N3  UNL     1     -21.443   9.292   2.532  1.00  0.00    -0.354 N 
ATOM     22  H3  UNL     1     -21.720  10.110   3.075  1.00  0.00     0.162 HD
BRANCH  21  23
HETATM   23  C13 UNL     1     -20.469   8.509   3.135  1.00  0.00     0.084 C 
HETATM   24  C14 UNL     1     -19.457   8.984   4.109  1.00  0.00     0.025 C 
HETATM   25  C15 UNL     1     -18.841   7.609   4.530  1.00  0.00     0.002 C 
HETATM   26  C16 UNL     1     -20.010   6.623   4.451  1.00  0.00     0.002 C 
HETATM   27  C17 UNL     1     -21.194   7.464   4.041  1.00  0.00     0.025 C 
ENDBRANCH  21  23
ENDBRANCH   7  19
TORSDOF 3
ENDMDL
MODEL 5
REMARK VINA RESULT: -8.857165685      2.477      4.838
REMARK  3 active torsions:
REMARK  status: ('A' for Active; 'I' for Inactive)
REMARK    1  A    between atoms: C6_7  and  N1_8 
REMARK    2  A    between atoms: C6_7  and  C12_18 
REMARK       I    between atoms: N1_8  and  C7_10 
REMARK       I    between atoms: C7_10  and  N2_12 
REMARK       I    between atoms: C12_18  and  N3_20 
REMARK    3  A    between atoms: N3_20  and  C13_22 
ROOT
HETATM    1  C1  UNL     1     -22.025  12.224  -1.763  1.00  0.00     0.053 C 
HETATM    2  C2  UNL     1     -22.132  12.068  -0.265  1.00  0.00     0.110 C 
HETATM    3  F1  UNL     1     -20.892  11.821   0.263  1.00  0.00    -0.242 F 
HETATM    4  C3  UNL     1     -22.722  13.270   0.483  1.00  0.00     0.029 C 
HETATM    5  C4  UNL     1     -24.051  12.724   0.063  1.00  0.00     0.019 C 
HETATM    6  C5  UNL     1     -23.318  11.376   0.273  1.00  0.00     0.063 C 
HETATM    7  C6  UNL     1     -23.160  11.343   1.723  1.00  0.00     0.122 C 
HETATM    8  C18 UNL     1     -22.638  12.815   1.901  1.00  0.00     0.049 C 
ENDROOT
BRANCH   7   9
HETATM    9  N1  UNL     1     -22.183  10.460   2.267  1.00  0.00    -0.324 N 
HETATM   10  C7  UNL     1     -22.280   9.044   2.357  1.00  0.00     0.319 C 
HETATM   11  O1  UNL     1     -23.278   8.413   1.948  1.00  0.00    -0.247 OA
HETATM   12  N2  UNL     1     -21.199   8.283   2.907  1.00  0.00    -0.330 N 
HETATM   13  C8  UNL     1     -21.207   6.817   2.711  1.00  0.00     0.153 C 
HETATM   14  C11 UNL     1     -20.107   8.794   3.686  1.00  0.00     0.153 C 
HETATM   15  C9  UNL     1     -20.068   6.212   3.486  1.00  0.00     0.187 C 
HETATM   16  O2  UNL     1     -20.046   6.630   4.798  1.00  0.00    -0.388 OA
HETATM   17  C10 UNL     1     -19.884   7.983   4.947  1.00  0.00     0.187 C 
ATOM     18  H1  UNL     1     -21.330  10.886   2.627  1.00  0.00     0.165 HD
ENDBRANCH   7   9
BRANCH   7  19
HETATM   19  C12 UNL     1     -24.468  11.250   2.414  1.00  0.00     0.247 C 
HETATM   20  O3  UNL     1     -24.757  11.964   3.407  1.00  0.00    -0.271 OA
HETATM   21  N3  UNL     1     -25.422  10.299   1.925  1.00  0.00    -0.354 N 
ATOM     22  H3  UNL     1     -25.089   9.732   1.145  1.00  0.00     0.162 HD
BRANCH  21  23
HETATM   23  C13 UNL     1     -26.719  10.013   2.327  1.00  0.00     0.084 C 
HETATM   24  C14 UNL     1     -27.881   9.815   1.427  1.00  0.00     0.025 C 
HETATM   25  C15 UNL     1     -28.939   9.336   2.474  1.00  0.00     0.002 C 
HETATM   26  C16 UNL     1     -28.126   8.562   3.516  1.00  0.00     0.002 C 
HETATM   27  C17 UNL     1     -26.707   8.606   3.005  1.00  0.00     0.025 C 
ENDBRANCH  21  23
ENDBRANCH   7  19
TORSDOF 3
ENDMDL
