MODEL 1
REMARK VINA RESULT: -7.560026648      0.000      0.000
REMARK  5 active torsions:
REMARK  status: ('A' for Active; 'I' for Inactive)
REMARK    1  A    between atoms: N1_4  and  N2_6 
REMARK       I    between atoms: N2_6  and  C3_8 
REMARK    2  A    between atoms: C3_8  and  C4_10 
REMARK    3  A    between atoms: N3_14  and  C8_15 
REMARK    4  A    between atoms: C8_15  and  N4_17 
REMARK    5  A    between atoms: N4_17  and  C9_19 
ROOT
HETATM    1  C4  UNL     1     -21.624   6.924   3.148  1.00  0.00     0.180 C 
HETATM    2  C5  UNL     1     -20.611   6.682   4.228  1.00  0.00     0.037 C 
HETATM    3  C6  UNL     1     -20.257   8.091   4.735  1.00  0.00     0.022 C 
HETATM    4  C7  UNL     1     -21.548   8.814   4.559  1.00  0.00     0.126 C 
HETATM    5  N3  UNL     1     -22.174   8.214   3.423  1.00  0.00    -0.345 N 
ENDROOT
BRANCH   1   6
HETATM    6  C3  UNL     1     -20.888   6.887   1.850  1.00  0.00     0.259 C 
HETATM    7  N2  UNL     1     -21.606   6.820   0.632  1.00  0.00    -0.268 N 
ATOM      8  H2  UNL     1     -22.626   6.798   0.654  1.00  0.00     0.190 HD
HETATM    9  O1  UNL     1     -19.638   6.911   1.805  1.00  0.00    -0.269 OA
BRANCH   7  10
HETATM   10  N1  UNL     1     -20.949   6.784  -0.599  1.00  0.00    -0.295 N 
HETATM   11  C2  UNL     1     -21.198   7.617  -1.546  1.00  0.00     0.068 C 
HETATM   12  C1  UNL     1     -22.229   8.656  -1.308  1.00  0.00     0.078 C 
HETATM   13 BR1  UNL     1     -20.311   7.579  -3.226  1.00  0.00    -0.035 Br
ATOM     14  H1  UNL     1     -20.241   6.066  -0.753  1.00  0.00     0.187 HD
ENDBRANCH   7  10
ENDBRANCH   1   6
BRANCH   5  15
HETATM   15  C8  UNL     1     -23.228   8.892   2.704  1.00  0.00     0.170 C 
HETATM   16  S1  UNL     1     -22.856  10.305   1.993  1.00  0.00    -0.041 SA
BRANCH  15  17
HETATM   17  N4  UNL     1     -24.534   8.364   2.608  1.00  0.00    -0.362 N 
ATOM     18  H4  UNL     1     -24.697   7.602   1.949  1.00  0.00     0.162 HD
BRANCH  17  19
HETATM   19  C9  UNL     1     -25.636   8.835   3.378  1.00  0.00     0.083 C 
HETATM   20  C10 UNL     1     -26.490   9.838   2.589  1.00  0.00     0.025 C 
HETATM   21  C11 UNL     1     -27.819   9.794   3.294  1.00  0.00     0.002 C 
HETATM   22  C12 UNL     1     -27.803   8.625   4.222  1.00  0.00     0.002 C 
HETATM   23  C13 UNL     1     -26.699   7.749   3.609  1.00  0.00     0.025 C 
ENDBRANCH  17  19
ENDBRANCH  15  17
ENDBRANCH   5  15
TORSDOF 5
ENDMDL
MODEL 2
REMARK VINA RESULT: -7.535762776      2.899      3.402
REMARK  5 active torsions:
REMARK  status: ('A' for Active; 'I' for Inactive)
REMARK    1  A    between atoms: N1_4  and  N2_6 
REMARK       I    between atoms: N2_6  and  C3_8 
REMARK    2  A    between atoms: C3_8  and  C4_10 
REMARK    3  A    between atoms: N3_14  and  C8_15 
REMARK    4  A    between atoms: C8_15  and  N4_17 
REMARK    5  A    between atoms: N4_17  and  C9_19 
ROOT
HETATM    1  C4  UNL     1     -22.638  10.524   1.792  1.00  0.00     0.180 C 
HETATM    2  C5  UNL     1     -22.026  11.893   1.850  1.00  0.00     0.037 C 
HETATM    3  C6  UNL     1     -23.230  12.837   2.009  1.00  0.00     0.022 C 
HETATM    4  C7  UNL     1     -24.172  12.003   2.807  1.00  0.00     0.126 C 
HETATM    5  N3  UNL     1     -23.919  10.653   2.412  1.00  0.00    -0.345 N 
ENDROOT
BRANCH   1   6
HETATM    6  C3  UNL     1     -22.741  10.158   0.349  1.00  0.00     0.259 C 
HETATM    7  N2  UNL     1     -22.462   8.834  -0.067  1.00  0.00    -0.268 N 
ATOM      8  H2  UNL     1     -22.191   8.139   0.629  1.00  0.00     0.190 HD
HETATM    9  O1  UNL     1     -23.070  10.999  -0.518  1.00  0.00    -0.269 OA
BRANCH   7  10
HETATM   10  N1  UNL     1     -22.549   8.459  -1.408  1.00  0.00    -0.295 N 
HETATM   11  C2  UNL     1     -21.605   7.836  -2.020  1.00  0.00     0.068 C 
HETATM   12  C1  UNL     1     -20.377   7.507  -1.256  1.00  0.00     0.078 C 
HETATM   13 BR1  UNL     1     -21.710   7.320  -3.846  1.00  0.00    -0.035 Br
ATOM     14  H1  UNL     1     -23.397   8.690  -1.925  1.00  0.00     0.187 HD
ENDBRANCH   7  10
ENDBRANCH   1   6
BRANCH   5  15
HETATM   15  C8  UNL     1     -24.886   9.608   2.655  1.00  0.00     0.170 C 
HETATM   16  S1  UNL     1     -24.340   8.222   3.304  1.00  0.00    -0.041 SA
BRANCH  15  17
HETATM   17  N4  UNL     1     -26.257   9.765   2.352  1.00  0.00    -0.362 N 
ATOM     18  H4  UNL     1     -26.511  10.034   1.401  1.00  0.00     0.162 HD
BRANCH  17  19
HETATM   19  C9  UNL     1     -27.304   9.569   3.298  1.00  0.00     0.083 C 
HETATM   20  C10 UNL     1     -27.206  10.564   4.464  1.00  0.00     0.025 C 
HETATM   21  C11 UNL     1     -28.604  10.584   5.021  1.00  0.00     0.002 C 
HETATM   22  C12 UNL     1     -29.492   9.883   4.048  1.00  0.00     0.002 C 
HETATM   23  C13 UNL     1     -28.678   9.982   2.749  1.00  0.00     0.025 C 
ENDBRANCH  17  19
ENDBRANCH  15  17
ENDBRANCH   5  15
TORSDOF 5
ENDMDL
MODEL 3
REMARK VINA RESULT: -7.473622119      2.955      3.383
REMARK  5 active torsions:
REMARK  status: ('A' for Active; 'I' for Inactive)
REMARK    1  A    between atoms: N1_4  and  N2_6 
REMARK       I    between atoms: N2_6  and  C3_8 
REMARK    2  A    between atoms: C3_8  and  C4_10 
REMARK    3  A    between atoms: N3_14  and  C8_15 
REMARK    4  A    between atoms: C8_15  and  N4_17 
REMARK    5  A    between atoms: N4_17  and  C9_19 
ROOT
HETATM    1  C4  UNL     1     -21.610   7.814   2.407  1.00  0.00     0.180 C 
HETATM    2  C5  UNL     1     -21.499   6.640   3.336  1.00  0.00     0.037 C 
HETATM    3  C6  UNL     1     -20.126   6.817   4.005  1.00  0.00     0.022 C 
HETATM    4  C7  UNL     1     -20.002   8.300   4.064  1.00  0.00     0.126 C 
HETATM    5  N3  UNL     1     -20.704   8.792   2.921  1.00  0.00    -0.345 N 
ENDROOT
BRANCH   1   6
HETATM    6  C3  UNL     1     -21.216   7.331   1.052  1.00  0.00     0.259 C 
HETATM    7  N2  UNL     1     -22.165   7.321   0.001  1.00  0.00    -0.268 N 
ATOM      8  H2  UNL     1     -23.115   7.646   0.183  1.00  0.00     0.190 HD
HETATM    9  O1  UNL     1     -20.056   6.928   0.811  1.00  0.00    -0.269 OA
BRANCH   7  10
HETATM   10  N1  UNL     1     -21.829   6.877  -1.278  1.00  0.00    -0.295 N 
HETATM   11  C2  UNL     1     -22.028   7.581  -2.335  1.00  0.00     0.068 C 
HETATM   12  C1  UNL     1     -22.641   8.923  -2.174  1.00  0.00     0.078 C 
HETATM   13 BR1  UNL     1     -21.575   6.989  -4.083  1.00  0.00    -0.035 Br
ATOM     14  H1  UNL     1     -21.408   5.953  -1.379  1.00  0.00     0.187 HD
ENDBRANCH   7  10
ENDBRANCH   1   6
BRANCH   5  15
HETATM   15  C8  UNL     1     -20.472  10.126   2.417  1.00  0.00     0.170 C 
HETATM   16  S1  UNL     1     -19.085  10.387   1.611  1.00  0.00    -0.041 SA
BRANCH  15  17
HETATM   17  N4  UNL     1     -21.402  11.173   2.601  1.00  0.00    -0.362 N 
ATOM     18  H4  UNL     1     -21.628  11.453   3.556  1.00  0.00     0.162 HD
BRANCH  17  19
HETATM   19  C9  UNL     1     -22.041  11.861   1.530  1.00  0.00     0.083 C 
HETATM   20  C10 UNL     1     -23.155  11.014   0.898  1.00  0.00     0.025 C 
HETATM   21  C11 UNL     1     -24.028  12.035   0.221  1.00  0.00     0.002 C 
HETATM   22  C12 UNL     1     -23.601  13.385   0.695  1.00  0.00     0.002 C 
HETATM   23  C13 UNL     1     -22.891  13.046   2.015  1.00  0.00     0.025 C 
ENDBRANCH  17  19
ENDBRANCH  15  17
ENDBRANCH   5  15
TORSDOF 5
ENDMDL
MODEL 4
REMARK VINA RESULT: -7.316042089      4.284      7.262
REMARK  5 active torsions:
REMARK  status: ('A' for Active; 'I' for Inactive)
REMARK    1  A    between atoms: N1_4  and  N2_6 
REMARK       I    between atoms: N2_6  and  C3_8 
REMARK    2  A    between atoms: C3_8  and  C4_10 
REMARK    3  A    between atoms: N3_14  and  C8_15 
REMARK    4  A    between atoms: C8_15  and  N4_17 
REMARK    5  A    between atoms: N4_17  and  C9_19 
ROOT
HETATM    1  C4  UNL     1     -23.986  11.691   0.104  1.00  0.00     0.180 C 
HETATM    2  C5  UNL     1     -23.694  13.161   0.181  1.00  0.00     0.037 C 
HETATM    3  C6  UNL     1     -22.180  13.232   0.443  1.00  0.00     0.022 C 
HETATM    4  C7  UNL     1     -21.685  12.034  -0.294  1.00  0.00     0.126 C 
HETATM    5  N3  UNL     1     -22.738  11.072  -0.216  1.00  0.00    -0.345 N 
ENDROOT
BRANCH   1   6
HETATM    6  C3  UNL     1     -24.496  11.280   1.445  1.00  0.00     0.259 C 
HETATM    7  N2  UNL     1     -25.408  10.203   1.555  1.00  0.00    -0.268 N 
ATOM      8  H2  UNL     1     -25.709   9.716   0.711  1.00  0.00     0.190 HD
HETATM    9  O1  UNL     1     -24.138  11.869   2.490  1.00  0.00    -0.269 OA
BRANCH   7  10
HETATM   10  N1  UNL     1     -25.903   9.794   2.794  1.00  0.00    -0.295 N 
HETATM   11  C2  UNL     1     -27.152   9.570   3.004  1.00  0.00     0.068 C 
HETATM   12  C1  UNL     1     -28.095   9.756   1.874  1.00  0.00     0.078 C 
HETATM   13 BR1  UNL     1     -27.841   9.013   4.685  1.00  0.00    -0.035 Br
ATOM     14  H1  UNL     1     -25.248   9.669   3.565  1.00  0.00     0.187 HD
ENDBRANCH   7  10
ENDBRANCH   1   6
BRANCH   5  15
HETATM   15  C8  UNL     1     -22.488   9.669  -0.452  1.00  0.00     0.170 C 
HETATM   16  S1  UNL     1     -21.873   8.803   0.779  1.00  0.00    -0.041 SA
BRANCH  15  17
HETATM   17  N4  UNL     1     -22.764   9.053  -1.693  1.00  0.00    -0.362 N 
ATOM     18  H4  UNL     1     -23.733   9.024  -2.011  1.00  0.00     0.162 HD
BRANCH  17  19
HETATM   19  C9  UNL     1     -21.765   8.469  -2.525  1.00  0.00     0.083 C 
HETATM   20  C10 UNL     1     -22.291   7.222  -3.250  1.00  0.00     0.025 C 
HETATM   21  C11 UNL     1     -21.361   7.085  -4.425  1.00  0.00     0.002 C 
HETATM   22  C12 UNL     1     -20.559   8.340  -4.520  1.00  0.00     0.002 C 
HETATM   23  C13 UNL     1     -21.440   9.336  -3.751  1.00  0.00     0.025 C 
ENDBRANCH  17  19
ENDBRANCH  15  17
ENDBRANCH   5  15
TORSDOF 5
ENDMDL
MODEL 5
REMARK VINA RESULT: -7.263467833      4.051      5.915
REMARK  5 active torsions:
REMARK  status: ('A' for Active; 'I' for Inactive)
REMARK    1  A    between atoms: N1_4  and  N2_6 
REMARK       I    between atoms: N2_6  and  C3_8 
REMARK    2  A    between atoms: C3_8  and  C4_10 
REMARK    3  A    between atoms: N3_14  and  C8_15 
REMARK    4  A    between atoms: C8_15  and  N4_17 
REMARK    5  A    between atoms: N4_17  and  C9_19 
ROOT
HETATM    1  C4  UNL     1     -22.707   9.647   3.926  1.00  0.00     0.180 C 
HETATM    2  C5  UNL     1     -22.371   8.865   5.162  1.00  0.00     0.037 C 
HETATM    3  C6  UNL     1     -22.562   7.398   4.743  1.00  0.00     0.022 C 
HETATM    4  C7  UNL     1     -22.170   7.435   3.306  1.00  0.00     0.126 C 
HETATM    5  N3  UNL     1     -22.537   8.735   2.840  1.00  0.00    -0.345 N 
ENDROOT
BRANCH   1   6
HETATM    6  C3  UNL     1     -24.123  10.097   4.072  1.00  0.00     0.259 C 
HETATM    7  N2  UNL     1     -25.030   9.335   4.847  1.00  0.00    -0.268 N 
ATOM      8  H2  UNL     1     -24.705   8.481   5.300  1.00  0.00     0.190 HD
HETATM    9  O1  UNL     1     -24.538  11.142   3.521  1.00  0.00    -0.269 OA
BRANCH   7  10
HETATM   10  N1  UNL     1     -26.360   9.728   5.003  1.00  0.00    -0.295 N 
HETATM   11  C2  UNL     1     -27.344   9.071   4.500  1.00  0.00     0.068 C 
HETATM   12  C1  UNL     1     -27.040   7.845   3.722  1.00  0.00     0.078 C 
HETATM   13 BR1  UNL     1     -29.159   9.594   4.705  1.00  0.00    -0.035 Br
ATOM     14  H1  UNL     1     -26.560  10.572   5.540  1.00  0.00     0.187 HD
ENDBRANCH   7  10
ENDBRANCH   1   6
BRANCH   5  15
HETATM   15  C8  UNL     1     -22.688   9.009   1.429  1.00  0.00     0.170 C 
HETATM   16  S1  UNL     1     -21.890   8.045   0.393  1.00  0.00    -0.041 SA
BRANCH  15  17
HETATM   17  N4  UNL     1     -23.494  10.065   0.949  1.00  0.00    -0.362 N 
ATOM     18  H4  UNL     1     -24.503  10.003   1.092  1.00  0.00     0.162 HD
BRANCH  17  19
HETATM   19  C9  UNL     1     -22.979  11.211   0.277  1.00  0.00     0.083 C 
HETATM   20  C10 UNL     1     -24.010  12.348   0.226  1.00  0.00     0.025 C 
HETATM   21  C11 UNL     1     -23.165  13.574   0.008  1.00  0.00     0.002 C 
HETATM   22  C12 UNL     1     -21.739  13.189   0.226  1.00  0.00     0.002 C 
HETATM   23  C13 UNL     1     -21.882  11.922   1.084  1.00  0.00     0.025 C 
ENDBRANCH  17  19
ENDBRANCH  15  17
ENDBRANCH   5  15
TORSDOF 5
ENDMDL
