MODEL 1
REMARK VINA RESULT: -11.380095793      0.000      0.000
REMARK  3 active torsions:
REMARK  status: ('A' for Active; 'I' for Inactive)
REMARK       I    between atoms: C2_2  and  N1_4 
REMARK       I    between atoms: N2_7  and  C5_8 
REMARK    1  A    between atoms: C5_8  and  C6_10 
REMARK    2  A    between atoms: C10_17  and  C11_18 
REMARK       I    between atoms: C11_18  and  N4_20 
REMARK    3  A    between atoms: N4_20  and  C12_22 
ROOT
HETATM    1  C6  UNL     1      21.871   7.106  -2.113  1.00  0.00     0.123 C 
HETATM    2  C7  UNL     1      20.374   7.007  -2.309  1.00  0.00     0.202 C 
HETATM    3  C8  UNL     1      20.143   8.119  -3.321  1.00  0.00     0.067 C 
HETATM    4  C9  UNL     1      20.934   7.174  -4.184  1.00  0.00     0.202 C 
HETATM    5  N3  UNL     1      20.210   6.107  -3.468  1.00  0.00    -0.065 N 
ATOM      6  H31 UNL     1      19.303   5.752  -3.771  1.00  0.00     0.278 HD
ATOM      7  H32 UNL     1      20.519   5.135  -3.463  1.00  0.00     0.278 HD
HETATM    8  C10 UNL     1      22.304   7.003  -3.546  1.00  0.00     0.123 C 
ENDROOT
BRANCH   8   9
HETATM    9  C11 UNL     1      23.297   7.917  -4.042  1.00  0.00     0.225 C 
HETATM   10  O3  UNL     1      22.911   8.825  -4.862  1.00  0.00    -0.273 OA
HETATM   11  N4  UNL     1      24.683   7.948  -3.738  1.00  0.00    -0.355 N 
ATOM     12  H4  UNL     1      25.043   7.250  -3.088  1.00  0.00     0.162 HD
BRANCH  11  13
HETATM   13  C12 UNL     1      25.611   8.892  -4.281  1.00  0.00     0.092 C 
HETATM   14  C13 UNL     1      26.971   8.298  -4.490  1.00  0.00     0.009 C 
HETATM   15  C14 UNL     1      27.681   8.048  -3.156  1.00  0.00     0.011 C 
HETATM   16  C18 UNL     1      27.881   9.209  -5.270  1.00  0.00     0.011 C 
HETATM   17  C15 UNL     1      27.854   9.339  -2.392  1.00  0.00    -0.013 C 
HETATM   18  C16 UNL     1      28.642  10.371  -3.169  1.00  0.00     0.009 C 
HETATM   19  C21 UNL     1      26.475   9.925  -2.158  1.00  0.00     0.011 C 
HETATM   20  C17 UNL     1      28.008  10.502  -4.522  1.00  0.00    -0.013 C 
HETATM   21  C19 UNL     1      26.617  11.087  -4.298  1.00  0.00     0.011 C 
HETATM   22  C20 UNL     1      25.764  10.146  -3.456  1.00  0.00     0.009 C 
ENDBRANCH  11  13
ENDBRANCH   8   9
BRANCH   1  23
HETATM   23  C5  UNL     1      22.292   8.270  -1.364  1.00  0.00     0.227 C 
HETATM   24  N2  UNL     1      22.097   8.334   0.044  1.00  0.00    -0.347 N 
HETATM   25  C4  UNL     1      21.481   7.244   0.813  1.00  0.00     0.145 C 
HETATM   26  C22 UNL     1      22.518   9.493   0.794  1.00  0.00     0.167 C 
HETATM   27  C3  UNL     1      22.105   7.271   2.223  1.00  0.00     0.147 C 
HETATM   28  N1  UNL     1      21.577   8.524   2.788  1.00  0.00    -0.332 N 
HETATM   29  C2  UNL     1      21.069   8.520   4.113  1.00  0.00     0.217 C 
HETATM   30  C23 UNL     1      21.599   9.713   1.974  1.00  0.00     0.202 C 
HETATM   31  C1  UNL     1      20.494   9.691   4.798  1.00  0.00     0.117 C 
HETATM   32  O1  UNL     1      21.090   7.435   4.800  1.00  0.00    -0.274 OA
HETATM   33 CL1  UNL     1      22.099  11.165   2.884  1.00  0.00    -0.101 Cl
HETATM   34  O2  UNL     1      22.831   9.244  -1.917  1.00  0.00    -0.273 OA
ENDBRANCH   1  23
TORSDOF 3
ENDMDL
MODEL 2
REMARK VINA RESULT: -10.990325694      2.561      7.512
REMARK  3 active torsions:
REMARK  status: ('A' for Active; 'I' for Inactive)
REMARK       I    between atoms: C2_2  and  N1_4 
REMARK       I    between atoms: N2_7  and  C5_8 
REMARK    1  A    between atoms: C5_8  and  C6_10 
REMARK    2  A    between atoms: C10_17  and  C11_18 
REMARK       I    between atoms: C11_18  and  N4_20 
REMARK    3  A    between atoms: N4_20  and  C12_22 
ROOT
HETATM    1  C6  UNL     1      20.842   8.486  -3.495  1.00  0.00     0.123 C 
HETATM    2  C7  UNL     1      20.197   7.885  -4.725  1.00  0.00     0.202 C 
HETATM    3  C8  UNL     1      19.710   6.555  -4.172  1.00  0.00     0.067 C 
HETATM    4  C9  UNL     1      18.807   7.477  -3.399  1.00  0.00     0.202 C 
HETATM    5  N3  UNL     1      18.779   8.285  -4.633  1.00  0.00    -0.065 N 
ATOM      6  H31 UNL     1      18.108   8.127  -5.385  1.00  0.00     0.278 HD
ATOM      7  H32 UNL     1      18.475   9.258  -4.651  1.00  0.00     0.278 HD
HETATM    8  C10 UNL     1      19.687   8.376  -2.544  1.00  0.00     0.123 C 
ENDROOT
BRANCH   8   9
HETATM    9  C11 UNL     1      19.920   7.873  -1.218  1.00  0.00     0.225 C 
HETATM   10  O3  UNL     1      19.374   6.757  -0.902  1.00  0.00    -0.273 OA
HETATM   11  N4  UNL     1      20.694   8.463  -0.185  1.00  0.00    -0.355 N 
ATOM     12  H4  UNL     1      21.154   9.351  -0.384  1.00  0.00     0.162 HD
BRANCH  11  13
HETATM   13  C12 UNL     1      20.874   7.899   1.117  1.00  0.00     0.092 C 
HETATM   14  C13 UNL     1      19.696   8.140   2.011  1.00  0.00     0.009 C 
HETATM   15  C14 UNL     1      19.606   9.611   2.429  1.00  0.00     0.011 C 
HETATM   16  C18 UNL     1      19.779   7.357   3.293  1.00  0.00     0.011 C 
HETATM   17  C15 UNL     1      20.848  10.030   3.180  1.00  0.00    -0.013 C 
HETATM   18  C16 UNL     1      21.087   9.192   4.417  1.00  0.00     0.009 C 
HETATM   19  C21 UNL     1      22.036   9.811   2.265  1.00  0.00     0.011 C 
HETATM   20  C17 UNL     1      21.037   7.751   4.006  1.00  0.00    -0.013 C 
HETATM   21  C19 UNL     1      22.228   7.520   3.081  1.00  0.00     0.011 C 
HETATM   22  C20 UNL     1      22.114   8.381   1.829  1.00  0.00     0.009 C 
ENDBRANCH  11  13
ENDBRANCH   8   9
BRANCH   1  23
HETATM   23  C5  UNL     1      22.089   7.857  -3.117  1.00  0.00     0.227 C 
HETATM   24  N2  UNL     1      23.333   8.489  -3.395  1.00  0.00    -0.347 N 
HETATM   25  C4  UNL     1      23.430   9.796  -4.060  1.00  0.00     0.145 C 
HETATM   26  C22 UNL     1      24.578   7.866  -3.016  1.00  0.00     0.167 C 
HETATM   27  C3  UNL     1      24.699  10.489  -3.521  1.00  0.00     0.147 C 
HETATM   28  N1  UNL     1      25.782   9.660  -4.079  1.00  0.00    -0.332 N 
HETATM   29  C2  UNL     1      26.904  10.301  -4.666  1.00  0.00     0.217 C 
HETATM   30  C23 UNL     1      25.664   8.227  -4.004  1.00  0.00     0.202 C 
HETATM   31  C1  UNL     1      28.048   9.602  -5.277  1.00  0.00     0.117 C 
HETATM   32  O1  UNL     1      26.965  11.583  -4.689  1.00  0.00    -0.274 OA
HETATM   33 CL1  UNL     1      27.197   7.429  -3.556  1.00  0.00    -0.101 Cl
HETATM   34  O2  UNL     1      22.118   6.755  -2.542  1.00  0.00    -0.273 OA
ENDBRANCH   1  23
TORSDOF 3
ENDMDL
MODEL 3
REMARK VINA RESULT: -10.417079869      0.852      1.365
REMARK  3 active torsions:
REMARK  status: ('A' for Active; 'I' for Inactive)
REMARK       I    between atoms: C2_2  and  N1_4 
REMARK       I    between atoms: N2_7  and  C5_8 
REMARK    1  A    between atoms: C5_8  and  C6_10 
REMARK    2  A    between atoms: C10_17  and  C11_18 
REMARK       I    between atoms: C11_18  and  N4_20 
REMARK    3  A    between atoms: N4_20  and  C12_22 
ROOT
HETATM    1  C6  UNL     1      22.168   7.479  -2.097  1.00  0.00     0.123 C 
HETATM    2  C7  UNL     1      20.788   7.339  -2.703  1.00  0.00     0.202 C 
HETATM    3  C8  UNL     1      20.776   8.518  -3.663  1.00  0.00     0.067 C 
HETATM    4  C9  UNL     1      21.825   7.676  -4.337  1.00  0.00     0.202 C 
HETATM    5  N3  UNL     1      20.998   6.528  -3.919  1.00  0.00    -0.065 N 
ATOM      6  H31 UNL     1      20.229   6.164  -4.481  1.00  0.00     0.278 HD
ATOM      7  H32 UNL     1      21.350   5.572  -3.893  1.00  0.00     0.278 HD
HETATM    8  C10 UNL     1      22.978   7.508  -3.359  1.00  0.00     0.123 C 
ENDROOT
BRANCH   8   9
HETATM    9  C11 UNL     1      24.013   8.495  -3.502  1.00  0.00     0.225 C 
HETATM   10  O3  UNL     1      23.777   9.495  -4.270  1.00  0.00    -0.273 OA
HETATM   11  N4  UNL     1      25.295   8.511  -2.893  1.00  0.00    -0.355 N 
ATOM     12  H4  UNL     1      25.533   7.740  -2.269  1.00  0.00     0.162 HD
BRANCH  11  13
HETATM   13  C12 UNL     1      26.275   9.533  -3.091  1.00  0.00     0.092 C 
HETATM   14  C13 UNL     1      26.465   9.867  -4.539  1.00  0.00     0.009 C 
HETATM   15  C14 UNL     1      27.187   8.737  -5.281  1.00  0.00     0.011 C 
HETATM   16  C18 UNL     1      27.317  11.092  -4.739  1.00  0.00     0.011 C 
HETATM   17  C15 UNL     1      28.550   8.489  -4.682  1.00  0.00    -0.013 C 
HETATM   18  C16 UNL     1      29.429   9.720  -4.712  1.00  0.00     0.009 C 
HETATM   19  C21 UNL     1      28.354   8.125  -3.223  1.00  0.00     0.011 C 
HETATM   20  C17 UNL     1      28.652  10.848  -4.101  1.00  0.00    -0.013 C 
HETATM   21  C19 UNL     1      28.444  10.490  -2.633  1.00  0.00     0.011 C 
HETATM   22  C20 UNL     1      27.625   9.212  -2.498  1.00  0.00     0.009 C 
ENDBRANCH  11  13
ENDBRANCH   8   9
BRANCH   1  23
HETATM   23  C5  UNL     1      22.301   8.595  -1.186  1.00  0.00     0.227 C 
HETATM   24  N2  UNL     1      22.120   8.413   0.214  1.00  0.00    -0.347 N 
HETATM   25  C4  UNL     1      21.805   7.109   0.812  1.00  0.00     0.145 C 
HETATM   26  C22 UNL     1      22.255   9.524   1.125  1.00  0.00     0.167 C 
HETATM   27  C3  UNL     1      22.426   7.092   2.223  1.00  0.00     0.147 C 
HETATM   28  N1  UNL     1      21.615   8.085   2.948  1.00  0.00    -0.332 N 
HETATM   29  C2  UNL     1      21.145   7.771   4.250  1.00  0.00     0.217 C 
HETATM   30  C23 UNL     1      21.329   9.344   2.307  1.00  0.00     0.202 C 
HETATM   31  C1  UNL     1      20.311   8.658   5.080  1.00  0.00     0.117 C 
HETATM   32  O1  UNL     1      21.445   6.641   4.779  1.00  0.00    -0.274 OA
HETATM   33 CL1  UNL     1      21.470  10.733   3.419  1.00  0.00    -0.101 Cl
HETATM   34  O2  UNL     1      22.574   9.739  -1.588  1.00  0.00    -0.273 OA
ENDBRANCH   1  23
TORSDOF 3
ENDMDL
MODEL 4
REMARK VINA RESULT: -10.218909233      1.141      1.727
REMARK  3 active torsions:
REMARK  status: ('A' for Active; 'I' for Inactive)
REMARK       I    between atoms: C2_2  and  N1_4 
REMARK       I    between atoms: N2_7  and  C5_8 
REMARK    1  A    between atoms: C5_8  and  C6_10 
REMARK    2  A    between atoms: C10_17  and  C11_18 
REMARK       I    between atoms: C11_18  and  N4_20 
REMARK    3  A    between atoms: N4_20  and  C12_22 
ROOT
HETATM    1  C6  UNL     1      20.962   7.300  -2.351  1.00  0.00     0.123 C 
HETATM    2  C7  UNL     1      19.927   7.305  -3.455  1.00  0.00     0.202 C 
HETATM    3  C8  UNL     1      20.465   8.413  -4.346  1.00  0.00     0.067 C 
HETATM    4  C9  UNL     1      21.560   7.401  -4.543  1.00  0.00     0.202 C 
HETATM    5  N3  UNL     1      20.478   6.400  -4.484  1.00  0.00    -0.065 N 
ATOM      6  H31 UNL     1      19.949   6.105  -5.304  1.00  0.00     0.278 HD
ATOM      7  H32 UNL     1      20.649   5.408  -4.316  1.00  0.00     0.278 HD
HETATM    8  C10 UNL     1      22.198   7.143  -3.186  1.00  0.00     0.123 C 
ENDROOT
BRANCH   8   9
HETATM    9  C11 UNL     1      23.337   7.975  -2.909  1.00  0.00     0.225 C 
HETATM   10  O3  UNL     1      23.430   8.484  -1.736  1.00  0.00    -0.273 OA
HETATM   11  N4  UNL     1      24.401   8.318  -3.785  1.00  0.00    -0.355 N 
ATOM     12  H4  UNL     1      24.378   7.936  -4.731  1.00  0.00     0.162 HD
BRANCH  11  13
HETATM   13  C12 UNL     1      25.501   9.160  -3.434  1.00  0.00     0.092 C 
HETATM   14  C13 UNL     1      25.886  10.089  -4.546  1.00  0.00     0.009 C 
HETATM   15  C14 UNL     1      26.559   9.332  -5.695  1.00  0.00     0.011 C 
HETATM   16  C18 UNL     1      26.882  11.128  -4.106  1.00  0.00     0.011 C 
HETATM   17  C15 UNL     1      27.813   8.639  -5.218  1.00  0.00    -0.013 C 
HETATM   18  C16 UNL     1      28.817   9.603  -4.624  1.00  0.00     0.009 C 
HETATM   19  C21 UNL     1      27.418   7.680  -4.111  1.00  0.00     0.011 C 
HETATM   20  C17 UNL     1      28.103  10.426  -3.594  1.00  0.00    -0.013 C 
HETATM   21  C19 UNL     1      27.697   9.470  -2.477  1.00  0.00     0.011 C 
HETATM   22  C20 UNL     1      26.735   8.409  -2.997  1.00  0.00     0.009 C 
ENDBRANCH  11  13
ENDBRANCH   8   9
BRANCH   1  23
HETATM   23  C5  UNL     1      20.886   8.443  -1.467  1.00  0.00     0.227 C 
HETATM   24  N2  UNL     1      21.089   8.290  -0.067  1.00  0.00    -0.347 N 
HETATM   25  C4  UNL     1      21.393   6.995   0.556  1.00  0.00     0.145 C 
HETATM   26  C22 UNL     1      21.016   9.429   0.816  1.00  0.00     0.167 C 
HETATM   27  C3  UNL     1      22.270   7.279   1.793  1.00  0.00     0.147 C 
HETATM   28  N1  UNL     1      21.337   7.966   2.702  1.00  0.00    -0.332 N 
HETATM   29  C2  UNL     1      21.303   7.584   4.069  1.00  0.00     0.217 C 
HETATM   30  C23 UNL     1      20.494   9.006   2.170  1.00  0.00     0.202 C 
HETATM   31  C1  UNL     1      20.410   8.170   5.084  1.00  0.00     0.117 C 
HETATM   32  O1  UNL     1      22.090   6.663   4.492  1.00  0.00    -0.274 OA
HETATM   33 CL1  UNL     1      20.372  10.419   3.254  1.00  0.00    -0.101 Cl
HETATM   34  O2  UNL     1      20.643   9.585  -1.894  1.00  0.00    -0.273 OA
ENDBRANCH   1  23
TORSDOF 3
ENDMDL
MODEL 5
REMARK VINA RESULT: -10.011469667      2.374      7.795
REMARK  3 active torsions:
REMARK  status: ('A' for Active; 'I' for Inactive)
REMARK       I    between atoms: C2_2  and  N1_4 
REMARK       I    between atoms: N2_7  and  C5_8 
REMARK    1  A    between atoms: C5_8  and  C6_10 
REMARK    2  A    between atoms: C10_17  and  C11_18 
REMARK       I    between atoms: C11_18  and  N4_20 
REMARK    3  A    between atoms: N4_20  and  C12_22 
ROOT
HETATM    1  C6  UNL     1      22.351   8.895  -2.689  1.00  0.00     0.123 C 
HETATM    2  C7  UNL     1      22.532   7.478  -3.186  1.00  0.00     0.202 C 
HETATM    3  C8  UNL     1      22.335   6.695  -1.898  1.00  0.00     0.067 C 
HETATM    4  C9  UNL     1      20.938   7.226  -2.067  1.00  0.00     0.202 C 
HETATM    5  N3  UNL     1      21.166   7.021  -3.510  1.00  0.00    -0.065 N 
ATOM      6  H31 UNL     1      20.973   6.138  -3.982  1.00  0.00     0.278 HD
ATOM      7  H32 UNL     1      20.590   7.459  -4.229  1.00  0.00     0.278 HD
HETATM    8  C10 UNL     1      21.014   8.745  -2.026  1.00  0.00     0.123 C 
ENDROOT
BRANCH   8   9
HETATM    9  C11 UNL     1      20.817   9.304  -0.717  1.00  0.00     0.225 C 
HETATM   10  O3  UNL     1      20.460  10.534  -0.643  1.00  0.00    -0.273 OA
HETATM   11  N4  UNL     1      20.970   8.660   0.539  1.00  0.00    -0.355 N 
ATOM     12  H4  UNL     1      21.250   7.679   0.539  1.00  0.00     0.162 HD
BRANCH  11  13
HETATM   13  C12 UNL     1      20.759   9.290   1.806  1.00  0.00     0.092 C 
HETATM   14  C13 UNL     1      21.941   9.149   2.716  1.00  0.00     0.009 C 
HETATM   15  C14 UNL     1      22.087   7.710   3.220  1.00  0.00     0.011 C 
HETATM   16  C18 UNL     1      21.817  10.001   3.951  1.00  0.00     0.011 C 
HETATM   17  C15 UNL     1      20.858   7.285   3.988  1.00  0.00    -0.013 C 
HETATM   18  C16 UNL     1      20.577   8.182   5.174  1.00  0.00     0.009 C 
HETATM   19  C21 UNL     1      19.668   7.402   3.057  1.00  0.00     0.011 C 
HETATM   20  C17 UNL     1      20.571   9.598   4.681  1.00  0.00    -0.013 C 
HETATM   21  C19 UNL     1      19.378   9.727   3.738  1.00  0.00     0.011 C 
HETATM   22  C20 UNL     1      19.535   8.800   2.539  1.00  0.00     0.009 C 
ENDBRANCH  11  13
ENDBRANCH   8   9
BRANCH   1  23
HETATM   23  C5  UNL     1      23.451   9.383  -1.885  1.00  0.00     0.227 C 
HETATM   24  N2  UNL     1      24.692   9.729  -2.488  1.00  0.00    -0.347 N 
HETATM   25  C4  UNL     1      24.929   9.626  -3.935  1.00  0.00     0.145 C 
HETATM   26  C22 UNL     1      25.789  10.217  -1.689  1.00  0.00     0.167 C 
HETATM   27  C3  UNL     1      25.944  10.725  -4.310  1.00  0.00     0.147 C 
HETATM   28  N1  UNL     1      27.180  10.263  -3.655  1.00  0.00    -0.332 N 
HETATM   29  C2  UNL     1      28.399  10.301  -4.381  1.00  0.00     0.217 C 
HETATM   30  C23 UNL     1      27.107   9.791  -2.296  1.00  0.00     0.202 C 
HETATM   31  C1  UNL     1      29.703   9.854  -3.861  1.00  0.00     0.117 C 
HETATM   32  O1  UNL     1      28.408  10.749  -5.585  1.00  0.00    -0.274 OA
HETATM   33 CL1  UNL     1      28.465  10.366  -1.290  1.00  0.00    -0.101 Cl
HETATM   34  O2  UNL     1      23.352   9.515  -0.653  1.00  0.00    -0.273 OA
ENDBRANCH   1  23
TORSDOF 3
ENDMDL
