MODEL 1
REMARK VINA RESULT: -8.557489332      0.000      0.000
REMARK  9 active torsions:
REMARK  status: ('A' for Active; 'I' for Inactive)
REMARK       I    between atoms: C2_2  and  N1_4 
REMARK    1  A    between atoms: N1_4  and  C3_6 
REMARK    2  A    between atoms: N2_9  and  C6_10 
REMARK    3  A    between atoms: C6_10  and  O2_11 
REMARK    4  A    between atoms: C6_10  and  N3_13 
REMARK    5  A    between atoms: N4_18  and  C11_19 
REMARK    6  A    between atoms: C11_19  and  N5_20 
REMARK    7  A    between atoms: C11_19  and  S1_28 
REMARK    8  A    between atoms: N5_20  and  C12_22 
REMARK    9  A    between atoms: C12_22  and  C13_23 
ROOT
HETATM    1  N3  UNL     1      21.239   8.259  -4.245  1.00  0.00    -0.252 N 
HETATM    2  C7  UNL     1      20.457   8.938  -5.273  1.00  0.00     0.162 C 
HETATM    3  C8  UNL     1      19.001   8.682  -5.126  1.00  0.00    -0.021 A 
HETATM    4  C9  UNL     1      18.621   7.446  -4.422  1.00  0.00     0.033 C 
HETATM    5  C10 UNL     1      19.247   7.259  -3.075  1.00  0.00     0.152 C 
HETATM    6  N4  UNL     1      20.564   7.966  -3.044  1.00  0.00    -0.264 N 
HETATM    7  C18 UNL     1      18.148   9.909  -4.798  1.00  0.00     0.012 A 
HETATM    8  C19 UNL     1      18.070   9.315  -6.152  1.00  0.00     0.012 A 
ENDROOT
BRANCH   1   9
HETATM    9  C6  UNL     1      22.594   7.916  -4.414  1.00  0.00     0.236 C 
BRANCH   9  10
HETATM   10  N2  UNL     1      23.747   8.612  -4.058  1.00  0.00    -0.346 N 
HETATM   11  C5  UNL     1      24.610   7.981  -3.020  1.00  0.00     0.128 C 
HETATM   12  C4  UNL     1      26.028   8.334  -3.497  1.00  0.00     0.045 C 
HETATM   13  C3  UNL     1      26.238   9.752  -2.980  1.00  0.00     0.087 C 
HETATM   14  C21 UNL     1      25.091  10.585  -3.452  1.00  0.00     0.045 C 
HETATM   15  C20 UNL     1      24.266   9.864  -4.514  1.00  0.00     0.128 C 
BRANCH  13  16
HETATM   16  N1  UNL     1      27.512  10.307  -3.348  1.00  0.00    -0.357 N 
HETATM   17  C2  UNL     1      28.645  10.139  -2.531  1.00  0.00     0.213 C 
HETATM   18  C1  UNL     1      29.964  10.687  -2.867  1.00  0.00     0.117 C 
HETATM   19  O1  UNL     1      28.518   9.484  -1.454  1.00  0.00    -0.274 OA
ATOM     20  H1  UNL     1      27.597  10.832  -4.219  1.00  0.00     0.162 HD
ENDBRANCH  13  16
ENDBRANCH   9  10
BRANCH   9  21
HETATM   21  O2  UNL     1      22.821   6.767  -4.993  1.00  0.00    -0.331 OA
ATOM     22  H2  UNL     1      22.040   6.334  -5.316  1.00  0.00     0.221 HD
ENDBRANCH   9  21
ENDBRANCH   1   9
BRANCH   6  23
HETATM   23  C11 UNL     1      21.101   8.386  -1.810  1.00  0.00     0.190 C 
BRANCH  23  24
HETATM   24  N5  UNL     1      21.147   9.772  -1.539  1.00  0.00    -0.367 N 
ATOM     25  H5  UNL     1      20.297  10.328  -1.638  1.00  0.00     0.161 HD
BRANCH  24  26
HETATM   26  C12 UNL     1      22.373  10.419  -1.126  1.00  0.00     0.127 C 
BRANCH  26  27
HETATM   27  C13 UNL     1      22.144  11.295   0.089  1.00  0.00     0.012 A 
HETATM   28  C14 UNL     1      23.397  11.548   0.953  1.00  0.00     0.016 A 
HETATM   29  C15 UNL     1      22.778  12.617   0.104  1.00  0.00    -0.042 A 
HETATM   30  C16 UNL     1      22.165  13.767   0.888  1.00  0.00     0.015 C 
HETATM   31  C17 UNL     1      23.535  13.075  -1.136  1.00  0.00     0.015 C 
ENDBRANCH  26  27
ENDBRANCH  24  26
ENDBRANCH  23  24
BRANCH  23  32
HETATM   32  S1  UNL     1      21.727   7.362  -0.738  1.00  0.00     0.119 SA
HETATM   33  F1  UNL     1      22.431   7.813   0.752  1.00  0.00    -0.155 F 
ENDBRANCH  23  32
ENDBRANCH   6  23
TORSDOF 9
ENDMDL
MODEL 2
REMARK VINA RESULT: -8.228390301      3.192      6.978
REMARK  9 active torsions:
REMARK  status: ('A' for Active; 'I' for Inactive)
REMARK       I    between atoms: C2_2  and  N1_4 
REMARK    1  A    between atoms: N1_4  and  C3_6 
REMARK    2  A    between atoms: N2_9  and  C6_10 
REMARK    3  A    between atoms: C6_10  and  O2_11 
REMARK    4  A    between atoms: C6_10  and  N3_13 
REMARK    5  A    between atoms: N4_18  and  C11_19 
REMARK    6  A    between atoms: C11_19  and  N5_20 
REMARK    7  A    between atoms: C11_19  and  S1_28 
REMARK    8  A    between atoms: N5_20  and  C12_22 
REMARK    9  A    between atoms: C12_22  and  C13_23 
ROOT
HETATM    1  N3  UNL     1      25.194  10.220  -3.111  1.00  0.00    -0.252 N 
HETATM    2  C7  UNL     1      26.355  10.891  -3.686  1.00  0.00     0.162 C 
HETATM    3  C8  UNL     1      27.421   9.930  -4.070  1.00  0.00    -0.021 A 
HETATM    4  C9  UNL     1      27.429   8.642  -3.358  1.00  0.00     0.033 C 
HETATM    5  C10 UNL     1      26.130   7.898  -3.369  1.00  0.00     0.152 C 
HETATM    6  N4  UNL     1      25.006   8.876  -3.486  1.00  0.00    -0.264 N 
HETATM    7  C18 UNL     1      27.727   9.851  -5.568  1.00  0.00     0.012 A 
HETATM    8  C19 UNL     1      28.701  10.503  -4.664  1.00  0.00     0.012 A 
ENDROOT
BRANCH   1   9
HETATM    9  C6  UNL     1      24.294  10.859  -2.238  1.00  0.00     0.236 C 
BRANCH   9  10
HETATM   10  N2  UNL     1      23.689  10.392  -1.073  1.00  0.00    -0.346 N 
HETATM   11  C5  UNL     1      24.317  10.805   0.213  1.00  0.00     0.128 C 
HETATM   12  C4  UNL     1      23.103  11.010   1.134  1.00  0.00     0.045 C 
HETATM   13  C3  UNL     1      22.773   9.601   1.611  1.00  0.00     0.087 C 
HETATM   14  C21 UNL     1      22.623   8.733   0.403  1.00  0.00     0.045 C 
HETATM   15  C20 UNL     1      22.545   9.556  -0.880  1.00  0.00     0.128 C 
BRANCH  13  16
HETATM   16  N1  UNL     1      21.624   9.549   2.474  1.00  0.00    -0.357 N 
HETATM   17  C2  UNL     1      21.580   8.679   3.579  1.00  0.00     0.213 C 
HETATM   18  C1  UNL     1      20.430   8.593   4.485  1.00  0.00     0.117 C 
HETATM   19  O1  UNL     1      22.582   7.936   3.799  1.00  0.00    -0.274 OA
ATOM     20  H1  UNL     1      20.826  10.155   2.282  1.00  0.00     0.162 HD
ENDBRANCH  13  16
ENDBRANCH   9  10
BRANCH   9  21
HETATM   21  O2  UNL     1      23.965  12.083  -2.557  1.00  0.00    -0.331 OA
ATOM     22  H2  UNL     1      23.065  12.309  -2.351  1.00  0.00     0.221 HD
ENDBRANCH   9  21
ENDBRANCH   1   9
BRANCH   6  23
HETATM   23  C11 UNL     1      23.771   8.458  -4.024  1.00  0.00     0.190 C 
BRANCH  23  24
HETATM   24  N5  UNL     1      23.331   7.145  -3.743  1.00  0.00    -0.367 N 
ATOM     25  H5  UNL     1      23.957   6.360  -3.921  1.00  0.00     0.161 HD
BRANCH  24  26
HETATM   26  C12 UNL     1      22.011   6.891  -3.206  1.00  0.00     0.127 C 
BRANCH  26  27
HETATM   27  C13 UNL     1      20.954   6.996  -4.287  1.00  0.00     0.012 A 
HETATM   28  C14 UNL     1      19.693   6.143  -4.045  1.00  0.00     0.016 A 
HETATM   29  C15 UNL     1      19.684   7.637  -3.935  1.00  0.00    -0.042 A 
HETATM   30  C16 UNL     1      18.847   8.341  -4.992  1.00  0.00     0.015 C 
HETATM   31  C17 UNL     1      19.538   8.252  -2.549  1.00  0.00     0.015 C 
ENDBRANCH  26  27
ENDBRANCH  24  26
ENDBRANCH  23  24
BRANCH  23  32
HETATM   32  S1  UNL     1      22.887   9.384  -4.999  1.00  0.00     0.119 SA
HETATM   33  F1  UNL     1      22.928   9.328  -6.705  1.00  0.00    -0.155 F 
ENDBRANCH  23  32
ENDBRANCH   6  23
TORSDOF 9
ENDMDL
MODEL 3
REMARK VINA RESULT: -8.196389974      2.163      2.782
REMARK  9 active torsions:
REMARK  status: ('A' for Active; 'I' for Inactive)
REMARK       I    between atoms: C2_2  and  N1_4 
REMARK    1  A    between atoms: N1_4  and  C3_6 
REMARK    2  A    between atoms: N2_9  and  C6_10 
REMARK    3  A    between atoms: C6_10  and  O2_11 
REMARK    4  A    between atoms: C6_10  and  N3_13 
REMARK    5  A    between atoms: N4_18  and  C11_19 
REMARK    6  A    between atoms: C11_19  and  N5_20 
REMARK    7  A    between atoms: C11_19  and  S1_28 
REMARK    8  A    between atoms: N5_20  and  C12_22 
REMARK    9  A    between atoms: C12_22  and  C13_23 
ROOT
HETATM    1  N3  UNL     1      21.397   8.117  -4.204  1.00  0.00    -0.252 N 
HETATM    2  C7  UNL     1      20.543   8.861  -5.125  1.00  0.00     0.162 C 
HETATM    3  C8  UNL     1      19.105   8.540  -4.933  1.00  0.00    -0.021 A 
HETATM    4  C9  UNL     1      18.800   7.231  -4.333  1.00  0.00     0.033 C 
HETATM    5  C10 UNL     1      19.499   6.942  -3.041  1.00  0.00     0.152 C 
HETATM    6  N4  UNL     1      20.793   7.689  -3.006  1.00  0.00    -0.264 N 
HETATM    7  C18 UNL     1      18.231   9.700  -4.451  1.00  0.00     0.012 A 
HETATM    8  C19 UNL     1      18.104   9.232  -5.849  1.00  0.00     0.012 A 
ENDROOT
BRANCH   1   9
HETATM    9  C6  UNL     1      22.751   7.840  -4.469  1.00  0.00     0.236 C 
BRANCH   9  10
HETATM   10  N2  UNL     1      23.899   8.535  -4.095  1.00  0.00    -0.346 N 
HETATM   11  C5  UNL     1      24.762   7.889  -3.067  1.00  0.00     0.128 C 
HETATM   12  C4  UNL     1      26.180   8.260  -3.533  1.00  0.00     0.045 C 
HETATM   13  C3  UNL     1      26.380   9.668  -2.986  1.00  0.00     0.087 C 
HETATM   14  C21 UNL     1      25.229  10.504  -3.445  1.00  0.00     0.045 C 
HETATM   15  C20 UNL     1      24.412   9.800  -4.524  1.00  0.00     0.128 C 
BRANCH  13  16
HETATM   16  N1  UNL     1      27.652  10.238  -3.339  1.00  0.00    -0.357 N 
HETATM   17  C2  UNL     1      28.758  10.145  -2.474  1.00  0.00     0.213 C 
HETATM   18  C1  UNL     1      30.074  10.711  -2.793  1.00  0.00     0.117 C 
HETATM   19  O1  UNL     1      28.608   9.546  -1.368  1.00  0.00    -0.274 OA
ATOM     20  H1  UNL     1      27.755  10.718  -4.233  1.00  0.00     0.162 HD
ENDBRANCH  13  16
ENDBRANCH   9  10
BRANCH   9  21
HETATM   21  O2  UNL     1      22.984   6.765  -5.174  1.00  0.00    -0.331 OA
ATOM     22  H2  UNL     1      22.243   6.174  -5.236  1.00  0.00     0.221 HD
ENDBRANCH   9  21
ENDBRANCH   1   9
BRANCH   6  23
HETATM   23  C11 UNL     1      21.378   8.012  -1.764  1.00  0.00     0.190 C 
BRANCH  23  24
HETATM   24  N5  UNL     1      21.525   6.981  -0.809  1.00  0.00    -0.367 N 
ATOM     25  H5  UNL     1      22.119   6.180  -1.025  1.00  0.00     0.161 HD
BRANCH  24  26
HETATM   26  C12 UNL     1      20.852   7.037   0.471  1.00  0.00     0.127 C 
BRANCH  26  27
HETATM   27  C13 UNL     1      21.849   7.053   1.612  1.00  0.00     0.012 A 
HETATM   28  C14 UNL     1      22.091   8.440   2.242  1.00  0.00     0.016 A 
HETATM   29  C15 UNL     1      21.342   7.355   2.953  1.00  0.00    -0.042 A 
HETATM   30  C16 UNL     1      22.042   6.814   4.191  1.00  0.00     0.015 C 
HETATM   31  C17 UNL     1      19.840   7.527   3.143  1.00  0.00     0.015 C 
ENDBRANCH  26  27
ENDBRANCH  24  26
ENDBRANCH  23  24
BRANCH  23  32
HETATM   32  S1  UNL     1      21.813   9.509  -1.368  1.00  0.00     0.119 SA
HETATM   33  F1  UNL     1      23.346   9.955  -0.760  1.00  0.00    -0.155 F 
ENDBRANCH  23  32
ENDBRANCH   6  23
TORSDOF 9
ENDMDL
MODEL 4
REMARK VINA RESULT: -8.192267496      3.113      7.230
REMARK  9 active torsions:
REMARK  status: ('A' for Active; 'I' for Inactive)
REMARK       I    between atoms: C2_2  and  N1_4 
REMARK    1  A    between atoms: N1_4  and  C3_6 
REMARK    2  A    between atoms: N2_9  and  C6_10 
REMARK    3  A    between atoms: C6_10  and  O2_11 
REMARK    4  A    between atoms: C6_10  and  N3_13 
REMARK    5  A    between atoms: N4_18  and  C11_19 
REMARK    6  A    between atoms: C11_19  and  N5_20 
REMARK    7  A    between atoms: C11_19  and  S1_28 
REMARK    8  A    between atoms: N5_20  and  C12_22 
REMARK    9  A    between atoms: C12_22  and  C13_23 
ROOT
HETATM    1  N3  UNL     1      21.019   7.958   1.212  1.00  0.00    -0.252 N 
HETATM    2  C7  UNL     1      20.113   8.050   2.353  1.00  0.00     0.162 C 
HETATM    3  C8  UNL     1      20.829   8.396   3.607  1.00  0.00    -0.021 A 
HETATM    4  C9  UNL     1      22.260   8.052   3.661  1.00  0.00     0.033 C 
HETATM    5  C10 UNL     1      23.083   8.562   2.520  1.00  0.00     0.152 C 
HETATM    6  N4  UNL     1      22.216   8.695   1.310  1.00  0.00    -0.264 N 
HETATM    7  C18 UNL     1      20.459   9.746   4.225  1.00  0.00     0.012 A 
HETATM    8  C19 UNL     1      20.002   8.500   4.882  1.00  0.00     0.012 A 
ENDROOT
BRANCH   1   9
HETATM    9  C6  UNL     1      20.732   7.196   0.065  1.00  0.00     0.236 C 
BRANCH   9  10
HETATM   10  N2  UNL     1      20.088   7.559  -1.116  1.00  0.00    -0.346 N 
HETATM   11  C5  UNL     1      20.857   7.368  -2.378  1.00  0.00     0.128 C 
HETATM   12  C4  UNL     1      19.773   6.922  -3.372  1.00  0.00     0.045 C 
HETATM   13  C3  UNL     1      19.136   8.233  -3.820  1.00  0.00     0.087 C 
HETATM   14  C21 UNL     1      18.726   8.983  -2.594  1.00  0.00     0.045 C 
HETATM   15  C20 UNL     1      18.787   8.106  -1.346  1.00  0.00     0.128 C 
BRANCH  13  16
HETATM   16  N1  UNL     1      18.051   8.049  -4.744  1.00  0.00    -0.357 N 
HETATM   17  C2  UNL     1      17.876   8.909  -5.844  1.00  0.00     0.213 C 
HETATM   18  C1  UNL     1      16.784   8.759  -6.812  1.00  0.00     0.117 C 
HETATM   19  O1  UNL     1      18.701   9.856  -6.004  1.00  0.00    -0.274 OA
ATOM     20  H1  UNL     1      17.395   7.281  -4.600  1.00  0.00     0.162 HD
ENDBRANCH  13  16
ENDBRANCH   9  10
BRANCH   9  21
HETATM   21  O2  UNL     1      21.126   5.951   0.097  1.00  0.00    -0.331 OA
ATOM     22  H2  UNL     1      21.751   5.759   0.787  1.00  0.00     0.221 HD
ENDBRANCH   9  21
ENDBRANCH   1   9
BRANCH   6  23
HETATM   23  C11 UNL     1      22.574   9.602   0.291  1.00  0.00     0.190 C 
BRANCH  23  24
HETATM   24  N5  UNL     1      23.541   9.193  -0.655  1.00  0.00    -0.367 N 
ATOM     25  H5  UNL     1      24.177   8.431  -0.421  1.00  0.00     0.161 HD
BRANCH  24  26
HETATM   26  C12 UNL     1      23.648   9.834  -1.948  1.00  0.00     0.127 C 
BRANCH  26  27
HETATM   27  C13 UNL     1      24.319   8.922  -2.955  1.00  0.00     0.012 A 
HETATM   28  C14 UNL     1      24.777   9.614  -4.254  1.00  0.00     0.016 A 
HETATM   29  C15 UNL     1      25.745   9.132  -3.217  1.00  0.00    -0.042 A 
HETATM   30  C16 UNL     1      26.632   7.983  -3.671  1.00  0.00     0.015 C 
HETATM   31  C17 UNL     1      26.492  10.174  -2.394  1.00  0.00     0.015 C 
ENDBRANCH  26  27
ENDBRANCH  24  26
ENDBRANCH  23  24
BRANCH  23  32
HETATM   32  S1  UNL     1      21.985  11.096   0.208  1.00  0.00     0.119 SA
HETATM   33  F1  UNL     1      21.674  12.102   1.554  1.00  0.00    -0.155 F 
ENDBRANCH  23  32
ENDBRANCH   6  23
TORSDOF 9
ENDMDL
MODEL 5
REMARK VINA RESULT: -8.156054423      3.255      6.670
REMARK  9 active torsions:
REMARK  status: ('A' for Active; 'I' for Inactive)
REMARK       I    between atoms: C2_2  and  N1_4 
REMARK    1  A    between atoms: N1_4  and  C3_6 
REMARK    2  A    between atoms: N2_9  and  C6_10 
REMARK    3  A    between atoms: C6_10  and  O2_11 
REMARK    4  A    between atoms: C6_10  and  N3_13 
REMARK    5  A    between atoms: N4_18  and  C11_19 
REMARK    6  A    between atoms: C11_19  and  N5_20 
REMARK    7  A    between atoms: C11_19  and  S1_28 
REMARK    8  A    between atoms: N5_20  and  C12_22 
REMARK    9  A    between atoms: C12_22  and  C13_23 
ROOT
HETATM    1  N3  UNL     1      24.850  10.553  -3.052  1.00  0.00    -0.252 N 
HETATM    2  C7  UNL     1      26.174  10.859  -3.584  1.00  0.00     0.162 C 
HETATM    3  C8  UNL     1      26.902   9.636  -4.007  1.00  0.00    -0.021 A 
HETATM    4  C9  UNL     1      26.499   8.376  -3.360  1.00  0.00     0.033 C 
HETATM    5  C10 UNL     1      25.035   8.069  -3.418  1.00  0.00     0.152 C 
HETATM    6  N4  UNL     1      24.268   9.350  -3.495  1.00  0.00    -0.264 N 
HETATM    7  C18 UNL     1      27.204   9.534  -5.504  1.00  0.00     0.012 A 
HETATM    8  C19 UNL     1      28.310   9.813  -4.561  1.00  0.00     0.012 A 
ENDROOT
BRANCH   1   9
HETATM    9  C6  UNL     1      24.169  11.398  -2.156  1.00  0.00     0.236 C 
BRANCH   9  10
HETATM   10  N2  UNL     1      23.631  11.127  -0.900  1.00  0.00    -0.346 N 
HETATM   11  C5  UNL     1      23.185  12.302  -0.101  1.00  0.00     0.128 C 
HETATM   12  C4  UNL     1      21.928  11.772   0.608  1.00  0.00     0.045 C 
HETATM   13  C3  UNL     1      22.484  11.018   1.810  1.00  0.00     0.087 C 
HETATM   14  C21 UNL     1      23.494  10.038   1.306  1.00  0.00     0.045 C 
HETATM   15  C20 UNL     1      23.431   9.889  -0.211  1.00  0.00     0.128 C 
BRANCH  13  16
HETATM   16  N1  UNL     1      21.465  10.398   2.612  1.00  0.00    -0.357 N 
HETATM   17  C2  UNL     1      21.584  10.323   4.012  1.00  0.00     0.213 C 
HETATM   18  C1  UNL     1      20.570   9.700   4.870  1.00  0.00     0.117 C 
HETATM   19  O1  UNL     1      22.616  10.816   4.556  1.00  0.00    -0.274 OA
ATOM     20  H1  UNL     1      20.641  10.005   2.158  1.00  0.00     0.162 HD
ENDBRANCH  13  16
ENDBRANCH   9  10
BRANCH   9  21
HETATM   21  O2  UNL     1      24.010  12.633  -2.549  1.00  0.00    -0.331 OA
ATOM     22  H2  UNL     1      24.729  12.970  -3.071  1.00  0.00     0.221 HD
ENDBRANCH   9  21
ENDBRANCH   1   9
BRANCH   6  23
HETATM   23  C11 UNL     1      22.977   9.356  -4.063  1.00  0.00     0.190 C 
BRANCH  23  24
HETATM   24  N5  UNL     1      21.864   9.326  -3.192  1.00  0.00    -0.367 N 
ATOM     25  H5  UNL     1      21.384  10.198  -2.965  1.00  0.00     0.161 HD
BRANCH  24  26
HETATM   26  C12 UNL     1      21.392   8.086  -2.616  1.00  0.00     0.127 C 
BRANCH  26  27
HETATM   27  C13 UNL     1      20.184   8.322  -1.731  1.00  0.00     0.012 A 
HETATM   28  C14 UNL     1      19.269   7.096  -1.542  1.00  0.00     0.016 A 
HETATM   29  C15 UNL     1      20.139   7.624  -0.443  1.00  0.00    -0.042 A 
HETATM   30  C16 UNL     1      19.378   8.210   0.736  1.00  0.00     0.015 C 
HETATM   31  C17 UNL     1      21.345   6.793  -0.022  1.00  0.00     0.015 C 
ENDBRANCH  26  27
ENDBRANCH  24  26
ENDBRANCH  23  24
BRANCH  23  32
HETATM   32  S1  UNL     1      22.724   9.321  -5.652  1.00  0.00     0.119 SA
HETATM   33  F1  UNL     1      21.416  10.074  -6.452  1.00  0.00    -0.155 F 
ENDBRANCH  23  32
ENDBRANCH   6  23
TORSDOF 9
ENDMDL
