MODEL 1
REMARK VINA RESULT: -9.146281593      0.000      0.000
REMARK  5 active torsions:
REMARK  status: ('A' for Active; 'I' for Inactive)
REMARK    1  A    between atoms: C2_3  and  C3_4 
REMARK    2  A    between atoms: C4_5  and  C5_6 
REMARK    3  A    between atoms: C5_6  and  C6_7 
REMARK    4  A    between atoms: C6_7  and  C7_8 
REMARK    5  A    between atoms: C14_21  and  N3_22 
ROOT
HETATM    1  O1  UNL     1     -21.115  10.703  -1.191  1.00  0.00    -0.286 OA
HETATM    2  C1  UNL     1     -20.936   9.753  -0.410  1.00  0.00     0.202 A 
HETATM    3  C2  UNL     1     -19.806   8.980  -0.543  1.00  0.00     0.083 A 
HETATM    4  C8  UNL     1     -19.672   7.941   0.362  1.00  0.00     0.114 A 
HETATM    5  N1  UNL     1     -20.614   7.721   1.312  1.00  0.00    -0.350 N 
ATOM      6  H1  UNL     1     -20.486   6.946   1.964  1.00  0.00     0.166 HD
HETATM    7  C9  UNL     1     -21.719   8.496   1.422  1.00  0.00     0.114 A 
HETATM    8  C10 UNL     1     -21.913   9.545   0.557  1.00  0.00     0.039 A 
HETATM    9  C11 UNL     1     -23.184  10.217   0.890  1.00  0.00     0.074 C 
HETATM   10  C12 UNL     1     -23.602   9.628   2.184  1.00  0.00     0.121 C 
HETATM   11  C13 UNL     1     -25.096   9.384   2.255  1.00  0.00     0.219 A 
HETATM   12  N2  UNL     1     -25.730  10.593   2.778  1.00  0.00    -0.036 N 
ATOM     13  H21 UNL     1     -26.441  11.085   2.238  1.00  0.00     0.280 HD
ATOM     14  H22 UNL     1     -25.207  11.465   2.855  1.00  0.00     0.280 HD
HETATM   15  C14 UNL     1     -26.097   9.828   3.982  1.00  0.00     0.426 A 
HETATM   16  C20 UNL     1     -25.453   8.588   3.458  1.00  0.00     0.081 A 
HETATM   17  C21 UNL     1     -24.238   8.152   4.207  1.00  0.00     0.030 C 
HETATM   18  C22 UNL     1     -23.227   7.456   3.318  1.00  0.00     0.125 C 
HETATM   19  N4  UNL     1     -22.809   8.442   2.327  1.00  0.00    -0.360 N 
ENDROOT
BRANCH   3  20
HETATM   20  C3  UNL     1     -18.845   9.266  -1.575  1.00  0.00    -0.061 C 
HETATM   21  C4  UNL     1     -18.051   9.498  -2.455  1.00  0.00    -0.101 C 
BRANCH  21  22
HETATM   22  C5  UNL     1     -17.096   9.775  -3.554  1.00  0.00     0.095 C 
BRANCH  22  23
HETATM   23  C6  UNL     1     -17.839   9.940  -4.870  1.00  0.00     0.027 C 
BRANCH  23  24
HETATM   24  C7  UNL     1     -19.267   9.544  -4.655  1.00  0.00     0.115 C 
HETATM   25 CL1  UNL     1     -20.225   9.662  -6.147  1.00  0.00    -0.130 Cl
ENDBRANCH  23  24
ENDBRANCH  22  23
ENDBRANCH  21  22
ENDBRANCH   3  20
BRANCH  15  26
HETATM   26  N3  UNL     1     -27.540   9.846   4.070  1.00  0.00     0.120 N 
HETATM   27  C15 UNL     1     -28.166   8.727   3.423  1.00  0.00     0.275 C 
HETATM   28  C16 UNL     1     -29.652   9.043   3.304  1.00  0.00     0.030 C 
HETATM   29  C17 UNL     1     -29.964  10.443   3.795  1.00  0.00     0.003 C 
HETATM   30  C18 UNL     1     -29.480  10.596   5.240  1.00  0.00     0.030 C 
HETATM   31  C19 UNL     1     -28.067  10.064   5.377  1.00  0.00     0.275 C 
ENDBRANCH  15  26
TORSDOF 5
ENDMDL
MODEL 2
REMARK VINA RESULT: -8.997399436      3.017      9.520
REMARK  5 active torsions:
REMARK  status: ('A' for Active; 'I' for Inactive)
REMARK    1  A    between atoms: C2_3  and  C3_4 
REMARK    2  A    between atoms: C4_5  and  C5_6 
REMARK    3  A    between atoms: C5_6  and  C6_7 
REMARK    4  A    between atoms: C6_7  and  C7_8 
REMARK    5  A    between atoms: C14_21  and  N3_22 
ROOT
HETATM    1  O1  UNL     1     -26.050  10.486   1.787  1.00  0.00    -0.286 OA
HETATM    2  C1  UNL     1     -25.188   9.998   2.537  1.00  0.00     0.202 A 
HETATM    3  C2  UNL     1     -25.477   9.834   3.872  1.00  0.00     0.083 A 
HETATM    4  C8  UNL     1     -24.471   9.284   4.648  1.00  0.00     0.114 A 
HETATM    5  N1  UNL     1     -23.281   8.937   4.099  1.00  0.00    -0.350 N 
ATOM      6  H1  UNL     1     -22.559   8.535   4.697  1.00  0.00     0.166 HD
HETATM    7  C9  UNL     1     -23.019   9.109   2.781  1.00  0.00     0.114 A 
HETATM    8  C10 UNL     1     -23.975   9.649   1.955  1.00  0.00     0.039 A 
HETATM    9  C11 UNL     1     -23.437   9.730   0.583  1.00  0.00     0.074 C 
HETATM   10  C12 UNL     1     -22.170   8.962   0.621  1.00  0.00     0.121 C 
HETATM   11  C13 UNL     1     -21.070   9.616  -0.191  1.00  0.00     0.219 A 
HETATM   12  N2  UNL     1     -21.153   9.110  -1.560  1.00  0.00    -0.036 N 
ATOM     13  H21 UNL     1     -21.289   9.747  -2.344  1.00  0.00     0.280 HD
ATOM     14  H22 UNL     1     -21.966   8.578  -1.871  1.00  0.00     0.280 HD
HETATM   15  C14 UNL     1     -19.856   8.445  -1.348  1.00  0.00     0.426 A 
HETATM   16  C20 UNL     1     -19.760   8.956   0.051  1.00  0.00     0.081 A 
HETATM   17  C21 UNL     1     -19.862   7.905   1.107  1.00  0.00     0.030 C 
HETATM   18  C22 UNL     1     -20.507   8.421   2.378  1.00  0.00     0.125 C 
HETATM   19  N4  UNL     1     -21.862   8.820   2.015  1.00  0.00    -0.360 N 
ENDROOT
BRANCH   3  20
HETATM   20  C3  UNL     1     -26.760  10.224   4.393  1.00  0.00    -0.061 C 
HETATM   21  C4  UNL     1     -27.847  10.542   4.813  1.00  0.00    -0.101 C 
BRANCH  21  22
HETATM   22  C5  UNL     1     -29.193  10.916   5.310  1.00  0.00     0.095 C 
BRANCH  22  23
HETATM   23  C6  UNL     1     -30.235   9.934   4.800  1.00  0.00     0.027 C 
BRANCH  23  24
HETATM   24  C7  UNL     1     -30.620  10.338   3.411  1.00  0.00     0.115 C 
HETATM   25 CL1  UNL     1     -29.938   9.247   2.184  1.00  0.00    -0.130 Cl
ENDBRANCH  23  24
ENDBRANCH  22  23
ENDBRANCH  21  22
ENDBRANCH   3  20
BRANCH  15  26
HETATM   26  N3  UNL     1     -18.938   8.990  -2.323  1.00  0.00     0.120 N 
HETATM   27  C15 UNL     1     -17.557   8.833  -1.959  1.00  0.00     0.275 C 
HETATM   28  C16 UNL     1     -16.739   9.727  -2.883  1.00  0.00     0.030 C 
HETATM   29  C17 UNL     1     -17.629  10.551  -3.792  1.00  0.00     0.003 C 
HETATM   30  C18 UNL     1     -18.545   9.619  -4.591  1.00  0.00     0.030 C 
HETATM   31  C19 UNL     1     -19.177   8.592  -3.671  1.00  0.00     0.275 C 
ENDBRANCH  15  26
TORSDOF 5
ENDMDL
MODEL 3
REMARK VINA RESULT: -8.694248481      3.559      9.675
REMARK  5 active torsions:
REMARK  status: ('A' for Active; 'I' for Inactive)
REMARK    1  A    between atoms: C2_3  and  C3_4 
REMARK    2  A    between atoms: C4_5  and  C5_6 
REMARK    3  A    between atoms: C5_6  and  C6_7 
REMARK    4  A    between atoms: C6_7  and  C7_8 
REMARK    5  A    between atoms: C14_21  and  N3_22 
ROOT
HETATM    1  O1  UNL     1     -28.246   9.792   2.455  1.00  0.00    -0.286 OA
HETATM    2  C1  UNL     1     -27.591   9.682   3.505  1.00  0.00     0.202 A 
HETATM    3  C2  UNL     1     -28.230   9.837   4.714  1.00  0.00     0.083 A 
HETATM    4  C8  UNL     1     -27.438   9.700   5.841  1.00  0.00     0.114 A 
HETATM    5  N1  UNL     1     -26.113   9.431   5.731  1.00  0.00    -0.350 N 
ATOM      6  H1  UNL     1     -25.556   9.336   6.581  1.00  0.00     0.166 HD
HETATM    7  C9  UNL     1     -25.507   9.284   4.530  1.00  0.00     0.114 A 
HETATM    8  C10 UNL     1     -26.235   9.405   3.372  1.00  0.00     0.039 A 
HETATM    9  C11 UNL     1     -25.340   9.205   2.215  1.00  0.00     0.074 C 
HETATM   10  C12 UNL     1     -24.069   8.708   2.794  1.00  0.00     0.121 C 
HETATM   11  C13 UNL     1     -22.851   9.300   2.114  1.00  0.00     0.219 A 
HETATM   12  N2  UNL     1     -22.494   8.437   0.989  1.00  0.00    -0.036 N 
ATOM     13  H21 UNL     1     -22.462   8.805   0.039  1.00  0.00     0.280 HD
ATOM     14  H22 UNL     1     -23.132   7.708   0.668  1.00  0.00     0.280 HD
HETATM   15  C14 UNL     1     -21.254   8.090   1.704  1.00  0.00     0.426 A 
HETATM   16  C20 UNL     1     -21.608   8.968   2.858  1.00  0.00     0.081 A 
HETATM   17  C21 UNL     1     -21.906   8.240   4.126  1.00  0.00     0.030 C 
HETATM   18  C22 UNL     1     -22.930   8.960   4.981  1.00  0.00     0.125 C 
HETATM   19  N4  UNL     1     -24.157   9.004   4.195  1.00  0.00    -0.360 N 
ENDROOT
BRANCH   3  20
HETATM   20  C3  UNL     1     -29.639  10.124   4.761  1.00  0.00    -0.061 C 
HETATM   21  C4  UNL     1     -30.826  10.345   4.794  1.00  0.00    -0.101 C 
BRANCH  21  22
HETATM   22  C5  UNL     1     -32.287  10.590   4.829  1.00  0.00     0.095 C 
BRANCH  22  23
HETATM   23  C6  UNL     1     -32.977   9.822   3.712  1.00  0.00     0.027 C 
BRANCH  23  24
HETATM   24  C7  UNL     1     -32.120   9.904   2.487  1.00  0.00     0.115 C 
HETATM   25 CL1  UNL     1     -32.366   8.516   1.405  1.00  0.00    -0.130 Cl
ENDBRANCH  23  24
ENDBRANCH  22  23
ENDBRANCH  21  22
ENDBRANCH   3  20
BRANCH  15  26
HETATM   26  N3  UNL     1     -20.153   8.502   0.862  1.00  0.00     0.120 N 
HETATM   27  C15 UNL     1     -18.891   8.536   1.548  1.00  0.00     0.275 C 
HETATM   28  C16 UNL     1     -17.911   9.290   0.658  1.00  0.00     0.030 C 
HETATM   29  C17 UNL     1     -18.591   9.840  -0.580  1.00  0.00     0.003 C 
HETATM   30  C18 UNL     1     -19.263   8.695  -1.343  1.00  0.00     0.030 C 
HETATM   31  C19 UNL     1     -20.057   7.824  -0.389  1.00  0.00     0.275 C 
ENDBRANCH  15  26
TORSDOF 5
ENDMDL
MODEL 4
REMARK VINA RESULT: -8.620939055      3.766      9.866
REMARK  5 active torsions:
REMARK  status: ('A' for Active; 'I' for Inactive)
REMARK    1  A    between atoms: C2_3  and  C3_4 
REMARK    2  A    between atoms: C4_5  and  C5_6 
REMARK    3  A    between atoms: C5_6  and  C6_7 
REMARK    4  A    between atoms: C6_7  and  C7_8 
REMARK    5  A    between atoms: C14_21  and  N3_22 
ROOT
HETATM    1  O1  UNL     1     -24.532   8.629   2.547  1.00  0.00    -0.286 OA
HETATM    2  C1  UNL     1     -24.433   9.850   2.336  1.00  0.00     0.202 A 
HETATM    3  C2  UNL     1     -25.162  10.725   3.108  1.00  0.00     0.083 A 
HETATM    4  C8  UNL     1     -25.002  12.068   2.818  1.00  0.00     0.114 A 
HETATM    5  N1  UNL     1     -24.171  12.471   1.825  1.00  0.00    -0.350 N 
ATOM      6  H1  UNL     1     -24.075  13.469   1.635  1.00  0.00     0.166 HD
HETATM    7  C9  UNL     1     -23.464  11.590   1.077  1.00  0.00     0.114 A 
HETATM    8  C10 UNL     1     -23.576  10.242   1.314  1.00  0.00     0.039 A 
HETATM    9  C11 UNL     1     -22.711   9.511   0.366  1.00  0.00     0.074 C 
HETATM   10  C12 UNL     1     -21.889  10.557  -0.287  1.00  0.00     0.121 C 
HETATM   11  C13 UNL     1     -21.695  10.301  -1.768  1.00  0.00     0.219 A 
HETATM   12  N2  UNL     1     -20.499   9.478  -1.935  1.00  0.00    -0.036 N 
ATOM     13  H21 UNL     1     -20.551   8.569  -2.395  1.00  0.00     0.280 HD
ATOM     14  H22 UNL     1     -20.059   9.028  -1.131  1.00  0.00     0.280 HD
HETATM   15  C14 UNL     1     -19.855  10.622  -2.602  1.00  0.00     0.426 A 
HETATM   16  C20 UNL     1     -21.071  11.473  -2.438  1.00  0.00     0.081 A 
HETATM   17  C21 UNL     1     -20.907  12.619  -1.496  1.00  0.00     0.030 C 
HETATM   18  C22 UNL     1     -22.195  12.968  -0.778  1.00  0.00     0.125 C 
HETATM   19  N4  UNL     1     -22.553  11.794   0.010  1.00  0.00    -0.360 N 
ENDROOT
BRANCH   3  20
HETATM   20  C3  UNL     1     -26.029  10.232   4.145  1.00  0.00    -0.061 C 
HETATM   21  C4  UNL     1     -26.771   9.814   5.002  1.00  0.00    -0.101 C 
BRANCH  21  22
HETATM   22  C5  UNL     1     -27.699   9.293   6.033  1.00  0.00     0.095 C 
BRANCH  22  23
HETATM   23  C6  UNL     1     -28.722   8.362   5.400  1.00  0.00     0.027 C 
BRANCH  23  24
HETATM   24  C7  UNL     1     -29.449   9.121   4.333  1.00  0.00     0.115 C 
HETATM   25 CL1  UNL     1     -30.447  10.429   5.006  1.00  0.00    -0.130 Cl
ENDBRANCH  23  24
ENDBRANCH  22  23
ENDBRANCH  21  22
ENDBRANCH   3  20
BRANCH  15  26
HETATM   26  N3  UNL     1     -19.515  10.194  -3.940  1.00  0.00     0.120 N 
HETATM   27  C15 UNL     1     -18.103  10.014  -4.141  1.00  0.00     0.275 C 
HETATM   28  C16 UNL     1     -17.869   9.895  -5.641  1.00  0.00     0.030 C 
HETATM   29  C17 UNL     1     -19.151  10.105  -6.423  1.00  0.00     0.003 C 
HETATM   30  C18 UNL     1     -20.209   9.106  -5.947  1.00  0.00     0.030 C 
HETATM   31  C19 UNL     1     -20.263   9.084  -4.431  1.00  0.00     0.275 C 
ENDBRANCH  15  26
TORSDOF 5
ENDMDL
MODEL 5
REMARK VINA RESULT: -8.405851348      3.044      9.461
REMARK  5 active torsions:
REMARK  status: ('A' for Active; 'I' for Inactive)
REMARK    1  A    between atoms: C2_3  and  C3_4 
REMARK    2  A    between atoms: C4_5  and  C5_6 
REMARK    3  A    between atoms: C5_6  and  C6_7 
REMARK    4  A    between atoms: C6_7  and  C7_8 
REMARK    5  A    between atoms: C14_21  and  N3_22 
ROOT
HETATM    1  O1  UNL     1     -26.210  10.451   1.761  1.00  0.00    -0.286 OA
HETATM    2  C1  UNL     1     -25.263  10.045   2.455  1.00  0.00     0.202 A 
HETATM    3  C2  UNL     1     -25.436   9.910   3.814  1.00  0.00     0.083 A 
HETATM    4  C8  UNL     1     -24.340   9.452   4.523  1.00  0.00     0.114 A 
HETATM    5  N1  UNL     1     -23.175   9.161   3.891  1.00  0.00    -0.350 N 
ATOM      6  H1  UNL     1     -22.384   8.825   4.442  1.00  0.00     0.166 HD
HETATM    7  C9  UNL     1     -23.029   9.302   2.552  1.00  0.00     0.114 A 
HETATM    8  C10 UNL     1     -24.079   9.752   1.789  1.00  0.00     0.039 A 
HETATM    9  C11 UNL     1     -23.655   9.818   0.376  1.00  0.00     0.074 C 
HETATM   10  C12 UNL     1     -22.342   9.132   0.336  1.00  0.00     0.121 C 
HETATM   11  C13 UNL     1     -21.353   9.824  -0.580  1.00  0.00     0.219 A 
HETATM   12  N2  UNL     1     -21.509   9.266  -1.922  1.00  0.00    -0.036 N 
ATOM     13  H21 UNL     1     -21.747   9.866  -2.712  1.00  0.00     0.280 HD
ATOM     14  H22 UNL     1     -22.308   8.674  -2.151  1.00  0.00     0.280 HD
HETATM   15  C14 UNL     1     -20.159   8.691  -1.794  1.00  0.00     0.426 A 
HETATM   16  C20 UNL     1     -19.988   9.255  -0.423  1.00  0.00     0.081 A 
HETATM   17  C21 UNL     1     -19.940   8.238   0.669  1.00  0.00     0.030 C 
HETATM   18  C22 UNL     1     -20.516   8.758   1.971  1.00  0.00     0.125 C 
HETATM   19  N4  UNL     1     -21.918   9.058   1.705  1.00  0.00    -0.360 N 
ENDROOT
BRANCH   3  20
HETATM   20  C3  UNL     1     -26.698  10.238   4.423  1.00  0.00    -0.061 C 
HETATM   21  C4  UNL     1     -27.767  10.504   4.918  1.00  0.00    -0.101 C 
BRANCH  21  22
HETATM   22  C5  UNL     1     -29.091  10.816   5.505  1.00  0.00     0.095 C 
BRANCH  22  23
HETATM   23  C6  UNL     1     -30.160   9.918   4.902  1.00  0.00     0.027 C 
BRANCH  23  24
HETATM   24  C7  UNL     1     -30.458  10.408   3.519  1.00  0.00     0.115 C 
HETATM   25 CL1  UNL     1     -29.874   9.284   2.272  1.00  0.00    -0.130 Cl
ENDBRANCH  23  24
ENDBRANCH  22  23
ENDBRANCH  21  22
ENDBRANCH   3  20
BRANCH  15  26
HETATM   26  N3  UNL     1     -19.358   9.258  -2.855  1.00  0.00     0.120 N 
HETATM   27  C15 UNL     1     -20.092   9.480  -4.070  1.00  0.00     0.275 C 
HETATM   28  C16 UNL     1     -19.076   9.753  -5.172  1.00  0.00     0.030 C 
HETATM   29  C17 UNL     1     -17.654   9.602  -4.669  1.00  0.00     0.003 C 
HETATM   30  C18 UNL     1     -17.435  10.530  -3.471  1.00  0.00     0.030 C 
HETATM   31  C19 UNL     1     -18.584  10.399  -2.490  1.00  0.00     0.275 C 
ENDBRANCH  15  26
TORSDOF 5
ENDMDL
