MODEL 1
REMARK VINA RESULT: -7.813669794      0.000      0.000
REMARK  4 active torsions:
REMARK  status: ('A' for Active; 'I' for Inactive)
REMARK       I    between atoms: N1_2  and  C2_4 
REMARK    1  A    between atoms: C2_4  and  C3_6 
REMARK    2  A    between atoms: C3_6  and  N2_7 
REMARK    3  A    between atoms: N2_7  and  C4_10 
REMARK    4  A    between atoms: C13_20  and  O2_21 
ROOT
HETATM    1  C4  UNL     1     -18.597   9.068  -1.663  1.00  0.00     0.195 C 
HETATM    2  C5  UNL     1     -18.493  10.396  -2.349  1.00  0.00     0.018 C 
HETATM    3  C6  UNL     1     -19.732  11.210  -2.335  1.00  0.00     0.008 C 
HETATM    4  C7  UNL     1     -20.603  10.658  -3.430  1.00  0.00     0.022 C 
HETATM    5  C8  UNL     1     -19.713   9.752  -4.176  1.00  0.00     0.022 C 
HETATM    6 BR1  UNL     1     -20.025   9.871  -6.097  1.00  0.00    -0.085 Br
HETATM    7  C9  UNL     1     -18.276  10.193  -3.859  1.00  0.00     0.028 C 
HETATM    8  C10 UNL     1     -19.750   8.287  -3.771  1.00  0.00     0.011 C 
HETATM    9  C11 UNL     1     -21.001   7.695  -4.302  1.00  0.00     0.009 C 
HETATM   10  C12 UNL     1     -21.745   6.801  -3.352  1.00  0.00     0.032 C 
HETATM   11  C13 UNL     1     -21.783   7.371  -1.958  1.00  0.00     0.118 C 
HETATM   12  C14 UNL     1     -20.373   7.384  -1.471  1.00  0.00     0.039 C 
HETATM   13  C15 UNL     1     -19.350   7.995  -2.378  1.00  0.00     0.024 C 
ENDROOT
BRANCH   1  14
HETATM   14  N2  UNL     1     -18.912   9.273  -0.286  1.00  0.00    -0.062 N 
ATOM     15  H22 UNL     1     -19.758   8.770  -0.016  1.00  0.00     0.278 HD
ATOM     16  H21 UNL     1     -19.235  10.225  -0.112  1.00  0.00     0.278 HD
BRANCH  14  17
HETATM   17  C3  UNL     1     -17.791   8.926   0.565  1.00  0.00     0.335 C 
BRANCH  17  18
HETATM   18  C2  UNL     1     -18.224   8.053   1.688  1.00  0.00     0.242 C 
HETATM   19  N1  UNL     1     -18.269   8.485   3.029  1.00  0.00    -0.364 N 
HETATM   20  C1  UNL     1     -18.686   7.633   4.093  1.00  0.00     0.149 C 
ATOM     21  H1  UNL     1     -17.992   9.443   3.246  1.00  0.00     0.161 HD
HETATM   22  O1  UNL     1     -18.561   6.874   1.402  1.00  0.00    -0.272 OA
ENDBRANCH  17  18
ENDBRANCH  14  17
ENDBRANCH   1  14
BRANCH  11  23
HETATM   23  O2  UNL     1     -22.505   6.480  -1.164  1.00  0.00    -0.396 OA
ATOM     24  H2  UNL     1     -22.950   5.877  -1.748  1.00  0.00     0.210 HD
ENDBRANCH  11  23
TORSDOF 4
ENDMDL
MODEL 2
REMARK VINA RESULT: -7.761148923      2.581      3.556
REMARK  4 active torsions:
REMARK  status: ('A' for Active; 'I' for Inactive)
REMARK       I    between atoms: N1_2  and  C2_4 
REMARK    1  A    between atoms: C2_4  and  C3_6 
REMARK    2  A    between atoms: C3_6  and  N2_7 
REMARK    3  A    between atoms: N2_7  and  C4_10 
REMARK    4  A    between atoms: C13_20  and  O2_21 
ROOT
HETATM    1  C4  UNL     1     -21.534   8.143  -1.999  1.00  0.00     0.195 C 
HETATM    2  C5  UNL     1     -20.343   7.679  -2.782  1.00  0.00     0.018 C 
HETATM    3  C6  UNL     1     -19.125   8.510  -2.626  1.00  0.00     0.008 C 
HETATM    4  C7  UNL     1     -19.316   9.699  -3.528  1.00  0.00     0.022 C 
HETATM    5  C8  UNL     1     -20.491   9.348  -4.343  1.00  0.00     0.022 C 
HETATM    6 BR1  UNL     1     -20.271   9.923  -6.193  1.00  0.00    -0.085 Br
HETATM    7  C9  UNL     1     -20.617   7.817  -4.290  1.00  0.00     0.028 C 
HETATM    8  C10 UNL     1     -21.835   9.849  -3.838  1.00  0.00     0.011 C 
HETATM    9  C11 UNL     1     -21.919  11.302  -4.121  1.00  0.00     0.009 C 
HETATM   10  C12 UNL     1     -22.467  12.144  -3.006  1.00  0.00     0.032 C 
HETATM   11  C13 UNL     1     -21.919  11.728  -1.665  1.00  0.00     0.118 C 
HETATM   12  C14 UNL     1     -22.432  10.350  -1.412  1.00  0.00     0.039 C 
HETATM   13  C15 UNL     1     -22.251   9.349  -2.511  1.00  0.00     0.024 C 
ENDROOT
BRANCH   1  14
HETATM   14  N2  UNL     1     -21.221   8.116  -0.607  1.00  0.00    -0.062 N 
ATOM     15  H22 UNL     1     -21.816   8.753  -0.077  1.00  0.00     0.278 HD
ATOM     16  H21 UNL     1     -20.318   8.552  -0.417  1.00  0.00     0.278 HD
BRANCH  14  17
HETATM   17  C3  UNL     1     -21.283   6.767  -0.082  1.00  0.00     0.335 C 
BRANCH  17  18
HETATM   18  C2  UNL     1     -21.438   6.776   1.397  1.00  0.00     0.242 C 
HETATM   19  N1  UNL     1     -22.666   7.026   2.043  1.00  0.00    -0.364 N 
HETATM   20  C1  UNL     1     -22.795   7.031   3.462  1.00  0.00     0.149 C 
ATOM     21  H1  UNL     1     -23.492   7.209   1.474  1.00  0.00     0.161 HD
HETATM   22  O1  UNL     1     -20.408   6.548   2.084  1.00  0.00    -0.272 OA
ENDBRANCH  17  18
ENDBRANCH  14  17
ENDBRANCH   1  14
BRANCH  11  23
HETATM   23  O2  UNL     1     -22.474  12.577  -0.708  1.00  0.00    -0.396 OA
ATOM     24  H2  UNL     1     -21.934  12.517   0.071  1.00  0.00     0.210 HD
ENDBRANCH  11  23
TORSDOF 4
ENDMDL
MODEL 3
REMARK VINA RESULT: -7.652522378      3.608      4.978
REMARK  4 active torsions:
REMARK  status: ('A' for Active; 'I' for Inactive)
REMARK       I    between atoms: N1_2  and  C2_4 
REMARK    1  A    between atoms: C2_4  and  C3_6 
REMARK    2  A    between atoms: C3_6  and  N2_7 
REMARK    3  A    between atoms: N2_7  and  C4_10 
REMARK    4  A    between atoms: C13_20  and  O2_21 
ROOT
HETATM    1  C4  UNL     1     -22.238  10.783  -1.834  1.00  0.00     0.195 C 
HETATM    2  C5  UNL     1     -23.089   9.563  -1.648  1.00  0.00     0.018 C 
HETATM    3  C6  UNL     1     -22.511   8.522  -0.765  1.00  0.00     0.008 C 
HETATM    4  C7  UNL     1     -21.524   7.764  -1.610  1.00  0.00     0.022 C 
HETATM    5  C8  UNL     1     -21.790   8.231  -2.981  1.00  0.00     0.022 C 
HETATM    6 BR1  UNL     1     -21.672   6.769  -4.266  1.00  0.00    -0.085 Br
HETATM    7  C9  UNL     1     -23.216   8.802  -2.979  1.00  0.00     0.028 C 
HETATM    8  C10 UNL     1     -20.929   9.381  -3.479  1.00  0.00     0.011 C 
HETATM    9  C11 UNL     1     -19.583   8.847  -3.790  1.00  0.00     0.009 C 
HETATM   10  C12 UNL     1     -18.431   9.687  -3.318  1.00  0.00     0.032 C 
HETATM   11  C13 UNL     1     -18.661  10.226  -1.930  1.00  0.00     0.118 C 
HETATM   12  C14 UNL     1     -19.821  11.159  -2.028  1.00  0.00     0.039 C 
HETATM   13  C15 UNL     1     -21.045  10.645  -2.721  1.00  0.00     0.024 C 
ENDROOT
BRANCH   1  14
HETATM   14  N2  UNL     1     -22.036  11.413  -0.569  1.00  0.00    -0.062 N 
ATOM     15  H22 UNL     1     -21.077  11.743  -0.463  1.00  0.00     0.278 HD
ATOM     16  H21 UNL     1     -22.053  10.736   0.195  1.00  0.00     0.278 HD
BRANCH  14  17
HETATM   17  C3  UNL     1     -22.994  12.480  -0.356  1.00  0.00     0.335 C 
BRANCH  17  18
HETATM   18  C2  UNL     1     -23.639  12.361   0.978  1.00  0.00     0.242 C 
HETATM   19  N1  UNL     1     -23.872  11.124   1.615  1.00  0.00    -0.364 N 
HETATM   20  C1  UNL     1     -24.491  11.030   2.895  1.00  0.00     0.149 C 
ATOM     21  H1  UNL     1     -23.586  10.266   1.142  1.00  0.00     0.161 HD
HETATM   22  O1  UNL     1     -23.985  13.429   1.547  1.00  0.00    -0.272 OA
ENDBRANCH  17  18
ENDBRANCH  14  17
ENDBRANCH   1  14
BRANCH  11  23
HETATM   23  O2  UNL     1     -17.535  10.972  -1.582  1.00  0.00    -0.396 OA
ATOM     24  H2  UNL     1     -17.755  11.469  -0.803  1.00  0.00     0.210 HD
ENDBRANCH  11  23
TORSDOF 4
ENDMDL
MODEL 4
REMARK VINA RESULT: -7.609899869      3.563      4.331
REMARK  4 active torsions:
REMARK  status: ('A' for Active; 'I' for Inactive)
REMARK       I    between atoms: N1_2  and  C2_4 
REMARK    1  A    between atoms: C2_4  and  C3_6 
REMARK    2  A    between atoms: C3_6  and  N2_7 
REMARK    3  A    between atoms: N2_7  and  C4_10 
REMARK    4  A    between atoms: C13_20  and  O2_21 
ROOT
HETATM    1  C4  UNL     1     -22.031  10.969  -0.596  1.00  0.00     0.195 C 
HETATM    2  C5  UNL     1     -21.664  11.796  -1.791  1.00  0.00     0.018 C 
HETATM    3  C6  UNL     1     -21.944  11.164  -3.103  1.00  0.00     0.008 C 
HETATM    4  C7  UNL     1     -20.808  10.210  -3.354  1.00  0.00     0.022 C 
HETATM    5  C8  UNL     1     -19.819  10.547  -2.316  1.00  0.00     0.022 C 
HETATM    6 BR1  UNL     1     -18.001  10.475  -3.016  1.00  0.00    -0.085 Br
HETATM    7  C9  UNL     1     -20.138  11.978  -1.857  1.00  0.00     0.028 C 
HETATM    8  C10 UNL     1     -19.877   9.725  -1.038  1.00  0.00     0.011 C 
HETATM    9  C11 UNL     1     -19.304   8.389  -1.325  1.00  0.00     0.009 C 
HETATM   10  C12 UNL     1     -20.067   7.226  -0.760  1.00  0.00     0.032 C 
HETATM   11  C13 UNL     1     -21.555   7.395  -0.929  1.00  0.00     0.118 C 
HETATM   12  C14 UNL     1     -21.942   8.569  -0.094  1.00  0.00     0.039 C 
HETATM   13  C15 UNL     1     -21.137   9.819  -0.270  1.00  0.00     0.024 C 
ENDROOT
BRANCH   1  14
HETATM   14  N2  UNL     1     -23.436  10.714  -0.614  1.00  0.00    -0.062 N 
ATOM     15  H22 UNL     1     -23.643   9.741  -0.387  1.00  0.00     0.278 HD
ATOM     16  H21 UNL     1     -23.809  10.735  -1.563  1.00  0.00     0.278 HD
BRANCH  14  17
HETATM   17  C3  UNL     1     -24.145  11.627   0.259  1.00  0.00     0.335 C 
BRANCH  17  18
HETATM   18  C2  UNL     1     -24.354  11.027   1.603  1.00  0.00     0.242 C 
HETATM   19  N1  UNL     1     -24.795   9.702   1.796  1.00  0.00    -0.364 N 
HETATM   20  C1  UNL     1     -24.990   9.143   3.093  1.00  0.00     0.149 C 
ATOM     21  H1  UNL     1     -24.982   9.122   0.978  1.00  0.00     0.161 HD
HETATM   22  O1  UNL     1     -24.120  11.757   2.602  1.00  0.00    -0.272 OA
ENDBRANCH  17  18
ENDBRANCH  14  17
ENDBRANCH   1  14
BRANCH  11  23
HETATM   23  O2  UNL     1     -22.165   6.262  -0.390  1.00  0.00    -0.396 OA
ATOM     24  H2  UNL     1     -21.654   5.997   0.365  1.00  0.00     0.210 HD
ENDBRANCH  11  23
TORSDOF 4
ENDMDL
MODEL 5
REMARK VINA RESULT: -7.390214937      3.376      3.941
REMARK  4 active torsions:
REMARK  status: ('A' for Active; 'I' for Inactive)
REMARK       I    between atoms: N1_2  and  C2_4 
REMARK    1  A    between atoms: C2_4  and  C3_6 
REMARK    2  A    between atoms: C3_6  and  N2_7 
REMARK    3  A    between atoms: N2_7  and  C4_10 
REMARK    4  A    between atoms: C13_20  and  O2_21 
ROOT
HETATM    1  C4  UNL     1     -21.198   8.552  -0.063  1.00  0.00     0.195 C 
HETATM    2  C5  UNL     1     -20.639   9.934   0.098  1.00  0.00     0.018 C 
HETATM    3  C6  UNL     1     -21.227  10.958  -0.799  1.00  0.00     0.008 C 
HETATM    4  C7  UNL     1     -20.544  10.784  -2.129  1.00  0.00     0.022 C 
HETATM    5  C8  UNL     1     -19.428   9.867  -1.843  1.00  0.00     0.022 C 
HETATM    6 BR1  UNL     1     -17.821  10.376  -2.822  1.00  0.00    -0.085 Br
HETATM    7  C9  UNL     1     -19.163   9.958  -0.333  1.00  0.00     0.028 C 
HETATM    8  C10 UNL     1     -19.692   8.389  -2.086  1.00  0.00     0.011 C 
HETATM    9  C11 UNL     1     -19.675   8.153  -3.549  1.00  0.00     0.009 C 
HETATM   10  C12 UNL     1     -20.771   7.269  -4.071  1.00  0.00     0.032 C 
HETATM   11  C13 UNL     1     -22.099   7.584  -3.435  1.00  0.00     0.118 C 
HETATM   12  C14 UNL     1     -21.964   7.239  -1.989  1.00  0.00     0.039 C 
HETATM   13  C15 UNL     1     -20.770   7.787  -1.272  1.00  0.00     0.024 C 
ENDROOT
BRANCH   1  14
HETATM   14  N2  UNL     1     -22.595   8.572   0.230  1.00  0.00    -0.062 N 
ATOM     15  H22 UNL     1     -23.102   7.874  -0.313  1.00  0.00     0.278 HD
ATOM     16  H21 UNL     1     -23.044   9.412  -0.136  1.00  0.00     0.278 HD
BRANCH  14  17
HETATM   17  C3  UNL     1     -22.834   8.417   1.652  1.00  0.00     0.335 C 
BRANCH  17  18
HETATM   18  C2  UNL     1     -23.942   9.298   2.106  1.00  0.00     0.242 C 
HETATM   19  N1  UNL     1     -25.134   8.807   2.675  1.00  0.00    -0.364 N 
HETATM   20  C1  UNL     1     -26.187   9.667   3.105  1.00  0.00     0.149 C 
ATOM     21  H1  UNL     1     -25.249   7.799   2.783  1.00  0.00     0.161 HD
HETATM   22  O1  UNL     1     -23.785  10.540   1.964  1.00  0.00    -0.272 OA
ENDBRANCH  17  18
ENDBRANCH  14  17
ENDBRANCH   1  14
BRANCH  11  23
HETATM   23  O2  UNL     1     -23.043   6.726  -3.997  1.00  0.00    -0.396 OA
ATOM     24  H2  UNL     1     -22.577   5.961  -4.315  1.00  0.00     0.210 HD
ENDBRANCH  11  23
TORSDOF 4
ENDMDL
