MODEL 1
REMARK VINA RESULT: -7.223168883      0.000      0.000
REMARK  3 active torsions:
REMARK  status: ('A' for Active; 'I' for Inactive)
REMARK       I    between atoms: C2_4  and  N3_6 
REMARK    1  A    between atoms: N3_6  and  C3_8 
REMARK    2  A    between atoms: C3_8  and  C4_9 
REMARK    3  A    between atoms: C4_9  and  N4_10 
ROOT
HETATM    1  N4  UNL     1     -21.957   7.623  -0.477  1.00  0.00    -0.369 N 
ATOM      2  H4  UNL     1     -22.976   7.642  -0.528  1.00  0.00     0.161 HD
HETATM    3  C5  UNL     1     -21.374   8.600  -1.043  1.00  0.00     0.137 C 
HETATM    4  N5  UNL     1     -19.967   8.674  -1.031  1.00  0.00    -0.366 N 
ATOM      5  H5  UNL     1     -19.497   8.107  -0.326  1.00  0.00     0.162 HD
HETATM    6  C6  UNL     1     -19.114   9.445  -1.883  1.00  0.00     0.092 C 
HETATM    7  C7  UNL     1     -19.586  10.897  -1.724  1.00  0.00     0.033 C 
HETATM    8  C8  UNL     1     -20.257  10.770  -3.041  1.00  0.00     0.022 C 
HETATM    9  C9  UNL     1     -21.743  10.777  -3.031  1.00  0.00     0.132 C 
HETATM   10 BR1  UNL     1     -22.284  12.627  -2.690  1.00  0.00    -0.079 Br
HETATM   11  S1  UNL     1     -22.532   9.760  -1.796  1.00  0.00    -0.078 SA
HETATM   12  C10 UNL     1     -19.574   9.499  -3.331  1.00  0.00    -0.022 C 
HETATM   13  C11 UNL     1     -18.319   9.678  -4.186  1.00  0.00     0.017 C 
HETATM   14  C12 UNL     1     -20.375   8.336  -3.827  1.00  0.00     0.017 C 
ENDROOT
BRANCH   1  15
HETATM   15  C4  UNL     1     -21.418   6.513   0.211  1.00  0.00     0.141 C 
BRANCH  15  16
HETATM   16  C3  UNL     1     -21.324   6.852   1.715  1.00  0.00     0.142 C 
BRANCH  16  17
HETATM   17  N3  UNL     1     -22.621   7.164   2.220  1.00  0.00    -0.363 N 
HETATM   18  C2  UNL     1     -22.945   8.465   2.649  1.00  0.00     0.183 C 
HETATM   19  N1  UNL     1     -22.642   8.906   3.786  1.00  0.00    -0.369 N 
HETATM   20  N2  UNL     1     -23.674   9.298   1.698  1.00  0.00    -0.064 NA
HETATM   21  C1  UNL     1     -21.945   8.209   4.787  1.00  0.00     0.148 C 
ATOM     22  H1  UNL     1     -22.928   9.861   4.002  1.00  0.00     0.161 HD
ATOM     23  H3  UNL     1     -23.326   6.430   2.271  1.00  0.00     0.162 HD
ENDBRANCH  16  17
ENDBRANCH  15  16
ENDBRANCH   1  15
TORSDOF 3
ENDMDL
MODEL 2
REMARK VINA RESULT: -7.221228454      1.704      2.188
REMARK  3 active torsions:
REMARK  status: ('A' for Active; 'I' for Inactive)
REMARK       I    between atoms: C2_4  and  N3_6 
REMARK    1  A    between atoms: N3_6  and  C3_8 
REMARK    2  A    between atoms: C3_8  and  C4_9 
REMARK    3  A    between atoms: C4_9  and  N4_10 
ROOT
HETATM    1  N4  UNL     1     -21.670   7.699  -0.318  1.00  0.00    -0.369 N 
ATOM      2  H4  UNL     1     -22.686   7.716  -0.219  1.00  0.00     0.161 HD
HETATM    3  C5  UNL     1     -21.182   8.661  -0.989  1.00  0.00     0.137 C 
HETATM    4  N5  UNL     1     -19.788   8.737  -1.186  1.00  0.00    -0.366 N 
ATOM      5  H5  UNL     1     -19.217   8.190  -0.542  1.00  0.00     0.162 HD
HETATM    6  C6  UNL     1     -19.074   9.485  -2.174  1.00  0.00     0.092 C 
HETATM    7  C7  UNL     1     -19.524  10.941  -1.987  1.00  0.00     0.033 C 
HETATM    8  C8  UNL     1     -20.381  10.777  -3.187  1.00  0.00     0.022 C 
HETATM    9  C9  UNL     1     -21.849  10.782  -2.959  1.00  0.00     0.132 C 
HETATM   10 BR1  UNL     1     -22.344  12.640  -2.593  1.00  0.00    -0.079 Br
HETATM   11  S1  UNL     1     -22.443   9.799  -1.595  1.00  0.00    -0.078 SA
HETATM   12  C10 UNL     1     -19.741   9.499  -3.540  1.00  0.00    -0.022 C 
HETATM   13  C11 UNL     1     -18.626   9.656  -4.574  1.00  0.00     0.017 C 
HETATM   14  C12 UNL     1     -20.600   8.322  -3.881  1.00  0.00     0.017 C 
ENDROOT
BRANCH   1  15
HETATM   15  C4  UNL     1     -21.031   6.609   0.314  1.00  0.00     0.141 C 
BRANCH  15  16
HETATM   16  C3  UNL     1     -20.974   6.872   1.834  1.00  0.00     0.142 C 
BRANCH  16  17
HETATM   17  N3  UNL     1     -20.160   8.014   2.095  1.00  0.00    -0.363 N 
HETATM   18  C2  UNL     1     -18.776   7.891   2.317  1.00  0.00     0.183 C 
HETATM   19  N1  UNL     1     -18.288   7.569   3.429  1.00  0.00    -0.369 N 
HETATM   20  N2  UNL     1     -17.908   8.169   1.177  1.00  0.00    -0.064 NA
HETATM   21  C1  UNL     1     -19.009   7.278   4.599  1.00  0.00     0.148 C 
ATOM     22  H1  UNL     1     -17.271   7.513   3.489  1.00  0.00     0.161 HD
ATOM     23  H3  UNL     1     -20.590   8.938   2.120  1.00  0.00     0.162 HD
ENDBRANCH  16  17
ENDBRANCH  15  16
ENDBRANCH   1  15
TORSDOF 3
ENDMDL
MODEL 3
REMARK VINA RESULT: -7.188921116      2.832      3.966
REMARK  3 active torsions:
REMARK  status: ('A' for Active; 'I' for Inactive)
REMARK       I    between atoms: C2_4  and  N3_6 
REMARK    1  A    between atoms: N3_6  and  C3_8 
REMARK    2  A    between atoms: C3_8  and  C4_9 
REMARK    3  A    between atoms: C4_9  and  N4_10 
ROOT
HETATM    1  N4  UNL     1     -23.196  10.725   1.731  1.00  0.00    -0.369 N 
ATOM      2  H4  UNL     1     -22.523  10.826   2.491  1.00  0.00     0.161 HD
HETATM    3  C5  UNL     1     -22.775  10.069   0.726  1.00  0.00     0.137 C 
HETATM    4  N5  UNL     1     -23.624   9.867  -0.380  1.00  0.00    -0.366 N 
ATOM      5  H5  UNL     1     -24.621   9.998  -0.207  1.00  0.00     0.162 HD
HETATM    6  C6  UNL     1     -23.265   9.501  -1.715  1.00  0.00     0.092 C 
HETATM    7  C7  UNL     1     -22.477   8.190  -1.580  1.00  0.00     0.033 C 
HETATM    8  C8  UNL     1     -21.236   8.973  -1.799  1.00  0.00     0.022 C 
HETATM    9  C9  UNL     1     -20.319   9.101  -0.637  1.00  0.00     0.132 C 
HETATM   10 BR1  UNL     1     -19.444   7.363  -0.429  1.00  0.00    -0.079 Br
HETATM   11  S1  UNL     1     -21.075   9.502   0.928  1.00  0.00    -0.078 SA
HETATM   12  C10 UNL     1     -21.992  10.165  -2.217  1.00  0.00    -0.022 C 
HETATM   13  C11 UNL     1     -22.126  10.284  -3.735  1.00  0.00     0.017 C 
HETATM   14  C12 UNL     1     -21.648  11.494  -1.622  1.00  0.00     0.017 C 
ENDROOT
BRANCH   1  15
HETATM   15  C4  UNL     1     -24.449  11.336   1.961  1.00  0.00     0.141 C 
BRANCH  15  16
HETATM   16  C3  UNL     1     -25.170  10.587   3.103  1.00  0.00     0.142 C 
BRANCH  16  17
HETATM   17  N3  UNL     1     -25.686   9.349   2.616  1.00  0.00    -0.363 N 
HETATM   18  C2  UNL     1     -25.872   8.247   3.471  1.00  0.00     0.183 C 
HETATM   19  N1  UNL     1     -24.940   7.471   3.799  1.00  0.00    -0.369 N 
HETATM   20  N2  UNL     1     -27.228   8.031   3.965  1.00  0.00    -0.064 NA
HETATM   21  C1  UNL     1     -23.598   7.568   3.394  1.00  0.00     0.148 C 
ATOM     22  H1  UNL     1     -25.180   6.698   4.419  1.00  0.00     0.161 HD
ATOM     23  H3  UNL     1     -25.925   9.262   1.628  1.00  0.00     0.162 HD
ENDBRANCH  16  17
ENDBRANCH  15  16
ENDBRANCH   1  15
TORSDOF 3
ENDMDL
MODEL 4
REMARK VINA RESULT: -7.186647960      2.383      3.175
REMARK  3 active torsions:
REMARK  status: ('A' for Active; 'I' for Inactive)
REMARK       I    between atoms: C2_4  and  N3_6 
REMARK    1  A    between atoms: N3_6  and  C3_8 
REMARK    2  A    between atoms: C3_8  and  C4_9 
REMARK    3  A    between atoms: C4_9  and  N4_10 
ROOT
HETATM    1  N4  UNL     1     -23.569   9.758   0.128  1.00  0.00    -0.369 N 
ATOM      2  H4  UNL     1     -23.884   8.821   0.383  1.00  0.00     0.161 HD
HETATM    3  C5  UNL     1     -22.761   9.802  -0.853  1.00  0.00     0.137 C 
HETATM    4  N5  UNL     1     -22.265  11.046  -1.291  1.00  0.00    -0.366 N 
ATOM      5  H5  UNL     1     -22.795  11.866  -0.999  1.00  0.00     0.162 HD
HETATM    6  C6  UNL     1     -21.110  11.303  -2.096  1.00  0.00     0.092 C 
HETATM    7  C7  UNL     1     -21.319  10.488  -3.380  1.00  0.00     0.033 C 
HETATM    8  C8  UNL     1     -20.342   9.503  -2.854  1.00  0.00     0.022 C 
HETATM    9  C9  UNL     1     -20.881   8.172  -2.475  1.00  0.00     0.132 C 
HETATM   10 BR1  UNL     1     -21.255   7.231  -4.150  1.00  0.00    -0.079 Br
HETATM   11  S1  UNL     1     -22.388   8.168  -1.521  1.00  0.00    -0.078 SA
HETATM   12  C10 UNL     1     -19.921  10.411  -1.774  1.00  0.00    -0.022 C 
HETATM   13  C11 UNL     1     -18.664  11.209  -2.121  1.00  0.00     0.017 C 
HETATM   14  C12 UNL     1     -19.832   9.889  -0.374  1.00  0.00     0.017 C 
ENDROOT
BRANCH   1  15
HETATM   15  C4  UNL     1     -24.099  10.799   0.921  1.00  0.00     0.141 C 
BRANCH  15  16
HETATM   16  C3  UNL     1     -24.326  10.274   2.355  1.00  0.00     0.142 C 
BRANCH  16  17
HETATM   17  N3  UNL     1     -25.032   9.035   2.308  1.00  0.00    -0.363 N 
HETATM   18  C2  UNL     1     -25.345   8.326   3.482  1.00  0.00     0.183 C 
HETATM   19  N1  UNL     1     -24.524   7.579   4.070  1.00  0.00    -0.369 N 
HETATM   20  N2  UNL     1     -26.701   8.493   3.998  1.00  0.00    -0.064 NA
HETATM   21  C1  UNL     1     -23.197   7.334   3.679  1.00  0.00     0.148 C 
ATOM     22  H1  UNL     1     -24.852   7.105   4.911  1.00  0.00     0.161 HD
ATOM     23  H3  UNL     1     -25.314   8.656   1.404  1.00  0.00     0.162 HD
ENDBRANCH  16  17
ENDBRANCH  15  16
ENDBRANCH   1  15
TORSDOF 3
ENDMDL
MODEL 5
REMARK VINA RESULT: -7.131539219      2.443      3.334
REMARK  3 active torsions:
REMARK  status: ('A' for Active; 'I' for Inactive)
REMARK       I    between atoms: C2_4  and  N3_6 
REMARK    1  A    between atoms: N3_6  and  C3_8 
REMARK    2  A    between atoms: C3_8  and  C4_9 
REMARK    3  A    between atoms: C4_9  and  N4_10 
ROOT
HETATM    1  N4  UNL     1     -22.287  11.364  -0.788  1.00  0.00    -0.369 N 
ATOM      2  H4  UNL     1     -21.949  12.327  -0.763  1.00  0.00     0.161 HD
HETATM    3  C5  UNL     1     -21.474  10.525  -1.288  1.00  0.00     0.137 C 
HETATM    4  N5  UNL     1     -21.838   9.165  -1.370  1.00  0.00    -0.366 N 
ATOM      5  H5  UNL     1     -22.605   8.872  -0.765  1.00  0.00     0.162 HD
HETATM    6  C6  UNL     1     -21.268   8.145  -2.195  1.00  0.00     0.092 C 
HETATM    7  C7  UNL     1     -19.772   8.131  -1.850  1.00  0.00     0.033 C 
HETATM    8  C8  UNL     1     -19.523   8.855  -3.120  1.00  0.00     0.022 C 
HETATM    9  C9  UNL     1     -19.061  10.262  -3.002  1.00  0.00     0.132 C 
HETATM   10 BR1  UNL     1     -17.192  10.184  -2.428  1.00  0.00    -0.079 Br
HETATM   11  S1  UNL     1     -19.930  11.286  -1.828  1.00  0.00    -0.078 SA
HETATM   12  C10 UNL     1     -20.896   8.617  -3.593  1.00  0.00    -0.022 C 
HETATM   13  C11 UNL     1     -21.008   7.400  -4.512  1.00  0.00     0.017 C 
HETATM   14  C12 UNL     1     -21.687   9.759  -4.149  1.00  0.00     0.017 C 
ENDROOT
BRANCH   1  15
HETATM   15  C4  UNL     1     -23.584  11.176  -0.263  1.00  0.00     0.141 C 
BRANCH  15  16
HETATM   16  C3  UNL     1     -23.640  11.769   1.162  1.00  0.00     0.142 C 
BRANCH  16  17
HETATM   17  N3  UNL     1     -23.322  10.758   2.116  1.00  0.00    -0.363 N 
HETATM   18  C2  UNL     1     -23.799   9.442   1.974  1.00  0.00     0.183 C 
HETATM   19  N1  UNL     1     -24.955   9.092   2.322  1.00  0.00    -0.369 N 
HETATM   20  N2  UNL     1     -22.870   8.474   1.400  1.00  0.00    -0.064 NA
HETATM   21  C1  UNL     1     -25.939   9.922   2.885  1.00  0.00     0.148 C 
ATOM     22  H1  UNL     1     -25.202   8.112   2.183  1.00  0.00     0.161 HD
ATOM     23  H3  UNL     1     -22.738  10.995   2.918  1.00  0.00     0.162 HD
ENDBRANCH  16  17
ENDBRANCH  15  16
ENDBRANCH   1  15
TORSDOF 3
ENDMDL
