MODEL 1
REMARK VINA RESULT: -7.563570610      0.000      0.000
REMARK  6 active torsions:
REMARK  status: ('A' for Active; 'I' for Inactive)
REMARK    1  A    between atoms: C2_2  and  C3_3 
REMARK    2  A    between atoms: C4_4  and  C5_5 
REMARK    3  A    between atoms: C7_10  and  N2_11 
REMARK    4  A    between atoms: N2_11  and  N3_13 
REMARK    5  A    between atoms: C9_20  and  C10_21 
REMARK    6  A    between atoms: C10_21  and  C11_22 
ROOT
HETATM    1  C5  UNL     1     -21.137   8.740  -3.011  1.00  0.00     0.075 A 
HETATM    2  C6  UNL     1     -21.690   7.468  -2.868  1.00  0.00     0.116 A 
HETATM    3 BR1  UNL     1     -21.798   6.361  -4.411  1.00  0.00    -0.029 Br
HETATM    4  N1  UNL     1     -22.132   7.036  -1.689  1.00  0.00    -0.182 N 
ATOM      5  H1  UNL     1     -22.536   6.104  -1.588  1.00  0.00     0.185 HD
HETATM    6  C7  UNL     1     -22.028   7.872  -0.628  1.00  0.00     0.698 A 
HETATM    7  N6  UNL     1     -21.497   9.101  -0.752  1.00  0.00    -0.193 N 
ATOM      8  H6  UNL     1     -21.440   9.695   0.075  1.00  0.00     0.184 HD
HETATM    9  C9  UNL     1     -21.038   9.579  -1.922  1.00  0.00     0.048 A 
ENDROOT
BRANCH   6  10
HETATM   10  N2  UNL     1     -22.465   7.427   0.499  1.00  0.00    -0.130 N 
ATOM     11  H2  UNL     1     -23.411   7.693   0.774  1.00  0.00     0.205 HD
BRANCH  10  12
HETATM   12  N3  UNL     1     -21.758   6.622   1.362  1.00  0.00    -0.262 N 
HETATM   13  C8  UNL     1     -20.990   7.035   2.296  1.00  0.00     0.216 C 
HETATM   14  N4  UNL     1     -20.821   8.425   2.498  1.00  0.00    -0.065 NA
HETATM   15  N5  UNL     1     -20.298   6.134   3.140  1.00  0.00    -0.065 NA
ATOM     16  H3  UNL     1     -21.855   5.613   1.247  1.00  0.00     0.190 HD
ENDBRANCH  10  12
ENDBRANCH   6  10
BRANCH   9  17
HETATM   17  C10 UNL     1     -20.453  10.937  -2.027  1.00  0.00     0.063 C 
BRANCH  17  18
HETATM   18  C11 UNL     1     -21.472  12.037  -1.852  1.00  0.00    -0.017 C 
HETATM   19  C12 UNL     1     -22.389  12.148  -3.052  1.00  0.00     0.010 C 
HETATM   20  C13 UNL     1     -20.743  13.356  -1.714  1.00  0.00     0.010 C 
ENDBRANCH  17  18
ENDBRANCH   9  17
BRANCH   1  21
HETATM   21  C4  UNL     1     -20.681   9.160  -4.311  1.00  0.00    -0.062 C 
HETATM   22  C3  UNL     1     -20.282   9.530  -5.401  1.00  0.00    -0.101 C 
BRANCH  22  23
HETATM   23  C2  UNL     1     -19.802   9.991  -6.706  1.00  0.00     0.090 C 
HETATM   24  C1  UNL     1     -20.866  10.916  -7.258  1.00  0.00     0.018 C 
ENDBRANCH  22  23
ENDBRANCH   1  21
TORSDOF 6
ENDMDL
MODEL 2
REMARK VINA RESULT: -7.201404954      3.308      4.090
REMARK  6 active torsions:
REMARK  status: ('A' for Active; 'I' for Inactive)
REMARK    1  A    between atoms: C2_2  and  C3_3 
REMARK    2  A    between atoms: C4_4  and  C5_5 
REMARK    3  A    between atoms: C7_10  and  N2_11 
REMARK    4  A    between atoms: N2_11  and  N3_13 
REMARK    5  A    between atoms: C9_20  and  C10_21 
REMARK    6  A    between atoms: C10_21  and  C11_22 
ROOT
HETATM    1  C5  UNL     1     -22.493   9.019  -0.084  1.00  0.00     0.075 A 
HETATM    2  C6  UNL     1     -22.138   7.840   0.570  1.00  0.00     0.116 A 
HETATM    3 BR1  UNL     1     -20.822   6.729  -0.237  1.00  0.00    -0.029 Br
HETATM    4  N1  UNL     1     -22.700   7.495   1.726  1.00  0.00    -0.182 N 
ATOM      5  H1  UNL     1     -22.438   6.632   2.203  1.00  0.00     0.185 HD
HETATM    6  C7  UNL     1     -23.632   8.327   2.250  1.00  0.00     0.698 A 
HETATM    7  N6  UNL     1     -23.984   9.468   1.630  1.00  0.00    -0.193 N 
ATOM      8  H6  UNL     1     -24.691  10.063   2.063  1.00  0.00     0.184 HD
HETATM    9  C9  UNL     1     -23.442   9.855   0.462  1.00  0.00     0.048 A 
ENDROOT
BRANCH   6  10
HETATM   10  N2  UNL     1     -24.160   7.968   3.368  1.00  0.00    -0.130 N 
ATOM     11  H2  UNL     1     -23.567   7.997   4.199  1.00  0.00     0.205 HD
BRANCH  10  12
HETATM   12  N3  UNL     1     -25.460   7.548   3.534  1.00  0.00    -0.262 N 
HETATM   13  C8  UNL     1     -26.450   8.304   3.816  1.00  0.00     0.216 C 
HETATM   14  N4  UNL     1     -26.243   9.694   3.982  1.00  0.00    -0.065 NA
HETATM   15  N5  UNL     1     -27.759   7.787   3.970  1.00  0.00    -0.065 NA
ATOM     16  H3  UNL     1     -25.648   6.552   3.421  1.00  0.00     0.190 HD
ENDBRANCH  10  12
ENDBRANCH   6  10
BRANCH   9  17
HETATM   17  C10 UNL     1     -23.846  11.120  -0.196  1.00  0.00     0.063 C 
BRANCH  17  18
HETATM   18  C11 UNL     1     -23.010  12.303   0.228  1.00  0.00    -0.017 C 
HETATM   19  C12 UNL     1     -23.820  13.308   1.020  1.00  0.00     0.010 C 
HETATM   20  C13 UNL     1     -22.499  13.007  -1.010  1.00  0.00     0.010 C 
ENDBRANCH  17  18
ENDBRANCH   9  17
BRANCH   1  21
HETATM   21  C4  UNL     1     -21.857   9.340  -1.336  1.00  0.00    -0.062 C 
HETATM   22  C3  UNL     1     -21.336   9.601  -2.406  1.00  0.00    -0.101 C 
BRANCH  22  23
HETATM   23  C2  UNL     1     -20.713   9.898  -3.698  1.00  0.00     0.090 C 
HETATM   24  C1  UNL     1     -20.373   8.567  -4.333  1.00  0.00     0.018 C 
ENDBRANCH  22  23
ENDBRANCH   1  21
TORSDOF 6
ENDMDL
MODEL 3
REMARK VINA RESULT: -7.160862898      2.022      2.612
REMARK  6 active torsions:
REMARK  status: ('A' for Active; 'I' for Inactive)
REMARK    1  A    between atoms: C2_2  and  C3_3 
REMARK    2  A    between atoms: C4_4  and  C5_5 
REMARK    3  A    between atoms: C7_10  and  N2_11 
REMARK    4  A    between atoms: N2_11  and  N3_13 
REMARK    5  A    between atoms: C9_20  and  C10_21 
REMARK    6  A    between atoms: C10_21  and  C11_22 
ROOT
HETATM    1  C5  UNL     1     -20.534   8.341  -2.175  1.00  0.00     0.075 A 
HETATM    2  C6  UNL     1     -21.509   7.352  -2.296  1.00  0.00     0.116 A 
HETATM    3 BR1  UNL     1     -21.962   6.751  -4.043  1.00  0.00    -0.029 Br
HETATM    4  N1  UNL     1     -22.110   6.840  -1.224  1.00  0.00    -0.182 N 
ATOM      5  H1  UNL     1     -22.823   6.116  -1.316  1.00  0.00     0.185 HD
HETATM    6  C7  UNL     1     -21.744   7.310  -0.008  1.00  0.00     0.698 A 
HETATM    7  N6  UNL     1     -20.805   8.264   0.124  1.00  0.00    -0.193 N 
ATOM      8  H6  UNL     1     -20.562   8.587   1.061  1.00  0.00     0.184 HD
HETATM    9  C9  UNL     1     -20.172   8.809  -0.930  1.00  0.00     0.048 A 
ENDROOT
BRANCH   6  10
HETATM   10  N2  UNL     1     -22.342   6.797   1.011  1.00  0.00    -0.130 N 
ATOM     11  H2  UNL     1     -23.288   6.441   0.869  1.00  0.00     0.205 HD
BRANCH  10  12
HETATM   12  N3  UNL     1     -21.809   6.691   2.275  1.00  0.00    -0.262 N 
HETATM   13  C8  UNL     1     -22.338   7.153   3.341  1.00  0.00     0.216 C 
HETATM   14  N4  UNL     1     -23.574   7.837   3.268  1.00  0.00    -0.065 NA
HETATM   15  N5  UNL     1     -21.718   6.999   4.604  1.00  0.00    -0.065 NA
ATOM     16  H3  UNL     1     -20.918   6.203   2.367  1.00  0.00     0.190 HD
ENDBRANCH  10  12
ENDBRANCH   6  10
BRANCH   9  17
HETATM   17  C10 UNL     1     -19.138   9.856  -0.754  1.00  0.00     0.063 C 
BRANCH  17  18
HETATM   18  C11 UNL     1     -17.765   9.292  -0.479  1.00  0.00    -0.017 C 
HETATM   19  C12 UNL     1     -17.186   9.831   0.813  1.00  0.00     0.010 C 
HETATM   20  C13 UNL     1     -16.836   9.705  -1.600  1.00  0.00     0.010 C 
ENDBRANCH  17  18
ENDBRANCH   9  17
BRANCH   1  21
HETATM   21  C4  UNL     1     -19.921   8.866  -3.368  1.00  0.00    -0.062 C 
HETATM   22  C3  UNL     1     -19.419   9.324  -4.379  1.00  0.00    -0.101 C 
BRANCH  22  23
HETATM   23  C2  UNL     1     -18.832   9.874  -5.603  1.00  0.00     0.090 C 
HETATM   24  C1  UNL     1     -19.951   9.963  -6.620  1.00  0.00     0.018 C 
ENDBRANCH  22  23
ENDBRANCH   1  21
TORSDOF 6
ENDMDL
MODEL 4
REMARK VINA RESULT: -7.070896221      5.374      7.249
REMARK  6 active torsions:
REMARK  status: ('A' for Active; 'I' for Inactive)
REMARK    1  A    between atoms: C2_2  and  C3_3 
REMARK    2  A    between atoms: C4_4  and  C5_5 
REMARK    3  A    between atoms: C7_10  and  N2_11 
REMARK    4  A    between atoms: N2_11  and  N3_13 
REMARK    5  A    between atoms: C9_20  and  C10_21 
REMARK    6  A    between atoms: C10_21  and  C11_22 
ROOT
HETATM    1  C5  UNL     1     -25.711   9.429   3.171  1.00  0.00     0.075 A 
HETATM    2  C6  UNL     1     -25.545   8.165   3.734  1.00  0.00     0.116 A 
HETATM    3 BR1  UNL     1     -27.041   6.990   3.751  1.00  0.00    -0.029 Br
HETATM    4  N1  UNL     1     -24.377   7.785   4.247  1.00  0.00    -0.182 N 
ATOM      5  H1  UNL     1     -24.260   6.859   4.658  1.00  0.00     0.185 HD
HETATM    6  C7  UNL     1     -23.351   8.667   4.206  1.00  0.00     0.698 A 
HETATM    7  N6  UNL     1     -23.496   9.891   3.666  1.00  0.00    -0.193 N 
ATOM      8  H6  UNL     1     -22.694  10.521   3.657  1.00  0.00     0.184 HD
HETATM    9  C9  UNL     1     -24.656  10.316   3.136  1.00  0.00     0.048 A 
ENDROOT
BRANCH   6  10
HETATM   10  N2  UNL     1     -22.233   8.273   4.711  1.00  0.00    -0.130 N 
ATOM     11  H2  UNL     1     -22.276   7.678   5.539  1.00  0.00     0.205 HD
BRANCH  10  12
HETATM   12  N3  UNL     1     -20.986   8.591   4.224  1.00  0.00    -0.262 N 
HETATM   13  C8  UNL     1     -20.056   7.753   3.971  1.00  0.00     0.216 C 
HETATM   14  N4  UNL     1     -20.280   6.374   4.193  1.00  0.00    -0.065 NA
HETATM   15  N5  UNL     1     -18.799   8.168   3.472  1.00  0.00    -0.065 NA
ATOM     16  H3  UNL     1     -20.789   9.577   4.051  1.00  0.00     0.190 HD
ENDBRANCH  10  12
ENDBRANCH   6  10
BRANCH   9  17
HETATM   17  C10 UNL     1     -24.786  11.668   2.543  1.00  0.00     0.063 C 
BRANCH  17  18
HETATM   18  C11 UNL     1     -23.868  11.890   1.366  1.00  0.00    -0.017 C 
HETATM   19  C12 UNL     1     -23.788  13.353   0.984  1.00  0.00     0.010 C 
HETATM   20  C13 UNL     1     -24.416  11.139   0.172  1.00  0.00     0.010 C 
ENDBRANCH  17  18
ENDBRANCH   9  17
BRANCH   1  21
HETATM   21  C4  UNL     1     -26.999   9.791   2.636  1.00  0.00    -0.062 C 
HETATM   22  C3  UNL     1     -28.094  10.077   2.186  1.00  0.00    -0.101 C 
BRANCH  22  23
HETATM   23  C2  UNL     1     -29.411  10.405   1.636  1.00  0.00     0.090 C 
HETATM   24  C1  UNL     1     -30.432  10.002   2.680  1.00  0.00     0.018 C 
ENDBRANCH  22  23
ENDBRANCH   1  21
TORSDOF 6
ENDMDL
MODEL 5
REMARK VINA RESULT: -7.063720189      3.683      4.658
REMARK  6 active torsions:
REMARK  status: ('A' for Active; 'I' for Inactive)
REMARK    1  A    between atoms: C2_2  and  C3_3 
REMARK    2  A    between atoms: C4_4  and  C5_5 
REMARK    3  A    between atoms: C7_10  and  N2_11 
REMARK    4  A    between atoms: N2_11  and  N3_13 
REMARK    5  A    between atoms: C9_20  and  C10_21 
REMARK    6  A    between atoms: C10_21  and  C11_22 
ROOT
HETATM    1  C5  UNL     1     -22.560   8.970   0.511  1.00  0.00     0.075 A 
HETATM    2  C6  UNL     1     -22.219   7.785   1.161  1.00  0.00     0.116 A 
HETATM    3 BR1  UNL     1     -20.714   6.814   0.519  1.00  0.00    -0.029 Br
HETATM    4  N1  UNL     1     -22.921   7.339   2.200  1.00  0.00    -0.182 N 
ATOM      5  H1  UNL     1     -22.668   6.472   2.673  1.00  0.00     0.185 HD
HETATM    6  C7  UNL     1     -23.983   8.075   2.608  1.00  0.00     0.698 A 
HETATM    7  N6  UNL     1     -24.323   9.221   1.991  1.00  0.00    -0.193 N 
ATOM      8  H6  UNL     1     -25.131   9.741   2.334  1.00  0.00     0.184 HD
HETATM    9  C9  UNL     1     -23.642   9.708   0.939  1.00  0.00     0.048 A 
ENDROOT
BRANCH   6  10
HETATM   10  N2  UNL     1     -24.645   7.620   3.615  1.00  0.00    -0.130 N 
ATOM     11  H2  UNL     1     -24.111   7.327   4.434  1.00  0.00     0.205 HD
BRANCH  10  12
HETATM   12  N3  UNL     1     -26.014   7.495   3.673  1.00  0.00    -0.262 N 
HETATM   13  C8  UNL     1     -26.822   8.402   4.070  1.00  0.00     0.216 C 
HETATM   14  N4  UNL     1     -26.314   9.653   4.492  1.00  0.00    -0.065 NA
HETATM   15  N5  UNL     1     -28.220   8.188   4.099  1.00  0.00    -0.065 NA
ATOM     16  H3  UNL     1     -26.416   6.606   3.376  1.00  0.00     0.190 HD
ENDBRANCH  10  12
ENDBRANCH   6  10
BRANCH   9  17
HETATM   17  C10 UNL     1     -24.038  10.976   0.282  1.00  0.00     0.063 C 
BRANCH  17  18
HETATM   18  C11 UNL     1     -23.222  12.161   0.739  1.00  0.00    -0.017 C 
HETATM   19  C12 UNL     1     -24.017  13.072   1.649  1.00  0.00     0.010 C 
HETATM   20  C13 UNL     1     -22.819  12.970  -0.475  1.00  0.00     0.010 C 
ENDBRANCH  17  18
ENDBRANCH   9  17
BRANCH   1  21
HETATM   21  C4  UNL     1     -21.769   9.402  -0.613  1.00  0.00    -0.062 C 
HETATM   22  C3  UNL     1     -21.087   9.779  -1.549  1.00  0.00    -0.101 C 
BRANCH  22  23
HETATM   23  C2  UNL     1     -20.268  10.249  -2.669  1.00  0.00     0.090 C 
HETATM   24  C1  UNL     1     -19.408  11.376  -2.135  1.00  0.00     0.018 C 
ENDBRANCH  22  23
ENDBRANCH   1  21
TORSDOF 6
ENDMDL
