MODEL 1
REMARK VINA RESULT: -7.482510992      0.000      0.000
REMARK  5 active torsions:
REMARK  status: ('A' for Active; 'I' for Inactive)
REMARK    1  A    between atoms: N1_2  and  N2_4 
REMARK    2  A    between atoms: N2_4  and  C3_6 
REMARK    3  A    between atoms: C3_6  and  N3_8 
REMARK    4  A    between atoms: N3_8  and  C4_10 
REMARK       I    between atoms: N4_13  and  C7_14 
REMARK       I    between atoms: C7_14  and  N6_18 
REMARK    5  A    between atoms: N6_18  and  C8_20 
ROOT
HETATM    1  C4  UNL     1     -21.768   9.230   0.754  1.00  0.00     0.087 C 
HETATM    2  C5  UNL     1     -22.440   7.868   0.820  1.00  0.00     0.045 C 
HETATM    3  C6  UNL     1     -22.030   6.927  -0.274  1.00  0.00     0.143 C 
HETATM    4  N4  UNL     1     -22.156   7.601  -1.535  1.00  0.00    -0.216 N 
HETATM    5  C7  UNL     1     -21.754   6.976  -2.743  1.00  0.00     0.700 C 
HETATM    6  N5  UNL     1     -22.691   6.448  -3.464  1.00  0.00    -0.054 N 
ATOM      7  H5  UNL     1     -23.654   6.507  -3.133  1.00  0.00     0.218 HD
HETATM    8  F1  UNL     1     -22.449   5.829  -4.623  1.00  0.00    -0.086 F 
HETATM    9  N6  UNL     1     -20.409   6.920  -3.153  1.00  0.00    -0.220 N 
ATOM     10  H6  UNL     1     -19.922   6.025  -3.112  1.00  0.00     0.178 HD
HETATM   11  C13 UNL     1     -22.697   8.921  -1.568  1.00  0.00     0.143 C 
HETATM   12  C14 UNL     1     -21.993   9.859  -0.605  1.00  0.00     0.045 C 
ENDROOT
BRANCH   9  13
HETATM   13  C8  UNL     1     -19.694   8.068  -3.627  1.00  0.00     0.099 C 
HETATM   14  C9  UNL     1     -19.196   8.966  -2.518  1.00  0.00     0.026 C 
HETATM   15  C10 UNL     1     -19.127  10.313  -3.249  1.00  0.00     0.002 C 
HETATM   16  C11 UNL     1     -20.512  10.336  -3.895  1.00  0.00     0.002 C 
HETATM   17  C12 UNL     1     -20.572   8.935  -4.494  1.00  0.00     0.026 C 
ENDBRANCH   9  13
BRANCH   1  18
HETATM   18  N3  UNL     1     -20.347   9.007   0.941  1.00  0.00    -0.362 N 
ATOM     19  H3  UNL     1     -19.811   8.803   0.099  1.00  0.00     0.162 HD
BRANCH  18  20
HETATM   20  C3  UNL     1     -19.625   9.040   2.138  1.00  0.00     0.182 C 
HETATM   21  S1  UNL     1     -17.972   9.177   2.011  1.00  0.00    -0.040 SA
BRANCH  20  22
HETATM   22  N2  UNL     1     -20.158   8.967   3.400  1.00  0.00    -0.296 N 
ATOM     23  H2  UNL     1     -20.357   9.874   3.823  1.00  0.00     0.183 HD
BRANCH  22  24
HETATM   24  N1  UNL     1     -20.476   7.880   4.206  1.00  0.00    -0.238 NA
HETATM   25  C1  UNL     1     -20.199   6.648   3.470  1.00  0.00     0.135 C 
HETATM   26  C2  UNL     1     -21.883   7.878   4.582  1.00  0.00     0.135 C 
ENDBRANCH  22  24
ENDBRANCH  20  22
ENDBRANCH  18  20
ENDBRANCH   1  18
TORSDOF 5
ENDMDL
MODEL 2
REMARK VINA RESULT: -7.471448293      1.011      1.333
REMARK  5 active torsions:
REMARK  status: ('A' for Active; 'I' for Inactive)
REMARK    1  A    between atoms: N1_2  and  N2_4 
REMARK    2  A    between atoms: N2_4  and  C3_6 
REMARK    3  A    between atoms: C3_6  and  N3_8 
REMARK    4  A    between atoms: N3_8  and  C4_10 
REMARK       I    between atoms: N4_13  and  C7_14 
REMARK       I    between atoms: C7_14  and  N6_18 
REMARK    5  A    between atoms: N6_18  and  C8_20 
ROOT
HETATM    1  C4  UNL     1     -21.913   9.338   0.739  1.00  0.00     0.087 C 
HETATM    2  C5  UNL     1     -22.193   7.845   0.812  1.00  0.00     0.045 C 
HETATM    3  C6  UNL     1     -21.693   7.068  -0.370  1.00  0.00     0.143 C 
HETATM    4  N4  UNL     1     -22.148   7.709  -1.571  1.00  0.00    -0.216 N 
HETATM    5  C7  UNL     1     -21.752   7.237  -2.848  1.00  0.00     0.700 C 
HETATM    6  N5  UNL     1     -22.601   6.494  -3.482  1.00  0.00    -0.054 N 
ATOM      7  H5  UNL     1     -23.497   6.288  -3.039  1.00  0.00     0.218 HD
HETATM    8  F1  UNL     1     -22.354   5.984  -4.692  1.00  0.00    -0.086 F 
HETATM    9  N6  UNL     1     -20.501   7.549  -3.414  1.00  0.00    -0.220 N 
ATOM     10  H6  UNL     1     -19.797   6.814  -3.477  1.00  0.00     0.178 HD
HETATM   11  C13 UNL     1     -23.014   8.838  -1.472  1.00  0.00     0.143 C 
HETATM   12  C14 UNL     1     -22.464   9.910  -0.549  1.00  0.00     0.045 C 
ENDROOT
BRANCH   9  13
HETATM   13  C8  UNL     1     -20.176   8.854  -3.907  1.00  0.00     0.099 C 
HETATM   14  C9  UNL     1     -20.198   8.951  -5.415  1.00  0.00     0.026 C 
HETATM   15  C10 UNL     1     -19.216  10.108  -5.643  1.00  0.00     0.002 C 
HETATM   16  C11 UNL     1     -18.050   9.642  -4.771  1.00  0.00     0.002 C 
HETATM   17  C12 UNL     1     -18.785   9.261  -3.490  1.00  0.00     0.026 C 
ENDBRANCH   9  13
BRANCH   1  18
HETATM   18  N3  UNL     1     -20.472   9.496   0.748  1.00  0.00    -0.362 N 
ATOM     19  H3  UNL     1     -20.060   9.900  -0.092  1.00  0.00     0.162 HD
BRANCH  18  20
HETATM   20  C3  UNL     1     -19.579   9.163   1.771  1.00  0.00     0.182 C 
HETATM   21  S1  UNL     1     -18.070   8.640   1.306  1.00  0.00    -0.040 SA
BRANCH  20  22
HETATM   22  N2  UNL     1     -19.839   9.228   3.117  1.00  0.00    -0.296 N 
ATOM     23  H2  UNL     1     -20.368  10.052   3.402  1.00  0.00     0.183 HD
BRANCH  22  24
HETATM   24  N1  UNL     1     -19.510   8.372   4.162  1.00  0.00    -0.238 NA
HETATM   25  C1  UNL     1     -20.367   7.190   4.095  1.00  0.00     0.135 C 
HETATM   26  C2  UNL     1     -19.706   9.003   5.461  1.00  0.00     0.135 C 
ENDBRANCH  22  24
ENDBRANCH  20  22
ENDBRANCH  18  20
ENDBRANCH   1  18
TORSDOF 5
ENDMDL
MODEL 3
REMARK VINA RESULT: -7.406787008      3.045      4.305
REMARK  5 active torsions:
REMARK  status: ('A' for Active; 'I' for Inactive)
REMARK    1  A    between atoms: N1_2  and  N2_4 
REMARK    2  A    between atoms: N2_4  and  C3_6 
REMARK    3  A    between atoms: C3_6  and  N3_8 
REMARK    4  A    between atoms: N3_8  and  C4_10 
REMARK       I    between atoms: N4_13  and  C7_14 
REMARK       I    between atoms: C7_14  and  N6_18 
REMARK    5  A    between atoms: N6_18  and  C8_20 
ROOT
HETATM    1  C4  UNL     1     -22.281   7.630   1.633  1.00  0.00     0.087 C 
HETATM    2  C5  UNL     1     -21.147   8.351   2.345  1.00  0.00     0.045 C 
HETATM    3  C6  UNL     1     -20.310   9.214   1.450  1.00  0.00     0.143 C 
HETATM    4  N4  UNL     1     -19.910   8.446   0.305  1.00  0.00    -0.216 N 
HETATM    5  C7  UNL     1     -19.177   9.037  -0.754  1.00  0.00     0.700 C 
HETATM    6  N5  UNL     1     -17.898   8.835  -0.760  1.00  0.00    -0.054 N 
ATOM      7  H5  UNL     1     -17.489   8.271  -0.014  1.00  0.00     0.218 HD
HETATM    8  F1  UNL     1     -17.091   9.335  -1.700  1.00  0.00    -0.086 F 
HETATM    9  N6  UNL     1     -19.791   9.808  -1.759  1.00  0.00    -0.220 N 
ATOM     10  H6  UNL     1     -19.641  10.817  -1.759  1.00  0.00     0.178 HD
HETATM   11  C13 UNL     1     -20.258   7.063   0.240  1.00  0.00     0.143 C 
HETATM   12  C14 UNL     1     -21.740   6.829   0.468  1.00  0.00     0.045 C 
ENDROOT
BRANCH   9  13
HETATM   13  C8  UNL     1     -20.616   9.237  -2.782  1.00  0.00     0.099 C 
HETATM   14  C9  UNL     1     -20.085   7.930  -3.322  1.00  0.00     0.026 C 
HETATM   15  C10 UNL     1     -20.695   7.932  -4.730  1.00  0.00     0.002 C 
HETATM   16  C11 UNL     1     -20.305   9.337  -5.186  1.00  0.00     0.002 C 
HETATM   17  C12 UNL     1     -20.723  10.159  -3.971  1.00  0.00     0.026 C 
ENDBRANCH   9  13
BRANCH   1  18
HETATM   18  N3  UNL     1     -23.176   8.653   1.127  1.00  0.00    -0.362 N 
ATOM     19  H3  UNL     1     -23.409   8.594   0.136  1.00  0.00     0.162 HD
BRANCH  18  20
HETATM   20  C3  UNL     1     -23.758   9.709   1.834  1.00  0.00     0.182 C 
HETATM   21  S1  UNL     1     -24.903   9.308   2.971  1.00  0.00    -0.040 SA
BRANCH  20  22
HETATM   22  N2  UNL     1     -23.467  11.041   1.672  1.00  0.00    -0.296 N 
ATOM     23  H2  UNL     1     -22.975  11.462   2.462  1.00  0.00     0.183 HD
BRANCH  22  24
HETATM   24  N1  UNL     1     -23.721  11.919   0.625  1.00  0.00    -0.238 NA
HETATM   25  C1  UNL     1     -22.636  11.822  -0.349  1.00  0.00     0.135 C 
HETATM   26  C2  UNL     1     -23.797  13.300   1.084  1.00  0.00     0.135 C 
ENDBRANCH  22  24
ENDBRANCH  20  22
ENDBRANCH  18  20
ENDBRANCH   1  18
TORSDOF 5
ENDMDL
MODEL 4
REMARK VINA RESULT: -7.354892129      1.198      1.325
REMARK  5 active torsions:
REMARK  status: ('A' for Active; 'I' for Inactive)
REMARK    1  A    between atoms: N1_2  and  N2_4 
REMARK    2  A    between atoms: N2_4  and  C3_6 
REMARK    3  A    between atoms: C3_6  and  N3_8 
REMARK    4  A    between atoms: N3_8  and  C4_10 
REMARK       I    between atoms: N4_13  and  C7_14 
REMARK       I    between atoms: C7_14  and  N6_18 
REMARK    5  A    between atoms: N6_18  and  C8_20 
ROOT
HETATM    1  C4  UNL     1     -22.001   8.803   1.354  1.00  0.00     0.087 C 
HETATM    2  C5  UNL     1     -21.906   7.319   1.036  1.00  0.00     0.045 C 
HETATM    3  C6  UNL     1     -21.130   7.007  -0.209  1.00  0.00     0.143 C 
HETATM    4  N4  UNL     1     -21.625   7.823  -1.281  1.00  0.00    -0.216 N 
HETATM    5  C7  UNL     1     -21.017   7.799  -2.561  1.00  0.00     0.700 C 
HETATM    6  N5  UNL     1     -21.597   7.079  -3.468  1.00  0.00    -0.054 N 
ATOM      7  H5  UNL     1     -22.449   6.575  -3.220  1.00  0.00     0.218 HD
HETATM    8  F1  UNL     1     -21.129   6.969  -4.714  1.00  0.00    -0.086 F 
HETATM    9  N6  UNL     1     -19.839   8.513  -2.852  1.00  0.00    -0.220 N 
ATOM     10  H6  UNL     1     -18.971   7.992  -2.981  1.00  0.00     0.178 HD
HETATM   11  C13 UNL     1     -22.750   8.669  -1.048  1.00  0.00     0.143 C 
HETATM   12  C14 UNL     1     -22.564   9.557   0.169  1.00  0.00     0.045 C 
ENDROOT
BRANCH   9  13
HETATM   13  C8  UNL     1     -19.807   9.940  -2.974  1.00  0.00     0.099 C 
HETATM   14  C9  UNL     1     -19.739  10.656  -1.645  1.00  0.00     0.026 C 
HETATM   15  C10 UNL     1     -20.383  12.000  -2.010  1.00  0.00     0.002 C 
HETATM   16  C11 UNL     1     -21.642  11.506  -2.722  1.00  0.00     0.002 C 
HETATM   17  C12 UNL     1     -21.050  10.455  -3.655  1.00  0.00     0.026 C 
ENDBRANCH   9  13
BRANCH   1  18
HETATM   18  N3  UNL     1     -20.650   9.265   1.609  1.00  0.00    -0.362 N 
ATOM     19  H3  UNL     1     -20.290   9.972   0.969  1.00  0.00     0.162 HD
BRANCH  18  20
HETATM   20  C3  UNL     1     -19.782   8.857   2.627  1.00  0.00     0.182 C 
HETATM   21  S1  UNL     1     -18.352   8.154   2.153  1.00  0.00    -0.040 SA
BRANCH  20  22
HETATM   22  N2  UNL     1     -20.008   8.985   3.974  1.00  0.00    -0.296 N 
ATOM     23  H2  UNL     1     -19.580   9.812   4.394  1.00  0.00     0.183 HD
BRANCH  22  24
HETATM   24  N1  UNL     1     -20.715   8.191   4.871  1.00  0.00    -0.238 NA
HETATM   25  C1  UNL     1     -20.646   6.800   4.428  1.00  0.00     0.135 C 
HETATM   26  C2  UNL     1     -22.118   8.576   4.943  1.00  0.00     0.135 C 
ENDBRANCH  22  24
ENDBRANCH  20  22
ENDBRANCH  18  20
ENDBRANCH   1  18
TORSDOF 5
ENDMDL
MODEL 5
REMARK VINA RESULT: -7.208736999      2.923      5.831
REMARK  5 active torsions:
REMARK  status: ('A' for Active; 'I' for Inactive)
REMARK    1  A    between atoms: N1_2  and  N2_4 
REMARK    2  A    between atoms: N2_4  and  C3_6 
REMARK    3  A    between atoms: C3_6  and  N3_8 
REMARK    4  A    between atoms: N3_8  and  C4_10 
REMARK       I    between atoms: N4_13  and  C7_14 
REMARK       I    between atoms: C7_14  and  N6_18 
REMARK    5  A    between atoms: N6_18  and  C8_20 
ROOT
HETATM    1  C4  UNL     1     -19.091   8.107  -0.168  1.00  0.00     0.087 C 
HETATM    2  C5  UNL     1     -19.805   6.766  -0.199  1.00  0.00     0.045 C 
HETATM    3  C6  UNL     1     -21.271   6.844   0.107  1.00  0.00     0.143 C 
HETATM    4  N4  UNL     1     -21.454   7.596   1.315  1.00  0.00    -0.216 N 
HETATM    5  C7  UNL     1     -22.751   7.902   1.799  1.00  0.00     0.700 C 
HETATM    6  N5  UNL     1     -23.208   7.154   2.752  1.00  0.00    -0.054 N 
ATOM      7  H5  UNL     1     -22.621   6.395   3.101  1.00  0.00     0.218 HD
HETATM    8  F1  UNL     1     -24.413   7.334   3.298  1.00  0.00    -0.086 F 
HETATM    9  N6  UNL     1     -23.519   8.962   1.282  1.00  0.00    -0.220 N 
ATOM     10  H6  UNL     1     -24.331   8.740   0.705  1.00  0.00     0.178 HD
HETATM   11  C13 UNL     1     -20.306   8.039   2.039  1.00  0.00     0.143 C 
HETATM   12  C14 UNL     1     -19.325   8.794   1.161  1.00  0.00     0.045 C 
ENDROOT
BRANCH   9  13
HETATM   13  C8  UNL     1     -23.211  10.339   1.530  1.00  0.00     0.099 C 
HETATM   14  C9  UNL     1     -24.434  11.203   1.730  1.00  0.00     0.026 C 
HETATM   15  C10 UNL     1     -23.894  12.571   1.293  1.00  0.00     0.002 C 
HETATM   16  C11 UNL     1     -23.250  12.189  -0.039  1.00  0.00     0.002 C 
HETATM   17  C12 UNL     1     -22.465  10.946   0.368  1.00  0.00     0.026 C 
ENDBRANCH   9  13
BRANCH   1  18
HETATM   18  N3  UNL     1     -19.667   8.915  -1.225  1.00  0.00    -0.362 N 
ATOM     19  H3  UNL     1     -20.626   9.228  -1.077  1.00  0.00     0.162 HD
BRANCH  18  20
HETATM   20  C3  UNL     1     -19.067   9.316  -2.422  1.00  0.00     0.182 C 
HETATM   21  S1  UNL     1     -18.128  10.688  -2.366  1.00  0.00    -0.040 SA
BRANCH  20  22
HETATM   22  N2  UNL     1     -19.185   8.680  -3.632  1.00  0.00    -0.296 N 
ATOM     23  H2  UNL     1     -18.332   8.215  -3.946  1.00  0.00     0.183 HD
BRANCH  22  24
HETATM   24  N1  UNL     1     -20.258   8.555  -4.507  1.00  0.00    -0.238 NA
HETATM   25  C1  UNL     1     -21.094   9.750  -4.406  1.00  0.00     0.135 C 
HETATM   26  C2  UNL     1     -21.083   7.396  -4.190  1.00  0.00     0.135 C 
ENDBRANCH  22  24
ENDBRANCH  20  22
ENDBRANCH  18  20
ENDBRANCH   1  18
TORSDOF 5
ENDMDL
