MODEL 1
REMARK VINA RESULT: -6.256421341      0.000      0.000
REMARK  4 active torsions:
REMARK  status: ('A' for Active; 'I' for Inactive)
REMARK    1  A    between atoms: N1_1  and  C1_5 
REMARK    2  A    between atoms: N4_8  and  C2_9 
REMARK    3  A    between atoms: C2_9  and  N5_10 
REMARK    4  A    between atoms: N5_10  and  C3_12 
ROOT
HETATM    1  C2  UNL     1      -6.810 -83.504   1.967  1.00  0.00     0.237 C 
ENDROOT
BRANCH   1   2
HETATM    2  N4  UNL     1      -6.061 -83.765   0.782  1.00  0.00    -0.155 NA
HETATM    3  C1  UNL     1      -6.354 -84.954   0.053  1.00  0.00     0.387 C 
HETATM    4  N2  UNL     1      -4.919 -85.009  -0.168  1.00  0.00    -0.081 NA
HETATM    5  N3  UNL     1      -4.767 -84.296   1.028  1.00  0.00    -0.049 NA
BRANCH   3   6
HETATM    6  N1  UNL     1      -7.135 -84.715  -1.142  1.00  0.00    -0.046 N 
ATOM      7  H13 UNL     1      -6.522 -84.527  -1.936  1.00  0.00     0.277 HD
ATOM      8  H12 UNL     1      -7.573 -85.579  -1.460  1.00  0.00     0.277 HD
ATOM      9  H11 UNL     1      -7.832 -83.976  -1.049  1.00  0.00     0.277 HD
ENDBRANCH   3   6
ENDBRANCH   1   2
BRANCH   1  10
HETATM   10  N5  UNL     1      -5.867 -83.264   3.056  1.00  0.00    -0.363 N 
ATOM     11  H5  UNL     1      -5.392 -84.051   3.497  1.00  0.00     0.162 HD
BRANCH  10  12
HETATM   12  C3  UNL     1      -5.610 -81.953   3.503  1.00  0.00     0.101 A 
HETATM   13  C4  UNL     1      -6.234 -80.810   3.011  1.00  0.00     0.049 A 
HETATM   14  C5  UNL     1      -5.689 -79.766   3.719  1.00  0.00     0.021 A 
HETATM   15  C6  UNL     1      -4.779 -80.280   4.594  1.00  0.00     0.090 A 
HETATM   16  N6  UNL     1      -4.735 -81.597   4.460  1.00  0.00    -0.353 N 
ATOM     17  H6  UNL     1      -4.141 -82.232   4.991  1.00  0.00     0.166 HD
ENDBRANCH  10  12
ENDBRANCH   1  10
TORSDOF 4
ENDMDL
MODEL 2
REMARK VINA RESULT: -6.228029762      0.776      1.086
REMARK  4 active torsions:
REMARK  status: ('A' for Active; 'I' for Inactive)
REMARK    1  A    between atoms: N1_1  and  C1_5 
REMARK    2  A    between atoms: N4_8  and  C2_9 
REMARK    3  A    between atoms: C2_9  and  N5_10 
REMARK    4  A    between atoms: N5_10  and  C3_12 
ROOT
HETATM    1  C2  UNL     1      -6.703 -83.484   2.096  1.00  0.00     0.237 C 
ENDROOT
BRANCH   1   2
HETATM    2  N4  UNL     1      -6.052 -83.756   0.857  1.00  0.00    -0.155 NA
HETATM    3  C1  UNL     1      -6.425 -84.938   0.151  1.00  0.00     0.387 C 
HETATM    4  N2  UNL     1      -5.012 -85.020  -0.180  1.00  0.00    -0.081 NA
HETATM    5  N3  UNL     1      -4.754 -84.314   1.001  1.00  0.00    -0.049 NA
BRANCH   3   6
HETATM    6  N1  UNL     1      -7.291 -84.679  -0.980  1.00  0.00    -0.046 N 
ATOM      7  H13 UNL     1      -6.863 -85.021  -1.841  1.00  0.00     0.277 HD
ATOM      8  H12 UNL     1      -8.114 -85.280  -0.943  1.00  0.00     0.277 HD
ATOM      9  H11 UNL     1      -7.568 -83.703  -1.084  1.00  0.00     0.277 HD
ENDBRANCH   3   6
ENDBRANCH   1   2
BRANCH   1  10
HETATM   10  N5  UNL     1      -5.689 -83.055   3.056  1.00  0.00    -0.363 N 
ATOM     11  H5  UNL     1      -5.060 -83.743   3.470  1.00  0.00     0.162 HD
BRANCH  10  12
HETATM   12  C3  UNL     1      -5.574 -81.698   3.416  1.00  0.00     0.101 A 
HETATM   13  C4  UNL     1      -4.544 -81.166   4.187  1.00  0.00     0.049 A 
HETATM   14  C5  UNL     1      -4.824 -79.825   4.291  1.00  0.00     0.021 A 
HETATM   15  C6  UNL     1      -5.978 -79.581   3.605  1.00  0.00     0.090 A 
HETATM   16  N6  UNL     1      -6.424 -80.712   3.081  1.00  0.00    -0.353 N 
ATOM     17  H6  UNL     1      -7.268 -80.817   2.519  1.00  0.00     0.166 HD
ENDBRANCH  10  12
ENDBRANCH   1  10
TORSDOF 4
ENDMDL
MODEL 3
REMARK VINA RESULT: -6.015156430      1.333      1.562
REMARK  4 active torsions:
REMARK  status: ('A' for Active; 'I' for Inactive)
REMARK    1  A    between atoms: N1_1  and  C1_5 
REMARK    2  A    between atoms: N4_8  and  C2_9 
REMARK    3  A    between atoms: C2_9  and  N5_10 
REMARK    4  A    between atoms: N5_10  and  C3_12 
ROOT
HETATM    1  C2  UNL     1      -6.751 -83.637   1.178  1.00  0.00     0.237 C 
ENDROOT
BRANCH   1   2
HETATM    2  N4  UNL     1      -5.997 -84.091   0.056  1.00  0.00    -0.155 NA
HETATM    3  C1  UNL     1      -6.295 -85.381  -0.472  1.00  0.00     0.387 C 
HETATM    4  N2  UNL     1      -4.859 -85.480  -0.671  1.00  0.00    -0.081 NA
HETATM    5  N3  UNL     1      -4.708 -84.583   0.394  1.00  0.00    -0.049 NA
BRANCH   3   6
HETATM    6  N1  UNL     1      -7.067 -85.333  -1.696  1.00  0.00    -0.046 N 
ATOM      7  H13 UNL     1      -6.459 -85.461  -2.505  1.00  0.00     0.277 HD
ATOM      8  H12 UNL     1      -7.649 -86.165  -1.782  1.00  0.00     0.277 HD
ATOM      9  H11 UNL     1      -7.632 -84.491  -1.806  1.00  0.00     0.277 HD
ENDBRANCH   3   6
ENDBRANCH   1   2
BRANCH   1  10
HETATM   10  N5  UNL     1      -5.840 -83.496   2.311  1.00  0.00    -0.363 N 
ATOM     11  H5  UNL     1      -4.892 -83.866   2.247  1.00  0.00     0.162 HD
BRANCH  10  12
HETATM   12  C3  UNL     1      -6.261 -82.854   3.491  1.00  0.00     0.101 A 
HETATM   13  C4  UNL     1      -7.537 -82.959   4.039  1.00  0.00     0.049 A 
HETATM   14  C5  UNL     1      -7.510 -82.181   5.172  1.00  0.00     0.021 A 
HETATM   15  C6  UNL     1      -6.263 -81.641   5.282  1.00  0.00     0.090 A 
HETATM   16  N6  UNL     1      -5.516 -82.049   4.268  1.00  0.00    -0.353 N 
ATOM     17  H6  UNL     1      -4.542 -81.797   4.105  1.00  0.00     0.166 HD
ENDBRANCH  10  12
ENDBRANCH   1  10
TORSDOF 4
ENDMDL
MODEL 4
REMARK VINA RESULT: -5.868103334      1.280      1.514
REMARK  4 active torsions:
REMARK  status: ('A' for Active; 'I' for Inactive)
REMARK    1  A    between atoms: N1_1  and  C1_5 
REMARK    2  A    between atoms: N4_8  and  C2_9 
REMARK    3  A    between atoms: C2_9  and  N5_10 
REMARK    4  A    between atoms: N5_10  and  C3_12 
ROOT
HETATM    1  C2  UNL     1      -6.946 -82.805   2.558  1.00  0.00     0.237 C 
ENDROOT
BRANCH   1   2
HETATM    2  N4  UNL     1      -6.372 -83.243   1.329  1.00  0.00    -0.155 NA
HETATM    3  C1  UNL     1      -6.866 -84.448   0.751  1.00  0.00     0.387 C 
HETATM    4  N2  UNL     1      -5.479 -84.678   0.382  1.00  0.00    -0.081 NA
HETATM    5  N3  UNL     1      -5.117 -83.890   1.482  1.00  0.00    -0.049 NA
BRANCH   3   6
HETATM    6  N1  UNL     1      -7.754 -84.223  -0.369  1.00  0.00    -0.046 N 
ATOM      7  H13 UNL     1      -7.699 -83.252  -0.677  1.00  0.00     0.277 HD
ATOM      8  H12 UNL     1      -7.401 -84.691  -1.203  1.00  0.00     0.277 HD
ATOM      9  H11 UNL     1      -8.725 -84.487  -0.198  1.00  0.00     0.277 HD
ENDBRANCH   3   6
ENDBRANCH   1   2
BRANCH   1  10
HETATM   10  N5  UNL     1      -6.575 -81.407   2.761  1.00  0.00    -0.363 N 
ATOM     11  H5  UNL     1      -6.722 -80.731   2.011  1.00  0.00     0.162 HD
BRANCH  10  12
HETATM   12  C3  UNL     1      -6.016 -80.985   3.983  1.00  0.00     0.101 A 
HETATM   13  C4  UNL     1      -4.654 -80.825   4.219  1.00  0.00     0.049 A 
HETATM   14  C5  UNL     1      -4.558 -80.407   5.524  1.00  0.00     0.021 A 
HETATM   15  C6  UNL     1      -5.820 -80.326   6.034  1.00  0.00     0.090 A 
HETATM   16  N6  UNL     1      -6.694 -80.675   5.102  1.00  0.00    -0.353 N 
ATOM     17  H6  UNL     1      -7.706 -80.703   5.214  1.00  0.00     0.166 HD
ENDBRANCH  10  12
ENDBRANCH   1  10
TORSDOF 4
ENDMDL
MODEL 5
REMARK VINA RESULT: -5.836485982      2.072      2.379
REMARK  4 active torsions:
REMARK  status: ('A' for Active; 'I' for Inactive)
REMARK    1  A    between atoms: N1_1  and  C1_5 
REMARK    2  A    between atoms: N4_8  and  C2_9 
REMARK    3  A    between atoms: C2_9  and  N5_10 
REMARK    4  A    between atoms: N5_10  and  C3_12 
ROOT
HETATM    1  C2  UNL     1      -7.182 -83.744   1.836  1.00  0.00     0.237 C 
ENDROOT
BRANCH   1   2
HETATM    2  N4  UNL     1      -6.253 -83.816   0.757  1.00  0.00    -0.155 NA
HETATM    3  C1  UNL     1      -6.286 -84.972  -0.077  1.00  0.00     0.387 C 
HETATM    4  N2  UNL     1      -4.839 -84.831  -0.094  1.00  0.00    -0.081 NA
HETATM    5  N3  UNL     1      -4.944 -84.201   1.152  1.00  0.00    -0.049 NA
BRANCH   3   6
HETATM    6  N1  UNL     1      -6.925 -84.737  -1.355  1.00  0.00    -0.046 N 
ATOM      7  H13 UNL     1      -6.765 -85.525  -1.983  1.00  0.00     0.277 HD
ATOM      8  H12 UNL     1      -7.939 -84.793  -1.261  1.00  0.00     0.277 HD
ATOM      9  H11 UNL     1      -6.657 -83.862  -1.806  1.00  0.00     0.277 HD
ENDBRANCH   3   6
ENDBRANCH   1   2
BRANCH   1  10
HETATM   10  N5  UNL     1      -6.432 -83.837   3.087  1.00  0.00    -0.363 N 
ATOM     11  H5  UNL     1      -5.508 -84.268   3.092  1.00  0.00     0.162 HD
BRANCH  10  12
HETATM   12  C3  UNL     1      -6.977 -83.336   4.285  1.00  0.00     0.101 A 
HETATM   13  C4  UNL     1      -6.922 -83.987   5.515  1.00  0.00     0.049 A 
HETATM   14  C5  UNL     1      -7.568 -83.154   6.396  1.00  0.00     0.021 A 
HETATM   15  C6  UNL     1      -7.987 -82.055   5.706  1.00  0.00     0.090 A 
HETATM   16  N6  UNL     1      -7.628 -82.170   4.437  1.00  0.00    -0.353 N 
ATOM     17  H6  UNL     1      -7.814 -81.490   3.700  1.00  0.00     0.166 HD
ENDBRANCH  10  12
ENDBRANCH   1  10
TORSDOF 4
ENDMDL
