MODEL 1
REMARK VINA RESULT: -4.810628585      0.000      0.000
REMARK  4 active torsions:
REMARK  status: ('A' for Active; 'I' for Inactive)
REMARK    1  A    between atoms: N1_1  and  C1_4 
REMARK    2  A    between atoms: N3_7  and  C2_8 
REMARK    3  A    between atoms: C2_8  and  C3_9 
REMARK    4  A    between atoms: C3_9  and  N4_10 
ROOT
HETATM    1  C1  UNL     1      -6.634 -82.154   3.088  1.00  0.00     0.145 A 
HETATM    2  N2  UNL     1      -6.928 -82.920   2.023  1.00  0.00    -0.280 N 
ATOM      3  H2  UNL     1      -6.925 -82.593   1.058  1.00  0.00     0.189 HD
HETATM    4  N3  UNL     1      -7.223 -84.155   2.395  1.00  0.00    -0.271 N 
HETATM    5  C4  UNL     1      -7.124 -84.219   3.750  1.00  0.00     0.154 A 
HETATM    6  N5  UNL     1      -7.228 -84.974   4.859  1.00  0.00    -0.335 N 
ATOM      7  H5  UNL     1      -7.485 -85.961   4.883  1.00  0.00     0.168 HD
HETATM    8  C5  UNL     1      -6.936 -84.217   5.927  1.00  0.00     0.182 A 
HETATM    9  N6  UNL     1      -6.638 -82.961   5.531  1.00  0.00    -0.346 N 
ATOM     10  H6  UNL     1      -6.380 -82.173   6.125  1.00  0.00     0.167 HD
HETATM   11  C6  UNL     1      -6.754 -82.967   4.195  1.00  0.00     0.124 A 
ENDROOT
BRANCH   4  12
HETATM   12  C2  UNL     1      -7.589 -85.266   1.539  1.00  0.00     0.178 C 
BRANCH  12  13
HETATM   13  C3  UNL     1      -7.623 -84.878   0.078  1.00  0.00     0.251 C 
BRANCH  13  14
HETATM   14  N4  UNL     1      -8.988 -84.618  -0.336  1.00  0.00    -0.078 N 
ATOM     15  H43 UNL     1      -9.609 -84.476   0.461  1.00  0.00     0.274 HD
ATOM     16  H42 UNL     1      -9.088 -83.699  -0.768  1.00  0.00     0.274 HD
ATOM     17  H41 UNL     1      -9.316 -85.365  -0.948  1.00  0.00     0.274 HD
ENDBRANCH  13  14
ENDBRANCH  12  13
ENDBRANCH   4  12
BRANCH   1  18
HETATM   18  N1  UNL     1      -6.298 -80.886   3.090  1.00  0.00    -0.382 N 
ATOM     19  H12 UNL     1      -6.433 -80.226   2.325  1.00  0.00     0.157 HD
ATOM     20  H11 UNL     1      -5.853 -80.363   3.845  1.00  0.00     0.157 HD
ENDBRANCH   1  18
TORSDOF 4
ENDMDL
MODEL 2
REMARK VINA RESULT: -4.772049133      1.606      4.197
REMARK  4 active torsions:
REMARK  status: ('A' for Active; 'I' for Inactive)
REMARK    1  A    between atoms: N1_1  and  C1_4 
REMARK    2  A    between atoms: N3_7  and  C2_8 
REMARK    3  A    between atoms: C2_8  and  C3_9 
REMARK    4  A    between atoms: C3_9  and  N4_10 
ROOT
HETATM    1  C1  UNL     1      -6.735 -84.053   0.289  1.00  0.00     0.145 A 
HETATM    2  N2  UNL     1      -6.528 -83.249   1.346  1.00  0.00    -0.280 N 
ATOM      3  H2  UNL     1      -6.088 -82.330   1.296  1.00  0.00     0.189 HD
HETATM    4  N3  UNL     1      -6.971 -83.807   2.461  1.00  0.00    -0.271 N 
HETATM    5  C4  UNL     1      -7.491 -85.023   2.142  1.00  0.00     0.154 A 
HETATM    6  N5  UNL     1      -8.091 -86.147   2.575  1.00  0.00    -0.335 N 
ATOM      7  H5  UNL     1      -8.345 -86.351   3.541  1.00  0.00     0.168 HD
HETATM    8  C5  UNL     1      -8.300 -86.956   1.525  1.00  0.00     0.182 A 
HETATM    9  N6  UNL     1      -7.843 -86.373   0.397  1.00  0.00    -0.346 N 
ATOM     10  H6  UNL     1      -7.868 -86.755  -0.548  1.00  0.00     0.167 HD
HETATM   11  C6  UNL     1      -7.348 -85.187   0.780  1.00  0.00     0.124 A 
ENDROOT
BRANCH   4  12
HETATM   12  C2  UNL     1      -6.928 -83.251   3.799  1.00  0.00     0.178 C 
BRANCH  12  13
HETATM   13  C3  UNL     1      -6.432 -81.823   3.811  1.00  0.00     0.251 C 
BRANCH  13  14
HETATM   14  N4  UNL     1      -5.022 -81.790   4.147  1.00  0.00    -0.078 N 
ATOM     15  H43 UNL     1      -4.869 -81.657   5.147  1.00  0.00     0.274 HD
ATOM     16  H42 UNL     1      -4.584 -82.706   4.050  1.00  0.00     0.274 HD
ATOM     17  H41 UNL     1      -4.547 -81.079   3.590  1.00  0.00     0.274 HD
ENDBRANCH  13  14
ENDBRANCH  12  13
ENDBRANCH   4  12
BRANCH   1  18
HETATM   18  N1  UNL     1      -6.423 -83.821  -0.963  1.00  0.00    -0.382 N 
ATOM     19  H12 UNL     1      -6.000 -84.484  -1.612  1.00  0.00     0.157 HD
ATOM     20  H11 UNL     1      -6.549 -82.952  -1.483  1.00  0.00     0.157 HD
ENDBRANCH   1  18
TORSDOF 4
ENDMDL
MODEL 3
REMARK VINA RESULT: -4.757061665      2.232      4.865
REMARK  4 active torsions:
REMARK  status: ('A' for Active; 'I' for Inactive)
REMARK    1  A    between atoms: N1_1  and  C1_4 
REMARK    2  A    between atoms: N3_7  and  C2_8 
REMARK    3  A    between atoms: C2_8  and  C3_9 
REMARK    4  A    between atoms: C3_9  and  N4_10 
ROOT
HETATM    1  C1  UNL     1      -7.453 -85.363  -1.351  1.00  0.00     0.145 A 
HETATM    2  N2  UNL     1      -6.494 -84.592  -0.811  1.00  0.00    -0.280 N 
ATOM      3  H2  UNL     1      -5.820 -84.047  -1.349  1.00  0.00     0.189 HD
HETATM    4  N3  UNL     1      -6.540 -84.633   0.510  1.00  0.00    -0.271 N 
HETATM    5  C4  UNL     1      -7.561 -85.457   0.869  1.00  0.00     0.154 A 
HETATM    6  N5  UNL     1      -8.262 -86.024   1.867  1.00  0.00    -0.335 N 
ATOM      7  H5  UNL     1      -8.093 -85.888   2.864  1.00  0.00     0.168 HD
HETATM    8  C5  UNL     1      -9.222 -86.797   1.337  1.00  0.00     0.182 A 
HETATM    9  N6  UNL     1      -9.161 -86.745  -0.011  1.00  0.00    -0.346 N 
ATOM     10  H6  UNL     1      -9.765 -87.230  -0.674  1.00  0.00     0.167 HD
HETATM   11  C6  UNL     1      -8.141 -85.921  -0.294  1.00  0.00     0.124 A 
ENDROOT
BRANCH   4  12
HETATM   12  C2  UNL     1      -5.674 -83.936   1.442  1.00  0.00     0.178 C 
BRANCH  12  13
HETATM   13  C3  UNL     1      -6.416 -82.890   2.242  1.00  0.00     0.251 C 
BRANCH  13  14
HETATM   14  N4  UNL     1      -5.590 -82.428   3.341  1.00  0.00    -0.078 N 
ATOM     15  H43 UNL     1      -5.869 -81.503   3.667  1.00  0.00     0.274 HD
ATOM     16  H42 UNL     1      -5.771 -82.949   4.200  1.00  0.00     0.274 HD
ATOM     17  H41 UNL     1      -4.606 -82.459   3.076  1.00  0.00     0.274 HD
ENDBRANCH  13  14
ENDBRANCH  12  13
ENDBRANCH   4  12
BRANCH   1  18
HETATM   18  N1  UNL     1      -7.698 -85.557  -2.624  1.00  0.00    -0.382 N 
ATOM     19  H12 UNL     1      -7.137 -86.116  -3.268  1.00  0.00     0.157 HD
ATOM     20  H11 UNL     1      -8.476 -85.186  -3.170  1.00  0.00     0.157 HD
ENDBRANCH   1  18
TORSDOF 4
ENDMDL
MODEL 4
REMARK VINA RESULT: -4.634305454      1.404      2.789
REMARK  4 active torsions:
REMARK  status: ('A' for Active; 'I' for Inactive)
REMARK    1  A    between atoms: N1_1  and  C1_4 
REMARK    2  A    between atoms: N3_7  and  C2_8 
REMARK    3  A    between atoms: C2_8  and  C3_9 
REMARK    4  A    between atoms: C3_9  and  N4_10 
ROOT
HETATM    1  C1  UNL     1      -6.629 -83.349   4.973  1.00  0.00     0.145 A 
HETATM    2  N2  UNL     1      -6.814 -83.937   3.778  1.00  0.00    -0.280 N 
ATOM      3  H2  UNL     1      -7.040 -84.923   3.649  1.00  0.00     0.189 HD
HETATM    4  N3  UNL     1      -6.664 -83.068   2.793  1.00  0.00    -0.271 N 
HETATM    5  C4  UNL     1      -6.369 -81.858   3.343  1.00  0.00     0.154 A 
HETATM    6  N5  UNL     1      -6.089 -80.559   3.137  1.00  0.00    -0.335 N 
ATOM      7  H5  UNL     1      -6.028 -80.101   2.227  1.00  0.00     0.168 HD
HETATM    8  C5  UNL     1      -5.902 -79.964   4.325  1.00  0.00     0.182 A 
HETATM    9  N6  UNL     1      -6.058 -80.864   5.319  1.00  0.00    -0.346 N 
ATOM     10  H6  UNL     1      -5.974 -80.696   6.321  1.00  0.00     0.167 HD
HETATM   11  C6  UNL     1      -6.345 -82.025   4.712  1.00  0.00     0.124 A 
ENDROOT
BRANCH   4  12
HETATM   12  C2  UNL     1      -6.785 -83.322   1.371  1.00  0.00     0.178 C 
BRANCH  12  13
HETATM   13  C3  UNL     1      -7.572 -84.579   1.077  1.00  0.00     0.251 C 
BRANCH  13  14
HETATM   14  N4  UNL     1      -8.440 -84.367  -0.064  1.00  0.00    -0.078 N 
ATOM     15  H43 UNL     1      -9.266 -84.964  -0.033  1.00  0.00     0.274 HD
ATOM     16  H42 UNL     1      -8.909 -83.462  -0.025  1.00  0.00     0.274 HD
ATOM     17  H41 UNL     1      -7.914 -84.487  -0.930  1.00  0.00     0.274 HD
ENDBRANCH  13  14
ENDBRANCH  12  13
ENDBRANCH   4  12
BRANCH   1  18
HETATM   18  N1  UNL     1      -6.701 -83.908   6.157  1.00  0.00    -0.382 N 
ATOM     19  H12 UNL     1      -7.382 -84.606   6.453  1.00  0.00     0.157 HD
ATOM     20  H11 UNL     1      -6.097 -83.737   6.961  1.00  0.00     0.157 HD
ENDBRANCH   1  18
TORSDOF 4
ENDMDL
MODEL 5
REMARK VINA RESULT: -4.628385628      1.666      4.772
REMARK  4 active torsions:
REMARK  status: ('A' for Active; 'I' for Inactive)
REMARK    1  A    between atoms: N1_1  and  C1_4 
REMARK    2  A    between atoms: N3_7  and  C2_8 
REMARK    3  A    between atoms: C2_8  and  C3_9 
REMARK    4  A    between atoms: C3_9  and  N4_10 
ROOT
HETATM    1  C1  UNL     1      -6.953 -84.302   4.703  1.00  0.00     0.145 A 
HETATM    2  N2  UNL     1      -6.378 -83.165   5.129  1.00  0.00    -0.280 N 
ATOM      3  H2  UNL     1      -6.173 -82.952   6.105  1.00  0.00     0.189 HD
HETATM    4  N3  UNL     1      -6.113 -82.358   4.115  1.00  0.00    -0.271 N 
HETATM    5  C4  UNL     1      -6.523 -82.973   2.973  1.00  0.00     0.154 A 
HETATM    6  N5  UNL     1      -6.640 -82.913   1.634  1.00  0.00    -0.335 N 
ATOM      7  H5  UNL     1      -6.342 -82.135   1.046  1.00  0.00     0.168 HD
HETATM    8  C5  UNL     1      -7.215 -84.045   1.200  1.00  0.00     0.182 A 
HETATM    9  N6  UNL     1      -7.479 -84.857   2.246  1.00  0.00    -0.346 N 
ATOM     10  H6  UNL     1      -7.912 -85.779   2.216  1.00  0.00     0.167 HD
HETATM   11  C6  UNL     1      -7.053 -84.195   3.332  1.00  0.00     0.124 A 
ENDROOT
BRANCH   4  12
HETATM   12  C2  UNL     1      -5.496 -81.047   4.173  1.00  0.00     0.178 C 
BRANCH  12  13
HETATM   13  C3  UNL     1      -5.492 -80.476   5.573  1.00  0.00     0.251 C 
BRANCH  13  14
HETATM   14  N4  UNL     1      -4.165 -80.583   6.149  1.00  0.00    -0.078 N 
ATOM     15  H43 UNL     1      -3.822 -79.684   6.488  1.00  0.00     0.274 HD
ATOM     16  H42 UNL     1      -4.173 -81.084   7.037  1.00  0.00     0.274 HD
ATOM     17  H41 UNL     1      -3.526 -81.007   5.476  1.00  0.00     0.274 HD
ENDBRANCH  13  14
ENDBRANCH  12  13
ENDBRANCH   4  12
BRANCH   1  18
HETATM   18  N1  UNL     1      -7.346 -85.319   5.432  1.00  0.00    -0.382 N 
ATOM     19  H12 UNL     1      -6.746 -85.941   5.972  1.00  0.00     0.157 HD
ATOM     20  H11 UNL     1      -8.301 -85.649   5.573  1.00  0.00     0.157 HD
ENDBRANCH   1  18
TORSDOF 4
ENDMDL
