MODEL 1
REMARK VINA RESULT: -5.374470045      0.000      0.000
REMARK  4 active torsions:
REMARK  status: ('A' for Active; 'I' for Inactive)
REMARK    1  A    between atoms: N1_1  and  C1_4 
REMARK    2  A    between atoms: C4_9  and  C5_10 
REMARK    3  A    between atoms: C5_10  and  N3_11 
REMARK    4  A    between atoms: N3_11  and  C6_14 
ROOT
HETATM    1  C1  UNL     1      -0.939 -89.133   7.130  1.00  0.00     0.675 A 
HETATM    2  N2  UNL     1      -0.247 -88.307   7.930  1.00  0.00    -0.202 N 
ATOM      3  H2  UNL     1       0.710 -88.553   8.181  1.00  0.00     0.183 HD
HETATM    4  C2  UNL     1      -0.770 -87.167   8.414  1.00  0.00     0.108 A 
HETATM    5  C3  UNL     1      -2.061 -86.851   8.065  1.00  0.00     0.045 A 
HETATM    6  C4  UNL     1      -2.805 -87.693   7.233  1.00  0.00     0.053 A 
HETATM    7  N5  UNL     1      -2.208 -88.815   6.793  1.00  0.00    -0.194 N 
ATOM      8  H5  UNL     1      -2.730 -89.447   6.186  1.00  0.00     0.184 HD
ENDROOT
BRANCH   6   9
HETATM    9  C5  UNL     1      -4.167 -87.280   6.905  1.00  0.00     0.290 C 
BRANCH   9  10
HETATM   10  N3  UNL     1      -4.678 -86.163   7.629  1.00  0.00    -0.062 N 
ATOM     11  H32 UNL     1      -4.658 -86.326   8.636  1.00  0.00     0.278 HD
ATOM     12  H31 UNL     1      -4.043 -85.366   7.589  1.00  0.00     0.278 HD
BRANCH  10  13
HETATM   13  C6  UNL     1      -5.980 -85.819   7.181  1.00  0.00     0.237 C 
HETATM   14  C7  UNL     1      -7.111 -85.839   8.178  1.00  0.00     0.267 C 
HETATM   15  N4  UNL     1      -7.964 -86.119   7.002  1.00  0.00    -0.071 N 
HETATM   16  C8  UNL     1      -6.817 -86.947   6.569  1.00  0.00     0.267 C 
ATOM     17  H42 UNL     1      -8.912 -86.488   7.083  1.00  0.00     0.277 HD
ATOM     18  H41 UNL     1      -8.363 -85.382   6.421  1.00  0.00     0.277 HD
ENDBRANCH  10  13
ENDBRANCH   9  10
ENDBRANCH   6   9
BRANCH   1  19
HETATM   19  N1  UNL     1      -0.350 -90.209   6.717  1.00  0.00    -0.234 N 
ATOM     20  H12 UNL     1       0.607 -90.451   6.975  1.00  0.00     0.174 HD
ATOM     21  H11 UNL     1      -0.875 -90.835   6.105  1.00  0.00     0.174 HD
ENDBRANCH   1  19
TORSDOF 4
ENDMDL
MODEL 2
REMARK VINA RESULT: -5.330223535      6.539      7.981
REMARK  4 active torsions:
REMARK  status: ('A' for Active; 'I' for Inactive)
REMARK    1  A    between atoms: N1_1  and  C1_4 
REMARK    2  A    between atoms: C4_9  and  C5_10 
REMARK    3  A    between atoms: C5_10  and  N3_11 
REMARK    4  A    between atoms: N3_11  and  C6_14 
ROOT
HETATM    1  C1  UNL     1      -5.644 -81.899   3.865  1.00  0.00     0.675 A 
HETATM    2  N2  UNL     1      -6.085 -82.551   4.952  1.00  0.00    -0.202 N 
ATOM      3  H2  UNL     1      -5.772 -82.239   5.871  1.00  0.00     0.183 HD
HETATM    4  C2  UNL     1      -6.923 -83.598   4.873  1.00  0.00     0.108 A 
HETATM    5  C3  UNL     1      -7.334 -84.003   3.626  1.00  0.00     0.045 A 
HETATM    6  C4  UNL     1      -6.891 -83.343   2.476  1.00  0.00     0.053 A 
HETATM    7  N5  UNL     1      -6.052 -82.304   2.643  1.00  0.00    -0.194 N 
ATOM      8  H5  UNL     1      -5.713 -81.807   1.819  1.00  0.00     0.184 HD
ENDROOT
BRANCH   6   9
HETATM    9  C5  UNL     1      -7.381 -83.832   1.190  1.00  0.00     0.290 C 
BRANCH   9  10
HETATM   10  N3  UNL     1      -6.704 -84.963   0.648  1.00  0.00    -0.062 N 
ATOM     11  H32 UNL     1      -6.107 -84.704  -0.138  1.00  0.00     0.278 HD
ATOM     12  H31 UNL     1      -5.983 -85.310   1.281  1.00  0.00     0.278 HD
BRANCH  10  13
HETATM   13  C6  UNL     1      -7.624 -85.984   0.292  1.00  0.00     0.237 C 
HETATM   14  C7  UNL     1      -9.074 -85.612   0.114  1.00  0.00     0.267 C 
HETATM   15  N4  UNL     1      -9.342 -87.015   0.499  1.00  0.00    -0.071 N 
HETATM   16  C8  UNL     1      -8.223 -86.801   1.441  1.00  0.00     0.267 C 
ATOM     17  H42 UNL     1     -10.262 -87.340   0.798  1.00  0.00     0.277 HD
ATOM     18  H41 UNL     1      -9.357 -87.780  -0.176  1.00  0.00     0.277 HD
ENDBRANCH  10  13
ENDBRANCH   9  10
ENDBRANCH   6   9
BRANCH   1  19
HETATM   19  N1  UNL     1      -4.837 -80.903   4.042  1.00  0.00    -0.234 N 
ATOM     20  H12 UNL     1      -4.270 -80.791   4.883  1.00  0.00     0.174 HD
ATOM     21  H11 UNL     1      -4.773 -80.203   3.302  1.00  0.00     0.174 HD
ENDBRANCH   1  19
TORSDOF 4
ENDMDL
MODEL 3
REMARK VINA RESULT: -5.288133902      6.014      7.792
REMARK  4 active torsions:
REMARK  status: ('A' for Active; 'I' for Inactive)
REMARK    1  A    between atoms: N1_1  and  C1_4 
REMARK    2  A    between atoms: C4_9  and  C5_10 
REMARK    3  A    between atoms: C5_10  and  N3_11 
REMARK    4  A    between atoms: N3_11  and  C6_14 
ROOT
HETATM    1  C1  UNL     1      -6.665 -83.647   4.826  1.00  0.00     0.675 A 
HETATM    2  N2  UNL     1      -6.054 -82.452   4.854  1.00  0.00    -0.202 N 
ATOM      3  H2  UNL     1      -5.700 -82.103   5.744  1.00  0.00     0.183 HD
HETATM    4  C2  UNL     1      -5.891 -81.700   3.753  1.00  0.00     0.108 A 
HETATM    5  C3  UNL     1      -6.373 -82.187   2.562  1.00  0.00     0.045 A 
HETATM    6  C4  UNL     1      -7.015 -83.427   2.502  1.00  0.00     0.053 A 
HETATM    7  N5  UNL     1      -7.138 -84.117   3.651  1.00  0.00    -0.194 N 
ATOM      8  H5  UNL     1      -7.603 -85.025   3.634  1.00  0.00     0.184 HD
ENDROOT
BRANCH   6   9
HETATM    9  C5  UNL     1      -7.492 -83.875   1.196  1.00  0.00     0.290 C 
BRANCH   9  10
HETATM   10  N3  UNL     1      -6.787 -84.967   0.609  1.00  0.00    -0.062 N 
ATOM     11  H32 UNL     1      -6.239 -84.671  -0.199  1.00  0.00     0.278 HD
ATOM     12  H31 UNL     1      -6.023 -85.286   1.206  1.00  0.00     0.278 HD
BRANCH  10  13
HETATM   13  C6  UNL     1      -7.672 -86.026   0.281  1.00  0.00     0.237 C 
HETATM   14  C7  UNL     1      -9.133 -85.706   0.090  1.00  0.00     0.267 C 
HETATM   15  N4  UNL     1      -9.357 -87.106   0.514  1.00  0.00    -0.071 N 
HETATM   16  C8  UNL     1      -8.248 -86.829   1.452  1.00  0.00     0.267 C 
ATOM     17  H42 UNL     1     -10.266 -87.452   0.821  1.00  0.00     0.277 HD
ATOM     18  H41 UNL     1      -9.345 -87.889  -0.139  1.00  0.00     0.277 HD
ENDBRANCH  10  13
ENDBRANCH   9  10
ENDBRANCH   6   9
BRANCH   1  19
HETATM   19  N1  UNL     1      -6.777 -84.296   5.939  1.00  0.00    -0.234 N 
ATOM     20  H12 UNL     1      -7.622 -84.278   6.510  1.00  0.00     0.174 HD
ATOM     21  H11 UNL     1      -5.977 -84.847   6.252  1.00  0.00     0.174 HD
ENDBRANCH   1  19
TORSDOF 4
ENDMDL
MODEL 4
REMARK VINA RESULT: -5.247880891      7.345      8.458
REMARK  4 active torsions:
REMARK  status: ('A' for Active; 'I' for Inactive)
REMARK    1  A    between atoms: N1_1  and  C1_4 
REMARK    2  A    between atoms: C4_9  and  C5_10 
REMARK    3  A    between atoms: C5_10  and  N3_11 
REMARK    4  A    between atoms: N3_11  and  C6_14 
ROOT
HETATM    1  C1  UNL     1      -7.462 -85.131  -0.391  1.00  0.00     0.675 A 
HETATM    2  N2  UNL     1      -7.868 -86.117   0.423  1.00  0.00    -0.202 N 
ATOM      3  H2  UNL     1      -8.178 -86.997   0.012  1.00  0.00     0.183 HD
HETATM    4  C2  UNL     1      -7.883 -85.987   1.761  1.00  0.00     0.108 A 
HETATM    5  C3  UNL     1      -7.462 -84.794   2.297  1.00  0.00     0.045 A 
HETATM    6  C4  UNL     1      -7.033 -83.749   1.474  1.00  0.00     0.053 A 
HETATM    7  N5  UNL     1      -7.050 -83.961   0.145  1.00  0.00    -0.194 N 
ATOM      8  H5  UNL     1      -6.743 -83.214  -0.478  1.00  0.00     0.184 HD
ENDROOT
BRANCH   6   9
HETATM    9  C5  UNL     1      -6.595 -82.517   2.124  1.00  0.00     0.290 C 
BRANCH   9  10
HETATM   10  N3  UNL     1      -7.216 -82.208   3.370  1.00  0.00    -0.062 N 
ATOM     11  H32 UNL     1      -7.845 -81.410   3.289  1.00  0.00     0.278 HD
ATOM     12  H31 UNL     1      -7.899 -82.917   3.636  1.00  0.00     0.278 HD
BRANCH  10  13
HETATM   13  C6  UNL     1      -6.245 -82.008   4.386  1.00  0.00     0.237 C 
HETATM   14  C7  UNL     1      -6.353 -80.777   5.249  1.00  0.00     0.267 C 
HETATM   15  N4  UNL     1      -4.886 -80.913   5.392  1.00  0.00    -0.071 N 
HETATM   16  C8  UNL     1      -4.947 -81.310   3.969  1.00  0.00     0.267 C 
ATOM     17  H42 UNL     1      -4.291 -80.156   5.729  1.00  0.00     0.277 HD
ATOM     18  H41 UNL     1      -4.453 -81.494   6.109  1.00  0.00     0.277 HD
ENDBRANCH  10  13
ENDBRANCH   9  10
ENDBRANCH   6   9
BRANCH   1  19
HETATM   19  N1  UNL     1      -7.486 -85.350  -1.666  1.00  0.00    -0.234 N 
ATOM     20  H12 UNL     1      -6.867 -86.018  -2.126  1.00  0.00     0.174 HD
ATOM     21  H11 UNL     1      -8.156 -84.824  -2.228  1.00  0.00     0.174 HD
ENDBRANCH   1  19
TORSDOF 4
ENDMDL
MODEL 5
REMARK VINA RESULT: -5.238093535      6.141      8.152
REMARK  4 active torsions:
REMARK  status: ('A' for Active; 'I' for Inactive)
REMARK    1  A    between atoms: N1_1  and  C1_4 
REMARK    2  A    between atoms: C4_9  and  C5_10 
REMARK    3  A    between atoms: C5_10  and  N3_11 
REMARK    4  A    between atoms: N3_11  and  C6_14 
ROOT
HETATM    1  C1  UNL     1      -6.688 -83.438   5.010  1.00  0.00     0.675 A 
HETATM    2  N2  UNL     1      -5.959 -82.328   4.810  1.00  0.00    -0.202 N 
ATOM      3  H2  UNL     1      -5.534 -81.869   5.616  1.00  0.00     0.183 HD
HETATM    4  C2  UNL     1      -5.768 -81.801   3.589  1.00  0.00     0.108 A 
HETATM    5  C3  UNL     1      -6.348 -82.434   2.516  1.00  0.00     0.045 A 
HETATM    6  C4  UNL     1      -7.113 -83.590   2.693  1.00  0.00     0.053 A 
HETATM    7  N5  UNL     1      -7.255 -84.053   3.949  1.00  0.00    -0.194 N 
ATOM      8  H5  UNL     1      -7.810 -84.894   4.105  1.00  0.00     0.184 HD
ENDROOT
BRANCH   6   9
HETATM    9  C5  UNL     1      -7.688 -84.205   1.500  1.00  0.00     0.290 C 
BRANCH   9  10
HETATM   10  N3  UNL     1      -7.546 -85.620   1.391  1.00  0.00    -0.062 N 
ATOM     11  H32 UNL     1      -6.807 -85.972   2.000  1.00  0.00     0.278 HD
ATOM     12  H31 UNL     1      -8.337 -86.111   1.807  1.00  0.00     0.278 HD
BRANCH  10  13
HETATM   13  C6  UNL     1      -7.340 -86.007   0.041  1.00  0.00     0.237 C 
HETATM   14  C7  UNL     1      -6.553 -85.087  -0.858  1.00  0.00     0.267 C 
HETATM   15  N4  UNL     1      -7.351 -85.690  -1.948  1.00  0.00    -0.071 N 
HETATM   16  C8  UNL     1      -8.445 -85.644  -0.956  1.00  0.00     0.267 C 
ATOM     17  H42 UNL     1      -7.427 -85.268  -2.874  1.00  0.00     0.277 HD
ATOM     18  H41 UNL     1      -7.074 -86.547  -2.426  1.00  0.00     0.277 HD
ENDBRANCH  10  13
ENDBRANCH   9  10
ENDBRANCH   6   9
BRANCH   1  19
HETATM   19  N1  UNL     1      -6.817 -83.868   6.223  1.00  0.00    -0.234 N 
ATOM     20  H12 UNL     1      -6.540 -83.320   7.038  1.00  0.00     0.174 HD
ATOM     21  H11 UNL     1      -7.211 -84.798   6.360  1.00  0.00     0.174 HD
ENDBRANCH   1  19
TORSDOF 4
ENDMDL
