MODEL 1
REMARK VINA RESULT: -5.635412023      0.000      0.000
REMARK  5 active torsions:
REMARK  status: ('A' for Active; 'I' for Inactive)
REMARK    1  A    between atoms: C2_3  and  C3_4 
REMARK    2  A    between atoms: C3_4  and  C4_5 
REMARK    3  A    between atoms: C4_5  and  C5_6 
REMARK    4  A    between atoms: C6_9  and  N3_10 
REMARK    5  A    between atoms: C7_15  and  N5_16 
ROOT
HETATM    1  N1  UNL     1      -5.575 -86.931  -2.080  1.00  0.00    -0.197 NA
HETATM    2  C1  UNL     1      -5.746 -86.084  -1.313  1.00  0.00     0.059 C 
HETATM    3  C2  UNL     1      -5.948 -84.999  -0.361  1.00  0.00     0.124 C 
ENDROOT
BRANCH   3   4
HETATM    4  C3  UNL     1      -7.089 -85.332   0.586  1.00  0.00     0.022 C 
BRANCH   4   5
HETATM    5  C4  UNL     1      -7.725 -84.012   0.980  1.00  0.00     0.078 C 
BRANCH   5   6
HETATM    6  C5  UNL     1      -7.202 -83.542   2.300  1.00  0.00     0.113 A 
HETATM    7  N2  UNL     1      -7.112 -84.362   3.362  1.00  0.00    -0.180 N 
HETATM    8  C6  UNL     1      -6.633 -83.892   4.535  1.00  0.00     0.691 A 
ATOM      9  H2  UNL     1      -7.404 -85.336   3.283  1.00  0.00     0.185 HD
HETATM   10  N4  UNL     1      -6.232 -82.619   4.701  1.00  0.00    -0.023 N 
HETATM   11  C7  UNL     1      -6.322 -81.800   3.638  1.00  0.00     0.691 A 
ATOM     12  H4  UNL     1      -5.874 -82.288   5.597  1.00  0.00     0.203 HD
HETATM   13  N6  UNL     1      -6.803 -82.268   2.455  1.00  0.00    -0.180 N 
ATOM     14  H6  UNL     1      -6.864 -81.632   1.660  1.00  0.00     0.185 HD
BRANCH   8  15
HETATM   15  N3  UNL     1      -6.537 -84.662   5.574  1.00  0.00    -0.234 N 
ATOM     16  H32 UNL     1      -7.107 -85.508   5.561  1.00  0.00     0.174 HD
ATOM     17  H31 UNL     1      -5.921 -84.422   6.351  1.00  0.00     0.174 HD
ENDBRANCH   8  15
BRANCH  11  18
HETATM   18  N5  UNL     1      -5.957 -80.566   3.718  1.00  0.00    -0.234 N 
ATOM     19  H52 UNL     1      -6.214 -79.926   2.967  1.00  0.00     0.174 HD
ATOM     20  H51 UNL     1      -5.420 -80.228   4.516  1.00  0.00     0.174 HD
ENDBRANCH  11  18
ENDBRANCH   5   6
ENDBRANCH   4   5
ENDBRANCH   3   4
TORSDOF 5
ENDMDL
MODEL 2
REMARK VINA RESULT: -5.628873729      2.062      2.977
REMARK  5 active torsions:
REMARK  status: ('A' for Active; 'I' for Inactive)
REMARK    1  A    between atoms: C2_3  and  C3_4 
REMARK    2  A    between atoms: C3_4  and  C4_5 
REMARK    3  A    between atoms: C4_5  and  C5_6 
REMARK    4  A    between atoms: C6_9  and  N3_10 
REMARK    5  A    between atoms: C7_15  and  N5_16 
ROOT
HETATM    1  N1  UNL     1      -8.190 -87.985   1.398  1.00  0.00    -0.197 NA
HETATM    2  C1  UNL     1      -8.168 -86.848   1.200  1.00  0.00     0.059 C 
HETATM    3  C2  UNL     1      -8.165 -85.412   0.948  1.00  0.00     0.124 C 
ENDROOT
BRANCH   3   4
HETATM    4  C3  UNL     1      -6.837 -84.803   1.366  1.00  0.00     0.022 C 
BRANCH   4   5
HETATM    5  C4  UNL     1      -7.128 -83.377   1.792  1.00  0.00     0.078 C 
BRANCH   5   6
HETATM    6  C5  UNL     1      -7.271 -83.283   3.277  1.00  0.00     0.113 A 
HETATM    7  N2  UNL     1      -7.945 -82.278   3.865  1.00  0.00    -0.180 N 
HETATM    8  C6  UNL     1      -8.048 -82.235   5.211  1.00  0.00     0.691 A 
ATOM      9  H2  UNL     1      -8.377 -81.551   3.295  1.00  0.00     0.185 HD
HETATM   10  N4  UNL     1      -7.501 -83.164   6.014  1.00  0.00    -0.023 N 
HETATM   11  C7  UNL     1      -6.828 -84.169   5.425  1.00  0.00     0.691 A 
ATOM     12  H4  UNL     1      -7.592 -83.110   7.029  1.00  0.00     0.203 HD
HETATM   13  N6  UNL     1      -6.721 -84.217   4.070  1.00  0.00    -0.180 N 
ATOM     14  H6  UNL     1      -6.207 -84.988   3.642  1.00  0.00     0.185 HD
BRANCH   8  15
HETATM   15  N3  UNL     1      -8.692 -81.277   5.801  1.00  0.00    -0.234 N 
ATOM     16  H32 UNL     1      -9.709 -81.353   5.804  1.00  0.00     0.174 HD
ATOM     17  H31 UNL     1      -8.195 -80.497   6.234  1.00  0.00     0.174 HD
ENDBRANCH   8  15
BRANCH  11  18
HETATM   18  N5  UNL     1      -6.275 -85.099   6.128  1.00  0.00    -0.234 N 
ATOM     19  H52 UNL     1      -6.865 -85.821   6.542  1.00  0.00     0.174 HD
ATOM     20  H51 UNL     1      -5.266 -85.118   6.272  1.00  0.00     0.174 HD
ENDBRANCH  11  18
ENDBRANCH   5   6
ENDBRANCH   4   5
ENDBRANCH   3   4
TORSDOF 5
ENDMDL
MODEL 3
REMARK VINA RESULT: -5.616433386      2.075      2.337
REMARK  5 active torsions:
REMARK  status: ('A' for Active; 'I' for Inactive)
REMARK    1  A    between atoms: C2_3  and  C3_4 
REMARK    2  A    between atoms: C3_4  and  C4_5 
REMARK    3  A    between atoms: C4_5  and  C5_6 
REMARK    4  A    between atoms: C6_9  and  N3_10 
REMARK    5  A    between atoms: C7_15  and  N5_16 
ROOT
HETATM    1  N1  UNL     1      -8.187 -87.975   1.399  1.00  0.00    -0.197 NA
HETATM    2  C1  UNL     1      -8.185 -86.836   1.208  1.00  0.00     0.059 C 
HETATM    3  C2  UNL     1      -8.208 -85.399   0.967  1.00  0.00     0.124 C 
ENDROOT
BRANCH   3   4
HETATM    4  C3  UNL     1      -6.879 -84.775   1.359  1.00  0.00     0.022 C 
BRANCH   4   5
HETATM    5  C4  UNL     1      -7.184 -83.365   1.829  1.00  0.00     0.078 C 
BRANCH   5   6
HETATM    6  C5  UNL     1      -7.279 -83.310   3.320  1.00  0.00     0.113 A 
HETATM    7  N2  UNL     1      -6.711 -84.242   4.104  1.00  0.00    -0.180 N 
HETATM    8  C6  UNL     1      -6.823 -84.150   5.448  1.00  0.00     0.691 A 
ATOM      9  H2  UNL     1      -6.196 -85.017   3.687  1.00  0.00     0.185 HD
HETATM   10  N4  UNL     1      -7.488 -83.153   6.057  1.00  0.00    -0.023 N 
HETATM   11  C7  UNL     1      -8.056 -82.220   5.271  1.00  0.00     0.691 A 
ATOM     12  H4  UNL     1      -7.560 -83.105   7.073  1.00  0.00     0.203 HD
HETATM   13  N6  UNL     1      -7.946 -82.308   3.918  1.00  0.00    -0.180 N 
ATOM     14  H6  UNL     1      -8.383 -81.591   3.339  1.00  0.00     0.185 HD
BRANCH   8  15
HETATM   15  N3  UNL     1      -6.284 -85.037   6.225  1.00  0.00    -0.234 N 
ATOM     16  H32 UNL     1      -5.719 -85.753   5.768  1.00  0.00     0.174 HD
ATOM     17  H31 UNL     1      -6.427 -85.007   7.235  1.00  0.00     0.174 HD
ENDBRANCH   8  15
BRANCH  11  18
HETATM   18  N5  UNL     1      -8.711 -81.233   5.781  1.00  0.00    -0.234 N 
ATOM     19  H52 UNL     1      -9.094 -81.328   6.721  1.00  0.00     0.174 HD
ATOM     20  H51 UNL     1      -8.848 -80.368   5.257  1.00  0.00     0.174 HD
ENDBRANCH  11  18
ENDBRANCH   5   6
ENDBRANCH   4   5
ENDBRANCH   3   4
TORSDOF 5
ENDMDL
MODEL 4
REMARK VINA RESULT: -5.603692860      0.058      2.189
REMARK  5 active torsions:
REMARK  status: ('A' for Active; 'I' for Inactive)
REMARK    1  A    between atoms: C2_3  and  C3_4 
REMARK    2  A    between atoms: C3_4  and  C4_5 
REMARK    3  A    between atoms: C4_5  and  C5_6 
REMARK    4  A    between atoms: C6_9  and  N3_10 
REMARK    5  A    between atoms: C7_15  and  N5_16 
ROOT
HETATM    1  N1  UNL     1      -5.577 -86.939  -2.061  1.00  0.00    -0.197 NA
HETATM    2  C1  UNL     1      -5.763 -86.091  -1.298  1.00  0.00     0.059 C 
HETATM    3  C2  UNL     1      -5.986 -85.006  -0.352  1.00  0.00     0.124 C 
ENDROOT
BRANCH   3   4
HETATM    4  C3  UNL     1      -7.094 -85.370   0.622  1.00  0.00     0.022 C 
BRANCH   4   5
HETATM    5  C4  UNL     1      -7.775 -84.073   1.010  1.00  0.00     0.078 C 
BRANCH   5   6
HETATM    6  C5  UNL     1      -7.232 -83.552   2.303  1.00  0.00     0.113 A 
HETATM    7  N2  UNL     1      -6.842 -82.273   2.447  1.00  0.00    -0.180 N 
HETATM    8  C6  UNL     1      -6.357 -81.847   3.634  1.00  0.00     0.691 A 
ATOM      9  H2  UNL     1      -6.912 -81.626   1.662  1.00  0.00     0.185 HD
HETATM   10  N4  UNL     1      -6.242 -82.653   4.705  1.00  0.00    -0.023 N 
HETATM   11  C7  UNL     1      -6.633 -83.932   4.560  1.00  0.00     0.691 A 
ATOM     12  H4  UNL     1      -5.873 -82.308   5.591  1.00  0.00     0.203 HD
HETATM   13  N6  UNL     1      -7.122 -84.365   3.367  1.00  0.00    -0.180 N 
ATOM     14  H6  UNL     1      -7.414 -85.338   3.277  1.00  0.00     0.185 HD
BRANCH   8  15
HETATM   15  N3  UNL     1      -5.974 -80.620   3.798  1.00  0.00    -0.234 N 
ATOM     16  H32 UNL     1      -6.702 -79.908   3.725  1.00  0.00     0.174 HD
ATOM     17  H31 UNL     1      -4.998 -80.394   3.988  1.00  0.00     0.174 HD
ENDBRANCH   8  15
BRANCH  11  18
HETATM   18  N5  UNL     1      -6.553 -84.765   5.541  1.00  0.00    -0.234 N 
ATOM     19  H52 UNL     1      -6.500 -85.763   5.337  1.00  0.00     0.174 HD
ATOM     20  H51 UNL     1      -6.543 -84.439   6.507  1.00  0.00     0.174 HD
ENDBRANCH  11  18
ENDBRANCH   5   6
ENDBRANCH   4   5
ENDBRANCH   3   4
TORSDOF 5
ENDMDL
MODEL 5
REMARK VINA RESULT: -5.579598302      1.683      2.893
REMARK  5 active torsions:
REMARK  status: ('A' for Active; 'I' for Inactive)
REMARK    1  A    between atoms: C2_3  and  C3_4 
REMARK    2  A    between atoms: C3_4  and  C4_5 
REMARK    3  A    between atoms: C4_5  and  C5_6 
REMARK    4  A    between atoms: C6_9  and  N3_10 
REMARK    5  A    between atoms: C7_15  and  N5_16 
ROOT
HETATM    1  N1  UNL     1      -8.550 -87.735   1.367  1.00  0.00    -0.197 NA
HETATM    2  C1  UNL     1      -8.629 -86.832   0.651  1.00  0.00     0.059 C 
HETATM    3  C2  UNL     1      -8.743 -85.707  -0.268  1.00  0.00     0.124 C 
ENDROOT
BRANCH   3   4
HETATM    4  C3  UNL     1      -8.379 -84.410   0.434  1.00  0.00     0.022 C 
BRANCH   4   5
HETATM    5  C4  UNL     1      -6.981 -84.594   0.990  1.00  0.00     0.078 C 
BRANCH   5   6
HETATM    6  C5  UNL     1      -6.773 -83.744   2.202  1.00  0.00     0.113 A 
HETATM    7  N2  UNL     1      -6.587 -82.415   2.116  1.00  0.00    -0.180 N 
HETATM    8  C6  UNL     1      -6.403 -81.686   3.240  1.00  0.00     0.691 A 
ATOM      9  H2  UNL     1      -6.585 -81.957   1.205  1.00  0.00     0.185 HD
HETATM   10  N4  UNL     1      -6.396 -82.232   4.468  1.00  0.00    -0.023 N 
HETATM   11  C7  UNL     1      -6.582 -83.562   4.554  1.00  0.00     0.691 A 
ATOM     12  H4  UNL     1      -6.255 -81.662   5.302  1.00  0.00     0.203 HD
HETATM   13  N6  UNL     1      -6.768 -84.299   3.426  1.00  0.00    -0.180 N 
ATOM     14  H6  UNL     1      -6.908 -85.306   3.512  1.00  0.00     0.185 HD
BRANCH   8  15
HETATM   15  N3  UNL     1      -6.221 -80.404   3.182  1.00  0.00    -0.234 N 
ATOM     16  H32 UNL     1      -5.639 -80.066   2.416  1.00  0.00     0.174 HD
ATOM     17  H31 UNL     1      -6.644 -79.782   3.872  1.00  0.00     0.174 HD
ENDBRANCH   8  15
BRANCH  11  18
HETATM   18  N5  UNL     1      -6.589 -84.159   5.697  1.00  0.00    -0.234 N 
ATOM     19  H52 UNL     1      -5.913 -84.904   5.868  1.00  0.00     0.174 HD
ATOM     20  H51 UNL     1      -7.255 -83.896   6.423  1.00  0.00     0.174 HD
ENDBRANCH  11  18
ENDBRANCH   5   6
ENDBRANCH   4   5
ENDBRANCH   3   4
TORSDOF 5
ENDMDL
