MODEL 1
REMARK VINA RESULT: -4.962300552      0.000      0.000
REMARK  5 active torsions:
REMARK  status: ('A' for Active; 'I' for Inactive)
REMARK    1  A    between atoms: C2_8  and  C3_9 
REMARK    2  A    between atoms: C3_9  and  N4_10 
REMARK    3  A    between atoms: C5_15  and  C6_16 
REMARK    4  A    between atoms: C6_16  and  C7_17 
REMARK    5  A    between atoms: C7_17  and  N5_18 
ROOT
HETATM    1  N1  UNL     1      42.848 -28.735  -3.363  1.00  0.00    -0.388 N 
ATOM      2  H11 UNL     1      41.869 -28.866  -3.107  1.00  0.00     0.157 HD
ATOM      3  H12 UNL     1      43.547 -29.471  -3.277  1.00  0.00     0.157 HD
HETATM    4  C1  UNL     1      43.206 -27.583  -3.800  1.00  0.00     0.090 C 
HETATM    5  N2  UNL     1      44.567 -27.400  -4.156  1.00  0.00    -0.293 N 
ATOM      6  H2  UNL     1      45.302 -27.954  -3.716  1.00  0.00     0.183 HD
HETATM    7  N3  UNL     1      44.879 -26.432  -5.133  1.00  0.00    -0.133 NA
HETATM    8  C2  UNL     1      44.125 -25.247  -4.698  1.00  0.00     0.125 C 
HETATM    9  C4  UNL     1      42.690 -25.484  -4.932  1.00  0.00     0.037 C 
HETATM   10  C5  UNL     1      42.190 -26.513  -3.924  1.00  0.00     0.057 C 
ENDROOT
BRANCH  10  11
HETATM   11  C6  UNL     1      41.922 -25.768  -2.643  1.00  0.00     0.039 C 
BRANCH  11  12
HETATM   12  C7  UNL     1      40.574 -26.077  -2.033  1.00  0.00     0.230 C 
BRANCH  12  13
HETATM   13  N5  UNL     1      40.640 -27.226  -1.152  1.00  0.00    -0.079 N 
ATOM     14  H53 UNL     1      40.601 -28.101  -1.675  1.00  0.00     0.274 HD
ATOM     15  H52 UNL     1      41.568 -27.329  -0.741  1.00  0.00     0.274 HD
ATOM     16  H51 UNL     1      39.917 -27.188  -0.433  1.00  0.00     0.274 HD
ENDBRANCH  12  13
ENDBRANCH  11  12
ENDBRANCH  10  11
BRANCH   8  17
HETATM   17  C3  UNL     1      44.678 -23.999  -5.323  1.00  0.00     0.252 C 
BRANCH  17  18
HETATM   18  N4  UNL     1      43.788 -22.883  -5.285  1.00  0.00    -0.078 N 
ATOM     19  H43 UNL     1      42.842 -23.173  -5.532  1.00  0.00     0.274 HD
ATOM     20  H42 UNL     1      43.632 -22.583  -4.322  1.00  0.00     0.274 HD
ATOM     21  H41 UNL     1      44.083 -22.094  -5.861  1.00  0.00     0.274 HD
ENDBRANCH  17  18
ENDBRANCH   8  17
TORSDOF 5
ENDMDL
MODEL 2
REMARK VINA RESULT: -4.812060113      1.996      3.121
REMARK  5 active torsions:
REMARK  status: ('A' for Active; 'I' for Inactive)
REMARK    1  A    between atoms: C2_8  and  C3_9 
REMARK    2  A    between atoms: C3_9  and  N4_10 
REMARK    3  A    between atoms: C5_15  and  C6_16 
REMARK    4  A    between atoms: C6_16  and  C7_17 
REMARK    5  A    between atoms: C7_17  and  N5_18 
ROOT
HETATM    1  N1  UNL     1      45.430 -26.663  -5.286  1.00  0.00    -0.388 N 
ATOM      2  H11 UNL     1      44.548 -27.153  -5.132  1.00  0.00     0.157 HD
ATOM      3  H12 UNL     1      46.310 -27.146  -5.459  1.00  0.00     0.157 HD
HETATM    4  C1  UNL     1      45.420 -25.381  -5.245  1.00  0.00     0.090 C 
HETATM    5  N2  UNL     1      46.646 -24.699  -5.459  1.00  0.00    -0.293 N 
ATOM      6  H2  UNL     1      47.537 -25.142  -5.235  1.00  0.00     0.183 HD
HETATM    7  N3  UNL     1      46.602 -23.393  -5.990  1.00  0.00    -0.133 NA
HETATM    8  C2  UNL     1      45.584 -22.721  -5.168  1.00  0.00     0.125 C 
HETATM    9  C4  UNL     1      44.258 -23.253  -5.523  1.00  0.00     0.037 C 
HETATM   10  C5  UNL     1      44.141 -24.678  -4.994  1.00  0.00     0.057 C 
ENDROOT
BRANCH  10  11
HETATM   11  C6  UNL     1      43.776 -24.569  -3.537  1.00  0.00     0.039 C 
BRANCH  11  12
HETATM   12  C7  UNL     1      42.487 -25.272  -3.180  1.00  0.00     0.230 C 
BRANCH  12  13
HETATM   13  N5  UNL     1      42.676 -26.706  -3.071  1.00  0.00    -0.079 N 
ATOM     14  H53 UNL     1      42.675 -27.154  -3.987  1.00  0.00     0.274 HD
ATOM     15  H52 UNL     1      43.627 -26.936  -2.784  1.00  0.00     0.274 HD
ATOM     16  H51 UNL     1      41.987 -27.127  -2.448  1.00  0.00     0.274 HD
ENDBRANCH  12  13
ENDBRANCH  11  12
ENDBRANCH  10  11
BRANCH   8  17
HETATM   17  C3  UNL     1      45.721 -21.228  -5.259  1.00  0.00     0.252 C 
BRANCH  17  18
HETATM   18  N4  UNL     1      45.995 -20.747  -6.575  1.00  0.00    -0.078 N 
ATOM     19  H43 UNL     1      46.896 -21.096  -6.902  1.00  0.00     0.274 HD
ATOM     20  H42 UNL     1      45.379 -21.193  -7.254  1.00  0.00     0.274 HD
ATOM     21  H41 UNL     1      45.950 -19.731  -6.665  1.00  0.00     0.274 HD
ENDBRANCH  17  18
ENDBRANCH   8  17
TORSDOF 5
ENDMDL
MODEL 3
REMARK VINA RESULT: -4.435116959      2.228      5.312
REMARK  5 active torsions:
REMARK  status: ('A' for Active; 'I' for Inactive)
REMARK    1  A    between atoms: C2_8  and  C3_9 
REMARK    2  A    between atoms: C3_9  and  N4_10 
REMARK    3  A    between atoms: C5_15  and  C6_16 
REMARK    4  A    between atoms: C6_16  and  C7_17 
REMARK    5  A    between atoms: C7_17  and  N5_18 
ROOT
HETATM    1  N1  UNL     1      47.469 -24.597  -5.995  1.00  0.00    -0.388 N 
ATOM      2  H11 UNL     1      48.052 -23.773  -5.849  1.00  0.00     0.157 HD
ATOM      3  H12 UNL     1      47.795 -25.425  -6.494  1.00  0.00     0.157 HD
HETATM    4  C1  UNL     1      46.272 -24.576  -5.537  1.00  0.00     0.090 C 
HETATM    5  N2  UNL     1      45.461 -25.724  -5.741  1.00  0.00    -0.293 N 
ATOM      6  H2  UNL     1      45.620 -26.342  -6.536  1.00  0.00     0.183 HD
HETATM    7  N3  UNL     1      44.430 -25.987  -4.815  1.00  0.00    -0.133 NA
HETATM    8  C2  UNL     1      43.751 -24.691  -4.677  1.00  0.00     0.125 C 
HETATM    9  C4  UNL     1      44.625 -23.773  -3.926  1.00  0.00     0.037 C 
HETATM   10  C5  UNL     1      45.798 -23.374  -4.813  1.00  0.00     0.057 C 
ENDROOT
BRANCH  10  11
HETATM   11  C6  UNL     1      45.306 -22.271  -5.712  1.00  0.00     0.039 C 
BRANCH  11  12
HETATM   12  C7  UNL     1      46.007 -20.950  -5.490  1.00  0.00     0.230 C 
BRANCH  12  13
HETATM   13  N5  UNL     1      46.046 -20.159  -6.704  1.00  0.00    -0.079 N 
ATOM     14  H53 UNL     1      45.931 -19.164  -6.506  1.00  0.00     0.274 HD
ATOM     15  H52 UNL     1      46.984 -20.133  -7.104  1.00  0.00     0.274 HD
ATOM     16  H51 UNL     1      45.360 -20.484  -7.386  1.00  0.00     0.274 HD
ENDBRANCH  12  13
ENDBRANCH  11  12
ENDBRANCH  10  11
BRANCH   8  17
HETATM   17  C3  UNL     1      42.370 -24.865  -4.112  1.00  0.00     0.252 C 
BRANCH  17  18
HETATM   18  N4  UNL     1      42.340 -25.484  -2.826  1.00  0.00    -0.078 N 
ATOM     19  H43 UNL     1      43.255 -25.870  -2.594  1.00  0.00     0.274 HD
ATOM     20  H42 UNL     1      42.257 -24.780  -2.092  1.00  0.00     0.274 HD
ATOM     21  H41 UNL     1      41.615 -26.195  -2.722  1.00  0.00     0.274 HD
ENDBRANCH  17  18
ENDBRANCH   8  17
TORSDOF 5
ENDMDL
MODEL 4
REMARK VINA RESULT: -4.365280781      2.442      5.623
REMARK  5 active torsions:
REMARK  status: ('A' for Active; 'I' for Inactive)
REMARK    1  A    between atoms: C2_8  and  C3_9 
REMARK    2  A    between atoms: C3_9  and  N4_10 
REMARK    3  A    between atoms: C5_15  and  C6_16 
REMARK    4  A    between atoms: C6_16  and  C7_17 
REMARK    5  A    between atoms: C7_17  and  N5_18 
ROOT
HETATM    1  N1  UNL     1      46.061 -20.800  -5.577  1.00  0.00    -0.388 N 
ATOM      2  H11 UNL     1      45.851 -20.531  -6.538  1.00  0.00     0.157 HD
ATOM      3  H12 UNL     1      46.755 -20.321  -5.005  1.00  0.00     0.157 HD
HETATM    4  C1  UNL     1      45.424 -21.796  -5.080  1.00  0.00     0.090 C 
HETATM    5  N2  UNL     1      45.714 -22.172  -3.742  1.00  0.00    -0.293 N 
ATOM      6  H2  UNL     1      46.629 -21.983  -3.333  1.00  0.00     0.183 HD
HETATM    7  N3  UNL     1      44.706 -22.813  -2.993  1.00  0.00    -0.133 NA
HETATM    8  C2  UNL     1      44.214 -23.859  -3.901  1.00  0.00     0.125 C 
HETATM    9  C4  UNL     1      43.447 -23.225  -4.987  1.00  0.00     0.037 C 
HETATM   10  C5  UNL     1      44.415 -22.493  -5.910  1.00  0.00     0.057 C 
ENDROOT
BRANCH  10  11
HETATM   11  C6  UNL     1      44.993 -23.528  -6.838  1.00  0.00     0.039 C 
BRANCH  11  12
HETATM   12  C7  UNL     1      46.483 -23.722  -6.678  1.00  0.00     0.230 C 
BRANCH  12  13
HETATM   13  N5  UNL     1      46.785 -24.923  -5.924  1.00  0.00    -0.079 N 
ATOM     14  H53 UNL     1      47.200 -25.642  -6.517  1.00  0.00     0.274 HD
ATOM     15  H52 UNL     1      47.566 -24.775  -5.285  1.00  0.00     0.274 HD
ATOM     16  H51 UNL     1      45.963 -25.273  -5.433  1.00  0.00     0.274 HD
ENDBRANCH  12  13
ENDBRANCH  11  12
ENDBRANCH  10  11
BRANCH   8  17
HETATM   17  C3  UNL     1      43.482 -24.929  -3.141  1.00  0.00     0.252 C 
BRANCH  17  18
HETATM   18  N4  UNL     1      43.815 -26.258  -3.540  1.00  0.00    -0.078 N 
ATOM     19  H43 UNL     1      44.280 -26.253  -4.448  1.00  0.00     0.274 HD
ATOM     20  H42 UNL     1      44.570 -26.627  -2.961  1.00  0.00     0.274 HD
ATOM     21  H41 UNL     1      43.024 -26.902  -3.547  1.00  0.00     0.274 HD
ENDBRANCH  17  18
ENDBRANCH   8  17
TORSDOF 5
ENDMDL
MODEL 5
REMARK VINA RESULT: -4.348372876      1.998      2.641
REMARK  5 active torsions:
REMARK  status: ('A' for Active; 'I' for Inactive)
REMARK    1  A    between atoms: C2_8  and  C3_9 
REMARK    2  A    between atoms: C3_9  and  N4_10 
REMARK    3  A    between atoms: C5_15  and  C6_16 
REMARK    4  A    between atoms: C6_16  and  C7_17 
REMARK    5  A    between atoms: C7_17  and  N5_18 
ROOT
HETATM    1  N1  UNL     1      41.412 -26.217  -2.112  1.00  0.00    -0.388 N 
ATOM      2  H11 UNL     1      41.012 -27.152  -2.040  1.00  0.00     0.157 HD
ATOM      3  H12 UNL     1      41.072 -25.424  -1.569  1.00  0.00     0.157 HD
HETATM    4  C1  UNL     1      42.380 -26.039  -2.934  1.00  0.00     0.090 C 
HETATM    5  N2  UNL     1      42.938 -24.738  -3.035  1.00  0.00    -0.293 N 
ATOM      6  H2  UNL     1      42.379 -23.911  -2.824  1.00  0.00     0.183 HD
HETATM    7  N3  UNL     1      44.286 -24.616  -3.432  1.00  0.00    -0.133 NA
HETATM    8  C2  UNL     1      44.377 -25.488  -4.613  1.00  0.00     0.125 C 
HETATM    9  C4  UNL     1      44.300 -26.892  -4.176  1.00  0.00     0.037 C 
HETATM   10  C5  UNL     1      42.875 -27.190  -3.724  1.00  0.00     0.057 C 
ENDROOT
BRANCH  10  11
HETATM   11  C6  UNL     1      42.076 -27.469  -4.970  1.00  0.00     0.039 C 
BRANCH  11  12
HETATM   12  C7  UNL     1      41.256 -28.736  -4.892  1.00  0.00     0.230 C 
BRANCH  12  13
HETATM   13  N5  UNL     1      39.868 -28.452  -4.579  1.00  0.00    -0.079 N 
ATOM     14  H53 UNL     1      39.744 -28.243  -3.589  1.00  0.00     0.274 HD
ATOM     15  H52 UNL     1      39.574 -27.557  -4.969  1.00  0.00     0.274 HD
ATOM     16  H51 UNL     1      39.255 -29.209  -4.880  1.00  0.00     0.274 HD
ENDBRANCH  12  13
ENDBRANCH  11  12
ENDBRANCH  10  11
BRANCH   8  17
HETATM   17  C3  UNL     1      45.578 -25.141  -5.445  1.00  0.00     0.252 C 
BRANCH  17  18
HETATM   18  N4  UNL     1      46.076 -23.821  -5.229  1.00  0.00    -0.078 N 
ATOM     19  H43 UNL     1      45.380 -23.127  -5.503  1.00  0.00     0.274 HD
ATOM     20  H42 UNL     1      46.137 -23.621  -4.230  1.00  0.00     0.274 HD
ATOM     21  H41 UNL     1      46.969 -23.632  -5.686  1.00  0.00     0.274 HD
ENDBRANCH  17  18
ENDBRANCH   8  17
TORSDOF 5
ENDMDL
