MODEL 1
REMARK VINA RESULT: -5.406721333      0.000      0.000
REMARK  5 active torsions:
REMARK  status: ('A' for Active; 'I' for Inactive)
REMARK    1  A    between atoms: N1_1  and  C1_4 
REMARK    2  A    between atoms: C3_8  and  C4_9 
REMARK    3  A    between atoms: C4_9  and  N3_10 
REMARK    4  A    between atoms: C5_12  and  C6_13 
REMARK    5  A    between atoms: C6_13  and  N4_14 
ROOT
HETATM    1  C1  UNL     1      48.604 -28.884   2.429  1.00  0.00     0.690 A 
HETATM    2  N2  UNL     1      48.230 -28.730   1.151  1.00  0.00    -0.199 N 
ATOM      3  H2  UNL     1      48.809 -28.180   0.516  1.00  0.00     0.183 HD
HETATM    4  C2  UNL     1      47.085 -29.301   0.693  1.00  0.00     0.134 A 
HETATM    5  C3  UNL     1      46.280 -30.052   1.525  1.00  0.00     0.059 A 
HETATM    6  N5  UNL     1      46.682 -30.188   2.801  1.00  0.00    -0.288 N 
ATOM      7  H5  UNL     1      46.118 -30.733   3.452  1.00  0.00     0.187 HD
HETATM    8  N6  UNL     1      47.807 -29.619   3.225  1.00  0.00    -0.132 N 
ATOM      9  H6  UNL     1      48.078 -29.746   4.200  1.00  0.00     0.205 HD
ENDROOT
BRANCH   5  10
HETATM   10  C4  UNL     1      45.012 -30.697   1.062  1.00  0.00     0.178 C 
BRANCH  10  11
HETATM   11  N3  UNL     1      44.151 -31.010   2.146  1.00  0.00    -0.395 N 
HETATM   12  C5  UNL     1      42.901 -31.168   1.920  1.00  0.00     0.082 C 
ATOM     13  H3  UNL     1      44.523 -31.108   3.090  1.00  0.00     0.159 HD
BRANCH  12  14
HETATM   14  C6  UNL     1      42.266 -31.045   0.584  1.00  0.00     0.273 C 
BRANCH  14  15
HETATM   15  N4  UNL     1      41.315 -29.957   0.515  1.00  0.00    -0.075 N 
ATOM     16  H43 UNL     1      40.830 -29.839   1.404  1.00  0.00     0.274 HD
ATOM     17  H42 UNL     1      41.792 -29.057   0.466  1.00  0.00     0.274 HD
ATOM     18  H41 UNL     1      40.652 -30.062  -0.253  1.00  0.00     0.274 HD
ENDBRANCH  14  15
ENDBRANCH  12  14
ENDBRANCH  10  11
ENDBRANCH   5  10
BRANCH   1  19
HETATM   19  N1  UNL     1      49.692 -28.358   2.918  1.00  0.00    -0.233 N 
ATOM     20  H12 UNL     1      50.600 -28.720   2.628  1.00  0.00     0.174 HD
ATOM     21  H11 UNL     1      49.685 -27.589   3.588  1.00  0.00     0.174 HD
ENDBRANCH   1  19
TORSDOF 5
ENDMDL
MODEL 2
REMARK VINA RESULT: -5.132310036      8.768      9.700
REMARK  5 active torsions:
REMARK  status: ('A' for Active; 'I' for Inactive)
REMARK    1  A    between atoms: N1_1  and  C1_4 
REMARK    2  A    between atoms: C3_8  and  C4_9 
REMARK    3  A    between atoms: C4_9  and  N3_10 
REMARK    4  A    between atoms: C5_12  and  C6_13 
REMARK    5  A    between atoms: C6_13  and  N4_14 
ROOT
HETATM    1  C1  UNL     1      46.040 -21.007  -5.528  1.00  0.00     0.690 A 
HETATM    2  N2  UNL     1      45.810 -21.512  -4.307  1.00  0.00    -0.199 N 
ATOM      3  H2  UNL     1      46.182 -21.036  -3.484  1.00  0.00     0.183 HD
HETATM    4  C2  UNL     1      45.086 -22.652  -4.156  1.00  0.00     0.134 A 
HETATM    5  C3  UNL     1      44.569 -23.318  -5.247  1.00  0.00     0.059 A 
HETATM    6  N5  UNL     1      44.817 -22.788  -6.458  1.00  0.00    -0.288 N 
ATOM      7  H5  UNL     1      44.454 -23.248  -7.293  1.00  0.00     0.187 HD
HETATM    8  N6  UNL     1      45.528 -21.671  -6.579  1.00  0.00    -0.132 N 
ATOM      9  H6  UNL     1      45.693 -21.300  -7.515  1.00  0.00     0.205 HD
ENDROOT
BRANCH   5  10
HETATM   10  C4  UNL     1      43.767 -24.576  -5.125  1.00  0.00     0.178 C 
BRANCH  10  11
HETATM   11  N3  UNL     1      42.982 -24.590  -3.943  1.00  0.00    -0.395 N 
HETATM   12  C5  UNL     1      42.577 -25.712  -3.480  1.00  0.00     0.082 C 
ATOM     13  H3  UNL     1      42.744 -23.718  -3.470  1.00  0.00     0.159 HD
BRANCH  12  14
HETATM   14  C6  UNL     1      42.870 -27.031  -4.097  1.00  0.00     0.273 C 
BRANCH  14  15
HETATM   15  N4  UNL     1      43.852 -27.789  -3.354  1.00  0.00    -0.075 N 
ATOM     16  H43 UNL     1      44.645 -27.204  -3.093  1.00  0.00     0.274 HD
ATOM     17  H42 UNL     1      43.506 -28.023  -2.423  1.00  0.00     0.274 HD
ATOM     18  H41 UNL     1      44.161 -28.625  -3.849  1.00  0.00     0.274 HD
ENDBRANCH  14  15
ENDBRANCH  12  14
ENDBRANCH  10  11
ENDBRANCH   5  10
BRANCH   1  19
HETATM   19  N1  UNL     1      46.727 -19.918  -5.728  1.00  0.00    -0.233 N 
ATOM     20  H12 UNL     1      46.245 -19.021  -5.776  1.00  0.00     0.174 HD
ATOM     21  H11 UNL     1      47.741 -19.914  -5.840  1.00  0.00     0.174 HD
ENDBRANCH   1  19
TORSDOF 5
ENDMDL
MODEL 3
REMARK VINA RESULT: -5.107588821      8.706      9.605
REMARK  5 active torsions:
REMARK  status: ('A' for Active; 'I' for Inactive)
REMARK    1  A    between atoms: N1_1  and  C1_4 
REMARK    2  A    between atoms: C3_8  and  C4_9 
REMARK    3  A    between atoms: C4_9  and  N3_10 
REMARK    4  A    between atoms: C5_12  and  C6_13 
REMARK    5  A    between atoms: C6_13  and  N4_14 
ROOT
HETATM    1  C1  UNL     1      45.856 -21.204  -5.632  1.00  0.00     0.690 A 
HETATM    2  N2  UNL     1      45.712 -21.549  -4.344  1.00  0.00    -0.199 N 
ATOM      3  H2  UNL     1      46.115 -20.961  -3.614  1.00  0.00     0.183 HD
HETATM    4  C2  UNL     1      45.033 -22.676  -4.003  1.00  0.00     0.134 A 
HETATM    5  C3  UNL     1      44.475 -23.491  -4.965  1.00  0.00     0.059 A 
HETATM    6  N5  UNL     1      44.637 -23.120  -6.247  1.00  0.00    -0.288 N 
ATOM      7  H5  UNL     1      44.242 -23.693  -6.993  1.00  0.00     0.187 HD
HETATM    8  N6  UNL     1      45.306 -22.012  -6.555  1.00  0.00    -0.132 N 
ATOM      9  H6  UNL     1      45.406 -21.764  -7.539  1.00  0.00     0.205 HD
ENDROOT
BRANCH   5  10
HETATM   10  C4  UNL     1      43.720 -24.740  -4.632  1.00  0.00     0.178 C 
BRANCH  10  11
HETATM   11  N3  UNL     1      43.450 -24.841  -3.243  1.00  0.00    -0.395 N 
HETATM   12  C5  UNL     1      42.402 -25.466  -2.858  1.00  0.00     0.082 C 
ATOM     13  H3  UNL     1      44.082 -24.422  -2.561  1.00  0.00     0.159 HD
BRANCH  12  14
HETATM   14  C6  UNL     1      41.422 -26.107  -3.772  1.00  0.00     0.273 C 
BRANCH  14  15
HETATM   15  N4  UNL     1      40.104 -25.519  -3.679  1.00  0.00    -0.075 N 
ATOM     16  H43 UNL     1      40.089 -24.587  -4.093  1.00  0.00     0.274 HD
ATOM     17  H42 UNL     1      39.449 -25.989  -4.305  1.00  0.00     0.274 HD
ATOM     18  H41 UNL     1      39.747 -25.501  -2.724  1.00  0.00     0.274 HD
ENDBRANCH  14  15
ENDBRANCH  12  14
ENDBRANCH  10  11
ENDBRANCH   5  10
BRANCH   1  19
HETATM   19  N1  UNL     1      46.497 -20.135  -6.012  1.00  0.00    -0.233 N 
ATOM     20  H12 UNL     1      46.658 -19.381  -5.345  1.00  0.00     0.174 HD
ATOM     21  H11 UNL     1      46.854 -20.009  -6.960  1.00  0.00     0.174 HD
ENDBRANCH   1  19
TORSDOF 5
ENDMDL
MODEL 4
REMARK VINA RESULT: -5.104539476      8.115     10.086
REMARK  5 active torsions:
REMARK  status: ('A' for Active; 'I' for Inactive)
REMARK    1  A    between atoms: N1_1  and  C1_4 
REMARK    2  A    between atoms: C3_8  and  C4_9 
REMARK    3  A    between atoms: C4_9  and  N3_10 
REMARK    4  A    between atoms: C5_12  and  C6_13 
REMARK    5  A    between atoms: C6_13  and  N4_14 
ROOT
HETATM    1  C1  UNL     1      42.130 -26.791  -3.407  1.00  0.00     0.690 A 
HETATM    2  N2  UNL     1      42.200 -26.577  -4.729  1.00  0.00    -0.199 N 
ATOM      3  H2  UNL     1      41.818 -27.268  -5.375  1.00  0.00     0.183 HD
HETATM    4  C2  UNL     1      42.776 -25.447  -5.216  1.00  0.00     0.134 A 
HETATM    5  C3  UNL     1      43.302 -24.493  -4.369  1.00  0.00     0.059 A 
HETATM    6  N5  UNL     1      43.217 -24.736  -3.049  1.00  0.00    -0.288 N 
ATOM      7  H5  UNL     1      43.593 -24.058  -2.386  1.00  0.00     0.187 HD
HETATM    8  N6  UNL     1      42.648 -25.850  -2.598  1.00  0.00    -0.132 N 
ATOM      9  H6  UNL     1      42.602 -25.998  -1.590  1.00  0.00     0.205 HD
ENDROOT
BRANCH   5  10
HETATM   10  C4  UNL     1      43.945 -23.235  -4.864  1.00  0.00     0.178 C 
BRANCH  10  11
HETATM   11  N3  UNL     1      44.797 -23.477  -5.972  1.00  0.00    -0.395 N 
HETATM   12  C5  UNL     1      45.699 -22.616  -6.260  1.00  0.00     0.082 C 
ATOM     13  H3  UNL     1      44.693 -24.324  -6.530  1.00  0.00     0.159 HD
BRANCH  12  14
HETATM   14  C6  UNL     1      45.928 -21.355  -5.511  1.00  0.00     0.273 C 
BRANCH  14  15
HETATM   15  N4  UNL     1      45.962 -20.192  -6.371  1.00  0.00    -0.075 N 
ATOM     16  H43 UNL     1      45.705 -20.437  -7.327  1.00  0.00     0.274 HD
ATOM     17  H42 UNL     1      45.197 -19.554  -6.152  1.00  0.00     0.274 HD
ATOM     18  H41 UNL     1      46.859 -19.709  -6.345  1.00  0.00     0.274 HD
ENDBRANCH  14  15
ENDBRANCH  12  14
ENDBRANCH  10  11
ENDBRANCH   5  10
BRANCH   1  19
HETATM   19  N1  UNL     1      41.588 -27.857  -2.889  1.00  0.00    -0.233 N 
ATOM     20  H12 UNL     1      41.826 -28.776  -3.263  1.00  0.00     0.174 HD
ATOM     21  H11 UNL     1      40.926 -27.823  -2.114  1.00  0.00     0.174 HD
ENDBRANCH   1  19
TORSDOF 5
ENDMDL
MODEL 5
REMARK VINA RESULT: -5.080289846      7.577      9.779
REMARK  5 active torsions:
REMARK  status: ('A' for Active; 'I' for Inactive)
REMARK    1  A    between atoms: N1_1  and  C1_4 
REMARK    2  A    between atoms: C3_8  and  C4_9 
REMARK    3  A    between atoms: C4_9  and  N3_10 
REMARK    4  A    between atoms: C5_12  and  C6_13 
REMARK    5  A    between atoms: C6_13  and  N4_14 
ROOT
HETATM    1  C1  UNL     1      41.618 -26.779  -3.065  1.00  0.00     0.690 A 
HETATM    2  N2  UNL     1      42.353 -25.809  -2.500  1.00  0.00    -0.199 N 
ATOM      3  H2  UNL     1      42.387 -25.726  -1.484  1.00  0.00     0.183 HD
HETATM    4  C2  UNL     1      43.052 -24.935  -3.271  1.00  0.00     0.134 A 
HETATM    5  C3  UNL     1      43.027 -25.020  -4.648  1.00  0.00     0.059 A 
HETATM    6  N5  UNL     1      42.281 -26.002  -5.184  1.00  0.00    -0.288 N 
ATOM      7  H5  UNL     1      42.232 -26.102  -6.198  1.00  0.00     0.187 HD
HETATM    8  N6  UNL     1      41.606 -26.845  -4.408  1.00  0.00    -0.132 N 
ATOM      9  H6  UNL     1      41.053 -27.577  -4.853  1.00  0.00     0.205 HD
ENDROOT
BRANCH   5  10
HETATM   10  C4  UNL     1      43.781 -24.078  -5.533  1.00  0.00     0.178 C 
BRANCH  10  11
HETATM   11  N3  UNL     1      45.178 -24.323  -5.498  1.00  0.00    -0.395 N 
HETATM   12  C5  UNL     1      45.965 -23.381  -5.137  1.00  0.00     0.082 C 
ATOM     13  H3  UNL     1      45.550 -25.237  -5.757  1.00  0.00     0.159 HD
BRANCH  12  14
HETATM   14  C6  UNL     1      45.521 -22.020  -4.744  1.00  0.00     0.273 C 
BRANCH  14  15
HETATM   15  N4  UNL     1      45.785 -21.030  -5.765  1.00  0.00    -0.075 N 
ATOM     16  H43 UNL     1      45.080 -21.067  -6.501  1.00  0.00     0.274 HD
ATOM     17  H42 UNL     1      45.609 -20.088  -5.414  1.00  0.00     0.274 HD
ATOM     18  H41 UNL     1      46.725 -21.105  -6.153  1.00  0.00     0.274 HD
ENDBRANCH  14  15
ENDBRANCH  12  14
ENDBRANCH  10  11
ENDBRANCH   5  10
BRANCH   1  19
HETATM   19  N1  UNL     1      40.930 -27.642  -2.372  1.00  0.00    -0.233 N 
ATOM     20  H12 UNL     1      41.267 -27.934  -1.455  1.00  0.00     0.174 HD
ATOM     21  H11 UNL     1      40.055 -28.049  -2.703  1.00  0.00     0.174 HD
ENDBRANCH   1  19
TORSDOF 5
ENDMDL
