MODEL 1
REMARK VINA RESULT: -5.471136631      0.000      0.000
REMARK  4 active torsions:
REMARK  status: ('A' for Active; 'I' for Inactive)
REMARK    1  A    between atoms: C3_11  and  C4_12 
REMARK    2  A    between atoms: C4_12  and  C5_13 
REMARK    3  A    between atoms: C5_13  and  C6_14 
REMARK    4  A    between atoms: C6_14  and  N5_15 
ROOT
HETATM    1  N1  UNL     1      44.612 -23.019  -7.675  1.00  0.00    -0.234 N 
ATOM      2  H11 UNL     1      43.973 -23.663  -8.141  1.00  0.00     0.174 HD
ATOM      3  H12 UNL     1      45.177 -22.370  -8.223  1.00  0.00     0.174 HD
HETATM    4  C1  UNL     1      44.740 -22.988  -6.374  1.00  0.00     0.679 A 
HETATM    5  N2  UNL     1      45.582 -22.137  -5.759  1.00  0.00    -0.164 N 
ATOM      6  H2  UNL     1      46.143 -21.492  -6.316  1.00  0.00     0.187 HD
HETATM    7  C2  UNL     1      45.693 -22.129  -4.413  1.00  0.00     0.208 A 
HETATM    8  N3  UNL     1      46.587 -21.226  -3.760  1.00  0.00    -0.063 NA
HETATM    9  N4  UNL     1      44.930 -23.000  -3.736  1.00  0.00    -0.319 N 
ATOM     10  H4  UNL     1      44.999 -23.009  -2.718  1.00  0.00     0.169 HD
HETATM   11  C3  UNL     1      44.083 -23.858  -4.318  1.00  0.00     0.099 A 
HETATM   12  N6  UNL     1      43.997 -23.841  -5.653  1.00  0.00    -0.181 N 
ATOM     13  H6  UNL     1      43.361 -24.483  -6.127  1.00  0.00     0.185 HD
ENDROOT
BRANCH  11  14
HETATM   14  C4  UNL     1      43.307 -24.760  -3.432  1.00  0.00     0.079 C 
BRANCH  14  15
HETATM   15  C5  UNL     1      42.086 -25.322  -4.124  1.00  0.00     0.034 C 
BRANCH  15  16
HETATM   16  C6  UNL     1      42.370 -26.816  -4.332  1.00  0.00     0.230 C 
BRANCH  16  17
HETATM   17  N5  UNL     1      43.337 -27.291  -3.365  1.00  0.00    -0.079 N 
ATOM     18  H53 UNL     1      44.181 -26.718  -3.361  1.00  0.00     0.274 HD
ATOM     19  H52 UNL     1      43.030 -27.117  -2.407  1.00  0.00     0.274 HD
ATOM     20  H51 UNL     1      43.548 -28.276  -3.522  1.00  0.00     0.274 HD
ENDBRANCH  16  17
ENDBRANCH  15  16
ENDBRANCH  14  15
ENDBRANCH  11  14
TORSDOF 4
ENDMDL
MODEL 2
REMARK VINA RESULT: -5.382369200      1.673      4.853
REMARK  4 active torsions:
REMARK  status: ('A' for Active; 'I' for Inactive)
REMARK    1  A    between atoms: C3_11  and  C4_12 
REMARK    2  A    between atoms: C4_12  and  C5_13 
REMARK    3  A    between atoms: C5_13  and  C6_14 
REMARK    4  A    between atoms: C6_14  and  N5_15 
ROOT
HETATM    1  N1  UNL     1      41.997 -26.359  -2.517  1.00  0.00    -0.234 N 
ATOM      2  H11 UNL     1      41.331 -25.710  -2.100  1.00  0.00     0.174 HD
ATOM      3  H12 UNL     1      41.948 -27.355  -2.299  1.00  0.00     0.174 HD
HETATM    4  C1  UNL     1      42.932 -25.962  -3.340  1.00  0.00     0.679 A 
HETATM    5  N2  UNL     1      43.811 -26.820  -3.891  1.00  0.00    -0.164 N 
ATOM      6  H2  UNL     1      43.754 -27.813  -3.666  1.00  0.00     0.187 HD
HETATM    7  C2  UNL     1      44.767 -26.379  -4.738  1.00  0.00     0.208 A 
HETATM    8  N3  UNL     1      45.699 -27.289  -5.323  1.00  0.00    -0.063 NA
HETATM    9  N4  UNL     1      44.790 -25.062  -4.993  1.00  0.00    -0.319 N 
ATOM     10  H4  UNL     1      45.504 -24.709  -5.630  1.00  0.00     0.169 HD
HETATM   11  C3  UNL     1      43.931 -24.184  -4.462  1.00  0.00     0.099 A 
HETATM   12  N6  UNL     1      42.996 -24.653  -3.627  1.00  0.00    -0.181 N 
ATOM     13  H6  UNL     1      42.327 -24.010  -3.205  1.00  0.00     0.185 HD
ENDROOT
BRANCH  11  14
HETATM   14  C4  UNL     1      44.086 -22.759  -4.843  1.00  0.00     0.079 C 
BRANCH  14  15
HETATM   15  C5  UNL     1      45.240 -22.101  -4.122  1.00  0.00     0.034 C 
BRANCH  15  16
HETATM   16  C6  UNL     1      45.985 -21.277  -5.182  1.00  0.00     0.230 C 
BRANCH  16  17
HETATM   17  N5  UNL     1      45.683 -21.765  -6.511  1.00  0.00    -0.079 N 
ATOM     18  H53 UNL     1      45.059 -22.572  -6.485  1.00  0.00     0.274 HD
ATOM     19  H52 UNL     1      45.079 -21.121  -7.022  1.00  0.00     0.274 HD
ATOM     20  H51 UNL     1      46.542 -21.967  -7.022  1.00  0.00     0.274 HD
ENDBRANCH  16  17
ENDBRANCH  15  16
ENDBRANCH  14  15
ENDBRANCH  11  14
TORSDOF 4
ENDMDL
MODEL 3
REMARK VINA RESULT: -5.360681642      1.829      2.363
REMARK  4 active torsions:
REMARK  status: ('A' for Active; 'I' for Inactive)
REMARK    1  A    between atoms: C3_11  and  C4_12 
REMARK    2  A    between atoms: C4_12  and  C5_13 
REMARK    3  A    between atoms: C5_13  and  C6_14 
REMARK    4  A    between atoms: C6_14  and  N5_15 
ROOT
HETATM    1  N1  UNL     1      43.964 -22.005  -4.870  1.00  0.00    -0.234 N 
ATOM      2  H11 UNL     1      43.055 -21.921  -4.417  1.00  0.00     0.174 HD
ATOM      3  H12 UNL     1      44.442 -21.174  -5.221  1.00  0.00     0.174 HD
HETATM    4  C1  UNL     1      44.558 -23.159  -5.026  1.00  0.00     0.679 A 
HETATM    5  N2  UNL     1      45.758 -23.271  -5.625  1.00  0.00    -0.164 N 
ATOM      6  H2  UNL     1      46.228 -22.434  -5.972  1.00  0.00     0.187 HD
HETATM    7  C2  UNL     1      46.347 -24.478  -5.771  1.00  0.00     0.208 A 
HETATM    8  N3  UNL     1      47.620 -24.596  -6.406  1.00  0.00    -0.063 NA
HETATM    9  N4  UNL     1      45.679 -25.540  -5.294  1.00  0.00    -0.319 N 
ATOM     10  H4  UNL     1      46.107 -26.460  -5.395  1.00  0.00     0.169 HD
HETATM   11  C3  UNL     1      44.486 -25.462  -4.694  1.00  0.00     0.099 A 
HETATM   12  N6  UNL     1      43.929 -24.252  -4.565  1.00  0.00    -0.181 N 
ATOM     13  H6  UNL     1      43.020 -24.159  -4.113  1.00  0.00     0.185 HD
ENDROOT
BRANCH  11  14
HETATM   14  C4  UNL     1      43.875 -26.728  -4.220  1.00  0.00     0.079 C 
BRANCH  14  15
HETATM   15  C5  UNL     1      42.419 -26.838  -4.614  1.00  0.00     0.034 C 
BRANCH  15  16
HETATM   16  C6  UNL     1      41.656 -27.165  -3.323  1.00  0.00     0.230 C 
BRANCH  16  17
HETATM   17  N5  UNL     1      41.890 -26.147  -2.321  1.00  0.00    -0.079 N 
ATOM     18  H53 UNL     1      42.870 -26.112  -2.038  1.00  0.00     0.274 HD
ATOM     19  H52 UNL     1      41.811 -25.207  -2.711  1.00  0.00     0.274 HD
ATOM     20  H51 UNL     1      41.271 -26.280  -1.522  1.00  0.00     0.274 HD
ENDBRANCH  16  17
ENDBRANCH  15  16
ENDBRANCH  14  15
ENDBRANCH  11  14
TORSDOF 4
ENDMDL
MODEL 4
REMARK VINA RESULT: -5.334667502      7.551      9.135
REMARK  4 active torsions:
REMARK  status: ('A' for Active; 'I' for Inactive)
REMARK    1  A    between atoms: C3_11  and  C4_12 
REMARK    2  A    between atoms: C4_12  and  C5_13 
REMARK    3  A    between atoms: C5_13  and  C6_14 
REMARK    4  A    between atoms: C6_14  and  N5_15 
ROOT
HETATM    1  N1  UNL     1      48.827 -28.336   2.704  1.00  0.00    -0.234 N 
ATOM      2  H11 UNL     1      49.534 -27.802   2.201  1.00  0.00     0.174 HD
ATOM      3  H12 UNL     1      48.866 -28.410   3.721  1.00  0.00     0.174 HD
HETATM    4  C1  UNL     1      47.847 -28.945   2.088  1.00  0.00     0.679 A 
HETATM    5  N2  UNL     1      46.913 -29.650   2.753  1.00  0.00    -0.164 N 
ATOM      6  H2  UNL     1      46.962 -29.718   3.770  1.00  0.00     0.187 HD
HETATM    7  C2  UNL     1      45.913 -30.269   2.088  1.00  0.00     0.208 A 
HETATM    8  N3  UNL     1      44.922 -31.016   2.793  1.00  0.00    -0.063 NA
HETATM    9  N4  UNL     1      45.904 -30.143   0.753  1.00  0.00    -0.319 N 
ATOM     10  H4  UNL     1      45.157 -30.602   0.232  1.00  0.00     0.169 HD
HETATM   11  C3  UNL     1      46.817 -29.449   0.063  1.00  0.00     0.099 A 
HETATM   12  N6  UNL     1      47.795 -28.848   0.751  1.00  0.00    -0.181 N 
ATOM     13  H6  UNL     1      48.507 -28.313   0.255  1.00  0.00     0.185 HD
ENDROOT
BRANCH  11  14
HETATM   14  C4  UNL     1      46.670 -29.403  -1.412  1.00  0.00     0.079 C 
BRANCH  14  15
HETATM   15  C5  UNL     1      45.612 -30.362  -1.908  1.00  0.00     0.034 C 
BRANCH  15  16
HETATM   16  C6  UNL     1      46.106 -30.870  -3.269  1.00  0.00     0.230 C 
BRANCH  16  17
HETATM   17  N5  UNL     1      47.514 -30.581  -3.440  1.00  0.00    -0.079 N 
ATOM     18  H53 UNL     1      47.694 -30.069  -4.304  1.00  0.00     0.274 HD
ATOM     19  H52 UNL     1      47.839 -29.878  -2.775  1.00  0.00     0.274 HD
ATOM     20  H51 UNL     1      48.065 -31.437  -3.386  1.00  0.00     0.274 HD
ENDBRANCH  16  17
ENDBRANCH  15  16
ENDBRANCH  14  15
ENDBRANCH  11  14
TORSDOF 4
ENDMDL
MODEL 5
REMARK VINA RESULT: -5.312412412      0.806      2.430
REMARK  4 active torsions:
REMARK  status: ('A' for Active; 'I' for Inactive)
REMARK    1  A    between atoms: C3_11  and  C4_12 
REMARK    2  A    between atoms: C4_12  and  C5_13 
REMARK    3  A    between atoms: C5_13  and  C6_14 
REMARK    4  A    between atoms: C6_14  and  N5_15 
ROOT
HETATM    1  N1  UNL     1      46.448 -20.607  -4.877  1.00  0.00    -0.234 N 
ATOM      2  H11 UNL     1      46.504 -20.298  -3.907  1.00  0.00     0.174 HD
ATOM      3  H12 UNL     1      46.913 -20.074  -5.613  1.00  0.00     0.174 HD
HETATM    4  C1  UNL     1      45.792 -21.683  -5.227  1.00  0.00     0.679 A 
HETATM    5  N2  UNL     1      45.719 -22.090  -6.507  1.00  0.00    -0.164 N 
ATOM      6  H2  UNL     1      46.186 -21.551  -7.236  1.00  0.00     0.187 HD
HETATM    7  C2  UNL     1      45.033 -23.207  -6.838  1.00  0.00     0.208 A 
HETATM    8  N3  UNL     1      44.955 -23.639  -8.196  1.00  0.00    -0.063 NA
HETATM    9  N4  UNL     1      44.440 -23.873  -5.835  1.00  0.00    -0.319 N 
ATOM     10  H4  UNL     1      43.917 -24.718  -6.064  1.00  0.00     0.169 HD
HETATM   11  C3  UNL     1      44.494 -23.493  -4.553  1.00  0.00     0.099 A 
HETATM   12  N6  UNL     1      45.181 -22.383  -4.259  1.00  0.00    -0.181 N 
ATOM     13  H6  UNL     1      45.242 -22.068  -3.292  1.00  0.00     0.185 HD
ENDROOT
BRANCH  11  14
HETATM   14  C4  UNL     1      43.786 -24.337  -3.560  1.00  0.00     0.079 C 
BRANCH  14  15
HETATM   15  C5  UNL     1      42.496 -24.902  -4.111  1.00  0.00     0.034 C 
BRANCH  15  16
HETATM   16  C6  UNL     1      42.226 -26.188  -3.318  1.00  0.00     0.230 C 
BRANCH  16  17
HETATM   17  N5  UNL     1      43.368 -27.075  -3.383  1.00  0.00    -0.079 N 
ATOM     18  H53 UNL     1      43.609 -27.450  -2.465  1.00  0.00     0.274 HD
ATOM     19  H52 UNL     1      43.140 -27.952  -3.851  1.00  0.00     0.274 HD
ATOM     20  H51 UNL     1      44.162 -26.606  -3.820  1.00  0.00     0.274 HD
ENDBRANCH  16  17
ENDBRANCH  15  16
ENDBRANCH  14  15
ENDBRANCH  11  14
TORSDOF 4
ENDMDL
