MODEL 1
REMARK VINA RESULT: -6.151869788      0.000      0.000
REMARK  4 active torsions:
REMARK  status: ('A' for Active; 'I' for Inactive)
REMARK    1  A    between atoms: N1_1  and  C1_4 
REMARK    2  A    between atoms: C2_9  and  C3_10 
REMARK    3  A    between atoms: C3_10  and  C4_11 
REMARK    4  A    between atoms: C4_11  and  C5_12 
ROOT
HETATM    1  C1  UNL     1      41.957 -25.745  -2.984  1.00  0.00     0.238 A 
HETATM    2  N2  UNL     1      41.660 -26.277  -4.182  1.00  0.00    -0.263 N 
ATOM      3  H2  UNL     1      41.073 -27.091  -4.365  1.00  0.00     0.190 HD
HETATM    4  N3  UNL     1      42.287 -25.525  -5.076  1.00  0.00    -0.280 N 
ATOM      5  H3  UNL     1      42.259 -25.672  -6.085  1.00  0.00     0.189 HD
HETATM    6  C2  UNL     1      42.968 -24.539  -4.458  1.00  0.00     0.142 A 
HETATM    7  O1  UNL     1      42.733 -24.717  -3.176  1.00  0.00    -0.264 OA
ENDROOT
BRANCH   6   8
HETATM    8  C3  UNL     1      43.810 -23.467  -5.080  1.00  0.00     0.088 C 
BRANCH   8   9
HETATM    9  C4  UNL     1      45.255 -23.800  -4.769  1.00  0.00     0.032 C 
BRANCH   9  10
HETATM   10  C5  UNL     1      45.936 -24.524  -5.885  1.00  0.00     0.111 C 
HETATM   11  C6  UNL     1      46.269 -23.716  -7.101  1.00  0.00     0.152 C 
HETATM   12  N4  UNL     1      47.471 -24.563  -7.128  1.00  0.00    -0.146 NA
HETATM   13  N5  UNL     1      47.393 -24.550  -5.711  1.00  0.00    -0.142 NA
ENDBRANCH   9  10
ENDBRANCH   8   9
ENDBRANCH   6   8
BRANCH   1  14
HETATM   14  N1  UNL     1      41.510 -26.225  -1.852  1.00  0.00    -0.364 N 
ATOM     15  H12 UNL     1      40.601 -26.645  -1.657  1.00  0.00     0.159 HD
ATOM     16  H11 UNL     1      42.057 -26.233  -0.991  1.00  0.00     0.159 HD
ENDBRANCH   1  14
TORSDOF 4
ENDMDL
MODEL 2
REMARK VINA RESULT: -6.146980168      0.677      1.046
REMARK  4 active torsions:
REMARK  status: ('A' for Active; 'I' for Inactive)
REMARK    1  A    between atoms: N1_1  and  C1_4 
REMARK    2  A    between atoms: C2_9  and  C3_10 
REMARK    3  A    between atoms: C3_10  and  C4_11 
REMARK    4  A    between atoms: C4_11  and  C5_12 
ROOT
HETATM    1  C1  UNL     1      42.119 -25.764  -3.097  1.00  0.00     0.238 A 
HETATM    2  N2  UNL     1      41.918 -26.187  -4.357  1.00  0.00    -0.263 N 
ATOM      3  H2  UNL     1      41.394 -27.010  -4.654  1.00  0.00     0.190 HD
HETATM    4  N3  UNL     1      42.541 -25.312  -5.134  1.00  0.00    -0.280 N 
ATOM      5  H3  UNL     1      42.574 -25.356  -6.153  1.00  0.00     0.189 HD
HETATM    6  C2  UNL     1      43.125 -24.356  -4.384  1.00  0.00     0.142 A 
HETATM    7  O1  UNL     1      42.836 -24.678  -3.141  1.00  0.00    -0.264 OA
ENDROOT
BRANCH   6   8
HETATM    8  C3  UNL     1      43.928 -23.179  -4.846  1.00  0.00     0.088 C 
BRANCH   8   9
HETATM    9  C4  UNL     1      44.360 -23.466  -6.270  1.00  0.00     0.032 C 
BRANCH   9  10
HETATM   10  C5  UNL     1      45.845 -23.486  -6.432  1.00  0.00     0.111 C 
HETATM   11  C6  UNL     1      46.570 -24.636  -5.804  1.00  0.00     0.152 C 
HETATM   12  N4  UNL     1      47.426 -24.529  -6.996  1.00  0.00    -0.146 NA
HETATM   13  N5  UNL     1      46.249 -24.135  -7.685  1.00  0.00    -0.142 NA
ENDBRANCH   9  10
ENDBRANCH   8   9
ENDBRANCH   6   8
BRANCH   1  14
HETATM   14  N1  UNL     1      41.646 -26.383  -2.046  1.00  0.00    -0.364 N 
ATOM     15  H12 UNL     1      41.246 -27.320  -1.990  1.00  0.00     0.159 HD
ATOM     16  H11 UNL     1      41.625 -25.971  -1.113  1.00  0.00     0.159 HD
ENDBRANCH   1  14
TORSDOF 4
ENDMDL
MODEL 3
REMARK VINA RESULT: -6.145150575      2.942      3.634
REMARK  4 active torsions:
REMARK  status: ('A' for Active; 'I' for Inactive)
REMARK    1  A    between atoms: N1_1  and  C1_4 
REMARK    2  A    between atoms: C2_9  and  C3_10 
REMARK    3  A    between atoms: C3_10  and  C4_11 
REMARK    4  A    between atoms: C4_11  and  C5_12 
ROOT
HETATM    1  C1  UNL     1      45.158 -27.957  -4.367  1.00  0.00     0.238 A 
HETATM    2  N2  UNL     1      44.394 -28.015  -3.262  1.00  0.00    -0.263 N 
ATOM      3  H2  UNL     1      44.454 -28.699  -2.507  1.00  0.00     0.190 HD
HETATM    4  N3  UNL     1      43.547 -26.999  -3.356  1.00  0.00    -0.280 N 
ATOM      5  H3  UNL     1      42.832 -26.770  -2.666  1.00  0.00     0.189 HD
HETATM    6  C2  UNL     1      43.768 -26.313  -4.496  1.00  0.00     0.142 A 
HETATM    7  O1  UNL     1      44.767 -26.941  -5.080  1.00  0.00    -0.264 OA
ENDROOT
BRANCH   6   8
HETATM    8  C3  UNL     1      43.046 -25.101  -5.000  1.00  0.00     0.088 C 
BRANCH   8   9
HETATM    9  C4  UNL     1      44.101 -24.109  -5.445  1.00  0.00     0.032 C 
BRANCH   9  10
HETATM   10  C5  UNL     1      44.935 -23.602  -4.314  1.00  0.00     0.111 C 
HETATM   11  C6  UNL     1      44.917 -22.122  -4.082  1.00  0.00     0.152 C 
HETATM   12  N4  UNL     1      44.988 -22.515  -2.665  1.00  0.00    -0.146 NA
HETATM   13  N5  UNL     1      44.209 -23.641  -3.040  1.00  0.00    -0.142 NA
ENDBRANCH   9  10
ENDBRANCH   8   9
ENDBRANCH   6   8
BRANCH   1  14
HETATM   14  N1  UNL     1      46.117 -28.809  -4.624  1.00  0.00    -0.364 N 
ATOM     15  H12 UNL     1      47.047 -28.621  -5.000  1.00  0.00     0.159 HD
ATOM     16  H11 UNL     1      46.034 -29.813  -4.465  1.00  0.00     0.159 HD
ENDBRANCH   1  14
TORSDOF 4
ENDMDL
MODEL 4
REMARK VINA RESULT: -6.088238266      1.358      1.790
REMARK  4 active torsions:
REMARK  status: ('A' for Active; 'I' for Inactive)
REMARK    1  A    between atoms: N1_1  and  C1_4 
REMARK    2  A    between atoms: C2_9  and  C3_10 
REMARK    3  A    between atoms: C3_10  and  C4_11 
REMARK    4  A    between atoms: C4_11  and  C5_12 
ROOT
HETATM    1  C1  UNL     1      42.384 -26.522  -4.446  1.00  0.00     0.238 A 
HETATM    2  N2  UNL     1      42.684 -26.325  -3.149  1.00  0.00    -0.263 N 
ATOM      3  H2  UNL     1      42.474 -26.946  -2.368  1.00  0.00     0.190 HD
HETATM    4  N3  UNL     1      43.307 -25.156  -3.098  1.00  0.00    -0.280 N 
ATOM      5  H3  UNL     1      43.665 -24.723  -2.246  1.00  0.00     0.189 HD
HETATM    6  C2  UNL     1      43.401 -24.623  -4.333  1.00  0.00     0.142 A 
HETATM    7  O1  UNL     1      42.820 -25.500  -5.124  1.00  0.00    -0.264 OA
ENDROOT
BRANCH   6   8
HETATM    8  C3  UNL     1      44.026 -23.322  -4.734  1.00  0.00     0.088 C 
BRANCH   8   9
HETATM    9  C4  UNL     1      44.393 -23.438  -6.199  1.00  0.00     0.032 C 
BRANCH   9  10
HETATM   10  C5  UNL     1      45.870 -23.471  -6.426  1.00  0.00     0.111 C 
HETATM   11  C6  UNL     1      46.613 -24.621  -5.818  1.00  0.00     0.152 C 
HETATM   12  N4  UNL     1      47.417 -24.532  -7.047  1.00  0.00    -0.146 NA
HETATM   13  N5  UNL     1      46.214 -24.136  -7.688  1.00  0.00    -0.142 NA
ENDBRANCH   9  10
ENDBRANCH   8   9
ENDBRANCH   6   8
BRANCH   1  14
HETATM   14  N1  UNL     1      41.759 -27.583  -4.886  1.00  0.00    -0.364 N 
ATOM     15  H12 UNL     1      40.780 -27.841  -4.758  1.00  0.00     0.159 HD
ATOM     16  H11 UNL     1      42.211 -28.311  -5.441  1.00  0.00     0.159 HD
ENDBRANCH   1  14
TORSDOF 4
ENDMDL
MODEL 5
REMARK VINA RESULT: -6.084767444      1.234      1.490
REMARK  4 active torsions:
REMARK  status: ('A' for Active; 'I' for Inactive)
REMARK    1  A    between atoms: N1_1  and  C1_4 
REMARK    2  A    between atoms: C2_9  and  C3_10 
REMARK    3  A    between atoms: C3_10  and  C4_11 
REMARK    4  A    between atoms: C4_11  and  C5_12 
ROOT
HETATM    1  C1  UNL     1      42.411 -26.527  -4.469  1.00  0.00     0.238 A 
HETATM    2  N2  UNL     1      42.789 -26.356  -3.189  1.00  0.00    -0.263 N 
ATOM      3  H2  UNL     1      42.650 -27.004  -2.414  1.00  0.00     0.190 HD
HETATM    4  N3  UNL     1      43.380 -25.170  -3.145  1.00  0.00    -0.280 N 
ATOM      5  H3  UNL     1      43.780 -24.748  -2.306  1.00  0.00     0.189 HD
HETATM    6  C2  UNL     1      43.377 -24.601  -4.368  1.00  0.00     0.142 A 
HETATM    7  O1  UNL     1      42.771 -25.475  -5.145  1.00  0.00    -0.264 OA
ENDROOT
BRANCH   6   8
HETATM    8  C3  UNL     1      43.936 -23.271  -4.771  1.00  0.00     0.088 C 
BRANCH   8   9
HETATM    9  C4  UNL     1      45.445 -23.400  -4.757  1.00  0.00     0.032 C 
BRANCH   9  10
HETATM   10  C5  UNL     1      45.958 -24.316  -5.820  1.00  0.00     0.111 C 
HETATM   11  C6  UNL     1      46.319 -23.683  -7.129  1.00  0.00     0.152 C 
HETATM   12  N4  UNL     1      47.398 -24.683  -7.123  1.00  0.00    -0.146 NA
HETATM   13  N5  UNL     1      47.407 -24.520  -5.713  1.00  0.00    -0.142 NA
ENDBRANCH   9  10
ENDBRANCH   8   9
ENDBRANCH   6   8
BRANCH   1  14
HETATM   14  N1  UNL     1      41.791 -27.596  -4.898  1.00  0.00    -0.364 N 
ATOM     15  H12 UNL     1      41.891 -28.559  -4.577  1.00  0.00     0.159 HD
ATOM     16  H11 UNL     1      41.096 -27.579  -5.645  1.00  0.00     0.159 HD
ENDBRANCH   1  14
TORSDOF 4
ENDMDL
