MODEL 1
REMARK VINA RESULT: -5.752258545      0.000      0.000
REMARK  6 active torsions:
REMARK  status: ('A' for Active; 'I' for Inactive)
REMARK    1  A    between atoms: C2_3  and  C3_4 
REMARK    2  A    between atoms: C3_4  and  C4_5 
REMARK    3  A    between atoms: C4_5  and  N2_6 
REMARK    4  A    between atoms: N2_6  and  N3_8 
REMARK    5  A    between atoms: N3_8  and  C5_10 
REMARK    6  A    between atoms: C6_15  and  N6_16 
ROOT
HETATM    1  N1  UNL     1     -27.764 -15.998 -37.477  1.00  0.00    -0.197 NA
HETATM    2  C1  UNL     1     -26.642 -16.194 -37.276  1.00  0.00     0.059 C 
HETATM    3  C2  UNL     1     -25.225 -16.447 -36.998  1.00  0.00     0.129 C 
ENDROOT
BRANCH   3   4
HETATM    4  C3  UNL     1     -24.423 -15.745 -38.086  1.00  0.00     0.060 C 
BRANCH   4   5
HETATM    5  C4  UNL     1     -24.744 -16.337 -39.410  1.00  0.00     0.081 C 
BRANCH   5   6
HETATM    6  N2  UNL     1     -25.105 -15.566 -40.353  1.00  0.00    -0.301 N 
ATOM      7  H2  UNL     1     -24.466 -15.442 -41.138  1.00  0.00     0.186 HD
BRANCH   6   8
HETATM    8  N3  UNL     1     -26.305 -14.885 -40.386  1.00  0.00    -0.131 N 
ATOM      9  H3  UNL     1     -27.151 -15.349 -40.055  1.00  0.00     0.205 HD
BRANCH   8  10
HETATM   10  C5  UNL     1     -26.379 -13.679 -40.826  1.00  0.00     0.726 A 
HETATM   11  N4  UNL     1     -25.543 -12.702 -40.443  1.00  0.00    -0.116 N 
HETATM   12  N5  UNL     1     -25.896 -11.599 -41.079  1.00  0.00    -0.117 N 
ATOM     13  H4  UNL     1     -24.774 -12.794 -39.780  1.00  0.00     0.206 HD
HETATM   14  C6  UNL     1     -26.953 -11.881 -41.860  1.00  0.00     0.705 A 
ATOM     15  H5  UNL     1     -25.444 -10.690 -40.991  1.00  0.00     0.206 HD
HETATM   16  N7  UNL     1     -27.263 -13.187 -41.708  1.00  0.00    -0.019 N 
ATOM     17  H7  UNL     1     -28.018 -13.695 -42.169  1.00  0.00     0.203 HD
BRANCH  14  18
HETATM   18  N6  UNL     1     -27.566 -11.060 -42.624  1.00  0.00    -0.233 N 
ATOM     19  H62 UNL     1     -27.533 -10.044 -42.544  1.00  0.00     0.174 HD
ATOM     20  H61 UNL     1     -28.170 -11.305 -43.410  1.00  0.00     0.174 HD
ENDBRANCH  14  18
ENDBRANCH   8  10
ENDBRANCH   6   8
ENDBRANCH   5   6
ENDBRANCH   4   5
ENDBRANCH   3   4
TORSDOF 6
ENDMDL
MODEL 2
REMARK VINA RESULT: -5.695620688      0.997      1.500
REMARK  6 active torsions:
REMARK  status: ('A' for Active; 'I' for Inactive)
REMARK    1  A    between atoms: C2_3  and  C3_4 
REMARK    2  A    between atoms: C3_4  and  C4_5 
REMARK    3  A    between atoms: C4_5  and  N2_6 
REMARK    4  A    between atoms: N2_6  and  N3_8 
REMARK    5  A    between atoms: N3_8  and  C5_10 
REMARK    6  A    between atoms: C6_15  and  N6_16 
ROOT
HETATM    1  N1  UNL     1     -27.791 -15.869 -37.849  1.00  0.00    -0.197 NA
HETATM    2  C1  UNL     1     -26.909 -16.229 -37.193  1.00  0.00     0.059 C 
HETATM    3  C2  UNL     1     -25.805 -16.680 -36.341  1.00  0.00     0.129 C 
ENDROOT
BRANCH   3   4
HETATM    4  C3  UNL     1     -24.528 -16.557 -37.160  1.00  0.00     0.060 C 
BRANCH   4   5
HETATM    5  C4  UNL     1     -24.749 -17.101 -38.524  1.00  0.00     0.081 C 
BRANCH   5   6
HETATM    6  N2  UNL     1     -24.823 -16.292 -39.502  1.00  0.00    -0.301 N 
ATOM      7  H2  UNL     1     -24.953 -16.683 -40.434  1.00  0.00     0.186 HD
BRANCH   6   8
HETATM    8  N3  UNL     1     -24.737 -14.920 -39.385  1.00  0.00    -0.131 N 
ATOM      9  H3  UNL     1     -24.119 -14.517 -38.680  1.00  0.00     0.205 HD
BRANCH   8  10
HETATM   10  C5  UNL     1     -25.421 -14.139 -40.143  1.00  0.00     0.726 A 
HETATM   11  N4  UNL     1     -26.701 -14.367 -40.474  1.00  0.00    -0.116 N 
HETATM   12  N5  UNL     1     -27.096 -13.380 -41.258  1.00  0.00    -0.117 N 
ATOM     13  H4  UNL     1     -27.268 -15.160 -40.175  1.00  0.00     0.206 HD
HETATM   14  C6  UNL     1     -26.066 -12.532 -41.421  1.00  0.00     0.705 A 
ATOM     15  H5  UNL     1     -28.023 -13.279 -41.669  1.00  0.00     0.206 HD
HETATM   16  N7  UNL     1     -25.008 -13.001 -40.724  1.00  0.00    -0.019 N 
ATOM     17  H7  UNL     1     -24.084 -12.576 -40.653  1.00  0.00     0.203 HD
BRANCH  14  18
HETATM   18  N6  UNL     1     -26.075 -11.458 -42.116  1.00  0.00    -0.233 N 
ATOM     19  H62 UNL     1     -25.447 -11.255 -42.894  1.00  0.00     0.174 HD
ATOM     20  H61 UNL     1     -26.704 -10.665 -41.989  1.00  0.00     0.174 HD
ENDBRANCH  14  18
ENDBRANCH   8  10
ENDBRANCH   6   8
ENDBRANCH   5   6
ENDBRANCH   4   5
ENDBRANCH   3   4
TORSDOF 6
ENDMDL
MODEL 3
REMARK VINA RESULT: -5.642879521      1.346      1.964
REMARK  6 active torsions:
REMARK  status: ('A' for Active; 'I' for Inactive)
REMARK    1  A    between atoms: C2_3  and  C3_4 
REMARK    2  A    between atoms: C3_4  and  C4_5 
REMARK    3  A    between atoms: C4_5  and  N2_6 
REMARK    4  A    between atoms: N2_6  and  N3_8 
REMARK    5  A    between atoms: N3_8  and  C5_10 
REMARK    6  A    between atoms: C6_15  and  N6_16 
ROOT
HETATM    1  N1  UNL     1     -23.712 -18.734 -39.101  1.00  0.00    -0.197 NA
HETATM    2  C1  UNL     1     -23.549 -17.772 -38.480  1.00  0.00     0.059 C 
HETATM    3  C2  UNL     1     -23.337 -16.568 -37.672  1.00  0.00     0.129 C 
ENDROOT
BRANCH   3   4
HETATM    4  C3  UNL     1     -24.160 -15.454 -38.305  1.00  0.00     0.060 C 
BRANCH   4   5
HETATM    5  C4  UNL     1     -25.596 -15.832 -38.317  1.00  0.00     0.081 C 
BRANCH   5   6
HETATM    6  N2  UNL     1     -26.403 -15.149 -39.022  1.00  0.00    -0.301 N 
ATOM      7  H2  UNL     1     -27.235 -14.776 -38.566  1.00  0.00     0.186 HD
BRANCH   6   8
HETATM    8  N3  UNL     1     -26.228 -14.879 -40.363  1.00  0.00    -0.131 N 
ATOM      9  H3  UNL     1     -26.006 -15.643 -41.001  1.00  0.00     0.205 HD
BRANCH   8  10
HETATM   10  C5  UNL     1     -26.337 -13.684 -40.826  1.00  0.00     0.726 A 
HETATM   11  N4  UNL     1     -25.555 -12.666 -40.434  1.00  0.00    -0.116 N 
HETATM   12  N5  UNL     1     -25.931 -11.590 -41.100  1.00  0.00    -0.117 N 
ATOM     13  H4  UNL     1     -24.805 -12.716 -39.745  1.00  0.00     0.206 HD
HETATM   14  C6  UNL     1     -26.948 -11.929 -41.911  1.00  0.00     0.705 A 
ATOM     15  H5  UNL     1     -25.520 -10.661 -41.014  1.00  0.00     0.206 HD
HETATM   16  N7  UNL     1     -27.211 -13.243 -41.745  1.00  0.00    -0.019 N 
ATOM     17  H7  UNL     1     -27.927 -13.790 -42.222  1.00  0.00     0.203 HD
BRANCH  14  18
HETATM   18  N6  UNL     1     -27.570 -11.146 -42.709  1.00  0.00    -0.233 N 
ATOM     19  H62 UNL     1     -27.135 -10.585 -43.441  1.00  0.00     0.174 HD
ATOM     20  H61 UNL     1     -28.575 -10.976 -42.722  1.00  0.00     0.174 HD
ENDBRANCH  14  18
ENDBRANCH   8  10
ENDBRANCH   6   8
ENDBRANCH   5   6
ENDBRANCH   4   5
ENDBRANCH   3   4
TORSDOF 6
ENDMDL
MODEL 4
REMARK VINA RESULT: -5.515712057      2.303      2.950
REMARK  6 active torsions:
REMARK  status: ('A' for Active; 'I' for Inactive)
REMARK    1  A    between atoms: C2_3  and  C3_4 
REMARK    2  A    between atoms: C3_4  and  C4_5 
REMARK    3  A    between atoms: C4_5  and  N2_6 
REMARK    4  A    between atoms: N2_6  and  N3_8 
REMARK    5  A    between atoms: N3_8  and  C5_10 
REMARK    6  A    between atoms: C6_15  and  N6_16 
ROOT
HETATM    1  N1  UNL     1     -23.915 -18.666 -39.159  1.00  0.00    -0.197 NA
HETATM    2  C1  UNL     1     -23.967 -17.606 -38.699  1.00  0.00     0.059 C 
HETATM    3  C2  UNL     1     -24.009 -16.267 -38.105  1.00  0.00     0.129 C 
ENDROOT
BRANCH   3   4
HETATM    4  C3  UNL     1     -25.465 -15.819 -38.117  1.00  0.00     0.060 C 
BRANCH   4   5
HETATM    5  C4  UNL     1     -25.642 -14.710 -39.089  1.00  0.00     0.081 C 
BRANCH   5   6
HETATM    6  N2  UNL     1     -26.495 -14.844 -40.021  1.00  0.00    -0.301 N 
ATOM      7  H2  UNL     1     -27.057 -15.695 -40.034  1.00  0.00     0.186 HD
BRANCH   6   8
HETATM    8  N3  UNL     1     -26.710 -13.915 -41.018  1.00  0.00    -0.131 N 
ATOM      9  H3  UNL     1     -27.535 -13.316 -40.973  1.00  0.00     0.205 HD
BRANCH   8  10
HETATM   10  C5  UNL     1     -25.894 -13.788 -42.004  1.00  0.00     0.726 A 
HETATM   11  N4  UNL     1     -25.929 -14.568 -43.095  1.00  0.00    -0.116 N 
HETATM   12  N5  UNL     1     -24.962 -14.172 -43.903  1.00  0.00    -0.117 N 
ATOM     13  H4  UNL     1     -26.584 -15.330 -43.269  1.00  0.00     0.206 HD
HETATM   14  C6  UNL     1     -24.320 -13.145 -43.322  1.00  0.00     0.705 A 
ATOM     15  H5  UNL     1     -24.741 -14.577 -44.812  1.00  0.00     0.206 HD
HETATM   16  N7  UNL     1     -24.899 -12.896 -42.128  1.00  0.00    -0.019 N 
ATOM     17  H7  UNL     1     -24.633 -12.176 -41.456  1.00  0.00     0.203 HD
BRANCH  14  18
HETATM   18  N6  UNL     1     -23.327 -12.503 -43.810  1.00  0.00    -0.233 N 
ATOM     19  H62 UNL     1     -23.123 -12.400 -44.804  1.00  0.00     0.174 HD
ATOM     20  H61 UNL     1     -22.609 -12.011 -43.278  1.00  0.00     0.174 HD
ENDBRANCH  14  18
ENDBRANCH   8  10
ENDBRANCH   6   8
ENDBRANCH   5   6
ENDBRANCH   4   5
ENDBRANCH   3   4
TORSDOF 6
ENDMDL
MODEL 5
REMARK VINA RESULT: -5.472538361      1.648      2.190
REMARK  6 active torsions:
REMARK  status: ('A' for Active; 'I' for Inactive)
REMARK    1  A    between atoms: C2_3  and  C3_4 
REMARK    2  A    between atoms: C3_4  and  C4_5 
REMARK    3  A    between atoms: C4_5  and  N2_6 
REMARK    4  A    between atoms: N2_6  and  N3_8 
REMARK    5  A    between atoms: N3_8  and  C5_10 
REMARK    6  A    between atoms: C6_15  and  N6_16 
ROOT
HETATM    1  N1  UNL     1     -23.212 -18.596 -38.772  1.00  0.00    -0.197 NA
HETATM    2  C1  UNL     1     -23.429 -17.535 -38.364  1.00  0.00     0.059 C 
HETATM    3  C2  UNL     1     -23.685 -16.195 -37.830  1.00  0.00     0.129 C 
ENDROOT
BRANCH   3   4
HETATM    4  C3  UNL     1     -25.101 -15.812 -38.241  1.00  0.00     0.060 C 
BRANCH   4   5
HETATM    5  C4  UNL     1     -25.077 -15.139 -39.565  1.00  0.00     0.081 C 
BRANCH   5   6
HETATM    6  N2  UNL     1     -26.125 -15.166 -40.284  1.00  0.00    -0.301 N 
ATOM      7  H2  UNL     1     -26.404 -16.061 -40.684  1.00  0.00     0.186 HD
BRANCH   6   8
HETATM    8  N3  UNL     1     -26.908 -14.064 -40.558  1.00  0.00    -0.131 N 
ATOM      9  H3  UNL     1     -27.805 -13.959 -40.084  1.00  0.00     0.205 HD
BRANCH   8  10
HETATM   10  C5  UNL     1     -26.533 -13.168 -41.400  1.00  0.00     0.726 A 
HETATM   11  N4  UNL     1     -25.909 -12.034 -41.042  1.00  0.00    -0.116 N 
HETATM   12  N5  UNL     1     -25.668 -11.344 -42.141  1.00  0.00    -0.117 N 
ATOM     13  H4  UNL     1     -25.666 -11.757 -40.091  1.00  0.00     0.206 HD
HETATM   14  C6  UNL     1     -26.138 -12.040 -43.190  1.00  0.00     0.705 A 
ATOM     15  H5  UNL     1     -25.203 -10.437 -42.186  1.00  0.00     0.206 HD
HETATM   16  N7  UNL     1     -26.683 -13.188 -42.734  1.00  0.00    -0.019 N 
ATOM     17  H7  UNL     1     -27.122 -13.922 -43.290  1.00  0.00     0.203 HD
BRANCH  14  18
HETATM   18  N6  UNL     1     -26.082 -11.685 -44.417  1.00  0.00    -0.233 N 
ATOM     19  H62 UNL     1     -25.237 -11.668 -44.988  1.00  0.00     0.174 HD
ATOM     20  H61 UNL     1     -26.867 -11.372 -44.989  1.00  0.00     0.174 HD
ENDBRANCH  14  18
ENDBRANCH   8  10
ENDBRANCH   6   8
ENDBRANCH   5   6
ENDBRANCH   4   5
ENDBRANCH   3   4
TORSDOF 6
ENDMDL
