MODEL 1
REMARK VINA RESULT: -4.922777735      0.000      0.000
REMARK  4 active torsions:
REMARK  status: ('A' for Active; 'I' for Inactive)
REMARK    1  A    between atoms: N1_1  and  C1_4 
REMARK    2  A    between atoms: N5_15  and  C6_16 
REMARK    3  A    between atoms: C6_16  and  C7_17 
REMARK    4  A    between atoms: C7_17  and  N6_18 
ROOT
HETATM    1  C1  UNL     1     -25.445 -14.967 -42.706  1.00  0.00     0.115 A 
HETATM    2  N2  UNL     1     -26.131 -13.813 -42.823  1.00  0.00    -0.338 N 
ATOM      3  H2  UNL     1     -26.320 -13.426 -43.747  1.00  0.00     0.168 HD
HETATM    4  C2  UNL     1     -26.567 -13.173 -41.732  1.00  0.00     0.183 A 
HETATM    5  N3  UNL     1     -26.297 -13.715 -40.531  1.00  0.00    -0.337 N 
ATOM      6  H3  UNL     1     -26.627 -13.229 -39.697  1.00  0.00     0.168 HD
HETATM    7  C3  UNL     1     -25.616 -14.864 -40.367  1.00  0.00     0.138 A 
HETATM    8  C4  UNL     1     -25.159 -15.537 -41.481  1.00  0.00     0.070 A 
HETATM    9  C5  UNL     1     -24.510 -16.654 -41.027  1.00  0.00     0.126 A 
HETATM   10  N4  UNL     1     -24.592 -16.624 -39.675  1.00  0.00    -0.307 N 
ATOM     11  H4  UNL     1     -24.196 -17.332 -39.056  1.00  0.00     0.186 HD
HETATM   12  N5  UNL     1     -25.248 -15.562 -39.266  1.00  0.00    -0.275 N 
ENDROOT
BRANCH  12  13
HETATM   13  C6  UNL     1     -25.573 -15.124 -37.928  1.00  0.00     0.178 C 
BRANCH  13  14
HETATM   14  C7  UNL     1     -26.239 -16.211 -37.118  1.00  0.00     0.251 C 
BRANCH  14  15
HETATM   15  N6  UNL     1     -25.344 -16.522 -36.003  1.00  0.00    -0.078 N 
ATOM     16  H63 UNL     1     -24.776 -17.353 -36.164  1.00  0.00     0.274 HD
ATOM     17  H62 UNL     1     -24.577 -15.857 -35.907  1.00  0.00     0.274 HD
ATOM     18  H61 UNL     1     -25.923 -16.590 -35.166  1.00  0.00     0.274 HD
ENDBRANCH  14  15
ENDBRANCH  13  14
ENDBRANCH  12  13
BRANCH   1  19
HETATM   19  N1  UNL     1     -25.042 -15.555 -43.768  1.00  0.00    -0.385 N 
ATOM     20  H12 UNL     1     -24.986 -15.019 -44.634  1.00  0.00     0.157 HD
ATOM     21  H11 UNL     1     -24.790 -16.542 -43.718  1.00  0.00     0.157 HD
ENDBRANCH   1  19
TORSDOF 4
ENDMDL
MODEL 2
REMARK VINA RESULT: -4.918550909      1.643      2.026
REMARK  4 active torsions:
REMARK  status: ('A' for Active; 'I' for Inactive)
REMARK    1  A    between atoms: N1_1  and  C1_4 
REMARK    2  A    between atoms: N5_15  and  C6_16 
REMARK    3  A    between atoms: C6_16  and  C7_17 
REMARK    4  A    between atoms: C7_17  and  N6_18 
ROOT
HETATM    1  C1  UNL     1     -26.198 -12.731 -43.254  1.00  0.00     0.115 A 
HETATM    2  N2  UNL     1     -26.484 -11.524 -42.728  1.00  0.00    -0.338 N 
ATOM      3  H2  UNL     1     -26.824 -10.775 -43.332  1.00  0.00     0.168 HD
HETATM    4  C2  UNL     1     -26.326 -11.302 -41.418  1.00  0.00     0.183 A 
HETATM    5  N3  UNL     1     -25.875 -12.315 -40.656  1.00  0.00    -0.337 N 
ATOM      6  H3  UNL     1     -25.753 -12.149 -39.657  1.00  0.00     0.168 HD
HETATM    7  C3  UNL     1     -25.577 -13.536 -41.137  1.00  0.00     0.138 A 
HETATM    8  C4  UNL     1     -25.734 -13.782 -42.485  1.00  0.00     0.070 A 
HETATM    9  C5  UNL     1     -25.363 -15.083 -42.693  1.00  0.00     0.126 A 
HETATM   10  N4  UNL     1     -24.998 -15.578 -41.486  1.00  0.00    -0.307 N 
ATOM     11  H4  UNL     1     -24.672 -16.531 -41.326  1.00  0.00     0.186 HD
HETATM   12  N5  UNL     1     -25.120 -14.666 -40.548  1.00  0.00    -0.275 N 
ENDROOT
BRANCH  12  13
HETATM   13  C6  UNL     1     -24.849 -14.745 -39.131  1.00  0.00     0.178 C 
BRANCH  13  14
HETATM   14  C7  UNL     1     -25.868 -15.586 -38.400  1.00  0.00     0.251 C 
BRANCH  14  15
HETATM   15  N6  UNL     1     -25.828 -15.182 -36.994  1.00  0.00    -0.078 N 
ATOM     16  H63 UNL     1     -25.830 -14.170 -36.868  1.00  0.00     0.274 HD
ATOM     17  H62 UNL     1     -26.696 -15.377 -36.496  1.00  0.00     0.274 HD
ATOM     18  H61 UNL     1     -25.015 -15.636 -36.577  1.00  0.00     0.274 HD
ENDBRANCH  14  15
ENDBRANCH  13  14
ENDBRANCH  12  13
BRANCH   1  19
HETATM   19  N1  UNL     1     -26.359 -12.911 -44.510  1.00  0.00    -0.385 N 
ATOM     20  H12 UNL     1     -26.521 -12.100 -45.105  1.00  0.00     0.157 HD
ATOM     21  H11 UNL     1     -26.323 -13.862 -44.879  1.00  0.00     0.157 HD
ENDBRANCH   1  19
TORSDOF 4
ENDMDL
MODEL 3
REMARK VINA RESULT: -4.908061955      1.443      5.122
REMARK  4 active torsions:
REMARK  status: ('A' for Active; 'I' for Inactive)
REMARK    1  A    between atoms: N1_1  and  C1_4 
REMARK    2  A    between atoms: N5_15  and  C6_16 
REMARK    3  A    between atoms: C6_16  and  C7_17 
REMARK    4  A    between atoms: C7_17  and  N6_18 
ROOT
HETATM    1  C1  UNL     1     -25.142 -15.578 -38.312  1.00  0.00     0.115 A 
HETATM    2  N2  UNL     1     -24.483 -16.732 -38.089  1.00  0.00    -0.338 N 
ATOM      3  H2  UNL     1     -24.282 -17.025 -37.133  1.00  0.00     0.168 HD
HETATM    4  C2  UNL     1     -24.092 -17.496 -39.116  1.00  0.00     0.183 A 
HETATM    5  N3  UNL     1     -24.377 -17.075 -40.361  1.00  0.00    -0.337 N 
ATOM      6  H3  UNL     1     -24.079 -17.655 -41.146  1.00  0.00     0.168 HD
HETATM    7  C3  UNL     1     -25.031 -15.931 -40.631  1.00  0.00     0.138 A 
HETATM    8  C4  UNL     1     -25.441 -15.131 -39.585  1.00  0.00     0.070 A 
HETATM    9  C5  UNL     1     -26.071 -14.050 -40.140  1.00  0.00     0.126 A 
HETATM   10  N4  UNL     1     -26.025 -14.224 -41.483  1.00  0.00    -0.307 N 
ATOM     11  H4  UNL     1     -26.417 -13.574 -42.164  1.00  0.00     0.186 HD
HETATM   12  N5  UNL     1     -25.407 -15.342 -41.791  1.00  0.00    -0.275 N 
ENDROOT
BRANCH  12  13
HETATM   13  C6  UNL     1     -25.127 -15.927 -43.082  1.00  0.00     0.178 C 
BRANCH  13  14
HETATM   14  C7  UNL     1     -25.127 -14.897 -44.187  1.00  0.00     0.251 C 
BRANCH  14  15
HETATM   15  N6  UNL     1     -26.195 -15.267 -45.116  1.00  0.00    -0.078 N 
ATOM     16  H63 UNL     1     -26.759 -16.050 -44.787  1.00  0.00     0.274 HD
ATOM     17  H62 UNL     1     -26.944 -14.576 -45.160  1.00  0.00     0.274 HD
ATOM     18  H61 UNL     1     -25.757 -15.441 -46.020  1.00  0.00     0.274 HD
ENDBRANCH  14  15
ENDBRANCH  13  14
ENDBRANCH  12  13
BRANCH   1  19
HETATM   19  N1  UNL     1     -25.502 -14.870 -37.310  1.00  0.00    -0.385 N 
ATOM     20  H12 UNL     1     -26.469 -14.554 -37.254  1.00  0.00     0.157 HD
ATOM     21  H11 UNL     1     -24.809 -14.640 -36.596  1.00  0.00     0.157 HD
ENDBRANCH   1  19
TORSDOF 4
ENDMDL
MODEL 4
REMARK VINA RESULT: -4.904254627      1.440      2.365
REMARK  4 active torsions:
REMARK  status: ('A' for Active; 'I' for Inactive)
REMARK    1  A    between atoms: N1_1  and  C1_4 
REMARK    2  A    between atoms: N5_15  and  C6_16 
REMARK    3  A    between atoms: C6_16  and  C7_17 
REMARK    4  A    between atoms: C7_17  and  N6_18 
ROOT
HETATM    1  C1  UNL     1     -25.957 -14.022 -42.450  1.00  0.00     0.115 A 
HETATM    2  N2  UNL     1     -25.708 -14.911 -43.431  1.00  0.00    -0.338 N 
ATOM      3  H2  UNL     1     -25.927 -14.672 -44.399  1.00  0.00     0.168 HD
HETATM    4  C2  UNL     1     -25.176 -16.105 -43.144  1.00  0.00     0.183 A 
HETATM    5  N3  UNL     1     -24.904 -16.381 -41.856  1.00  0.00    -0.337 N 
ATOM      6  H3  UNL     1     -24.499 -17.290 -41.634  1.00  0.00     0.168 HD
HETATM    7  C3  UNL     1     -25.135 -15.525 -40.844  1.00  0.00     0.138 A 
HETATM    8  C4  UNL     1     -25.683 -14.290 -41.122  1.00  0.00     0.070 A 
HETATM    9  C5  UNL     1     -25.808 -13.637 -39.926  1.00  0.00     0.126 A 
HETATM   10  N4  UNL     1     -25.339 -14.481 -38.975  1.00  0.00    -0.307 N 
ATOM     11  H4  UNL     1     -25.305 -14.267 -37.978  1.00  0.00     0.186 HD
HETATM   12  N5  UNL     1     -24.934 -15.611 -39.507  1.00  0.00    -0.275 N 
ENDROOT
BRANCH  12  13
HETATM   13  C6  UNL     1     -24.370 -16.786 -38.884  1.00  0.00     0.178 C 
BRANCH  13  14
HETATM   14  C7  UNL     1     -23.392 -16.436 -37.787  1.00  0.00     0.251 C 
BRANCH  14  15
HETATM   15  N6  UNL     1     -24.082 -16.652 -36.515  1.00  0.00    -0.078 N 
ATOM     16  H63 UNL     1     -23.890 -15.926 -35.825  1.00  0.00     0.274 HD
ATOM     17  H62 UNL     1     -25.090 -16.509 -36.577  1.00  0.00     0.274 HD
ATOM     18  H61 UNL     1     -23.829 -17.587 -36.193  1.00  0.00     0.274 HD
ENDBRANCH  14  15
ENDBRANCH  13  14
ENDBRANCH  12  13
BRANCH   1  19
HETATM   19  N1  UNL     1     -26.467 -12.890 -42.757  1.00  0.00    -0.385 N 
ATOM     20  H12 UNL     1     -27.396 -12.867 -43.175  1.00  0.00     0.157 HD
ATOM     21  H11 UNL     1     -25.927 -12.043 -42.576  1.00  0.00     0.157 HD
ENDBRANCH   1  19
TORSDOF 4
ENDMDL
MODEL 5
REMARK VINA RESULT: -4.792617508      1.293      4.502
REMARK  4 active torsions:
REMARK  status: ('A' for Active; 'I' for Inactive)
REMARK    1  A    between atoms: N1_1  and  C1_4 
REMARK    2  A    between atoms: N5_15  and  C6_16 
REMARK    3  A    between atoms: C6_16  and  C7_17 
REMARK    4  A    between atoms: C7_17  and  N6_18 
ROOT
HETATM    1  C1  UNL     1     -24.666 -16.375 -39.596  1.00  0.00     0.115 A 
HETATM    2  N2  UNL     1     -24.804 -15.921 -38.335  1.00  0.00    -0.338 N 
ATOM      3  H2  UNL     1     -24.479 -16.489 -37.553  1.00  0.00     0.168 HD
HETATM    4  C2  UNL     1     -25.366 -14.729 -38.103  1.00  0.00     0.183 A 
HETATM    5  N3  UNL     1     -25.783 -14.010 -39.161  1.00  0.00    -0.337 N 
ATOM      6  H3  UNL     1     -26.212 -13.102 -38.987  1.00  0.00     0.168 HD
HETATM    7  C3  UNL     1     -25.666 -14.423 -40.437  1.00  0.00     0.138 A 
HETATM    8  C4  UNL     1     -25.089 -15.649 -40.694  1.00  0.00     0.070 A 
HETATM    9  C5  UNL     1     -25.100 -15.811 -42.053  1.00  0.00     0.126 A 
HETATM   10  N4  UNL     1     -25.672 -14.697 -42.570  1.00  0.00    -0.307 N 
ATOM     11  H4  UNL     1     -25.816 -14.530 -43.566  1.00  0.00     0.186 HD
HETATM   12  N5  UNL     1     -26.015 -13.860 -41.617  1.00  0.00    -0.275 N 
ENDROOT
BRANCH  12  13
HETATM   13  C6  UNL     1     -26.648 -12.563 -41.699  1.00  0.00     0.178 C 
BRANCH  13  14
HETATM   14  C7  UNL     1     -26.707 -12.046 -43.117  1.00  0.00     0.251 C 
BRANCH  14  15
HETATM   15  N6  UNL     1     -28.121 -11.987 -43.491  1.00  0.00    -0.078 N 
ATOM     16  H63 UNL     1     -28.598 -11.164 -43.126  1.00  0.00     0.274 HD
ATOM     17  H62 UNL     1     -28.265 -11.791 -44.482  1.00  0.00     0.274 HD
ATOM     18  H61 UNL     1     -28.546 -12.864 -43.190  1.00  0.00     0.274 HD
ENDBRANCH  14  15
ENDBRANCH  13  14
ENDBRANCH  12  13
BRANCH   1  19
HETATM   19  N1  UNL     1     -24.126 -17.518 -39.785  1.00  0.00    -0.385 N 
ATOM     20  H12 UNL     1     -23.210 -17.561 -40.230  1.00  0.00     0.157 HD
ATOM     21  H11 UNL     1     -24.628 -18.355 -39.486  1.00  0.00     0.157 HD
ENDBRANCH   1  19
TORSDOF 4
ENDMDL
