MODEL 1
REMARK VINA RESULT: -5.501206795      0.000      0.000
REMARK  4 active torsions:
REMARK  status: ('A' for Active; 'I' for Inactive)
REMARK    1  A    between atoms: N1_1  and  C1_4 
REMARK    2  A    between atoms: C2_7  and  C3_8 
REMARK    3  A    between atoms: C3_8  and  N3_9 
REMARK    4  A    between atoms: N3_9  and  C4_12 
ROOT
HETATM    1  C1  UNL     1     -25.751 -16.139 -37.120  1.00  0.00     0.697 A 
HETATM    2  N2  UNL     1     -25.128 -15.640 -38.209  1.00  0.00    -0.169 N 
ATOM      3  H2  UNL     1     -24.118 -15.555 -38.321  1.00  0.00     0.186 HD
HETATM    4  C2  UNL     1     -26.039 -15.271 -39.122  1.00  0.00     0.188 A 
HETATM    5  O1  UNL     1     -27.207 -15.544 -38.580  1.00  0.00    -0.207 OA
HETATM    6  N5  UNL     1     -27.071 -16.059 -37.395  1.00  0.00    -0.090 N 
ATOM      7  H5  UNL     1     -27.829 -16.352 -36.780  1.00  0.00     0.213 HD
ENDROOT
BRANCH   4   8
HETATM    8  C3  UNL     1     -25.805 -14.678 -40.463  1.00  0.00     0.319 C 
BRANCH   8   9
HETATM    9  N3  UNL     1     -26.882 -13.824 -40.882  1.00  0.00    -0.060 N 
ATOM     10  H32 UNL     1     -27.527 -14.319 -41.498  1.00  0.00     0.278 HD
ATOM     11  H31 UNL     1     -27.516 -13.624 -40.109  1.00  0.00     0.278 HD
BRANCH   9  12
HETATM   12  C4  UNL     1     -26.413 -12.624 -41.486  1.00  0.00     0.237 C 
HETATM   13  C5  UNL     1     -26.211 -12.760 -43.012  1.00  0.00     0.267 C 
HETATM   14  N4  UNL     1     -27.575 -12.261 -43.192  1.00  0.00    -0.071 N 
HETATM   15  C6  UNL     1     -27.432 -11.592 -41.918  1.00  0.00     0.267 C 
ATOM     16  H42 UNL     1     -27.841 -11.746 -44.031  1.00  0.00     0.277 HD
ATOM     17  H41 UNL     1     -28.351 -12.900 -43.366  1.00  0.00     0.277 HD
ENDBRANCH   9  12
ENDBRANCH   8   9
ENDBRANCH   4   8
BRANCH   1  18
HETATM   18  N1  UNL     1     -25.280 -16.594 -35.992  1.00  0.00    -0.233 N 
ATOM     19  H12 UNL     1     -24.899 -15.993 -35.261  1.00  0.00     0.174 HD
ATOM     20  H11 UNL     1     -25.178 -17.546 -35.640  1.00  0.00     0.174 HD
ENDBRANCH   1  18
TORSDOF 4
ENDMDL
MODEL 2
REMARK VINA RESULT: -5.420504668      1.806      2.070
REMARK  4 active torsions:
REMARK  status: ('A' for Active; 'I' for Inactive)
REMARK    1  A    between atoms: N1_1  and  C1_4 
REMARK    2  A    between atoms: C2_7  and  C3_8 
REMARK    3  A    between atoms: C3_8  and  N3_9 
REMARK    4  A    between atoms: N3_9  and  C4_12 
ROOT
HETATM    1  C1  UNL     1     -25.766 -16.142 -36.776  1.00  0.00     0.697 A 
HETATM    2  N2  UNL     1     -25.166 -15.367 -37.706  1.00  0.00    -0.169 N 
ATOM      3  H2  UNL     1     -24.195 -15.057 -37.676  1.00  0.00     0.186 HD
HETATM    4  C2  UNL     1     -26.042 -15.066 -38.677  1.00  0.00     0.188 A 
HETATM    5  O1  UNL     1     -27.166 -15.655 -38.328  1.00  0.00    -0.207 OA
HETATM    6  N5  UNL     1     -27.035 -16.301 -37.207  1.00  0.00    -0.090 N 
ATOM      7  H5  UNL     1     -27.764 -16.834 -36.736  1.00  0.00     0.213 HD
ENDROOT
BRANCH   4   8
HETATM    8  C3  UNL     1     -25.816 -14.245 -39.893  1.00  0.00     0.319 C 
BRANCH   8   9
HETATM    9  N3  UNL     1     -26.176 -14.939 -41.100  1.00  0.00    -0.060 N 
ATOM     10  H32 UNL     1     -26.487 -15.890 -40.900  1.00  0.00     0.278 HD
ATOM     11  H31 UNL     1     -27.038 -14.566 -41.496  1.00  0.00     0.278 HD
BRANCH   9  12
HETATM   12  C4  UNL     1     -25.125 -14.933 -42.057  1.00  0.00     0.237 C 
HETATM   13  C5  UNL     1     -25.087 -16.218 -42.914  1.00  0.00     0.267 C 
HETATM   14  N4  UNL     1     -25.924 -15.533 -43.899  1.00  0.00    -0.071 N 
HETATM   15  C6  UNL     1     -25.382 -14.288 -43.402  1.00  0.00     0.267 C 
ATOM     16  H42 UNL     1     -25.874 -15.772 -44.890  1.00  0.00     0.277 HD
ATOM     17  H41 UNL     1     -26.931 -15.692 -43.936  1.00  0.00     0.277 HD
ENDBRANCH   9  12
ENDBRANCH   8   9
ENDBRANCH   4   8
BRANCH   1  18
HETATM   18  N1  UNL     1     -25.318 -16.650 -35.661  1.00  0.00    -0.233 N 
ATOM     19  H12 UNL     1     -25.108 -16.090 -34.835  1.00  0.00     0.174 HD
ATOM     20  H11 UNL     1     -25.081 -17.609 -35.406  1.00  0.00     0.174 HD
ENDBRANCH   1  18
TORSDOF 4
ENDMDL
MODEL 3
REMARK VINA RESULT: -5.371185519      0.824      1.130
REMARK  4 active torsions:
REMARK  status: ('A' for Active; 'I' for Inactive)
REMARK    1  A    between atoms: N1_1  and  C1_4 
REMARK    2  A    between atoms: C2_7  and  C3_8 
REMARK    3  A    between atoms: C3_8  and  N3_9 
REMARK    4  A    between atoms: N3_9  and  C4_12 
ROOT
HETATM    1  C1  UNL     1     -25.819 -16.224 -36.971  1.00  0.00     0.697 A 
HETATM    2  N2  UNL     1     -25.160 -15.748 -38.050  1.00  0.00    -0.169 N 
ATOM      3  H2  UNL     1     -24.146 -15.688 -38.140  1.00  0.00     0.186 HD
HETATM    4  C2  UNL     1     -26.042 -15.366 -38.986  1.00  0.00     0.188 A 
HETATM    5  O1  UNL     1     -27.227 -15.607 -38.468  1.00  0.00    -0.207 OA
HETATM    6  N5  UNL     1     -27.130 -16.116 -37.276  1.00  0.00    -0.090 N 
ATOM      7  H5  UNL     1     -27.908 -16.387 -36.675  1.00  0.00     0.213 HD
ENDROOT
BRANCH   4   8
HETATM    8  C3  UNL     1     -25.764 -14.789 -40.325  1.00  0.00     0.319 C 
BRANCH   8   9
HETATM    9  N3  UNL     1     -25.850 -13.354 -40.334  1.00  0.00    -0.060 N 
ATOM     10  H32 UNL     1     -26.169 -12.998 -39.433  1.00  0.00     0.278 HD
ATOM     11  H31 UNL     1     -24.922 -12.930 -40.357  1.00  0.00     0.278 HD
BRANCH   9  12
HETATM   12  C4  UNL     1     -26.662 -12.870 -41.396  1.00  0.00     0.237 C 
HETATM   13  C5  UNL     1     -26.491 -11.354 -41.640  1.00  0.00     0.267 C 
HETATM   14  N4  UNL     1     -25.466 -11.676 -42.634  1.00  0.00    -0.071 N 
HETATM   15  C6  UNL     1     -26.123 -12.952 -42.808  1.00  0.00     0.267 C 
ATOM     16  H42 UNL     1     -25.292 -11.060 -43.429  1.00  0.00     0.277 HD
ATOM     17  H41 UNL     1     -24.474 -11.622 -42.405  1.00  0.00     0.277 HD
ENDBRANCH   9  12
ENDBRANCH   8   9
ENDBRANCH   4   8
BRANCH   1  18
HETATM   18  N1  UNL     1     -25.384 -16.681 -35.829  1.00  0.00    -0.233 N 
ATOM     19  H12 UNL     1     -24.415 -16.957 -35.669  1.00  0.00     0.174 HD
ATOM     20  H11 UNL     1     -25.867 -16.866 -34.950  1.00  0.00     0.174 HD
ENDBRANCH   1  18
TORSDOF 4
ENDMDL
MODEL 4
REMARK VINA RESULT: -5.366899172      7.300      8.178
REMARK  4 active torsions:
REMARK  status: ('A' for Active; 'I' for Inactive)
REMARK    1  A    between atoms: N1_1  and  C1_4 
REMARK    2  A    between atoms: C2_7  and  C3_8 
REMARK    3  A    between atoms: C3_8  and  N3_9 
REMARK    4  A    between atoms: N3_9  and  C4_12 
ROOT
HETATM    1  C1  UNL     1     -31.556 -20.449 -44.825  1.00  0.00     0.697 A 
HETATM    2  N2  UNL     1     -30.302 -19.947 -44.807  1.00  0.00    -0.169 N 
ATOM      3  H2  UNL     1     -29.499 -20.386 -44.356  1.00  0.00     0.186 HD
HETATM    4  C2  UNL     1     -30.272 -18.782 -45.472  1.00  0.00     0.188 A 
HETATM    5  O1  UNL     1     -31.505 -18.583 -45.884  1.00  0.00    -0.207 OA
HETATM    6  N5  UNL     1     -32.290 -19.552 -45.518  1.00  0.00    -0.090 N 
ATOM      7  H5  UNL     1     -33.287 -19.624 -45.719  1.00  0.00     0.213 HD
ENDROOT
BRANCH   4   8
HETATM    8  C3  UNL     1     -29.108 -17.890 -45.704  1.00  0.00     0.319 C 
BRANCH   8   9
HETATM    9  N3  UNL     1     -28.149 -17.946 -44.635  1.00  0.00    -0.060 N 
ATOM     10  H32 UNL     1     -28.325 -17.218 -43.943  1.00  0.00     0.278 HD
ATOM     11  H31 UNL     1     -28.300 -18.767 -44.048  1.00  0.00     0.278 HD
BRANCH   9  12
HETATM   12  C4  UNL     1     -26.810 -17.892 -45.110  1.00  0.00     0.237 C 
HETATM   13  C5  UNL     1     -26.591 -16.779 -46.159  1.00  0.00     0.267 C 
HETATM   14  N4  UNL     1     -26.189 -15.891 -45.067  1.00  0.00    -0.071 N 
HETATM   15  C6  UNL     1     -25.804 -17.074 -44.329  1.00  0.00     0.267 C 
ATOM     16  H42 UNL     1     -25.529 -15.129 -45.224  1.00  0.00     0.277 HD
ATOM     17  H41 UNL     1     -26.842 -15.214 -44.672  1.00  0.00     0.277 HD
ENDBRANCH   9  12
ENDBRANCH   8   9
ENDBRANCH   4   8
BRANCH   1  18
HETATM   18  N1  UNL     1     -32.056 -21.532 -44.298  1.00  0.00    -0.233 N 
ATOM     19  H12 UNL     1     -32.551 -21.544 -43.406  1.00  0.00     0.174 HD
ATOM     20  H11 UNL     1     -32.044 -22.502 -44.613  1.00  0.00     0.174 HD
ENDBRANCH   1  18
TORSDOF 4
ENDMDL
MODEL 5
REMARK VINA RESULT: -5.273193969      1.214      1.278
REMARK  4 active torsions:
REMARK  status: ('A' for Active; 'I' for Inactive)
REMARK    1  A    between atoms: N1_1  and  C1_4 
REMARK    2  A    between atoms: C2_7  and  C3_8 
REMARK    3  A    between atoms: C3_8  and  N3_9 
REMARK    4  A    between atoms: N3_9  and  C4_12 
ROOT
HETATM    1  C1  UNL     1     -25.435 -16.617 -36.162  1.00  0.00     0.697 A 
HETATM    2  N2  UNL     1     -24.765 -16.128 -37.229  1.00  0.00    -0.169 N 
ATOM      3  H2  UNL     1     -23.765 -15.928 -37.254  1.00  0.00     0.186 HD
HETATM    4  C2  UNL     1     -25.615 -15.946 -38.251  1.00  0.00     0.188 A 
HETATM    5  O1  UNL     1     -26.792 -16.319 -37.798  1.00  0.00    -0.207 OA
HETATM    6  N5  UNL     1     -26.719 -16.722 -36.564  1.00  0.00    -0.090 N 
ATOM      7  H5  UNL     1     -27.497 -17.059 -35.998  1.00  0.00     0.213 HD
ENDROOT
BRANCH   4   8
HETATM    8  C3  UNL     1     -25.315 -15.432 -39.612  1.00  0.00     0.319 C 
BRANCH   8   9
HETATM    9  N3  UNL     1     -26.426 -14.727 -40.191  1.00  0.00    -0.060 N 
ATOM     10  H32 UNL     1     -26.905 -15.300 -40.885  1.00  0.00     0.278 HD
ATOM     11  H31 UNL     1     -27.185 -14.620 -39.518  1.00  0.00     0.278 HD
BRANCH   9  12
HETATM   12  C4  UNL     1     -26.041 -13.472 -40.737  1.00  0.00     0.237 C 
HETATM   13  C5  UNL     1     -25.208 -13.611 -42.031  1.00  0.00     0.267 C 
HETATM   14  N4  UNL     1     -26.454 -13.506 -42.791  1.00  0.00    -0.071 N 
HETATM   15  C6  UNL     1     -27.001 -12.770 -41.672  1.00  0.00     0.267 C 
ATOM     16  H42 UNL     1     -26.465 -13.116 -43.734  1.00  0.00     0.277 HD
ATOM     17  H41 UNL     1     -26.922 -14.336 -43.154  1.00  0.00     0.277 HD
ENDBRANCH   9  12
ENDBRANCH   8   9
ENDBRANCH   4   8
BRANCH   1  18
HETATM   18  N1  UNL     1     -25.032 -16.922 -34.960  1.00  0.00    -0.233 N 
ATOM     19  H12 UNL     1     -25.428 -16.511 -34.115  1.00  0.00     0.174 HD
ATOM     20  H11 UNL     1     -24.297 -17.551 -34.636  1.00  0.00     0.174 HD
ENDBRANCH   1  18
TORSDOF 4
ENDMDL
