MODEL 1
REMARK VINA RESULT: -8.488387214      0.000      0.000
REMARK  4 active torsions:
REMARK  status: ('A' for Active; 'I' for Inactive)
REMARK    1  A    between atoms: O1_2  and  C2_3 
REMARK    2  A    between atoms: C5_7  and  C6_8 
REMARK    3  A    between atoms: N1_11  and  C9_13 
REMARK    4  A    between atoms: C9_13  and  S1_17 
ROOT
HETATM    1  C6  UNL     1       2.627  64.257 188.810  1.00  0.00     0.100 C 
HETATM    2  C7  UNL     1       3.092  64.141 190.221  1.00  0.00     0.091 C 
HETATM    3  C8  UNL     1       3.303  65.520 190.729  1.00  0.00     0.081 C 
HETATM    4  N1  UNL     1       3.596  65.857 191.933  1.00  0.00    -0.327 N 
ATOM      5  H1  UNL     1       3.713  66.849 192.143  1.00  0.00     0.169 HD
HETATM    6  N3  UNL     1       3.121  66.405 189.634  1.00  0.00    -0.346 N 
ATOM      7  H3  UNL     1       3.393  67.388 189.628  1.00  0.00     0.163 HD
HETATM    8  C11 UNL     1       2.487  65.707 188.518  1.00  0.00     0.220 C 
HETATM    9  C12 UNL     1       3.259  66.037 187.296  1.00  0.00     0.107 C 
HETATM   10  N4  UNL     1       3.843  66.290 186.331  1.00  0.00    -0.193 NA
HETATM   11  C13 UNL     1       1.137  66.171 188.286  1.00  0.00     0.107 C 
HETATM   12  N5  UNL     1       0.069  66.561 188.099  1.00  0.00    -0.193 NA
ENDROOT
BRANCH   1  13
HETATM   13  C5  UNL     1       1.384  63.463 188.627  1.00  0.00     0.021 A 
HETATM   14  C4  UNL     1       1.123  62.698 187.523  1.00  0.00     0.052 A 
HETATM   15  C3  UNL     1      -0.039  61.962 187.372  1.00  0.00     0.072 A 
HETATM   16  C2  UNL     1      -0.960  62.015 188.389  1.00  0.00     0.128 A 
HETATM   17 CL1  UNL     1      -0.319  60.992 185.918  1.00  0.00    -0.081 Cl
HETATM   18  C14 UNL     1      -0.702  62.782 189.501  1.00  0.00     0.139 A 
HETATM   19  N6  UNL     1       0.457  63.488 189.599  1.00  0.00    -0.347 N 
HETATM   20 CL2  UNL     1      -1.891  62.844 190.804  1.00  0.00    -0.061 Cl
ATOM     21  H6  UNL     1       0.627  64.050 190.432  1.00  0.00     0.167 HD
BRANCH  16  22
HETATM   22  O1  UNL     1      -2.132  61.270 188.232  1.00  0.00    -0.351 OA
HETATM   23  C1  UNL     1      -2.309  59.983 188.756  1.00  0.00     0.210 C 
ENDBRANCH  16  22
ENDBRANCH   1  13
BRANCH   4  24
HETATM   24  C9  UNL     1       3.765  64.919 192.984  1.00  0.00     0.138 C 
HETATM   25  N2  UNL     1       2.781  64.163 193.280  1.00  0.00    -0.380 N 
ATOM     26  H22 UNL     1       1.906  64.248 192.763  1.00  0.00     0.158 HD
ATOM     27  H21 UNL     1       2.902  63.489 194.036  1.00  0.00     0.158 HD
BRANCH  24  28
HETATM   28  S1  UNL     1       5.298  64.771 193.891  1.00  0.00    -0.099 SA
HETATM   29  C10 UNL     1       6.714  64.667 192.772  1.00  0.00     0.099 C 
ENDBRANCH  24  28
ENDBRANCH   4  24
TORSDOF 4
ENDMDL
MODEL 2
REMARK VINA RESULT: -8.335182676      2.738      3.513
REMARK  4 active torsions:
REMARK  status: ('A' for Active; 'I' for Inactive)
REMARK    1  A    between atoms: O1_2  and  C2_3 
REMARK    2  A    between atoms: C5_7  and  C6_8 
REMARK    3  A    between atoms: N1_11  and  C9_13 
REMARK    4  A    between atoms: C9_13  and  S1_17 
ROOT
HETATM    1  C6  UNL     1       3.211  67.397 188.358  1.00  0.00     0.100 C 
HETATM    2  C7  UNL     1       3.754  67.056 189.703  1.00  0.00     0.091 C 
HETATM    3  C8  UNL     1       2.947  67.800 190.703  1.00  0.00     0.081 C 
HETATM    4  N1  UNL     1       3.022  67.694 191.981  1.00  0.00    -0.327 N 
ATOM      5  H1  UNL     1       2.403  68.269 192.552  1.00  0.00     0.169 HD
HETATM    6  N3  UNL     1       2.070  68.655 189.986  1.00  0.00    -0.346 N 
ATOM      7  H3  UNL     1       1.540  69.424 190.397  1.00  0.00     0.163 HD
HETATM    8  C11 UNL     1       2.033  68.276 188.576  1.00  0.00     0.220 C 
HETATM    9  C12 UNL     1       2.196  69.517 187.781  1.00  0.00     0.107 C 
HETATM   10  N4  UNL     1       2.312  70.476 187.145  1.00  0.00    -0.193 NA
HETATM   11  C13 UNL     1       0.755  67.714 188.199  1.00  0.00     0.107 C 
HETATM   12  N5  UNL     1      -0.273  67.285 187.906  1.00  0.00    -0.193 NA
ENDROOT
BRANCH   1  13
HETATM   13  C5  UNL     1       2.924  66.148 187.604  1.00  0.00     0.021 A 
HETATM   14  C4  UNL     1       3.396  65.891 186.346  1.00  0.00     0.052 A 
HETATM   15  C3  UNL     1       3.121  64.720 185.662  1.00  0.00     0.072 A 
HETATM   16  C2  UNL     1       2.337  63.786 186.293  1.00  0.00     0.128 A 
HETATM   17 CL1  UNL     1       3.761  64.447 184.034  1.00  0.00    -0.081 Cl
HETATM   18  C14 UNL     1       1.862  64.040 187.557  1.00  0.00     0.139 A 
HETATM   19  N6  UNL     1       2.161  65.208 188.186  1.00  0.00    -0.347 N 
HETATM   20 CL2  UNL     1       0.855  62.833 188.361  1.00  0.00    -0.061 Cl
ATOM     21  H6  UNL     1       1.796  65.375 189.123  1.00  0.00     0.167 HD
BRANCH  16  22
HETATM   22  O1  UNL     1       2.063  62.605 185.597  1.00  0.00    -0.351 OA
HETATM   23  C1  UNL     1       2.997  61.578 185.413  1.00  0.00     0.210 C 
ENDBRANCH  16  22
ENDBRANCH   1  13
BRANCH   4  24
HETATM   24  C9  UNL     1       3.925  66.817 192.637  1.00  0.00     0.138 C 
HETATM   25  N2  UNL     1       3.480  65.692 193.046  1.00  0.00    -0.380 N 
ATOM     26  H22 UNL     1       2.501  65.452 192.895  1.00  0.00     0.158 HD
ATOM     27  H21 UNL     1       4.129  65.062 193.518  1.00  0.00     0.158 HD
BRANCH  24  28
HETATM   28  S1  UNL     1       5.640  67.239 192.902  1.00  0.00    -0.099 SA
HETATM   29  C10 UNL     1       6.727  66.273 191.827  1.00  0.00     0.099 C 
ENDBRANCH  24  28
ENDBRANCH   4  24
TORSDOF 4
ENDMDL
MODEL 3
REMARK VINA RESULT: -7.986959693      3.839      5.674
REMARK  4 active torsions:
REMARK  status: ('A' for Active; 'I' for Inactive)
REMARK    1  A    between atoms: O1_2  and  C2_3 
REMARK    2  A    between atoms: C5_7  and  C6_8 
REMARK    3  A    between atoms: N1_11  and  C9_13 
REMARK    4  A    between atoms: C9_13  and  S1_17 
ROOT
HETATM    1  C6  UNL     1       2.779  66.718 192.230  1.00  0.00     0.100 C 
HETATM    2  C7  UNL     1       2.334  68.132 192.381  1.00  0.00     0.091 C 
HETATM    3  C8  UNL     1       3.483  68.900 192.923  1.00  0.00     0.081 C 
HETATM    4  N1  UNL     1       3.544  70.171 193.093  1.00  0.00    -0.327 N 
ATOM      5  H1  UNL     1       4.402  70.568 193.477  1.00  0.00     0.169 HD
HETATM    6  N3  UNL     1       4.509  67.966 193.224  1.00  0.00    -0.346 N 
ATOM      7  H3  UNL     1       5.334  68.169 193.788  1.00  0.00     0.163 HD
HETATM    8  C11 UNL     1       4.216  66.675 192.608  1.00  0.00     0.220 C 
HETATM    9  C12 UNL     1       4.417  65.635 193.645  1.00  0.00     0.107 C 
HETATM   10  N4  UNL     1       4.579  64.810 194.438  1.00  0.00    -0.193 NA
HETATM   11  C13 UNL     1       5.136  66.365 191.535  1.00  0.00     0.107 C 
HETATM   12  N5  UNL     1       5.884  66.122 190.694  1.00  0.00    -0.193 NA
ENDROOT
BRANCH   1  13
HETATM   13  C5  UNL     1       2.484  66.246 190.852  1.00  0.00     0.021 A 
HETATM   14  C4  UNL     1       1.882  65.050 190.569  1.00  0.00     0.052 A 
HETATM   15  C3  UNL     1       1.612  64.629 189.278  1.00  0.00     0.072 A 
HETATM   16  C2  UNL     1       1.970  65.464 188.250  1.00  0.00     0.128 A 
HETATM   17 CL1  UNL     1       0.831  63.069 188.976  1.00  0.00    -0.081 Cl
HETATM   18  C14 UNL     1       2.574  66.667 188.530  1.00  0.00     0.139 A 
HETATM   19  N6  UNL     1       2.819  67.034 189.817  1.00  0.00    -0.347 N 
HETATM   20 CL2  UNL     1       3.032  67.735 187.201  1.00  0.00    -0.061 Cl
ATOM     21  H6  UNL     1       3.269  67.930 190.001  1.00  0.00     0.167 HD
BRANCH  16  22
HETATM   22  O1  UNL     1       1.694  65.034 186.949  1.00  0.00    -0.351 OA
HETATM   23  C1  UNL     1       2.615  64.350 186.146  1.00  0.00     0.210 C 
ENDBRANCH  16  22
ENDBRANCH   1  13
BRANCH   4  24
HETATM   24  C9  UNL     1       2.478  71.051 192.771  1.00  0.00     0.138 C 
HETATM   25  N2  UNL     1       1.612  71.302 193.675  1.00  0.00    -0.380 N 
ATOM     26  H22 UNL     1       1.703  70.871 194.594  1.00  0.00     0.158 HD
ATOM     27  H21 UNL     1       0.846  71.935 193.444  1.00  0.00     0.158 HD
BRANCH  24  28
HETATM   28  S1  UNL     1       2.319  71.807 191.160  1.00  0.00    -0.099 SA
HETATM   29  C10 UNL     1       2.928  70.710 189.859  1.00  0.00     0.099 C 
ENDBRANCH  24  28
ENDBRANCH   4  24
TORSDOF 4
ENDMDL
MODEL 4
REMARK VINA RESULT: -7.944146533      4.962      6.460
REMARK  4 active torsions:
REMARK  status: ('A' for Active; 'I' for Inactive)
REMARK    1  A    between atoms: O1_2  and  C2_3 
REMARK    2  A    between atoms: C5_7  and  C6_8 
REMARK    3  A    between atoms: N1_11  and  C9_13 
REMARK    4  A    between atoms: C9_13  and  S1_17 
ROOT
HETATM    1  C6  UNL     1       3.291  67.062 190.106  1.00  0.00     0.100 C 
HETATM    2  C7  UNL     1       4.290  66.665 191.138  1.00  0.00     0.091 C 
HETATM    3  C8  UNL     1       5.585  66.463 190.442  1.00  0.00     0.081 C 
HETATM    4  N1  UNL     1       6.721  66.223 190.990  1.00  0.00    -0.327 N 
ATOM      5  H1  UNL     1       7.536  66.106 190.386  1.00  0.00     0.169 HD
HETATM    6  N3  UNL     1       5.339  66.586 189.049  1.00  0.00    -0.346 N 
ATOM      7  H3  UNL     1       5.989  66.305 188.315  1.00  0.00     0.163 HD
HETATM    8  C11 UNL     1       4.022  67.175 188.817  1.00  0.00     0.220 C 
HETATM    9  C12 UNL     1       3.341  66.344 187.795  1.00  0.00     0.107 C 
HETATM   10  N4  UNL     1       2.798  65.714 186.993  1.00  0.00    -0.193 NA
HETATM   11  C13 UNL     1       4.114  68.508 188.264  1.00  0.00     0.107 C 
HETATM   12  N5  UNL     1       4.200  69.562 187.808  1.00  0.00    -0.193 NA
ENDROOT
BRANCH   1  13
HETATM   13  C5  UNL     1       2.596  68.304 190.537  1.00  0.00     0.021 A 
HETATM   14  C4  UNL     1       1.269  68.552 190.313  1.00  0.00     0.052 A 
HETATM   15  C3  UNL     1       0.639  69.712 190.725  1.00  0.00     0.072 A 
HETATM   16  C2  UNL     1       1.397  70.645 191.389  1.00  0.00     0.128 A 
HETATM   17 CL1  UNL     1      -1.083  69.974 190.405  1.00  0.00    -0.081 Cl
HETATM   18  C14 UNL     1       2.730  70.400 191.616  1.00  0.00     0.139 A 
HETATM   19  N6  UNL     1       3.302  69.242 191.189  1.00  0.00    -0.347 N 
HETATM   20 CL2  UNL     1       3.697  71.605 192.470  1.00  0.00    -0.061 Cl
ATOM     21  H6  UNL     1       4.293  69.083 191.368  1.00  0.00     0.167 HD
BRANCH  16  22
HETATM   22  O1  UNL     1       0.754  71.815 191.803  1.00  0.00    -0.351 OA
HETATM   23  C1  UNL     1       0.310  72.035 193.113  1.00  0.00     0.210 C 
ENDBRANCH  16  22
ENDBRANCH   1  13
BRANCH   4  24
HETATM   24  C9  UNL     1       6.900  66.111 192.393  1.00  0.00     0.138 C 
HETATM   25  N2  UNL     1       7.347  67.126 193.025  1.00  0.00    -0.380 N 
ATOM     26  H22 UNL     1       7.563  67.983 192.516  1.00  0.00     0.158 HD
ATOM     27  H21 UNL     1       7.476  67.046 194.034  1.00  0.00     0.158 HD
BRANCH  24  28
HETATM   28  S1  UNL     1       6.522  64.611 193.285  1.00  0.00    -0.099 SA
HETATM   29  C10 UNL     1       4.967  64.762 194.194  1.00  0.00     0.099 C 
ENDBRANCH  24  28
ENDBRANCH   4  24
TORSDOF 4
ENDMDL
MODEL 5
REMARK VINA RESULT: -7.943679697      2.734      3.860
REMARK  4 active torsions:
REMARK  status: ('A' for Active; 'I' for Inactive)
REMARK    1  A    between atoms: O1_2  and  C2_3 
REMARK    2  A    between atoms: C5_7  and  C6_8 
REMARK    3  A    between atoms: N1_11  and  C9_13 
REMARK    4  A    between atoms: C9_13  and  S1_17 
ROOT
HETATM    1  C6  UNL     1       3.201  67.378 188.336  1.00  0.00     0.100 C 
HETATM    2  C7  UNL     1       3.735  67.077 189.694  1.00  0.00     0.091 C 
HETATM    3  C8  UNL     1       2.947  67.878 190.664  1.00  0.00     0.081 C 
HETATM    4  N1  UNL     1       3.020  67.821 191.944  1.00  0.00    -0.327 N 
ATOM      5  H1  UNL     1       2.414  68.433 192.492  1.00  0.00     0.169 HD
HETATM    6  N3  UNL     1       2.090  68.726 189.913  1.00  0.00    -0.346 N 
ATOM      7  H3  UNL     1       1.580  69.522 190.293  1.00  0.00     0.163 HD
HETATM    8  C11 UNL     1       2.045  68.294 188.518  1.00  0.00     0.220 C 
HETATM    9  C12 UNL     1       2.237  69.498 187.676  1.00  0.00     0.107 C 
HETATM   10  N4  UNL     1       2.376  70.428 187.003  1.00  0.00    -0.193 NA
HETATM   11  C13 UNL     1       0.753  67.748 188.163  1.00  0.00     0.107 C 
HETATM   12  N5  UNL     1      -0.285  67.332 187.886  1.00  0.00    -0.193 NA
ENDROOT
BRANCH   1  13
HETATM   13  C5  UNL     1       2.883  66.108 187.631  1.00  0.00     0.021 A 
HETATM   14  C4  UNL     1       2.110  65.114 188.165  1.00  0.00     0.052 A 
HETATM   15  C3  UNL     1       1.822  63.939 187.493  1.00  0.00     0.072 A 
HETATM   16  C2  UNL     1       2.345  63.785 186.233  1.00  0.00     0.128 A 
HETATM   17 CL1  UNL     1       0.815  62.688 188.238  1.00  0.00    -0.081 Cl
HETATM   18  C14 UNL     1       3.122  64.782 185.692  1.00  0.00     0.139 A 
HETATM   19  N6  UNL     1       3.376  65.918 186.397  1.00  0.00    -0.347 N 
HETATM   20 CL2  UNL     1       3.790  64.575 184.072  1.00  0.00    -0.061 Cl
ATOM     21  H6  UNL     1       3.955  66.643 185.976  1.00  0.00     0.167 HD
BRANCH  16  22
HETATM   22  O1  UNL     1       2.050  62.596 185.558  1.00  0.00    -0.351 OA
HETATM   23  C1  UNL     1       2.971  61.557 185.379  1.00  0.00     0.210 C 
ENDBRANCH  16  22
ENDBRANCH   1  13
BRANCH   4  24
HETATM   24  C9  UNL     1       3.901  66.948 192.635  1.00  0.00     0.138 C 
HETATM   25  N2  UNL     1       3.432  65.847 193.078  1.00  0.00    -0.380 N 
ATOM     26  H22 UNL     1       2.449  65.621 192.929  1.00  0.00     0.158 HD
ATOM     27  H21 UNL     1       4.065  65.220 193.575  1.00  0.00     0.158 HD
BRANCH  24  28
HETATM   28  S1  UNL     1       5.623  67.345 192.897  1.00  0.00    -0.099 SA
HETATM   29  C10 UNL     1       6.698  66.299 191.887  1.00  0.00     0.099 C 
ENDBRANCH  24  28
ENDBRANCH   4  24
TORSDOF 4
ENDMDL
