MODEL 1
REMARK VINA RESULT: -7.080663157      0.000      0.000
REMARK  6 active torsions:
REMARK  status: ('A' for Active; 'I' for Inactive)
REMARK    1  A    between atoms: C2_2  and  O1_3 
REMARK    2  A    between atoms: O1_3  and  C3_4 
REMARK    3  A    between atoms: C3_4  and  C4_6 
REMARK    4  A    between atoms: C4_6  and  O3_7 
REMARK    5  A    between atoms: C7_11  and  O4_12 
REMARK    6  A    between atoms: C10_16  and  O5_17 
ROOT
HETATM    1  C4  UNL     1       4.951  66.472 191.518  1.00  0.00     0.206 C 
HETATM    2  C5  UNL     1       4.122  67.718 191.626  1.00  0.00     0.028 A 
HETATM    3  C6  UNL     1       3.712  68.653 190.690  1.00  0.00     0.052 A 
HETATM    4  C7  UNL     1       2.945  69.750 191.015  1.00  0.00     0.089 A 
HETATM    5  C9  UNL     1       2.549  69.954 192.336  1.00  0.00     0.080 A 
HETATM    6 BR1  UNL     1       1.484  71.482 192.805  1.00  0.00    -0.045 Br
HETATM    7  C10 UNL     1       2.948  69.034 193.270  1.00  0.00     0.120 A 
HETATM    8  C11 UNL     1       3.731  67.920 192.926  1.00  0.00     0.114 A 
HETATM    9  O6  UNL     1       4.241  66.881 193.684  1.00  0.00    -0.333 OA
HETATM   10  C12 UNL     1       5.117  66.075 192.937  1.00  0.00     0.105 C 
HETATM   11  C13 UNL     1       6.535  66.429 193.388  1.00  0.00     0.050 C 
HETATM   12  C14 UNL     1       4.902  64.604 193.179  1.00  0.00     0.050 C 
ENDROOT
BRANCH   1  13
HETATM   13  C3  UNL     1       4.184  65.475 190.716  1.00  0.00     0.301 C 
HETATM   14  O2  UNL     1       4.841  64.678 190.006  1.00  0.00    -0.261 OA
BRANCH  13  15
HETATM   15  O1  UNL     1       2.811  65.380 190.713  1.00  0.00    -0.319 OA
BRANCH  15  16
HETATM   16  C2  UNL     1       2.046  64.262 191.055  1.00  0.00     0.174 C 
HETATM   17  C1  UNL     1       1.042  63.847 190.012  1.00  0.00     0.034 C 
ENDBRANCH  15  16
ENDBRANCH  13  15
ENDBRANCH   1  13
BRANCH   1  18
HETATM   18  O3  UNL     1       6.179  66.760 190.912  1.00  0.00    -0.372 OA
ATOM     19  H3  UNL     1       6.734  67.264 191.496  1.00  0.00     0.211 HD
ENDBRANCH   1  18
BRANCH   4  20
HETATM   20  O4  UNL     1       2.530  70.687 190.100  1.00  0.00    -0.354 OA
HETATM   21  C8  UNL     1       3.411  71.317 189.206  1.00  0.00     0.210 C 
ENDBRANCH   4  20
BRANCH   7  22
HETATM   22  O5  UNL     1       2.568  69.207 194.604  1.00  0.00    -0.357 OA
ATOM     23  H5  UNL     1       3.208  69.524 195.231  1.00  0.00     0.218 HD
ENDBRANCH   7  22
TORSDOF 6
ENDMDL
MODEL 2
REMARK VINA RESULT: -7.015658337      2.652      5.786
REMARK  6 active torsions:
REMARK  status: ('A' for Active; 'I' for Inactive)
REMARK    1  A    between atoms: C2_2  and  O1_3 
REMARK    2  A    between atoms: O1_3  and  C3_4 
REMARK    3  A    between atoms: C3_4  and  C4_6 
REMARK    4  A    between atoms: C4_6  and  O3_7 
REMARK    5  A    between atoms: C7_11  and  O4_12 
REMARK    6  A    between atoms: C10_16  and  O5_17 
ROOT
HETATM    1  C4  UNL     1       3.523  71.159 192.330  1.00  0.00     0.206 C 
HETATM    2  C5  UNL     1       3.798  69.699 192.128  1.00  0.00     0.028 A 
HETATM    3  C6  UNL     1       3.890  68.633 193.008  1.00  0.00     0.052 A 
HETATM    4  C7  UNL     1       4.165  67.347 192.599  1.00  0.00     0.089 A 
HETATM    5  C9  UNL     1       4.364  67.076 191.246  1.00  0.00     0.080 A 
HETATM    6 BR1  UNL     1       4.754  65.289 190.661  1.00  0.00    -0.045 Br
HETATM    7  C10 UNL     1       4.275  68.123 190.367  1.00  0.00     0.120 A 
HETATM    8  C11 UNL     1       3.994  69.430 190.796  1.00  0.00     0.114 A 
HETATM    9  O6  UNL     1       3.857  70.619 190.104  1.00  0.00    -0.333 OA
HETATM   10  C12 UNL     1       3.743  71.717 190.975  1.00  0.00     0.105 C 
HETATM   11  C13 UNL     1       5.088  72.443 190.949  1.00  0.00     0.050 C 
HETATM   12  C14 UNL     1       2.676  72.691 190.545  1.00  0.00     0.050 C 
ENDROOT
BRANCH   1  13
HETATM   13  C3  UNL     1       2.115  71.304 192.803  1.00  0.00     0.301 C 
HETATM   14  O2  UNL     1       1.831  72.331 193.461  1.00  0.00    -0.261 OA
BRANCH  13  15
HETATM   15  O1  UNL     1       1.122  70.383 192.559  1.00  0.00    -0.319 OA
BRANCH  15  16
HETATM   16  C2  UNL     1       0.135  70.455 191.571  1.00  0.00     0.174 C 
HETATM   17  C1  UNL     1       0.294  69.458 190.453  1.00  0.00     0.034 C 
ENDBRANCH  15  16
ENDBRANCH  13  15
ENDBRANCH   1  13
BRANCH   1  18
HETATM   18  O3  UNL     1       4.419  71.694 193.263  1.00  0.00    -0.372 OA
ATOM     19  H3  UNL     1       5.302  71.706 192.915  1.00  0.00     0.211 HD
ENDBRANCH   1  18
BRANCH   4  20
HETATM   20  O4  UNL     1       4.260  66.279 193.457  1.00  0.00    -0.354 OA
HETATM   21  C8  UNL     1       5.491  65.780 193.914  1.00  0.00     0.210 C 
ENDBRANCH   4  20
BRANCH   7  22
HETATM   22  O5  UNL     1       4.468  67.887 189.003  1.00  0.00    -0.357 OA
ATOM     23  H5  UNL     1       4.207  68.552 188.375  1.00  0.00     0.218 HD
ENDBRANCH   7  22
TORSDOF 6
ENDMDL
MODEL 3
REMARK VINA RESULT: -6.983556562      2.753      5.681
REMARK  6 active torsions:
REMARK  status: ('A' for Active; 'I' for Inactive)
REMARK    1  A    between atoms: C2_2  and  O1_3 
REMARK    2  A    between atoms: O1_3  and  C3_4 
REMARK    3  A    between atoms: C3_4  and  C4_6 
REMARK    4  A    between atoms: C4_6  and  O3_7 
REMARK    5  A    between atoms: C7_11  and  O4_12 
REMARK    6  A    between atoms: C10_16  and  O5_17 
ROOT
HETATM    1  C4  UNL     1       1.652  70.136 190.524  1.00  0.00     0.206 C 
HETATM    2  C5  UNL     1       2.287  68.784 190.658  1.00  0.00     0.028 A 
HETATM    3  C6  UNL     1       3.419  68.220 190.093  1.00  0.00     0.052 A 
HETATM    4  C7  UNL     1       3.824  66.930 190.355  1.00  0.00     0.089 A 
HETATM    5  C9  UNL     1       3.082  66.133 191.225  1.00  0.00     0.080 A 
HETATM    6 BR1  UNL     1       3.630  64.331 191.596  1.00  0.00    -0.045 Br
HETATM    7  C10 UNL     1       1.960  66.680 191.792  1.00  0.00     0.120 A 
HETATM    8  C11 UNL     1       1.558  67.997 191.516  1.00  0.00     0.114 A 
HETATM    9  O6  UNL     1       0.485  68.747 191.962  1.00  0.00    -0.333 OA
HETATM   10  C12 UNL     1       0.388  69.973 191.281  1.00  0.00     0.105 C 
HETATM   11  C13 UNL     1      -0.769  69.837 190.290  1.00  0.00     0.050 C 
HETATM   12  C14 UNL     1       0.084  71.127 192.200  1.00  0.00     0.050 C 
ENDROOT
BRANCH   1  13
HETATM   13  C3  UNL     1       2.572  71.142 191.129  1.00  0.00     0.301 C 
HETATM   14  O2  UNL     1       2.882  72.134 190.430  1.00  0.00    -0.261 OA
BRANCH  13  15
HETATM   15  O1  UNL     1       3.094  71.044 192.399  1.00  0.00    -0.319 OA
BRANCH  15  16
HETATM   16  C2  UNL     1       4.424  70.784 192.742  1.00  0.00     0.174 C 
HETATM   17  C1  UNL     1       4.646  69.467 193.436  1.00  0.00     0.034 C 
ENDBRANCH  15  16
ENDBRANCH  13  15
ENDBRANCH   1  13
BRANCH   1  18
HETATM   18  O3  UNL     1       1.416  70.425 189.175  1.00  0.00    -0.372 OA
ATOM     19  H3  UNL     1       0.535  70.759 189.050  1.00  0.00     0.211 HD
ENDBRANCH   1  18
BRANCH   4  20
HETATM   20  O4  UNL     1       4.942  66.356 189.803  1.00  0.00    -0.354 OA
HETATM   21  C8  UNL     1       5.139  66.260 188.416  1.00  0.00     0.210 C 
ENDBRANCH   4  20
BRANCH   7  22
HETATM   22  O5  UNL     1       1.193  65.910 192.669  1.00  0.00    -0.357 OA
ATOM     23  H5  UNL     1       0.250  66.024 192.683  1.00  0.00     0.218 HD
ENDBRANCH   7  22
TORSDOF 6
ENDMDL
MODEL 4
REMARK VINA RESULT: -6.921936700      4.585      7.357
REMARK  6 active torsions:
REMARK  status: ('A' for Active; 'I' for Inactive)
REMARK    1  A    between atoms: C2_2  and  O1_3 
REMARK    2  A    between atoms: O1_3  and  C3_4 
REMARK    3  A    between atoms: C3_4  and  C4_6 
REMARK    4  A    between atoms: C4_6  and  O3_7 
REMARK    5  A    between atoms: C7_11  and  O4_12 
REMARK    6  A    between atoms: C10_16  and  O5_17 
ROOT
HETATM    1  C4  UNL     1       1.945  64.805 189.867  1.00  0.00     0.206 C 
HETATM    2  C5  UNL     1       1.095  63.797 189.153  1.00  0.00     0.028 A 
HETATM    3  C6  UNL     1      -0.143  63.245 189.440  1.00  0.00     0.052 A 
HETATM    4  C7  UNL     1      -0.750  62.308 188.633  1.00  0.00     0.089 A 
HETATM    5  C9  UNL     1      -0.115  61.878 187.469  1.00  0.00     0.080 A 
HETATM    6 BR1  UNL     1      -0.946  60.569 186.337  1.00  0.00    -0.045 Br
HETATM    7  C10 UNL     1       1.110  62.418 187.174  1.00  0.00     0.120 A 
HETATM    8  C11 UNL     1       1.719  63.372 188.006  1.00  0.00     0.114 A 
HETATM    9  O6  UNL     1       2.924  64.043 187.911  1.00  0.00    -0.333 OA
HETATM   10  C12 UNL     1       3.198  64.787 189.073  1.00  0.00     0.105 C 
HETATM   11  C13 UNL     1       4.265  64.015 189.850  1.00  0.00     0.050 C 
HETATM   12  C14 UNL     1       3.738  66.160 188.771  1.00  0.00     0.050 C 
ENDROOT
BRANCH   1  13
HETATM   13  C3  UNL     1       1.241  66.120 189.820  1.00  0.00     0.301 C 
HETATM   14  O2  UNL     1       1.303  66.843 190.842  1.00  0.00    -0.261 OA
BRANCH  13  15
HETATM   15  O1  UNL     1       0.537  66.579 188.731  1.00  0.00    -0.319 OA
BRANCH  15  16
HETATM   16  C2  UNL     1       0.659  67.829 188.118  1.00  0.00     0.174 C 
HETATM   17  C1  UNL     1      -0.341  68.854 188.581  1.00  0.00     0.034 C 
ENDBRANCH  15  16
ENDBRANCH  13  15
ENDBRANCH   1  13
BRANCH   1  18
HETATM   18  O3  UNL     1       2.163  64.403 191.189  1.00  0.00    -0.372 OA
ATOM     19  H3  UNL     1       1.886  65.078 191.798  1.00  0.00     0.211 HD
ENDBRANCH   1  18
BRANCH   4  20
HETATM   20  O4  UNL     1      -1.975  61.750 188.903  1.00  0.00    -0.354 OA
HETATM   21  C8  UNL     1      -2.671  61.989 190.099  1.00  0.00     0.210 C 
ENDBRANCH   4  20
BRANCH   7  22
HETATM   22  O5  UNL     1       1.775  62.011 186.015  1.00  0.00    -0.357 OA
ATOM     23  H5  UNL     1       1.440  62.283 185.168  1.00  0.00     0.218 HD
ENDBRANCH   7  22
TORSDOF 6
ENDMDL
MODEL 5
REMARK VINA RESULT: -6.912524907      1.762      3.917
REMARK  6 active torsions:
REMARK  status: ('A' for Active; 'I' for Inactive)
REMARK    1  A    between atoms: C2_2  and  O1_3 
REMARK    2  A    between atoms: O1_3  and  C3_4 
REMARK    3  A    between atoms: C3_4  and  C4_6 
REMARK    4  A    between atoms: C4_6  and  O3_7 
REMARK    5  A    between atoms: C7_11  and  O4_12 
REMARK    6  A    between atoms: C10_16  and  O5_17 
ROOT
HETATM    1  C4  UNL     1       3.550  65.791 192.413  1.00  0.00     0.206 C 
HETATM    2  C5  UNL     1       3.528  67.203 191.910  1.00  0.00     0.028 A 
HETATM    3  C6  UNL     1       3.145  68.400 192.493  1.00  0.00     0.052 A 
HETATM    4  C7  UNL     1       3.201  69.606 191.832  1.00  0.00     0.089 A 
HETATM    5  C9  UNL     1       3.659  69.657 190.516  1.00  0.00     0.080 A 
HETATM    6 BR1  UNL     1       3.738  71.331 189.579  1.00  0.00    -0.045 Br
HETATM    7  C10 UNL     1       4.042  68.479 189.929  1.00  0.00     0.120 A 
HETATM    8  C11 UNL     1       3.980  67.255 190.614  1.00  0.00     0.114 A 
HETATM    9  O6  UNL     1       4.308  65.967 190.232  1.00  0.00    -0.333 OA
HETATM   10  C12 UNL     1       3.917  65.023 191.199  1.00  0.00     0.105 C 
HETATM   11  C13 UNL     1       2.669  64.326 190.657  1.00  0.00     0.050 C 
HETATM   12  C14 UNL     1       4.970  63.975 191.446  1.00  0.00     0.050 C 
ENDROOT
BRANCH   1  13
HETATM   13  C3  UNL     1       4.574  65.701 193.495  1.00  0.00     0.301 C 
HETATM   14  O2  UNL     1       4.327  64.942 194.461  1.00  0.00    -0.261 OA
BRANCH  13  15
HETATM   15  O1  UNL     1       5.761  66.397 193.492  1.00  0.00    -0.319 OA
BRANCH  15  16
HETATM   16  C2  UNL     1       6.976  65.985 194.047  1.00  0.00     0.174 C 
HETATM   17  C1  UNL     1       7.981  65.479 193.046  1.00  0.00     0.034 C 
ENDBRANCH  15  16
ENDBRANCH  13  15
ENDBRANCH   1  13
BRANCH   1  18
HETATM   18  O3  UNL     1       2.286  65.430 192.893  1.00  0.00    -0.372 OA
ATOM     19  H3  UNL     1       1.759  65.047 192.202  1.00  0.00     0.211 HD
ENDBRANCH   1  18
BRANCH   4  20
HETATM   20  O4  UNL     1       2.825  70.801 192.395  1.00  0.00    -0.354 OA
HETATM   21  C8  UNL     1       1.614  70.966 193.087  1.00  0.00     0.210 C 
ENDBRANCH   4  20
BRANCH   7  22
HETATM   22  O5  UNL     1       4.508  68.493 188.612  1.00  0.00    -0.357 OA
ATOM     23  H5  UNL     1       5.287  68.994 188.400  1.00  0.00     0.218 HD
ENDBRANCH   7  22
TORSDOF 6
ENDMDL
