MODEL 1
REMARK VINA RESULT: -9.021280310      0.000      0.000
REMARK  5 active torsions:
REMARK  status: ('A' for Active; 'I' for Inactive)
REMARK    1  A    between atoms: C2_2  and  O1_5 
REMARK    2  A    between atoms: O1_5  and  C5_6 
REMARK       I    between atoms: C5_6  and  N1_8 
REMARK    3  A    between atoms: N2_12  and  C9_13 
REMARK    4  A    between atoms: C11_17  and  C12_18 
REMARK    5  A    between atoms: N5_20  and  O3_22 
ROOT
HETATM    1  C5  UNL     1       3.143  70.184 188.464  1.00  0.00     0.363 C 
HETATM    2  O2  UNL     1       2.475  70.787 187.596  1.00  0.00    -0.238 OA
HETATM    3  N1  UNL     1       2.980  68.786 188.626  1.00  0.00    -0.326 N 
HETATM    4  C6  UNL     1       3.829  68.258 189.670  1.00  0.00     0.129 C 
HETATM    5  C7  UNL     1       3.201  67.089 190.393  1.00  0.00     0.040 C 
HETATM    6  C8  UNL     1       3.460  65.868 189.497  1.00  0.00     0.126 C 
HETATM    7  N2  UNL     1       2.381  65.900 188.526  1.00  0.00    -0.364 N 
HETATM    8  C15 UNL     1       2.171  66.782 187.431  1.00  0.00     0.144 C 
HETATM    9  C16 UNL     1       2.024  68.218 187.732  1.00  0.00     0.148 C 
ENDROOT
BRANCH   7  10
HETATM   10  C9  UNL     1       1.414  64.855 188.756  1.00  0.00     0.125 A 
HETATM   11  N3  UNL     1       0.552  65.001 189.751  1.00  0.00    -0.350 N 
HETATM   12  C10 UNL     1      -0.388  64.050 190.030  1.00  0.00     0.104 A 
ATOM     13  H3  UNL     1       0.591  65.845 190.323  1.00  0.00     0.166 HD
HETATM   14  C11 UNL     1      -0.446  62.921 189.271  1.00  0.00     0.024 A 
HETATM   15  C13 UNL     1       0.446  62.777 188.246  1.00  0.00     0.044 A 
HETATM   16  C14 UNL     1       1.408  63.739 187.951  1.00  0.00     0.078 A 
HETATM   17 CL1  UNL     1       2.525  63.509 186.626  1.00  0.00    -0.080 Cl
BRANCH  14  18
HETATM   18  C12 UNL     1      -1.457  61.913 189.580  1.00  0.00     0.147 C 
HETATM   19  N4  UNL     1      -1.873  61.793 190.931  1.00  0.00    -0.080 NA
HETATM   20  N5  UNL     1      -1.952  61.162 188.667  1.00  0.00    -0.255 N 
ATOM     21  H5  UNL     1      -1.650  61.253 187.697  1.00  0.00     0.195 HD
BRANCH  20  22
HETATM   22  O3  UNL     1      -2.898  60.236 189.024  1.00  0.00    -0.288 OA
ATOM     23  H3  UNL     1      -3.815  60.463 188.923  1.00  0.00     0.244 HD
ENDBRANCH  20  22
ENDBRANCH  14  18
ENDBRANCH   7  10
BRANCH   1  24
HETATM   24  O1  UNL     1       4.019  70.957 189.222  1.00  0.00    -0.294 OA
BRANCH  24  25
HETATM   25  C2  UNL     1       3.544  71.855 190.223  1.00  0.00     0.061 C 
HETATM   26  C1  UNL     1       4.650  71.912 191.283  1.00  0.00     0.046 C 
HETATM   27  C3  UNL     1       3.339  73.243 189.708  1.00  0.00     0.046 C 
HETATM   28  C4  UNL     1       2.262  71.356 190.842  1.00  0.00     0.046 C 
ENDBRANCH  24  25
ENDBRANCH   1  24
TORSDOF 5
ENDMDL
MODEL 2
REMARK VINA RESULT: -8.785216135      2.069      2.460
REMARK  5 active torsions:
REMARK  status: ('A' for Active; 'I' for Inactive)
REMARK    1  A    between atoms: C2_2  and  O1_5 
REMARK    2  A    between atoms: O1_5  and  C5_6 
REMARK       I    between atoms: C5_6  and  N1_8 
REMARK    3  A    between atoms: N2_12  and  C9_13 
REMARK    4  A    between atoms: C11_17  and  C12_18 
REMARK    5  A    between atoms: N5_20  and  O3_22 
ROOT
HETATM    1  C5  UNL     1       2.193  68.853 190.615  1.00  0.00     0.363 C 
HETATM    2  O2  UNL     1       1.847  69.684 189.747  1.00  0.00    -0.238 OA
HETATM    3  N1  UNL     1       2.054  67.468 190.351  1.00  0.00    -0.326 N 
HETATM    4  C6  UNL     1       2.502  66.656 191.461  1.00  0.00     0.129 C 
HETATM    5  C7  UNL     1       1.719  65.371 191.594  1.00  0.00     0.040 C 
HETATM    6  C8  UNL     1       2.341  64.406 190.573  1.00  0.00     0.126 C 
HETATM    7  N2  UNL     1       1.678  64.729 189.322  1.00  0.00    -0.364 N 
HETATM    8  C15 UNL     1       1.826  65.868 188.484  1.00  0.00     0.144 C 
HETATM    9  C16 UNL     1       1.509  67.186 189.063  1.00  0.00     0.148 C 
ENDROOT
BRANCH   7  10
HETATM   10  C9  UNL     1       0.746  63.703 188.923  1.00  0.00     0.125 A 
HETATM   11  N3  UNL     1      -0.334  63.509 189.664  1.00  0.00    -0.350 N 
HETATM   12  C10 UNL     1      -1.256  62.552 189.347  1.00  0.00     0.104 A 
ATOM     13  H3  UNL     1      -0.481  64.088 190.491  1.00  0.00     0.166 HD
HETATM   14  C11 UNL     1      -1.066  61.774 188.245  1.00  0.00     0.024 A 
HETATM   15  C13 UNL     1       0.050  61.981 187.486  1.00  0.00     0.044 A 
HETATM   16  C14 UNL     1       0.997  62.953 187.796  1.00  0.00     0.078 A 
HETATM   17 CL1  UNL     1       2.408  63.182 186.790  1.00  0.00    -0.080 Cl
BRANCH  14  18
HETATM   18  C12 UNL     1      -2.061  60.755 187.918  1.00  0.00     0.147 C 
HETATM   19  N4  UNL     1      -2.818  60.211 188.988  1.00  0.00    -0.080 NA
HETATM   20  N5  UNL     1      -2.246  60.366 186.712  1.00  0.00    -0.255 N 
ATOM     21  H5  UNL     1      -1.699  60.761 185.947  1.00  0.00     0.195 HD
BRANCH  20  22
HETATM   22  O3  UNL     1      -3.196  59.406 186.473  1.00  0.00    -0.288 OA
ATOM     23  H3  UNL     1      -3.259  59.040 185.599  1.00  0.00     0.244 HD
ENDBRANCH  20  22
ENDBRANCH  14  18
ENDBRANCH   7  10
BRANCH   1  24
HETATM   24  O1  UNL     1       2.701  69.370 191.804  1.00  0.00    -0.294 OA
BRANCH  24  25
HETATM   25  C2  UNL     1       1.846  69.932 192.798  1.00  0.00     0.061 C 
HETATM   26  C1  UNL     1       2.345  69.372 194.134  1.00  0.00     0.046 C 
HETATM   27  C3  UNL     1       1.940  71.422 192.869  1.00  0.00     0.046 C 
HETATM   28  C4  UNL     1       0.410  69.530 192.574  1.00  0.00     0.046 C 
ENDBRANCH  24  25
ENDBRANCH   1  24
TORSDOF 5
ENDMDL
MODEL 3
REMARK VINA RESULT: -8.714357742      2.117      2.445
REMARK  5 active torsions:
REMARK  status: ('A' for Active; 'I' for Inactive)
REMARK    1  A    between atoms: C2_2  and  O1_5 
REMARK    2  A    between atoms: O1_5  and  C5_6 
REMARK       I    between atoms: C5_6  and  N1_8 
REMARK    3  A    between atoms: N2_12  and  C9_13 
REMARK    4  A    between atoms: C11_17  and  C12_18 
REMARK    5  A    between atoms: N5_20  and  O3_22 
ROOT
HETATM    1  C5  UNL     1       1.553  68.852 191.032  1.00  0.00     0.363 C 
HETATM    2  O2  UNL     1       0.974  69.719 190.341  1.00  0.00    -0.238 OA
HETATM    3  N1  UNL     1       1.546  67.500 190.608  1.00  0.00    -0.326 N 
HETATM    4  C6  UNL     1       2.261  66.640 191.525  1.00  0.00     0.129 C 
HETATM    5  C7  UNL     1       1.673  65.250 191.595  1.00  0.00     0.040 C 
HETATM    6  C8  UNL     1       2.240  64.505 190.377  1.00  0.00     0.126 C 
HETATM    7  N2  UNL     1       1.352  64.870 189.287  1.00  0.00    -0.364 N 
HETATM    8  C15 UNL     1       1.225  66.105 188.596  1.00  0.00     0.144 C 
HETATM    9  C16 UNL     1       0.843  67.291 189.385  1.00  0.00     0.148 C 
ENDROOT
BRANCH   7  10
HETATM   10  C9  UNL     1       0.503  63.774 188.890  1.00  0.00     0.125 A 
HETATM   11  N3  UNL     1      -0.608  63.555 189.578  1.00  0.00    -0.350 N 
HETATM   12  C10 UNL     1      -1.456  62.533 189.260  1.00  0.00     0.104 A 
ATOM     13  H3  UNL     1      -0.836  64.166 190.363  1.00  0.00     0.166 HD
HETATM   14  C11 UNL     1      -1.160  61.714 188.214  1.00  0.00     0.024 A 
HETATM   15  C13 UNL     1      -0.012  61.946 187.510  1.00  0.00     0.044 A 
HETATM   16  C14 UNL     1       0.861  62.984 187.822  1.00  0.00     0.078 A 
HETATM   17 CL1  UNL     1       2.315  63.242 186.886  1.00  0.00    -0.080 Cl
BRANCH  14  18
HETATM   18  C12 UNL     1      -2.077  60.625 187.886  1.00  0.00     0.147 C 
HETATM   19  N4  UNL     1      -2.565  59.833 188.957  1.00  0.00    -0.080 NA
HETATM   20  N5  UNL     1      -2.430  60.392 186.676  1.00  0.00    -0.255 N 
ATOM     21  H5  UNL     1      -2.077  60.965 185.910  1.00  0.00     0.195 HD
BRANCH  20  22
HETATM   22  O3  UNL     1      -3.294  59.355 186.436  1.00  0.00    -0.288 OA
ATOM     23  H3  UNL     1      -3.226  58.890 185.610  1.00  0.00     0.244 HD
ENDBRANCH  20  22
ENDBRANCH  14  18
ENDBRANCH   7  10
BRANCH   1  24
HETATM   24  O1  UNL     1       2.175  69.298 192.195  1.00  0.00    -0.294 OA
BRANCH  24  25
HETATM   25  C2  UNL     1       3.407  70.016 192.154  1.00  0.00     0.061 C 
HETATM   26  C1  UNL     1       4.301  69.361 193.212  1.00  0.00     0.046 C 
HETATM   27  C3  UNL     1       4.103  69.899 190.837  1.00  0.00     0.046 C 
HETATM   28  C4  UNL     1       3.201  71.474 192.484  1.00  0.00     0.046 C 
ENDBRANCH  24  25
ENDBRANCH   1  24
TORSDOF 5
ENDMDL
MODEL 4
REMARK VINA RESULT: -8.627051321      3.914      8.050
REMARK  5 active torsions:
REMARK  status: ('A' for Active; 'I' for Inactive)
REMARK    1  A    between atoms: C2_2  and  O1_5 
REMARK    2  A    between atoms: O1_5  and  C5_6 
REMARK       I    between atoms: C5_6  and  N1_8 
REMARK    3  A    between atoms: N2_12  and  C9_13 
REMARK    4  A    between atoms: C11_17  and  C12_18 
REMARK    5  A    between atoms: N5_20  and  O3_22 
ROOT
HETATM    1  C5  UNL     1       2.235  63.816 188.723  1.00  0.00     0.363 C 
HETATM    2  O2  UNL     1       1.077  63.352 188.623  1.00  0.00    -0.238 OA
HETATM    3  N1  UNL     1       2.495  64.854 189.651  1.00  0.00    -0.326 N 
HETATM    4  C6  UNL     1       3.881  65.265 189.631  1.00  0.00     0.129 C 
HETATM    5  C7  UNL     1       4.055  66.734 189.936  1.00  0.00     0.040 C 
HETATM    6  C8  UNL     1       3.993  66.845 191.466  1.00  0.00     0.126 C 
HETATM    7  N2  UNL     1       2.574  66.909 191.765  1.00  0.00    -0.364 N 
HETATM    8  C15 UNL     1       1.586  65.889 191.700  1.00  0.00     0.144 C 
HETATM    9  C16 UNL     1       1.343  65.258 190.390  1.00  0.00     0.148 C 
ENDROOT
BRANCH   7  10
HETATM   10  C9  UNL     1       2.169  68.227 192.188  1.00  0.00     0.125 A 
HETATM   11  N3  UNL     1       2.405  68.588 193.440  1.00  0.00    -0.350 N 
HETATM   12  C10 UNL     1       2.045  69.819 193.910  1.00  0.00     0.104 A 
ATOM     13  H3  UNL     1       2.867  67.930 194.069  1.00  0.00     0.166 HD
HETATM   14  C11 UNL     1       1.428  70.702 193.078  1.00  0.00     0.024 A 
HETATM   15  C13 UNL     1       1.188  70.323 191.788  1.00  0.00     0.044 A 
HETATM   16  C14 UNL     1       1.550  69.072 191.295  1.00  0.00     0.078 A 
HETATM   17 CL1  UNL     1       1.224  68.636 189.634  1.00  0.00    -0.080 Cl
BRANCH  14  18
HETATM   18  C12 UNL     1       1.049  72.015 193.595  1.00  0.00     0.147 C 
HETATM   19  N4  UNL     1       0.436  72.923 192.694  1.00  0.00    -0.080 NA
HETATM   20  N5  UNL     1       1.260  72.337 194.817  1.00  0.00    -0.255 N 
ATOM     21  H5  UNL     1       1.701  71.680 195.461  1.00  0.00     0.195 HD
BRANCH  20  22
HETATM   22  O3  UNL     1       0.881  73.585 195.239  1.00  0.00    -0.288 OA
ATOM     23  H3  UNL     1      -0.039  73.743 195.415  1.00  0.00     0.244 HD
ENDBRANCH  20  22
ENDBRANCH  14  18
ENDBRANCH   7  10
BRANCH   1  24
HETATM   24  O1  UNL     1       3.201  63.258 187.890  1.00  0.00    -0.294 OA
BRANCH  24  25
HETATM   25  C2  UNL     1       3.170  63.452 186.477  1.00  0.00     0.061 C 
HETATM   26  C1  UNL     1       4.620  63.288 186.008  1.00  0.00     0.046 C 
HETATM   27  C3  UNL     1       2.346  62.427 185.768  1.00  0.00     0.046 C 
HETATM   28  C4  UNL     1       2.668  64.831 186.126  1.00  0.00     0.046 C 
ENDBRANCH  24  25
ENDBRANCH   1  24
TORSDOF 5
ENDMDL
MODEL 5
REMARK VINA RESULT: -8.488488752      3.473      4.627
REMARK  5 active torsions:
REMARK  status: ('A' for Active; 'I' for Inactive)
REMARK    1  A    between atoms: C2_2  and  O1_5 
REMARK    2  A    between atoms: O1_5  and  C5_6 
REMARK       I    between atoms: C5_6  and  N1_8 
REMARK    3  A    between atoms: N2_12  and  C9_13 
REMARK    4  A    between atoms: C11_17  and  C12_18 
REMARK    5  A    between atoms: N5_20  and  O3_22 
ROOT
HETATM    1  C5  UNL     1       2.735  68.854 191.067  1.00  0.00     0.363 C 
HETATM    2  O2  UNL     1       3.773  68.661 191.738  1.00  0.00    -0.238 OA
HETATM    3  N1  UNL     1       2.260  67.837 190.204  1.00  0.00    -0.326 N 
HETATM    4  C6  UNL     1       1.053  68.231 189.511  1.00  0.00     0.129 C 
HETATM    5  C7  UNL     1       0.954  67.629 188.129  1.00  0.00     0.040 C 
HETATM    6  C8  UNL     1       0.424  66.204 188.342  1.00  0.00     0.126 C 
HETATM    7  N2  UNL     1       1.609  65.420 188.642  1.00  0.00    -0.364 N 
HETATM    8  C15 UNL     1       2.411  65.403 189.816  1.00  0.00     0.144 C 
HETATM    9  C16 UNL     1       3.069  66.662 190.211  1.00  0.00     0.148 C 
ENDROOT
BRANCH   7  10
HETATM   10  C9  UNL     1       1.972  64.548 187.553  1.00  0.00     0.125 A 
HETATM   11  N3  UNL     1       2.793  65.011 186.622  1.00  0.00    -0.350 N 
HETATM   12  C10 UNL     1       3.176  64.242 185.560  1.00  0.00     0.104 A 
ATOM     13  H3  UNL     1       3.148  65.964 186.700  1.00  0.00     0.166 HD
HETATM   14  C11 UNL     1       2.706  62.968 185.448  1.00  0.00     0.024 A 
HETATM   15  C13 UNL     1       1.860  62.499 186.412  1.00  0.00     0.044 A 
HETATM   16  C14 UNL     1       1.462  63.271 187.500  1.00  0.00     0.078 A 
HETATM   17 CL1  UNL     1       0.381  62.622 188.710  1.00  0.00    -0.080 Cl
BRANCH  14  18
HETATM   18  C12 UNL     1       3.125  62.158 184.307  1.00  0.00     0.147 C 
HETATM   19  N4  UNL     1       2.313  61.048 183.957  1.00  0.00    -0.080 NA
HETATM   20  N5  UNL     1       4.186  62.436 183.644  1.00  0.00    -0.255 N 
ATOM     21  H5  UNL     1       4.766  63.235 183.900  1.00  0.00     0.195 HD
BRANCH  20  22
HETATM   22  O3  UNL     1       4.523  61.636 182.584  1.00  0.00    -0.288 OA
ATOM     23  H3  UNL     1       4.474  62.000 181.708  1.00  0.00     0.244 HD
ENDBRANCH  20  22
ENDBRANCH  14  18
ENDBRANCH   7  10
BRANCH   1  24
HETATM   24  O1  UNL     1       2.112  70.089 191.229  1.00  0.00    -0.294 OA
BRANCH  24  25
HETATM   25  C2  UNL     1       1.253  70.352 192.337  1.00  0.00     0.061 C 
HETATM   26  C1  UNL     1      -0.038  70.913 191.732  1.00  0.00     0.046 C 
HETATM   27  C3  UNL     1       0.896  69.118 193.101  1.00  0.00     0.046 C 
HETATM   28  C4  UNL     1       1.865  71.363 193.274  1.00  0.00     0.046 C 
ENDBRANCH  24  25
ENDBRANCH   1  24
TORSDOF 5
ENDMDL
