MODEL 1
REMARK VINA RESULT: -7.321212500      0.000      0.000
REMARK  6 active torsions:
REMARK  status: ('A' for Active; 'I' for Inactive)
REMARK    1  A    between atoms: C2_2  and  N1_3 
REMARK    2  A    between atoms: C3_4  and  N2_5 
REMARK    3  A    between atoms: N2_5  and  N3_7 
REMARK    4  A    between atoms: C4_9  and  O1_11 
REMARK    5  A    between atoms: O1_11  and  C6_12 
REMARK    6  A    between atoms: C6_12  and  C7_14 
ROOT
HETATM    1  N1  UNL     1       1.285  63.201 188.242  1.00  0.00    -0.145 N 
HETATM    2  C3  UNL     1       0.940  63.722 189.433  1.00  0.00     0.702 A 
HETATM    3  N4  UNL     1      -0.219  63.375 190.045  1.00  0.00    -0.193 N 
ATOM      4  H4  UNL     1      -0.440  63.796 190.947  1.00  0.00     0.184 HD
HETATM    5  C9  UNL     1      -1.090  62.499 189.510  1.00  0.00     0.045 A 
HETATM    6  C10 UNL     1      -2.368  62.124 190.197  1.00  0.00     0.070 C 
HETATM    7  C11 UNL     1      -0.754  61.953 188.289  1.00  0.00     0.102 A 
HETATM    8 BR1  UNL     1      -1.927  60.696 187.445  1.00  0.00    -0.043 Br
HETATM    9  C12 UNL     1       0.433  62.320 187.681  1.00  0.00     0.281 A 
HETATM   10  O2  UNL     1       0.764  61.842 186.574  1.00  0.00    -0.266 OA
ENDROOT
BRANCH   2  11
HETATM   11  N2  UNL     1       1.712  64.557 190.000  1.00  0.00    -0.130 N 
ATOM     12  H2  UNL     1       2.716  64.434 189.870  1.00  0.00     0.205 HD
BRANCH  11  13
HETATM   13  N3  UNL     1       1.292  65.627 190.784  1.00  0.00    -0.269 N 
HETATM   14  C4  UNL     1       1.776  65.723 191.974  1.00  0.00     0.136 C 
HETATM   15  C5  UNL     1       2.751  64.741 192.515  1.00  0.00     0.099 C 
ATOM     16  H3  UNL     1       0.624  66.311 190.430  1.00  0.00     0.189 HD
BRANCH  14  17
HETATM   17  O1  UNL     1       1.348  66.793 192.739  1.00  0.00    -0.285 OA
BRANCH  17  18
HETATM   18  C6  UNL     1       1.853  68.046 192.469  1.00  0.00     0.144 C 
HETATM   19  S1  UNL     1       3.422  68.309 192.100  1.00  0.00    -0.052 SA
BRANCH  18  20
HETATM   20  C7  UNL     1       0.937  69.186 192.519  1.00  0.00     0.061 C 
HETATM   21  C8  UNL     1       0.322  69.616 191.435  1.00  0.00     0.088 C 
HETATM   22 CL1  UNL     1       0.516  68.900 189.857  1.00  0.00    -0.097 Cl
ENDBRANCH  18  20
ENDBRANCH  17  18
ENDBRANCH  14  17
ENDBRANCH  11  13
ENDBRANCH   2  11
BRANCH   1  23
HETATM   23  C2  UNL     1       2.514  63.607 187.657  1.00  0.00     0.146 C 
HETATM   24  C1  UNL     1       2.408  64.696 186.636  1.00  0.00     0.027 C 
ENDBRANCH   1  23
TORSDOF 6
ENDMDL
MODEL 2
REMARK VINA RESULT: -7.278064266      1.548      1.632
REMARK  6 active torsions:
REMARK  status: ('A' for Active; 'I' for Inactive)
REMARK    1  A    between atoms: C2_2  and  N1_3 
REMARK    2  A    between atoms: C3_4  and  N2_5 
REMARK    3  A    between atoms: N2_5  and  N3_7 
REMARK    4  A    between atoms: C4_9  and  O1_11 
REMARK    5  A    between atoms: O1_11  and  C6_12 
REMARK    6  A    between atoms: C6_12  and  C7_14 
ROOT
HETATM    1  N1  UNL     1       1.400  63.529 189.146  1.00  0.00    -0.145 N 
HETATM    2  C3  UNL     1       0.890  63.794 190.362  1.00  0.00     0.702 A 
HETATM    3  N4  UNL     1      -0.332  63.337 190.729  1.00  0.00    -0.193 N 
ATOM      4  H4  UNL     1      -0.680  63.563 191.660  1.00  0.00     0.184 HD
HETATM    5  C9  UNL     1      -1.106  62.596 189.914  1.00  0.00     0.045 A 
HETATM    6  C10 UNL     1      -2.456  62.095 190.332  1.00  0.00     0.070 C 
HETATM    7  C11 UNL     1      -0.601  62.312 188.662  1.00  0.00     0.102 A 
HETATM    8 BR1  UNL     1      -1.625  61.265 187.428  1.00  0.00    -0.043 Br
HETATM    9  C12 UNL     1       0.648  62.788 188.307  1.00  0.00     0.281 A 
HETATM   10  O2  UNL     1       1.133  62.548 187.180  1.00  0.00    -0.266 OA
ENDROOT
BRANCH   2  11
HETATM   11  N2  UNL     1       1.563  64.489 191.187  1.00  0.00    -0.130 N 
ATOM     12  H2  UNL     1       2.545  64.247 191.314  1.00  0.00     0.205 HD
BRANCH  11  13
HETATM   13  N3  UNL     1       1.061  65.554 191.929  1.00  0.00    -0.269 N 
HETATM   14  C4  UNL     1       1.863  66.523 192.201  1.00  0.00     0.136 C 
HETATM   15  C5  UNL     1       3.279  66.531 191.752  1.00  0.00     0.099 C 
ATOM     16  H3  UNL     1       0.092  65.566 192.245  1.00  0.00     0.189 HD
BRANCH  14  17
HETATM   17  O1  UNL     1       1.347  67.574 192.939  1.00  0.00    -0.285 OA
BRANCH  17  18
HETATM   18  C6  UNL     1       1.334  68.833 192.381  1.00  0.00     0.144 C 
HETATM   19  S1  UNL     1       0.704  69.143 190.907  1.00  0.00    -0.052 SA
BRANCH  18  20
HETATM   20  C7  UNL     1       1.914  69.936 193.149  1.00  0.00     0.061 C 
HETATM   21  C8  UNL     1       3.081  70.455 192.824  1.00  0.00     0.088 C 
HETATM   22 CL1  UNL     1       4.048  69.911 191.479  1.00  0.00    -0.097 Cl
ENDBRANCH  18  20
ENDBRANCH  17  18
ENDBRANCH  14  17
ENDBRANCH  11  13
ENDBRANCH   2  11
BRANCH   1  23
HETATM   23  C2  UNL     1       2.687  64.039 188.827  1.00  0.00     0.146 C 
HETATM   24  C1  UNL     1       2.695  65.340 188.087  1.00  0.00     0.027 C 
ENDBRANCH   1  23
TORSDOF 6
ENDMDL
MODEL 3
REMARK VINA RESULT: -7.263843806      1.276      1.540
REMARK  6 active torsions:
REMARK  status: ('A' for Active; 'I' for Inactive)
REMARK    1  A    between atoms: C2_2  and  N1_3 
REMARK    2  A    between atoms: C3_4  and  N2_5 
REMARK    3  A    between atoms: N2_5  and  N3_7 
REMARK    4  A    between atoms: C4_9  and  O1_11 
REMARK    5  A    between atoms: O1_11  and  C6_12 
REMARK    6  A    between atoms: C6_12  and  C7_14 
ROOT
HETATM    1  N1  UNL     1       1.257  63.166 188.263  1.00  0.00    -0.145 N 
HETATM    2  C3  UNL     1       0.903  63.664 189.462  1.00  0.00     0.702 A 
HETATM    3  N4  UNL     1      -0.263  63.310 190.055  1.00  0.00    -0.193 N 
ATOM      4  H4  UNL     1      -0.491  63.712 190.964  1.00  0.00     0.184 HD
HETATM    5  C9  UNL     1      -1.133  62.449 189.494  1.00  0.00     0.045 A 
HETATM    6  C10 UNL     1      -2.419  62.065 190.162  1.00  0.00     0.070 C 
HETATM    7  C11 UNL     1      -0.788  61.927 188.265  1.00  0.00     0.102 A 
HETATM    8 BR1  UNL     1      -1.959  60.694 187.384  1.00  0.00    -0.043 Br
HETATM    9  C12 UNL     1       0.406  62.301 187.676  1.00  0.00     0.281 A 
HETATM   10  O2  UNL     1       0.745  61.845 186.562  1.00  0.00    -0.266 OA
ENDROOT
BRANCH   2  11
HETATM   11  N2  UNL     1       1.674  64.483 190.053  1.00  0.00    -0.130 N 
ATOM     12  H2  UNL     1       2.679  64.323 189.976  1.00  0.00     0.205 HD
BRANCH  11  13
HETATM   13  N3  UNL     1       1.252  65.581 190.796  1.00  0.00    -0.269 N 
HETATM   14  C4  UNL     1       1.764  65.743 191.967  1.00  0.00     0.136 C 
HETATM   15  C5  UNL     1       2.772  64.807 192.528  1.00  0.00     0.099 C 
ATOM     16  H3  UNL     1       0.561  66.234 190.427  1.00  0.00     0.189 HD
BRANCH  14  17
HETATM   17  O1  UNL     1       1.332  66.840 192.691  1.00  0.00    -0.285 OA
BRANCH  17  18
HETATM   18  C6  UNL     1       1.852  68.079 192.391  1.00  0.00     0.144 C 
HETATM   19  S1  UNL     1       1.236  69.041 191.224  1.00  0.00    -0.052 SA
BRANCH  18  20
HETATM   20  C7  UNL     1       3.010  68.548 193.155  1.00  0.00     0.061 C 
HETATM   21  C8  UNL     1       4.236  68.399 192.696  1.00  0.00     0.088 C 
HETATM   22 CL1  UNL     1       4.621  67.651 191.169  1.00  0.00    -0.097 Cl
ENDBRANCH  18  20
ENDBRANCH  17  18
ENDBRANCH  14  17
ENDBRANCH  11  13
ENDBRANCH   2  11
BRANCH   1  23
HETATM   23  C2  UNL     1       2.493  63.578 187.698  1.00  0.00     0.146 C 
HETATM   24  C1  UNL     1       2.398  64.667 186.675  1.00  0.00     0.027 C 
ENDBRANCH   1  23
TORSDOF 6
ENDMDL
MODEL 4
REMARK VINA RESULT: -7.212748791      2.498      3.290
REMARK  6 active torsions:
REMARK  status: ('A' for Active; 'I' for Inactive)
REMARK    1  A    between atoms: C2_2  and  N1_3 
REMARK    2  A    between atoms: C3_4  and  N2_5 
REMARK    3  A    between atoms: N2_5  and  N3_7 
REMARK    4  A    between atoms: C4_9  and  O1_11 
REMARK    5  A    between atoms: O1_11  and  C6_12 
REMARK    6  A    between atoms: C6_12  and  C7_14 
ROOT
HETATM    1  N1  UNL     1       1.060  63.587 189.125  1.00  0.00    -0.145 N 
HETATM    2  C3  UNL     1       0.436  63.867 190.283  1.00  0.00     0.702 A 
HETATM    3  N4  UNL     1      -0.759  63.307 190.593  1.00  0.00    -0.193 N 
ATOM      4  H4  UNL     1      -1.196  63.549 191.482  1.00  0.00     0.184 HD
HETATM    5  C9  UNL     1      -1.394  62.447 189.775  1.00  0.00     0.045 A 
HETATM    6  C10 UNL     1      -2.715  61.835 190.129  1.00  0.00     0.070 C 
HETATM    7  C11 UNL     1      -0.771  62.147 188.581  1.00  0.00     0.102 A 
HETATM    8 BR1  UNL     1      -1.592  60.934 187.348  1.00  0.00    -0.043 Br
HETATM    9  C12 UNL     1       0.449  62.728 188.284  1.00  0.00     0.281 A 
HETATM   10  O2  UNL     1       1.038  62.476 187.210  1.00  0.00    -0.266 OA
ENDROOT
BRANCH   2  11
HETATM   11  N2  UNL     1       0.974  64.671 191.107  1.00  0.00    -0.130 N 
ATOM     12  H2  UNL     1       0.709  65.654 191.047  1.00  0.00     0.205 HD
BRANCH  11  13
HETATM   13  N3  UNL     1       1.897  64.312 192.085  1.00  0.00    -0.269 N 
HETATM   14  C4  UNL     1       2.744  65.204 192.464  1.00  0.00     0.136 C 
HETATM   15  C5  UNL     1       2.759  66.577 191.895  1.00  0.00     0.099 C 
ATOM     16  H3  UNL     1       1.903  63.375 192.487  1.00  0.00     0.189 HD
BRANCH  14  17
HETATM   17  O1  UNL     1       3.654  64.830 193.436  1.00  0.00    -0.285 OA
BRANCH  17  18
HETATM   18  C6  UNL     1       4.944  64.530 193.057  1.00  0.00     0.144 C 
HETATM   19  S1  UNL     1       5.313  63.876 191.607  1.00  0.00    -0.052 SA
BRANCH  18  20
HETATM   20  C7  UNL     1       6.026  64.812 194.002  1.00  0.00     0.061 C 
HETATM   21  C8  UNL     1       6.645  65.975 194.003  1.00  0.00     0.088 C 
HETATM   22 CL1  UNL     1       6.264  67.283 192.915  1.00  0.00    -0.097 Cl
ENDBRANCH  18  20
ENDBRANCH  17  18
ENDBRANCH  14  17
ENDBRANCH  11  13
ENDBRANCH   2  11
BRANCH   1  23
HETATM   23  C2  UNL     1       2.311  64.207 188.863  1.00  0.00     0.146 C 
HETATM   24  C1  UNL     1       2.246  65.459 188.046  1.00  0.00     0.027 C 
ENDBRANCH   1  23
TORSDOF 6
ENDMDL
MODEL 5
REMARK VINA RESULT: -7.182062374      1.216      1.292
REMARK  6 active torsions:
REMARK  status: ('A' for Active; 'I' for Inactive)
REMARK    1  A    between atoms: C2_2  and  N1_3 
REMARK    2  A    between atoms: C3_4  and  N2_5 
REMARK    3  A    between atoms: N2_5  and  N3_7 
REMARK    4  A    between atoms: C4_9  and  O1_11 
REMARK    5  A    between atoms: O1_11  and  C6_12 
REMARK    6  A    between atoms: C6_12  and  C7_14 
ROOT
HETATM    1  N1  UNL     1       1.220  62.853 187.863  1.00  0.00    -0.145 N 
HETATM    2  C3  UNL     1       0.751  63.271 189.053  1.00  0.00     0.702 A 
HETATM    3  N4  UNL     1      -0.452  62.860 189.521  1.00  0.00    -0.193 N 
ATOM      4  H4  UNL     1      -0.767  63.203 190.428  1.00  0.00     0.184 HD
HETATM    5  C9  UNL     1      -1.249  62.016 188.837  1.00  0.00     0.045 A 
HETATM    6  C10 UNL     1      -2.578  61.569 189.366  1.00  0.00     0.070 C 
HETATM    7  C11 UNL     1      -0.787  61.576 187.614  1.00  0.00     0.102 A 
HETATM    8 BR1  UNL     1      -1.846  60.374 186.565  1.00  0.00    -0.043 Br
HETATM    9  C12 UNL     1       0.444  62.008 187.155  1.00  0.00     0.281 A 
HETATM   10  O2  UNL     1       0.890  61.626 186.051  1.00  0.00    -0.266 OA
ENDROOT
BRANCH   2  11
HETATM   11  N2  UNL     1       1.448  64.069 189.755  1.00  0.00    -0.130 N 
ATOM     12  H2  UNL     1       2.344  63.730 190.105  1.00  0.00     0.205 HD
BRANCH  11  13
HETATM   13  N3  UNL     1       1.081  65.371 190.084  1.00  0.00    -0.269 N 
HETATM   14  C4  UNL     1       1.571  65.876 191.162  1.00  0.00     0.136 C 
HETATM   15  C5  UNL     1       2.498  65.119 192.043  1.00  0.00     0.099 C 
ATOM     16  H3  UNL     1       0.446  65.906 189.492  1.00  0.00     0.189 HD
BRANCH  14  17
HETATM   17  O1  UNL     1       1.195  67.170 191.473  1.00  0.00    -0.285 OA
BRANCH  17  18
HETATM   18  C6  UNL     1       1.551  68.188 190.616  1.00  0.00     0.144 C 
HETATM   19  S1  UNL     1       3.086  68.427 190.112  1.00  0.00    -0.052 SA
BRANCH  18  20
HETATM   20  C7  UNL     1       0.503  69.092 190.142  1.00  0.00     0.061 C 
HETATM   21  C8  UNL     1      -0.068  68.919 188.967  1.00  0.00     0.088 C 
HETATM   22 CL1  UNL     1       0.342  67.631 187.865  1.00  0.00    -0.097 Cl
ENDBRANCH  18  20
ENDBRANCH  17  18
ENDBRANCH  14  17
ENDBRANCH  11  13
ENDBRANCH   2  11
BRANCH   1  23
HETATM   23  C2  UNL     1       2.489  63.323 187.433  1.00  0.00     0.146 C 
HETATM   24  C1  UNL     1       2.457  64.506 186.517  1.00  0.00     0.027 C 
ENDBRANCH   1  23
TORSDOF 6
ENDMDL
