MODEL 1
REMARK VINA RESULT: -7.375299700      0.000      0.000
REMARK  10 active torsions:
REMARK  status: ('A' for Active; 'I' for Inactive)
REMARK    1  A    between atoms: C2_2  and  C3_4 
REMARK    2  A    between atoms: C4_8  and  C5_9 
REMARK    3  A    between atoms: C5_9  and  N3_10 
REMARK    4  A    between atoms: N3_10  and  C6_12 
REMARK    5  A    between atoms: C7_13  and  C8_14 
REMARK    6  A    between atoms: C8_14  and  N4_15 
REMARK    7  A    between atoms: C8_14  and  O2_19 
REMARK    8  A    between atoms: C11_29  and  N8_30 
REMARK    9  A    between atoms: N8_30  and  O3_32 
REMARK   10  A    between atoms: C15_41  and  O5_42 
ROOT
HETATM    1  C6  UNL     1      12.030 -54.232   5.419  1.00  0.00     0.086 A 
HETATM    2  C7  UNL     1      12.583 -54.356   6.660  1.00  0.00     0.096 A 
HETATM    3  N5  UNL     1      13.921 -54.149   6.830  1.00  0.00    -0.339 N 
ATOM      4  H5  UNL     1      14.318 -54.246   7.766  1.00  0.00     0.167 HD
HETATM    5  C9  UNL     1      14.736 -53.825   5.814  1.00  0.00     0.126 A 
HETATM    6  N6  UNL     1      16.008 -53.629   5.976  1.00  0.00    -0.384 N 
ATOM      7  H61 UNL     1      16.627 -53.382   5.203  1.00  0.00     0.157 HD
ATOM      8  H62 UNL     1      16.413 -53.724   6.907  1.00  0.00     0.157 HD
HETATM    9  C10 UNL     1      14.189 -53.696   4.553  1.00  0.00     0.120 A 
HETATM   10  N7  UNL     1      15.028 -53.356   3.473  1.00  0.00    -0.096 NA
HETATM   11  C11 UNL     1      12.820 -53.903   4.356  1.00  0.00     0.110 A 
ENDROOT
BRANCH   1  12
HETATM   12  N3  UNL     1      10.650 -54.446   5.243  1.00  0.00    -0.379 N 
ATOM     13  H3  UNL     1      10.016 -53.673   5.444  1.00  0.00     0.160 HD
BRANCH  12  14
HETATM   14  C5  UNL     1      10.080 -55.693   4.797  1.00  0.00     0.199 C 
BRANCH  14  15
HETATM   15  C4  UNL     1       8.847 -55.383   4.005  1.00  0.00     0.136 A 
HETATM   16  N2  UNL     1       7.645 -55.253   4.595  1.00  0.00    -0.232 N 
HETATM   17  N1  UNL     1       7.353 -55.367   5.901  1.00  0.00    -0.286 N 
HETATM   18  C14 UNL     1       6.524 -54.974   3.904  1.00  0.00     0.163 A 
HETATM   19  C3  UNL     1       6.035 -55.162   6.058  1.00  0.00     0.130 A 
ATOM     20  H1  UNL     1       8.018 -55.574   6.646  1.00  0.00     0.188 HD
HETATM   21  C15 UNL     1       5.493 -54.913   4.816  1.00  0.00     0.132 A 
HETATM   22  C13 UNL     1       6.652 -54.824   2.538  1.00  0.00     0.293 A 
HETATM   23  N10 UNL     1       7.845 -54.949   1.920  1.00  0.00    -0.259 N 
HETATM   24  O4  UNL     1       5.636 -54.564   1.848  1.00  0.00    -0.264 OA
HETATM   25  N9  UNL     1       8.904 -55.224   2.663  1.00  0.00    -0.281 N 
HETATM   26  C12 UNL     1       7.933 -54.782   0.470  1.00  0.00     0.181 C 
ATOM     27  H9  UNL     1       9.808 -55.320   2.200  1.00  0.00     0.188 HD
BRANCH  19  28
HETATM   28  C2  UNL     1       5.250 -55.183   7.294  1.00  0.00     0.176 C 
HETATM   29  C1  UNL     1       5.989 -54.949   8.570  1.00  0.00     0.098 C 
HETATM   30  O1  UNL     1       4.018 -55.386   7.302  1.00  0.00    -0.291 OA
ENDBRANCH  19  28
BRANCH  21  31
HETATM   31  O5  UNL     1       4.168 -54.646   4.488  1.00  0.00    -0.356 OA
ATOM     32  H5  UNL     1       3.691 -54.895   3.705  1.00  0.00     0.218 HD
ENDBRANCH  21  31
ENDBRANCH  14  15
ENDBRANCH  12  14
ENDBRANCH   1  12
BRANCH   2  33
HETATM   33  C8  UNL     1      11.806 -54.709   7.887  1.00  0.00     0.369 C 
BRANCH  33  34
HETATM   34  N4  UNL     1      12.691 -54.596   9.005  1.00  0.00    -0.047 N 
ATOM     35  H43 UNL     1      13.589 -54.178   8.760  1.00  0.00     0.277 HD
ATOM     36  H42 UNL     1      12.393 -53.889   9.677  1.00  0.00     0.277 HD
ATOM     37  H41 UNL     1      12.784 -55.523   9.418  1.00  0.00     0.277 HD
ENDBRANCH  33  34
BRANCH  33  38
HETATM   38  O2  UNL     1      10.704 -53.865   8.041  1.00  0.00    -0.365 OA
ATOM     39  H2  UNL     1      10.193 -54.109   8.804  1.00  0.00     0.212 HD
ENDBRANCH  33  38
ENDBRANCH   2  33
BRANCH  11  40
HETATM   40  N8  UNL     1      12.280 -53.764   3.036  1.00  0.00    -0.265 N 
ATOM     41  H8  UNL     1      12.681 -54.253   2.236  1.00  0.00     0.194 HD
BRANCH  40  42
HETATM   42  O3  UNL     1      11.294 -53.013   2.919  1.00  0.00    -0.289 OA
ATOM     43  H3  UNL     1      10.759 -53.137   2.144  1.00  0.00     0.244 HD
ENDBRANCH  40  42
ENDBRANCH  11  40
TORSDOF 10
ENDMDL
MODEL 2
REMARK VINA RESULT: -7.322702786      2.310      3.344
REMARK  10 active torsions:
REMARK  status: ('A' for Active; 'I' for Inactive)
REMARK    1  A    between atoms: C2_2  and  C3_4 
REMARK    2  A    between atoms: C4_8  and  C5_9 
REMARK    3  A    between atoms: C5_9  and  N3_10 
REMARK    4  A    between atoms: N3_10  and  C6_12 
REMARK    5  A    between atoms: C7_13  and  C8_14 
REMARK    6  A    between atoms: C8_14  and  N4_15 
REMARK    7  A    between atoms: C8_14  and  O2_19 
REMARK    8  A    between atoms: C11_29  and  N8_30 
REMARK    9  A    between atoms: N8_30  and  O3_32 
REMARK   10  A    between atoms: C15_41  and  O5_42 
ROOT
HETATM    1  C6  UNL     1      13.056 -54.860   8.117  1.00  0.00     0.086 A 
HETATM    2  C7  UNL     1      13.076 -55.101   9.459  1.00  0.00     0.096 A 
HETATM    3  N5  UNL     1      14.168 -55.692  10.027  1.00  0.00    -0.339 N 
ATOM      4  H5  UNL     1      14.165 -55.865  11.033  1.00  0.00     0.167 HD
HETATM    5  C9  UNL     1      15.245 -56.055   9.312  1.00  0.00     0.126 A 
HETATM    6  N6  UNL     1      16.282 -56.617   9.851  1.00  0.00    -0.384 N 
ATOM      7  H61 UNL     1      17.100 -56.892   9.308  1.00  0.00     0.157 HD
ATOM      8  H62 UNL     1      16.288 -56.794  10.855  1.00  0.00     0.157 HD
HETATM    9  C10 UNL     1      15.237 -55.816   7.953  1.00  0.00     0.120 A 
HETATM   10  N7  UNL     1      16.359 -56.189   7.184  1.00  0.00    -0.096 NA
HETATM   11  C11 UNL     1      14.129 -55.211   7.351  1.00  0.00     0.110 A 
ENDROOT
BRANCH   1  12
HETATM   12  N3  UNL     1      11.930 -54.252   7.532  1.00  0.00    -0.379 N 
ATOM     13  H3  UNL     1      12.006 -53.276   7.245  1.00  0.00     0.160 HD
BRANCH  12  14
HETATM   14  C5  UNL     1      10.674 -54.926   7.315  1.00  0.00     0.199 C 
BRANCH  14  15
HETATM   15  C4  UNL     1      10.348 -54.843   5.855  1.00  0.00     0.136 A 
HETATM   16  N2  UNL     1       9.215 -55.367   5.355  1.00  0.00    -0.232 N 
HETATM   17  N1  UNL     1       8.242 -56.011   6.020  1.00  0.00    -0.286 N 
HETATM   18  C14 UNL     1       8.901 -55.304   4.047  1.00  0.00     0.163 A 
HETATM   19  C3  UNL     1       7.293 -56.367   5.140  1.00  0.00     0.130 A 
ATOM     20  H1  UNL     1       8.227 -56.197   7.023  1.00  0.00     0.188 HD
HETATM   21  C15 UNL     1       7.686 -55.934   3.892  1.00  0.00     0.132 A 
HETATM   22  C13 UNL     1       9.804 -54.668   3.218  1.00  0.00     0.293 A 
HETATM   23  N10 UNL     1      10.948 -54.134   3.692  1.00  0.00    -0.259 N 
HETATM   24  O4  UNL     1       9.558 -54.584   1.989  1.00  0.00    -0.264 OA
HETATM   25  N9  UNL     1      11.190 -54.234   4.988  1.00  0.00    -0.281 N 
HETATM   26  C12 UNL     1      11.874 -53.471   2.775  1.00  0.00     0.181 C 
ATOM     27  H9  UNL     1      12.054 -53.832   5.352  1.00  0.00     0.188 HD
BRANCH  19  28
HETATM   28  C2  UNL     1       6.042 -57.087   5.390  1.00  0.00     0.176 C 
HETATM   29  C1  UNL     1       5.127 -56.518   6.422  1.00  0.00     0.098 C 
HETATM   30  O1  UNL     1       5.737 -58.132   4.778  1.00  0.00    -0.291 OA
ENDBRANCH  19  28
BRANCH  21  31
HETATM   31  O5  UNL     1       7.023 -56.077   2.679  1.00  0.00    -0.356 OA
ATOM     32  H5  UNL     1       7.091 -55.536   1.900  1.00  0.00     0.218 HD
ENDBRANCH  21  31
ENDBRANCH  14  15
ENDBRANCH  12  14
ENDBRANCH   1  12
BRANCH   2  33
HETATM   33  C8  UNL     1      11.955 -54.754  10.385  1.00  0.00     0.369 C 
BRANCH  33  34
HETATM   34  N4  UNL     1      12.261 -55.319  11.663  1.00  0.00    -0.047 N 
ATOM     35  H43 UNL     1      13.212 -55.685  11.719  1.00  0.00     0.277 HD
ATOM     36  H42 UNL     1      12.345 -54.617  12.398  1.00  0.00     0.277 HD
ATOM     37  H41 UNL     1      11.551 -56.023  11.866  1.00  0.00     0.277 HD
ENDBRANCH  33  34
BRANCH  33  38
HETATM   38  O2  UNL     1      11.798 -53.370  10.481  1.00  0.00    -0.365 OA
ATOM     39  H2  UNL     1      12.121 -52.936   9.700  1.00  0.00     0.212 HD
ENDBRANCH  33  38
ENDBRANCH   2  33
BRANCH  11  40
HETATM   40  N8  UNL     1      14.149 -54.975   5.937  1.00  0.00    -0.265 N 
ATOM     41  H8  UNL     1      14.174 -55.742   5.264  1.00  0.00     0.194 HD
BRANCH  40  42
HETATM   42  O3  UNL     1      14.135 -53.785   5.575  1.00  0.00    -0.289 OA
ATOM     43  H3  UNL     1      13.323 -53.311   5.715  1.00  0.00     0.244 HD
ENDBRANCH  40  42
ENDBRANCH  11  40
TORSDOF 10
ENDMDL
MODEL 3
REMARK VINA RESULT: -7.207121306      0.874      3.326
REMARK  10 active torsions:
REMARK  status: ('A' for Active; 'I' for Inactive)
REMARK    1  A    between atoms: C2_2  and  C3_4 
REMARK    2  A    between atoms: C4_8  and  C5_9 
REMARK    3  A    between atoms: C5_9  and  N3_10 
REMARK    4  A    between atoms: N3_10  and  C6_12 
REMARK    5  A    between atoms: C7_13  and  C8_14 
REMARK    6  A    between atoms: C8_14  and  N4_15 
REMARK    7  A    between atoms: C8_14  and  O2_19 
REMARK    8  A    between atoms: C11_29  and  N8_30 
REMARK    9  A    between atoms: N8_30  and  O3_32 
REMARK   10  A    between atoms: C15_41  and  O5_42 
ROOT
HETATM    1  C6  UNL     1      11.697 -54.214   5.467  1.00  0.00     0.086 A 
HETATM    2  C7  UNL     1      12.234 -54.369   6.712  1.00  0.00     0.096 A 
HETATM    3  N5  UNL     1      13.583 -54.253   6.888  1.00  0.00    -0.339 N 
ATOM      4  H5  UNL     1      13.967 -54.371   7.826  1.00  0.00     0.167 HD
HETATM    5  C9  UNL     1      14.422 -53.990   5.874  1.00  0.00     0.126 A 
HETATM    6  N6  UNL     1      15.704 -53.880   6.041  1.00  0.00    -0.384 N 
ATOM      7  H61 UNL     1      16.342 -53.681   5.271  1.00  0.00     0.157 HD
ATOM      8  H62 UNL     1      16.097 -53.998   6.975  1.00  0.00     0.157 HD
HETATM    9  C10 UNL     1      13.891 -53.832   4.610  1.00  0.00     0.120 A 
HETATM   10  N7  UNL     1      14.756 -53.554   3.532  1.00  0.00    -0.096 NA
HETATM   11  C11 UNL     1      12.512 -53.946   4.407  1.00  0.00     0.110 A 
ENDROOT
BRANCH   1  12
HETATM   12  N3  UNL     1      10.306 -54.335   5.286  1.00  0.00    -0.379 N 
ATOM     13  H3  UNL     1       9.753 -53.479   5.231  1.00  0.00     0.160 HD
BRANCH  12  14
HETATM   14  C5  UNL     1       9.616 -55.596   5.174  1.00  0.00     0.199 C 
BRANCH  14  15
HETATM   15  C4  UNL     1       8.191 -55.384   5.582  1.00  0.00     0.136 A 
HETATM   16  N2  UNL     1       7.208 -55.261   4.673  1.00  0.00    -0.232 N 
HETATM   17  N1  UNL     1       7.315 -55.303   3.335  1.00  0.00    -0.286 N 
HETATM   18  C14 UNL     1       5.920 -55.069   5.016  1.00  0.00     0.163 A 
HETATM   19  C3  UNL     1       6.091 -55.138   2.807  1.00  0.00     0.130 A 
ATOM     20  H1  UNL     1       8.179 -55.438   2.809  1.00  0.00     0.188 HD
HETATM   21  C15 UNL     1       5.198 -54.989   3.846  1.00  0.00     0.132 A 
HETATM   22  C13 UNL     1       5.636 -55.002   6.365  1.00  0.00     0.293 A 
HETATM   23  N10 UNL     1       6.602 -55.121   7.299  1.00  0.00    -0.259 N 
HETATM   24  O4  UNL     1       4.450 -54.823   6.737  1.00  0.00    -0.264 OA
HETATM   25  N9  UNL     1       7.845 -55.308   6.888  1.00  0.00    -0.281 N 
HETATM   26  C12 UNL     1       6.254 -55.043   8.717  1.00  0.00     0.181 C 
ATOM     27  H9  UNL     1       8.579 -55.399   7.591  1.00  0.00     0.188 HD
BRANCH  19  28
HETATM   28  C2  UNL     1       5.703 -55.111   1.395  1.00  0.00     0.176 C 
HETATM   29  C1  UNL     1       6.439 -56.025   0.473  1.00  0.00     0.098 C 
HETATM   30  O1  UNL     1       4.800 -54.364   0.963  1.00  0.00    -0.291 OA
ENDBRANCH  19  28
BRANCH  21  31
HETATM   31  O5  UNL     1       3.823 -54.793   3.782  1.00  0.00    -0.356 OA
ATOM     32  H5  UNL     1       3.332 -53.993   3.934  1.00  0.00     0.218 HD
ENDBRANCH  21  31
ENDBRANCH  14  15
ENDBRANCH  12  14
ENDBRANCH   1  12
BRANCH   2  33
HETATM   33  C8  UNL     1      11.429 -54.662   7.937  1.00  0.00     0.369 C 
BRANCH  33  34
HETATM   34  N4  UNL     1      12.305 -54.559   9.062  1.00  0.00    -0.047 N 
ATOM     35  H43 UNL     1      12.362 -53.612   9.437  1.00  0.00     0.277 HD
ATOM     36  H42 UNL     1      11.933 -55.011   9.898  1.00  0.00     0.277 HD
ATOM     37  H41 UNL     1      13.212 -54.930   8.781  1.00  0.00     0.277 HD
ENDBRANCH  33  34
BRANCH  33  38
HETATM   38  O2  UNL     1      10.361 -53.771   8.058  1.00  0.00    -0.365 OA
ATOM     39  H2  UNL     1       9.532 -54.234   8.073  1.00  0.00     0.212 HD
ENDBRANCH  33  38
ENDBRANCH   2  33
BRANCH  11  40
HETATM   40  N8  UNL     1      11.988 -53.777   3.084  1.00  0.00    -0.265 N 
ATOM     41  H8  UNL     1      11.452 -54.510   2.619  1.00  0.00     0.194 HD
BRANCH  40  42
HETATM   42  O3  UNL     1      12.224 -52.686   2.532  1.00  0.00    -0.289 OA
ATOM     43  H3  UNL     1      12.880 -52.694   1.844  1.00  0.00     0.244 HD
ENDBRANCH  40  42
ENDBRANCH  11  40
TORSDOF 10
ENDMDL
MODEL 4
REMARK VINA RESULT: -7.103955211      4.602      8.104
REMARK  10 active torsions:
REMARK  status: ('A' for Active; 'I' for Inactive)
REMARK    1  A    between atoms: C2_2  and  C3_4 
REMARK    2  A    between atoms: C4_8  and  C5_9 
REMARK    3  A    between atoms: C5_9  and  N3_10 
REMARK    4  A    between atoms: N3_10  and  C6_12 
REMARK    5  A    between atoms: C7_13  and  C8_14 
REMARK    6  A    between atoms: C8_14  and  N4_15 
REMARK    7  A    between atoms: C8_14  and  O2_19 
REMARK    8  A    between atoms: C11_29  and  N8_30 
REMARK    9  A    between atoms: N8_30  and  O3_32 
REMARK   10  A    between atoms: C15_41  and  O5_42 
ROOT
HETATM    1  C6  UNL     1      17.831 -56.869   8.400  1.00  0.00     0.086 A 
HETATM    2  C7  UNL     1      19.027 -57.086   7.780  1.00  0.00     0.096 A 
HETATM    3  N5  UNL     1      20.172 -57.160   8.521  1.00  0.00    -0.339 N 
ATOM      4  H5  UNL     1      21.057 -57.323   8.041  1.00  0.00     0.167 HD
HETATM    5  C9  UNL     1      20.176 -57.026   9.857  1.00  0.00     0.126 A 
HETATM    6  N6  UNL     1      21.263 -57.097  10.561  1.00  0.00    -0.384 N 
ATOM      7  H61 UNL     1      21.266 -56.995  11.576  1.00  0.00     0.157 HD
ATOM      8  H62 UNL     1      22.153 -57.259  10.090  1.00  0.00     0.157 HD
HETATM    9  C10 UNL     1      18.972 -56.807  10.495  1.00  0.00     0.120 A 
HETATM   10  N7  UNL     1      18.955 -56.665  11.898  1.00  0.00    -0.096 NA
HETATM   11  C11 UNL     1      17.787 -56.728   9.755  1.00  0.00     0.110 A 
ENDROOT
BRANCH   1  12
HETATM   12  N3  UNL     1      16.652 -56.791   7.635  1.00  0.00    -0.379 N 
ATOM     13  H3  UNL     1      16.067 -57.624   7.570  1.00  0.00     0.160 HD
BRANCH  12  14
HETATM   14  C5  UNL     1      16.223 -55.604   6.938  1.00  0.00     0.199 C 
BRANCH  14  15
HETATM   15  C4  UNL     1      14.817 -55.302   7.358  1.00  0.00     0.136 A 
HETATM   16  N2  UNL     1      13.911 -54.818   6.491  1.00  0.00    -0.232 N 
HETATM   17  N1  UNL     1      14.085 -54.539   5.188  1.00  0.00    -0.286 N 
HETATM   18  C14 UNL     1      12.642 -54.539   6.845  1.00  0.00     0.163 A 
HETATM   19  C3  UNL     1      12.925 -54.077   4.695  1.00  0.00     0.130 A 
ATOM     20  H1  UNL     1      14.952 -54.659   4.663  1.00  0.00     0.188 HD
HETATM   21  C15 UNL     1      12.003 -54.068   5.719  1.00  0.00     0.132 A 
HETATM   22  C13 UNL     1      12.296 -54.772   8.161  1.00  0.00     0.293 A 
HETATM   23  N10 UNL     1      13.184 -55.256   9.053  1.00  0.00    -0.259 N 
HETATM   24  O4  UNL     1      11.125 -54.526   8.542  1.00  0.00    -0.264 OA
HETATM   25  N9  UNL     1      14.413 -55.507   8.633  1.00  0.00    -0.281 N 
HETATM   26  C12 UNL     1      12.772 -55.486  10.436  1.00  0.00     0.181 C 
ATOM     27  H9  UNL     1      15.089 -55.873   9.304  1.00  0.00     0.188 HD
BRANCH  19  28
HETATM   28  C2  UNL     1      12.622 -53.644   3.330  1.00  0.00     0.176 C 
HETATM   29  C1  UNL     1      13.737 -53.028   2.552  1.00  0.00     0.098 C 
HETATM   30  O1  UNL     1      11.489 -53.774   2.821  1.00  0.00    -0.291 OA
ENDBRANCH  19  28
BRANCH  21  31
HETATM   31  O5  UNL     1      10.671 -53.670   5.680  1.00  0.00    -0.356 OA
ATOM     32  H5  UNL     1      10.110 -53.410   6.402  1.00  0.00     0.218 HD
ENDBRANCH  21  31
ENDBRANCH  14  15
ENDBRANCH  12  14
ENDBRANCH   1  12
BRANCH   2  33
HETATM   33  C8  UNL     1      19.183 -57.256   6.304  1.00  0.00     0.369 C 
BRANCH  33  34
HETATM   34  N4  UNL     1      19.660 -56.017   5.774  1.00  0.00    -0.047 N 
ATOM     35  H43 UNL     1      20.335 -55.557   6.386  1.00  0.00     0.277 HD
ATOM     36  H42 UNL     1      20.272 -56.138   4.967  1.00  0.00     0.277 HD
ATOM     37  H41 UNL     1      18.847 -55.435   5.572  1.00  0.00     0.277 HD
ENDBRANCH  33  34
BRANCH  33  38
HETATM   38  O2  UNL     1      20.071 -58.294   6.011  1.00  0.00    -0.365 OA
ATOM     39  H2  UNL     1      19.664 -58.940   5.446  1.00  0.00     0.212 HD
ENDBRANCH  33  38
ENDBRANCH   2  33
BRANCH  11  40
HETATM   40  N8  UNL     1      16.552 -56.498  10.445  1.00  0.00    -0.265 N 
ATOM     41  H8  UNL     1      15.953 -57.268  10.746  1.00  0.00     0.194 HD
BRANCH  40  42
HETATM   42  O3  UNL     1      16.250 -55.310  10.657  1.00  0.00    -0.289 OA
ATOM     43  H3  UNL     1      16.973 -54.699  10.738  1.00  0.00     0.244 HD
ENDBRANCH  40  42
ENDBRANCH  11  40
TORSDOF 10
ENDMDL
MODEL 5
REMARK VINA RESULT: -7.082510861      1.264      3.489
REMARK  10 active torsions:
REMARK  status: ('A' for Active; 'I' for Inactive)
REMARK    1  A    between atoms: C2_2  and  C3_4 
REMARK    2  A    between atoms: C4_8  and  C5_9 
REMARK    3  A    between atoms: C5_9  and  N3_10 
REMARK    4  A    between atoms: N3_10  and  C6_12 
REMARK    5  A    between atoms: C7_13  and  C8_14 
REMARK    6  A    between atoms: C8_14  and  N4_15 
REMARK    7  A    between atoms: C8_14  and  O2_19 
REMARK    8  A    between atoms: C11_29  and  N8_30 
REMARK    9  A    between atoms: N8_30  and  O3_32 
REMARK   10  A    between atoms: C15_41  and  O5_42 
ROOT
HETATM    1  C6  UNL     1      11.388 -54.334   5.935  1.00  0.00     0.086 A 
HETATM    2  C7  UNL     1      12.270 -54.467   6.967  1.00  0.00     0.096 A 
HETATM    3  N5  UNL     1      13.603 -54.269   6.750  1.00  0.00    -0.339 N 
ATOM      4  H5  UNL     1      14.248 -54.373   7.534  1.00  0.00     0.167 HD
HETATM    5  C9  UNL     1      14.097 -53.943   5.545  1.00  0.00     0.126 A 
HETATM    6  N6  UNL     1      15.364 -53.754   5.339  1.00  0.00    -0.384 N 
ATOM      7  H61 UNL     1      15.739 -53.506   4.424  1.00  0.00     0.157 HD
ATOM      8  H62 UNL     1      16.016 -53.857   6.117  1.00  0.00     0.157 HD
HETATM    9  C10 UNL     1      13.214 -53.804   4.493  1.00  0.00     0.120 A 
HETATM   10  N7  UNL     1      13.714 -53.461   3.219  1.00  0.00    -0.096 NA
HETATM   11  C11 UNL     1      11.844 -54.003   4.693  1.00  0.00     0.110 A 
ENDROOT
BRANCH   1  12
HETATM   12  N3  UNL     1      10.014 -54.540   6.159  1.00  0.00    -0.379 N 
ATOM     13  H3  UNL     1       9.439 -53.730   6.392  1.00  0.00     0.160 HD
BRANCH  12  14
HETATM   14  C5  UNL     1       9.370 -55.828   6.077  1.00  0.00     0.199 C 
BRANCH  14  15
HETATM   15  C4  UNL     1       7.919 -55.603   5.782  1.00  0.00     0.136 A 
HETATM   16  N2  UNL     1       7.423 -55.739   4.539  1.00  0.00    -0.232 N 
HETATM   17  N1  UNL     1       8.087 -56.077   3.421  1.00  0.00    -0.286 N 
HETATM   18  C14 UNL     1       6.123 -55.543   4.248  1.00  0.00     0.163 A 
HETATM   19  C3  UNL     1       7.214 -56.099   2.401  1.00  0.00     0.130 A 
ATOM     20  H1  UNL     1       9.085 -56.281   3.357  1.00  0.00     0.188 HD
HETATM   21  C15 UNL     1       5.972 -55.766   2.898  1.00  0.00     0.132 A 
HETATM   22  C13 UNL     1       5.296 -55.188   5.296  1.00  0.00     0.293 A 
HETATM   23  N10 UNL     1       5.765 -55.044   6.552  1.00  0.00    -0.259 N 
HETATM   24  O4  UNL     1       4.075 -54.993   5.077  1.00  0.00    -0.264 OA
HETATM   25  N9  UNL     1       7.054 -55.253   6.762  1.00  0.00    -0.281 N 
HETATM   26  C12 UNL     1       4.852 -54.667   7.629  1.00  0.00     0.181 C 
ATOM     27  H9  UNL     1       7.414 -55.145   7.711  1.00  0.00     0.188 HD
BRANCH  19  28
HETATM   28  C2  UNL     1       7.465 -56.411   0.992  1.00  0.00     0.176 C 
HETATM   29  C1  UNL     1       8.888 -56.419   0.544  1.00  0.00     0.098 C 
HETATM   30  O1  UNL     1       6.544 -56.660   0.187  1.00  0.00    -0.291 OA
ENDBRANCH  19  28
BRANCH  21  31
HETATM   31  O5  UNL     1       4.767 -55.661   2.213  1.00  0.00    -0.356 OA
ATOM     32  H5  UNL     1       3.946 -56.106   2.390  1.00  0.00     0.218 HD
ENDBRANCH  21  31
ENDBRANCH  14  15
ENDBRANCH  12  14
ENDBRANCH   1  12
BRANCH   2  33
HETATM   33  C8  UNL     1      11.872 -54.824   8.363  1.00  0.00     0.369 C 
BRANCH  33  34
HETATM   34  N4  UNL     1      13.069 -54.930   9.138  1.00  0.00    -0.047 N 
ATOM     35  H43 UNL     1      13.636 -55.740   8.884  1.00  0.00     0.277 HD
ATOM     36  H42 UNL     1      13.755 -54.210   8.911  1.00  0.00     0.277 HD
ATOM     37  H41 UNL     1      12.800 -54.926  10.122  1.00  0.00     0.277 HD
ENDBRANCH  33  34
BRANCH  33  38
HETATM   38  O2  UNL     1      11.018 -53.859   8.901  1.00  0.00    -0.365 OA
ATOM     39  H2  UNL     1      11.511 -53.126   9.252  1.00  0.00     0.212 HD
ENDBRANCH  33  38
ENDBRANCH   2  33
BRANCH  11  40
HETATM   40  N8  UNL     1      10.952 -53.853   3.582  1.00  0.00    -0.265 N 
ATOM     41  H8  UNL     1      10.589 -52.941   3.302  1.00  0.00     0.194 HD
BRANCH  40  42
HETATM   42  O3  UNL     1      10.643 -54.896   2.977  1.00  0.00    -0.289 OA
ATOM     43  H3  UNL     1       9.790 -54.904   2.559  1.00  0.00     0.244 HD
ENDBRANCH  40  42
ENDBRANCH  11  40
TORSDOF 10
ENDMDL
