MODEL 1
REMARK VINA RESULT: -8.177224762      0.000      0.000
REMARK  10 active torsions:
REMARK  status: ('A' for Active; 'I' for Inactive)
REMARK    1  A    between atoms: C4_7  and  O1_8 
REMARK    2  A    between atoms: O1_8  and  C5_9 
REMARK    3  A    between atoms: C5_9  and  C6_10 
REMARK    4  A    between atoms: C6_10  and  S1_11 
REMARK    5  A    between atoms: S1_11  and  C7_12 
REMARK    6  A    between atoms: C8_15  and  N4_16 
REMARK    7  A    between atoms: N6_21  and  N7_22 
REMARK    8  A    between atoms: C10_27  and  N9_28 
REMARK       I    between atoms: N9_28  and  C11_30 
REMARK       I    between atoms: C11_30  and  N11_34 
REMARK    9  A    between atoms: N11_34  and  N12_36 
REMARK   10  A    between atoms: N12_36  and  O4_38 
ROOT
HETATM    1  C1  UNL     1      15.109 -53.462   4.330  1.00  0.00     0.056 C 
HETATM    2  C2  UNL     1      13.752 -53.486   3.708  1.00  0.00     0.024 A 
HETATM    3  C3  UNL     1      13.606 -52.919   2.459  1.00  0.00     0.129 A 
HETATM    4  N1  UNL     1      14.698 -52.322   1.767  1.00  0.00    -0.082 NA
HETATM    5  N2  UNL     1      12.371 -52.954   1.918  1.00  0.00    -0.310 N 
ATOM      6  H2  UNL     1      12.241 -52.540   0.995  1.00  0.00     0.170 HD
HETATM    7  C4  UNL     1      11.319 -53.494   2.511  1.00  0.00     0.226 A 
HETATM    8  N8  UNL     1      11.485 -54.053   3.750  1.00  0.00    -0.307 N 
ATOM      9  H8  UNL     1      10.679 -54.473   4.213  1.00  0.00     0.171 HD
HETATM   10  C10 UNL     1      12.667 -54.070   4.376  1.00  0.00     0.133 A 
ENDROOT
BRANCH   7  11
HETATM   11  O1  UNL     1      10.041 -53.540   1.975  1.00  0.00    -0.321 OA
BRANCH  11  12
HETATM   12  C5  UNL     1       9.394 -54.796   1.917  1.00  0.00     0.189 C 
BRANCH  12  13
HETATM   13  C6  UNL     1       7.911 -54.507   1.963  1.00  0.00     0.109 C 
BRANCH  13  14
HETATM   14  S1  UNL     1       7.101 -55.807   2.936  1.00  0.00    -0.090 SA
BRANCH  14  15
HETATM   15  C7  UNL     1       6.674 -55.139   4.540  1.00  0.00     0.168 A 
HETATM   16  N3  UNL     1       7.224 -55.415   5.743  1.00  0.00    -0.314 N 
HETATM   17  C8  UNL     1       6.580 -54.673   6.661  1.00  0.00     0.219 A 
ATOM     18  H3  UNL     1       7.989 -56.067   5.922  1.00  0.00     0.170 HD
HETATM   19  C9  UNL     1       5.607 -53.912   6.050  1.00  0.00     0.190 A 
HETATM   20  N5  UNL     1       4.728 -53.010   6.699  1.00  0.00    -0.076 NA
HETATM   21  N6  UNL     1       5.691 -54.222   4.745  1.00  0.00    -0.222 N 
BRANCH  17  22
HETATM   22  N4  UNL     1       6.866 -54.683   8.048  1.00  0.00    -0.094 N 
HETATM   23  O2  UNL     1       7.356 -53.707   8.645  1.00  0.00    -0.530 OA
HETATM   24  O3  UNL     1       6.582 -55.841   8.762  1.00  0.00    -0.530 OA
ENDBRANCH  17  22
BRANCH  21  25
HETATM   25  N7  UNL     1       4.891 -53.686   3.749  1.00  0.00    -0.335 N 
ATOM     26  H72 UNL     1       5.101 -53.716   2.751  1.00  0.00     0.177 HD
ATOM     27  H71 UNL     1       4.007 -53.204   3.910  1.00  0.00     0.177 HD
ENDBRANCH  21  25
ENDBRANCH  14  15
ENDBRANCH  13  14
ENDBRANCH  12  13
ENDBRANCH  11  12
ENDBRANCH   7  11
BRANCH  10  28
HETATM   28  N9  UNL     1      12.842 -54.579   5.533  1.00  0.00    -0.175 N 
HETATM   29  C11 UNL     1      11.785 -54.814   6.434  1.00  0.00     0.693 C 
HETATM   30  N10 UNL     1      11.167 -53.822   6.968  1.00  0.00    -0.233 N 
HETATM   31  N11 UNL     1      11.356 -56.106   6.820  1.00  0.00    -0.113 N 
ATOM     32 2H10 UNL     1      11.477 -52.891   6.689  1.00  0.00     0.174 HD
ATOM     33 1H10 UNL     1      10.402 -53.992   7.620  1.00  0.00     0.174 HD
ATOM     34  H11 UNL     1      12.043 -56.857   6.883  1.00  0.00     0.207 HD
ATOM     35  H9  UNL     1      13.789 -54.826   5.819  1.00  0.00     0.186 HD
BRANCH  31  36
HETATM   36  N12 UNL     1      10.025 -56.381   7.115  1.00  0.00    -0.196 N 
ATOM     37  H12 UNL     1       9.461 -56.825   6.391  1.00  0.00     0.216 HD
BRANCH  36  38
HETATM   38  O4  UNL     1       9.474 -56.124   8.199  1.00  0.00    -0.274 OA
ATOM     39  H4  UNL     1       8.610 -55.739   8.288  1.00  0.00     0.246 HD
ENDBRANCH  36  38
ENDBRANCH  31  36
ENDBRANCH  10  28
TORSDOF 10
ENDMDL
MODEL 2
REMARK VINA RESULT: -8.049202387      1.337      1.821
REMARK  10 active torsions:
REMARK  status: ('A' for Active; 'I' for Inactive)
REMARK    1  A    between atoms: C4_7  and  O1_8 
REMARK    2  A    between atoms: O1_8  and  C5_9 
REMARK    3  A    between atoms: C5_9  and  C6_10 
REMARK    4  A    between atoms: C6_10  and  S1_11 
REMARK    5  A    between atoms: S1_11  and  C7_12 
REMARK    6  A    between atoms: C8_15  and  N4_16 
REMARK    7  A    between atoms: N6_21  and  N7_22 
REMARK    8  A    between atoms: C10_27  and  N9_28 
REMARK       I    between atoms: N9_28  and  C11_30 
REMARK       I    between atoms: C11_30  and  N11_34 
REMARK    9  A    between atoms: N11_34  and  N12_36 
REMARK   10  A    between atoms: N12_36  and  O4_38 
ROOT
HETATM    1  C1  UNL     1      14.463 -53.509   4.447  1.00  0.00     0.056 C 
HETATM    2  C2  UNL     1      13.144 -53.642   3.762  1.00  0.00     0.024 A 
HETATM    3  C3  UNL     1      13.029 -53.142   2.482  1.00  0.00     0.129 A 
HETATM    4  N1  UNL     1      14.120 -52.513   1.815  1.00  0.00    -0.082 NA
HETATM    5  N2  UNL     1      11.829 -53.276   1.883  1.00  0.00    -0.310 N 
ATOM      6  H2  UNL     1      11.722 -52.912   0.937  1.00  0.00     0.170 HD
HETATM    7  C4  UNL     1      10.780 -53.850   2.451  1.00  0.00     0.226 A 
HETATM    8  N8  UNL     1      10.914 -54.342   3.722  1.00  0.00    -0.307 N 
ATOM      9  H8  UNL     1      10.111 -54.787   4.164  1.00  0.00     0.171 HD
HETATM   10  C10 UNL     1      12.062 -54.259   4.404  1.00  0.00     0.133 A 
ENDROOT
BRANCH   7  11
HETATM   11  O1  UNL     1       9.536 -53.996   1.856  1.00  0.00    -0.321 OA
BRANCH  11  12
HETATM   12  C5  UNL     1       9.005 -55.303   1.748  1.00  0.00     0.189 C 
BRANCH  12  13
HETATM   13  C6  UNL     1       7.600 -55.143   1.217  1.00  0.00     0.109 C 
BRANCH  13  14
HETATM   14  S1  UNL     1       6.502 -56.247   2.149  1.00  0.00    -0.090 SA
BRANCH  14  15
HETATM   15  C7  UNL     1       6.254 -55.562   3.783  1.00  0.00     0.168 A 
HETATM   16  N3  UNL     1       6.113 -54.266   4.143  1.00  0.00    -0.314 N 
HETATM   17  C8  UNL     1       5.950 -54.234   5.477  1.00  0.00     0.219 A 
ATOM     18  H3  UNL     1       6.127 -53.461   3.516  1.00  0.00     0.170 HD
HETATM   19  C9  UNL     1       5.986 -55.514   5.985  1.00  0.00     0.190 A 
HETATM   20  N5  UNL     1       5.849 -55.871   7.350  1.00  0.00    -0.076 NA
HETATM   21  N6  UNL     1       6.174 -56.308   4.917  1.00  0.00    -0.222 N 
BRANCH  17  22
HETATM   22  N4  UNL     1       5.771 -53.052   6.236  1.00  0.00    -0.094 N 
HETATM   23  O2  UNL     1       6.610 -52.642   7.060  1.00  0.00    -0.530 OA
HETATM   24  O3  UNL     1       4.601 -52.327   6.043  1.00  0.00    -0.530 OA
ENDBRANCH  17  22
BRANCH  21  25
HETATM   25  N7  UNL     1       6.274 -57.689   4.962  1.00  0.00    -0.335 N 
ATOM     26  H72 UNL     1       5.484 -58.330   5.024  1.00  0.00     0.177 HD
ATOM     27  H71 UNL     1       7.151 -58.209   4.939  1.00  0.00     0.177 HD
ENDBRANCH  21  25
ENDBRANCH  14  15
ENDBRANCH  13  14
ENDBRANCH  12  13
ENDBRANCH  11  12
ENDBRANCH   7  11
BRANCH  10  28
HETATM   28  N9  UNL     1      12.206 -54.703   5.592  1.00  0.00    -0.175 N 
HETATM   29  C11 UNL     1      11.208 -54.588   6.579  1.00  0.00     0.693 C 
HETATM   30  N10 UNL     1      10.908 -53.431   7.052  1.00  0.00    -0.233 N 
HETATM   31  N11 UNL     1      10.505 -55.692   7.118  1.00  0.00    -0.113 N 
ATOM     32 2H10 UNL     1      11.415 -52.636   6.664  1.00  0.00     0.174 HD
ATOM     33 1H10 UNL     1      10.186 -53.348   7.768  1.00  0.00     0.174 HD
ATOM     34  H11 UNL     1      10.985 -56.587   7.209  1.00  0.00     0.207 HD
ATOM     35  H9  UNL     1      13.083 -55.163   5.837  1.00  0.00     0.186 HD
BRANCH  31  36
HETATM   36  N12 UNL     1       9.179 -55.591   7.526  1.00  0.00    -0.196 N 
ATOM     37  H12 UNL     1       8.615 -56.441   7.515  1.00  0.00     0.216 HD
BRANCH  36  38
HETATM   38  O4  UNL     1       8.635 -54.541   7.903  1.00  0.00    -0.274 OA
ATOM     39  H4  UNL     1       8.640 -54.220   8.798  1.00  0.00     0.246 HD
ENDBRANCH  36  38
ENDBRANCH  31  36
ENDBRANCH  10  28
TORSDOF 10
ENDMDL
MODEL 3
REMARK VINA RESULT: -7.718354236      2.269      2.879
REMARK  10 active torsions:
REMARK  status: ('A' for Active; 'I' for Inactive)
REMARK    1  A    between atoms: C4_7  and  O1_8 
REMARK    2  A    between atoms: O1_8  and  C5_9 
REMARK    3  A    between atoms: C5_9  and  C6_10 
REMARK    4  A    between atoms: C6_10  and  S1_11 
REMARK    5  A    between atoms: S1_11  and  C7_12 
REMARK    6  A    between atoms: C8_15  and  N4_16 
REMARK    7  A    between atoms: N6_21  and  N7_22 
REMARK    8  A    between atoms: C10_27  and  N9_28 
REMARK       I    between atoms: N9_28  and  C11_30 
REMARK       I    between atoms: C11_30  and  N11_34 
REMARK    9  A    between atoms: N11_34  and  N12_36 
REMARK   10  A    between atoms: N12_36  and  O4_38 
ROOT
HETATM    1  C1  UNL     1      15.581 -53.127   4.363  1.00  0.00     0.056 C 
HETATM    2  C2  UNL     1      14.148 -53.428   4.074  1.00  0.00     0.024 A 
HETATM    3  C3  UNL     1      13.711 -53.294   2.773  1.00  0.00     0.129 A 
HETATM    4  N1  UNL     1      14.580 -52.881   1.723  1.00  0.00    -0.082 NA
HETATM    5  N2  UNL     1      12.413 -53.573   2.537  1.00  0.00    -0.310 N 
ATOM      6  H2  UNL     1      12.070 -53.480   1.582  1.00  0.00     0.170 HD
HETATM    7  C4  UNL     1      11.559 -53.961   3.470  1.00  0.00     0.226 A 
HETATM    8  N8  UNL     1      12.013 -54.089   4.756  1.00  0.00    -0.307 N 
ATOM      9  H8  UNL     1      11.360 -54.390   5.480  1.00  0.00     0.171 HD
HETATM   10  C10 UNL     1      13.281 -53.836   5.097  1.00  0.00     0.133 A 
ENDROOT
BRANCH   7  11
HETATM   11  O1  UNL     1      10.221 -54.251   3.251  1.00  0.00    -0.321 OA
BRANCH  11  12
HETATM   12  C5  UNL     1       9.833 -54.634   1.946  1.00  0.00     0.189 C 
BRANCH  12  13
HETATM   13  C6  UNL     1       8.336 -54.440   1.879  1.00  0.00     0.109 C 
BRANCH  13  14
HETATM   14  S1  UNL     1       7.547 -55.675   2.951  1.00  0.00    -0.090 SA
BRANCH  14  15
HETATM   15  C7  UNL     1       6.979 -54.861   4.439  1.00  0.00     0.168 A 
HETATM   16  N3  UNL     1       5.829 -54.179   4.642  1.00  0.00    -0.314 N 
HETATM   17  C8  UNL     1       5.837 -53.747   5.915  1.00  0.00     0.219 A 
ATOM     18  H3  UNL     1       5.091 -54.022   3.955  1.00  0.00     0.170 HD
HETATM   19  C9  UNL     1       6.996 -54.150   6.541  1.00  0.00     0.190 A 
HETATM   20  N5  UNL     1       7.352 -53.879   7.885  1.00  0.00    -0.076 NA
HETATM   21  N6  UNL     1       7.677 -54.834   5.606  1.00  0.00    -0.222 N 
BRANCH  17  22
HETATM   22  N4  UNL     1       4.800 -52.988   6.513  1.00  0.00    -0.094 N 
HETATM   23  O2  UNL     1       4.437 -51.879   6.079  1.00  0.00    -0.530 OA
HETATM   24  O3  UNL     1       4.170 -53.519   7.632  1.00  0.00    -0.530 OA
ENDBRANCH  17  22
BRANCH  21  25
HETATM   25  N7  UNL     1       8.914 -55.426   5.799  1.00  0.00    -0.335 N 
ATOM     26  H72 UNL     1       9.812 -54.951   5.698  1.00  0.00     0.177 HD
ATOM     27  H71 UNL     1       9.058 -56.401   6.062  1.00  0.00     0.177 HD
ENDBRANCH  21  25
ENDBRANCH  14  15
ENDBRANCH  13  14
ENDBRANCH  12  13
ENDBRANCH  11  12
ENDBRANCH   7  11
BRANCH  10  28
HETATM   28  N9  UNL     1      13.722 -53.941   6.290  1.00  0.00    -0.175 N 
HETATM   29  C11 UNL     1      14.261 -55.136   6.805  1.00  0.00     0.693 C 
HETATM   30  N10 UNL     1      13.497 -56.150   7.002  1.00  0.00    -0.233 N 
HETATM   31  N11 UNL     1      15.624 -55.297   7.150  1.00  0.00    -0.113 N 
ATOM     32 2H10 UNL     1      12.514 -56.033   6.753  1.00  0.00     0.174 HD
ATOM     33 1H10 UNL     1      13.888 -57.015   7.375  1.00  0.00     0.174 HD
ATOM     34  H11 UNL     1      16.141 -54.496   7.512  1.00  0.00     0.207 HD
ATOM     35  H9  UNL     1      13.681 -53.123   6.898  1.00  0.00     0.186 HD
BRANCH  31  36
HETATM   36  N12 UNL     1      16.280 -56.516   7.010  1.00  0.00    -0.196 N 
ATOM     37  H12 UNL     1      16.030 -57.098   6.210  1.00  0.00     0.216 HD
BRANCH  36  38
HETATM   38  O4  UNL     1      17.147 -56.945   7.789  1.00  0.00    -0.274 OA
ATOM     39  H4  UNL     1      18.057 -57.090   7.557  1.00  0.00     0.246 HD
ENDBRANCH  36  38
ENDBRANCH  31  36
ENDBRANCH  10  28
TORSDOF 10
ENDMDL
MODEL 4
REMARK VINA RESULT: -7.682137780      2.013      2.395
REMARK  10 active torsions:
REMARK  status: ('A' for Active; 'I' for Inactive)
REMARK    1  A    between atoms: C4_7  and  O1_8 
REMARK    2  A    between atoms: O1_8  and  C5_9 
REMARK    3  A    between atoms: C5_9  and  C6_10 
REMARK    4  A    between atoms: C6_10  and  S1_11 
REMARK    5  A    between atoms: S1_11  and  C7_12 
REMARK    6  A    between atoms: C8_15  and  N4_16 
REMARK    7  A    between atoms: N6_21  and  N7_22 
REMARK    8  A    between atoms: C10_27  and  N9_28 
REMARK       I    between atoms: N9_28  and  C11_30 
REMARK       I    between atoms: C11_30  and  N11_34 
REMARK    9  A    between atoms: N11_34  and  N12_36 
REMARK   10  A    between atoms: N12_36  and  O4_38 
ROOT
HETATM    1  C1  UNL     1      15.274 -53.043   4.200  1.00  0.00     0.056 C 
HETATM    2  C2  UNL     1      13.840 -53.433   4.062  1.00  0.00     0.024 A 
HETATM    3  C3  UNL     1      13.268 -53.357   2.809  1.00  0.00     0.129 A 
HETATM    4  N1  UNL     1      14.002 -52.923   1.669  1.00  0.00    -0.082 NA
HETATM    5  N2  UNL     1      11.973 -53.717   2.711  1.00  0.00    -0.310 N 
ATOM      6  H2  UNL     1      11.531 -53.668   1.793  1.00  0.00     0.170 HD
HETATM    7  C4  UNL     1      11.240 -54.129   3.733  1.00  0.00     0.226 A 
HETATM    8  N8  UNL     1      11.826 -54.198   4.969  1.00  0.00    -0.307 N 
ATOM      9  H8  UNL     1      11.267 -54.517   5.760  1.00  0.00     0.171 HD
HETATM   10  C10 UNL     1      13.104 -53.864   5.175  1.00  0.00     0.133 A 
ENDROOT
BRANCH   7  11
HETATM   11  O1  UNL     1       9.906 -54.501   3.655  1.00  0.00    -0.321 OA
BRANCH  11  12
HETATM   12  C5  UNL     1       9.527 -55.389   2.621  1.00  0.00     0.189 C 
BRANCH  12  13
HETATM   13  C6  UNL     1       8.143 -54.966   2.190  1.00  0.00     0.109 C 
BRANCH  13  14
HETATM   14  S1  UNL     1       6.930 -56.029   3.023  1.00  0.00    -0.090 SA
BRANCH  14  15
HETATM   15  C7  UNL     1       6.560 -55.328   4.627  1.00  0.00     0.168 A 
HETATM   16  N3  UNL     1       7.076 -55.659   5.832  1.00  0.00    -0.314 N 
HETATM   17  C8  UNL     1       6.500 -54.862   6.749  1.00  0.00     0.219 A 
ATOM     18  H3  UNL     1       7.774 -56.381   6.012  1.00  0.00     0.170 HD
HETATM   19  C9  UNL     1       5.607 -54.010   6.137  1.00  0.00     0.190 A 
HETATM   20  N5  UNL     1       4.815 -53.030   6.784  1.00  0.00    -0.076 NA
HETATM   21  N6  UNL     1       5.668 -54.322   4.830  1.00  0.00    -0.222 N 
BRANCH  17  22
HETATM   22  N4  UNL     1       6.777 -54.903   8.137  1.00  0.00    -0.094 N 
HETATM   23  O2  UNL     1       6.540 -55.899   8.846  1.00  0.00    -0.530 OA
HETATM   24  O3  UNL     1       7.340 -53.774   8.721  1.00  0.00    -0.530 OA
ENDBRANCH  17  22
BRANCH  21  25
HETATM   25  N7  UNL     1       4.928 -53.709   3.832  1.00  0.00    -0.335 N 
ATOM     26  H72 UNL     1       5.277 -53.483   2.901  1.00  0.00     0.177 HD
ATOM     27  H71 UNL     1       3.955 -53.418   3.925  1.00  0.00     0.177 HD
ENDBRANCH  21  25
ENDBRANCH  14  15
ENDBRANCH  13  14
ENDBRANCH  12  13
ENDBRANCH  11  12
ENDBRANCH   7  11
BRANCH  10  28
HETATM   28  N9  UNL     1      13.667 -53.913   6.319  1.00  0.00    -0.175 N 
HETATM   29  C11 UNL     1      14.262 -55.083   6.832  1.00  0.00     0.693 C 
HETATM   30  N10 UNL     1      13.526 -56.086   7.153  1.00  0.00    -0.233 N 
HETATM   31  N11 UNL     1      15.654 -55.229   7.040  1.00  0.00    -0.113 N 
ATOM     32 2H10 UNL     1      12.522 -55.980   7.003  1.00  0.00     0.174 HD
ATOM     33 1H10 UNL     1      13.957 -56.933   7.524  1.00  0.00     0.174 HD
ATOM     34  H11 UNL     1      16.202 -54.411   7.309  1.00  0.00     0.207 HD
ATOM     35  H9  UNL     1      13.686 -53.068   6.889  1.00  0.00     0.186 HD
BRANCH  31  36
HETATM   36  N12 UNL     1      16.296 -56.453   6.890  1.00  0.00    -0.196 N 
ATOM     37  H12 UNL     1      16.039 -57.027   6.087  1.00  0.00     0.216 HD
BRANCH  36  38
HETATM   38  O4  UNL     1      17.160 -56.897   7.664  1.00  0.00    -0.274 OA
ATOM     39  H4  UNL     1      17.908 -56.403   7.979  1.00  0.00     0.246 HD
ENDBRANCH  36  38
ENDBRANCH  31  36
ENDBRANCH  10  28
TORSDOF 10
ENDMDL
MODEL 5
REMARK VINA RESULT: -7.431438336      1.760      2.495
REMARK  10 active torsions:
REMARK  status: ('A' for Active; 'I' for Inactive)
REMARK    1  A    between atoms: C4_7  and  O1_8 
REMARK    2  A    between atoms: O1_8  and  C5_9 
REMARK    3  A    between atoms: C5_9  and  C6_10 
REMARK    4  A    between atoms: C6_10  and  S1_11 
REMARK    5  A    between atoms: S1_11  and  C7_12 
REMARK    6  A    between atoms: C8_15  and  N4_16 
REMARK    7  A    between atoms: N6_21  and  N7_22 
REMARK    8  A    between atoms: C10_27  and  N9_28 
REMARK       I    between atoms: N9_28  and  C11_30 
REMARK       I    between atoms: C11_30  and  N11_34 
REMARK    9  A    between atoms: N11_34  and  N12_36 
REMARK   10  A    between atoms: N12_36  and  O4_38 
ROOT
HETATM    1  C1  UNL     1      12.896 -54.212   5.188  1.00  0.00     0.056 C 
HETATM    2  C2  UNL     1      11.719 -54.360   4.282  1.00  0.00     0.024 A 
HETATM    3  C3  UNL     1      11.761 -53.720   3.061  1.00  0.00     0.129 A 
HETATM    4  N1  UNL     1      12.880 -52.938   2.656  1.00  0.00    -0.082 NA
HETATM    5  N2  UNL     1      10.687 -53.870   2.260  1.00  0.00    -0.310 N 
ATOM      6  H2  UNL     1      10.697 -53.406   1.353  1.00  0.00     0.170 HD
HETATM    7  C4  UNL     1       9.619 -54.584   2.581  1.00  0.00     0.226 A 
HETATM    8  N8  UNL     1       9.598 -55.213   3.798  1.00  0.00    -0.307 N 
ATOM      9  H8  UNL     1       8.779 -55.766   4.051  1.00  0.00     0.171 HD
HETATM   10  C10 UNL     1      10.611 -55.127   4.667  1.00  0.00     0.133 A 
ENDROOT
BRANCH   7  11
HETATM   11  O1  UNL     1       8.503 -54.750   1.775  1.00  0.00    -0.321 OA
BRANCH  11  12
HETATM   12  C5  UNL     1       7.769 -53.596   1.417  1.00  0.00     0.189 C 
BRANCH  12  13
HETATM   13  C6  UNL     1       6.790 -54.034   0.353  1.00  0.00     0.109 C 
BRANCH  13  14
HETATM   14  S1  UNL     1       5.158 -54.241   1.120  1.00  0.00    -0.090 SA
BRANCH  14  15
HETATM   15  C7  UNL     1       5.385 -54.570   2.865  1.00  0.00     0.168 A 
HETATM   16  N3  UNL     1       5.130 -53.760   3.917  1.00  0.00    -0.314 N 
HETATM   17  C8  UNL     1       5.454 -54.435   5.033  1.00  0.00     0.219 A 
ATOM     18  H3  UNL     1       4.759 -52.811   3.871  1.00  0.00     0.170 HD
HETATM   19  C9  UNL     1       5.921 -55.689   4.704  1.00  0.00     0.190 A 
HETATM   20  N5  UNL     1       6.357 -56.680   5.618  1.00  0.00    -0.076 NA
HETATM   21  N6  UNL     1       5.866 -55.741   3.362  1.00  0.00    -0.222 N 
BRANCH  17  22
HETATM   22  N4  UNL     1       5.331 -53.922   6.347  1.00  0.00    -0.094 N 
HETATM   23  O2  UNL     1       5.949 -52.916   6.743  1.00  0.00    -0.530 OA
HETATM   24  O3  UNL     1       4.476 -54.581   7.224  1.00  0.00    -0.530 OA
ENDBRANCH  17  22
BRANCH  21  25
HETATM   25  N7  UNL     1       6.245 -56.828   2.593  1.00  0.00    -0.335 N 
ATOM     26  H72 UNL     1       6.141 -57.805   2.870  1.00  0.00     0.177 HD
ATOM     27  H71 UNL     1       6.671 -56.767   1.668  1.00  0.00     0.177 HD
ENDBRANCH  21  25
ENDBRANCH  14  15
ENDBRANCH  13  14
ENDBRANCH  12  13
ENDBRANCH  11  12
ENDBRANCH   7  11
BRANCH  10  28
HETATM   28  N9  UNL     1      10.607 -55.698   5.808  1.00  0.00    -0.175 N 
HETATM   29  C11 UNL     1       9.800 -55.266   6.878  1.00  0.00     0.693 C 
HETATM   30  N10 UNL     1      10.041 -54.139   7.447  1.00  0.00    -0.233 N 
HETATM   31  N11 UNL     1       8.720 -56.018   7.400  1.00  0.00    -0.113 N 
ATOM     32 2H10 UNL     1      10.820 -53.598   7.071  1.00  0.00     0.174 HD
ATOM     33 1H10 UNL     1       9.456 -53.827   8.222  1.00  0.00     0.174 HD
ATOM     34  H11 UNL     1       8.778 -57.036   7.395  1.00  0.00     0.207 HD
ATOM     35  H9  UNL     1      11.216 -56.503   5.952  1.00  0.00     0.186 HD
BRANCH  31  36
HETATM   36  N12 UNL     1       7.582 -55.409   7.919  1.00  0.00    -0.196 N 
ATOM     37  H12 UNL     1       7.411 -54.435   7.669  1.00  0.00     0.216 HD
BRANCH  36  38
HETATM   38  O4  UNL     1       6.761 -55.966   8.666  1.00  0.00    -0.274 OA
ATOM     39  H4  UNL     1       5.869 -55.672   8.803  1.00  0.00     0.246 HD
ENDBRANCH  36  38
ENDBRANCH  31  36
ENDBRANCH  10  28
TORSDOF 10
ENDMDL
