MODEL 1
REMARK VINA RESULT: -8.625458105      0.000      0.000
REMARK  11 active torsions:
REMARK  status: ('A' for Active; 'I' for Inactive)
REMARK    1  A    between atoms: C2_3  and  O1_4 
REMARK    2  A    between atoms: C3_6  and  C4_7 
REMARK    3  A    between atoms: C4_7  and  O2_8 
REMARK    4  A    between atoms: C4_7  and  C5_10 
REMARK    5  A    between atoms: C6_13  and  N3_14 
REMARK    6  A    between atoms: N3_14  and  N4_16 
REMARK    7  A    between atoms: N4_16  and  S1_18 
REMARK    8  A    between atoms: S1_18  and  O5_21 
REMARK    9  A    between atoms: O5_21  and  C7_22 
REMARK   10  A    between atoms: C8_28  and  N7_29 
REMARK   11  A    between atoms: C9_32  and  O7_33 
ROOT
HETATM    1  C5  UNL     1       8.358 -54.599   6.779  1.00  0.00     0.164 A 
HETATM    2  N2  UNL     1       7.648 -55.544   6.137  1.00  0.00    -0.319 N 
ATOM      3  H2  UNL     1       7.925 -56.004   5.270  1.00  0.00     0.169 HD
HETATM    4  C6  UNL     1       6.518 -55.784   6.820  1.00  0.00     0.182 A 
HETATM    5  C9  UNL     1       6.556 -54.942   7.921  1.00  0.00     0.232 A 
HETATM    6  O8  UNL     1       7.679 -54.267   7.834  1.00  0.00    -0.269 OA
ENDROOT
BRANCH   4   7
HETATM    7  N3  UNL     1       5.479 -56.702   6.509  1.00  0.00    -0.270 N 
ATOM      8  H3  UNL     1       4.512 -56.507   6.770  1.00  0.00     0.189 HD
BRANCH   7   9
HETATM    9  N4  UNL     1       5.815 -57.865   5.843  1.00  0.00    -0.202 N 
ATOM     10  H4  UNL     1       6.718 -58.046   5.403  1.00  0.00     0.202 HD
BRANCH   9  11
HETATM   11  S1  UNL     1       4.471 -58.982   5.863  1.00  0.00     0.382 S 
HETATM   12  O3  UNL     1       4.650 -60.003   6.942  1.00  0.00    -0.174 OA
HETATM   13  O4  UNL     1       3.188 -58.216   6.013  1.00  0.00    -0.174 OA
BRANCH  11  14
HETATM   14  O5  UNL     1       4.445 -59.760   4.360  1.00  0.00    -0.191 OA
BRANCH  14  15
HETATM   15  C7  UNL     1       3.375 -60.435   3.837  1.00  0.00     0.229 A 
HETATM   16  N5  UNL     1       2.699 -60.121   2.726  1.00  0.00    -0.215 N 
HETATM   17  O6  UNL     1       1.741 -61.020   2.567  1.00  0.00    -0.153 OA
ATOM     18  H5  UNL     1       2.888 -59.330   2.112  1.00  0.00     0.199 HD
HETATM   19  N6  UNL     1       1.762 -61.894   3.512  1.00  0.00    -0.222 N 
HETATM   20  C8  UNL     1       2.780 -61.562   4.337  1.00  0.00     0.175 A 
ATOM     21  H6  UNL     1       1.130 -62.687   3.618  1.00  0.00     0.198 HD
BRANCH  20  22
HETATM   22  N7  UNL     1       3.109 -62.202   5.390  1.00  0.00    -0.380 N 
ATOM     23  H72 UNL     1       3.849 -61.928   6.036  1.00  0.00     0.157 HD
ATOM     24  H71 UNL     1       2.693 -63.066   5.739  1.00  0.00     0.157 HD
ENDBRANCH  20  22
ENDBRANCH  14  15
ENDBRANCH  11  14
ENDBRANCH   9  11
ENDBRANCH   7   9
ENDBRANCH   4   7
BRANCH   5  25
HETATM   25  O7  UNL     1       5.563 -54.880   8.889  1.00  0.00    -0.338 OA
ATOM     26  H7  UNL     1       4.972 -55.594   9.093  1.00  0.00     0.220 HD
ENDBRANCH   5  25
BRANCH   1  27
HETATM   27  C4  UNL     1       9.664 -54.103   6.285  1.00  0.00     0.254 C 
BRANCH  27  28
HETATM   28  C3  UNL     1      10.767 -54.375   7.200  1.00  0.00     0.146 A 
HETATM   29  C2  UNL     1      12.065 -54.727   6.890  1.00  0.00     0.180 A 
HETATM   30  N1  UNL     1      12.741 -54.881   8.040  1.00  0.00    -0.276 N 
HETATM   31  C1  UNL     1      14.121 -55.245   8.184  1.00  0.00     0.164 C 
HETATM   32  C10 UNL     1      11.859 -54.626   9.028  1.00  0.00     0.373 A 
HETATM   33  O9  UNL     1      10.691 -54.327   8.510  1.00  0.00    -0.258 OA
HETATM   34  O10 UNL     1      12.111 -54.667  10.270  1.00  0.00    -0.237 OA
BRANCH  29  35
HETATM   35  O1  UNL     1      12.590 -54.893   5.625  1.00  0.00    -0.344 OA
ATOM     36  H1  UNL     1      12.392 -54.351   4.872  1.00  0.00     0.219 HD
ENDBRANCH  29  35
ENDBRANCH  27  28
BRANCH  27  37
HETATM   37  O2  UNL     1       9.937 -54.682   5.051  1.00  0.00    -0.381 OA
ATOM     38  H2  UNL     1       9.726 -54.065   4.360  1.00  0.00     0.211 HD
ENDBRANCH  27  37
ENDBRANCH   1  27
TORSDOF 11
ENDMDL
MODEL 2
REMARK VINA RESULT: -8.612771288      1.385      2.447
REMARK  11 active torsions:
REMARK  status: ('A' for Active; 'I' for Inactive)
REMARK    1  A    between atoms: C2_3  and  O1_4 
REMARK    2  A    between atoms: C3_6  and  C4_7 
REMARK    3  A    between atoms: C4_7  and  O2_8 
REMARK    4  A    between atoms: C4_7  and  C5_10 
REMARK    5  A    between atoms: C6_13  and  N3_14 
REMARK    6  A    between atoms: N3_14  and  N4_16 
REMARK    7  A    between atoms: N4_16  and  S1_18 
REMARK    8  A    between atoms: S1_18  and  O5_21 
REMARK    9  A    between atoms: O5_21  and  C7_22 
REMARK   10  A    between atoms: C8_28  and  N7_29 
REMARK   11  A    between atoms: C9_32  and  O7_33 
ROOT
HETATM    1  C5  UNL     1       8.428 -55.193   7.431  1.00  0.00     0.164 A 
HETATM    2  N2  UNL     1       7.785 -56.101   6.676  1.00  0.00    -0.319 N 
ATOM      3  H2  UNL     1       8.225 -56.728   6.002  1.00  0.00     0.169 HD
HETATM    4  C6  UNL     1       6.472 -56.050   6.952  1.00  0.00     0.182 A 
HETATM    5  C9  UNL     1       6.327 -55.065   7.916  1.00  0.00     0.232 A 
HETATM    6  O8  UNL     1       7.531 -54.598   8.155  1.00  0.00    -0.269 OA
ENDROOT
BRANCH   4   7
HETATM    7  N3  UNL     1       5.424 -56.827   6.391  1.00  0.00    -0.270 N 
ATOM      8  H3  UNL     1       4.452 -56.528   6.466  1.00  0.00     0.189 HD
BRANCH   7   9
HETATM    9  N4  UNL     1       5.759 -58.000   5.740  1.00  0.00    -0.202 N 
ATOM     10  H4  UNL     1       6.657 -58.183   5.293  1.00  0.00     0.202 HD
BRANCH   9  11
HETATM   11  S1  UNL     1       4.422 -59.123   5.795  1.00  0.00     0.382 S 
HETATM   12  O3  UNL     1       4.622 -60.131   6.883  1.00  0.00    -0.174 OA
HETATM   13  O4  UNL     1       3.136 -58.363   5.955  1.00  0.00    -0.174 OA
BRANCH  11  14
HETATM   14  O5  UNL     1       4.376 -59.920   4.302  1.00  0.00    -0.191 OA
BRANCH  14  15
HETATM   15  C7  UNL     1       3.300 -60.603   3.802  1.00  0.00     0.229 A 
HETATM   16  N5  UNL     1       2.622 -60.316   2.685  1.00  0.00    -0.215 N 
HETATM   17  O6  UNL     1       1.659 -61.213   2.554  1.00  0.00    -0.153 OA
ATOM     18  H5  UNL     1       2.814 -59.543   2.048  1.00  0.00     0.199 HD
HETATM   19  N6  UNL     1       1.678 -62.061   3.522  1.00  0.00    -0.222 N 
HETATM   20  C8  UNL     1       2.701 -61.713   4.334  1.00  0.00     0.175 A 
ATOM     21  H6  UNL     1       1.041 -62.847   3.652  1.00  0.00     0.198 HD
BRANCH  20  22
HETATM   22  N7  UNL     1       3.030 -62.325   5.404  1.00  0.00    -0.380 N 
ATOM     23  H72 UNL     1       3.440 -63.258   5.443  1.00  0.00     0.157 HD
ATOM     24  H71 UNL     1       2.935 -61.985   6.361  1.00  0.00     0.157 HD
ENDBRANCH  20  22
ENDBRANCH  14  15
ENDBRANCH  11  14
ENDBRANCH   9  11
ENDBRANCH   7   9
ENDBRANCH   4   7
BRANCH   5  25
HETATM   25  O7  UNL     1       5.112 -54.696   8.477  1.00  0.00    -0.338 OA
ATOM     26  H7  UNL     1       5.025 -54.183   9.271  1.00  0.00     0.220 HD
ENDBRANCH   5  25
BRANCH   1  27
HETATM   27  C4  UNL     1       9.896 -54.993   7.370  1.00  0.00     0.254 C 
BRANCH  27  28
HETATM   28  C3  UNL     1      10.385 -54.727   6.021  1.00  0.00     0.146 A 
HETATM   29  C2  UNL     1      11.610 -54.214   5.645  1.00  0.00     0.180 A 
HETATM   30  N1  UNL     1      11.634 -54.135   4.304  1.00  0.00    -0.276 N 
HETATM   31  C1  UNL     1      12.714 -53.658   3.490  1.00  0.00     0.164 C 
HETATM   32  C10 UNL     1      10.438 -54.594   3.882  1.00  0.00     0.373 A 
HETATM   33  O9  UNL     1       9.708 -54.941   4.917  1.00  0.00    -0.258 OA
HETATM   34  O10 UNL     1      10.065 -54.680   2.673  1.00  0.00    -0.237 OA
BRANCH  29  35
HETATM   35  O1  UNL     1      12.638 -53.846   6.486  1.00  0.00    -0.344 OA
ATOM     36  H1  UNL     1      12.577 -53.771   7.431  1.00  0.00     0.219 HD
ENDBRANCH  29  35
ENDBRANCH  27  28
BRANCH  27  37
HETATM   37  O2  UNL     1      10.249 -53.937   8.204  1.00  0.00    -0.381 OA
ATOM     38  H2  UNL     1      10.588 -54.283   9.022  1.00  0.00     0.211 HD
ENDBRANCH  27  37
ENDBRANCH   1  27
TORSDOF 11
ENDMDL
MODEL 3
REMARK VINA RESULT: -8.552577332      1.672      2.807
REMARK  11 active torsions:
REMARK  status: ('A' for Active; 'I' for Inactive)
REMARK    1  A    between atoms: C2_3  and  O1_4 
REMARK    2  A    between atoms: C3_6  and  C4_7 
REMARK    3  A    between atoms: C4_7  and  O2_8 
REMARK    4  A    between atoms: C4_7  and  C5_10 
REMARK    5  A    between atoms: C6_13  and  N3_14 
REMARK    6  A    between atoms: N3_14  and  N4_16 
REMARK    7  A    between atoms: N4_16  and  S1_18 
REMARK    8  A    between atoms: S1_18  and  O5_21 
REMARK    9  A    between atoms: O5_21  and  C7_22 
REMARK   10  A    between atoms: C8_28  and  N7_29 
REMARK   11  A    between atoms: C9_32  and  O7_33 
ROOT
HETATM    1  C5  UNL     1       9.140 -55.518   7.190  1.00  0.00     0.164 A 
HETATM    2  N2  UNL     1       8.774 -56.262   6.132  1.00  0.00    -0.319 N 
ATOM      3  H2  UNL     1       9.407 -56.637   5.425  1.00  0.00     0.169 HD
HETATM    4  C6  UNL     1       7.443 -56.434   6.156  1.00  0.00     0.182 A 
HETATM    5  C9  UNL     1       6.996 -55.759   7.281  1.00  0.00     0.232 A 
HETATM    6  O8  UNL     1       8.058 -55.239   7.850  1.00  0.00    -0.269 OA
ENDROOT
BRANCH   4   7
HETATM    7  N3  UNL     1       6.631 -57.150   5.237  1.00  0.00    -0.270 N 
ATOM      8  H3  UNL     1       6.750 -57.033   4.230  1.00  0.00     0.189 HD
BRANCH   7   9
HETATM    9  N4  UNL     1       5.675 -58.011   5.744  1.00  0.00    -0.202 N 
ATOM     10  H4  UNL     1       5.307 -57.979   6.694  1.00  0.00     0.202 HD
BRANCH   9  11
HETATM   11  S1  UNL     1       5.189 -59.161   4.521  1.00  0.00     0.382 S 
HETATM   12  O3  UNL     1       5.300 -58.559   3.156  1.00  0.00    -0.174 OA
HETATM   13  O4  UNL     1       6.009 -60.412   4.658  1.00  0.00    -0.174 OA
BRANCH  11  14
HETATM   14  O5  UNL     1       3.572 -59.559   4.824  1.00  0.00    -0.191 OA
BRANCH  14  15
HETATM   15  C7  UNL     1       3.030 -60.811   4.708  1.00  0.00     0.229 A 
HETATM   16  N5  UNL     1       3.207 -61.838   5.547  1.00  0.00    -0.215 N 
HETATM   17  O6  UNL     1       2.515 -62.865   5.082  1.00  0.00    -0.153 OA
ATOM     18  H5  UNL     1       3.775 -61.830   6.393  1.00  0.00     0.199 HD
HETATM   19  N6  UNL     1       1.903 -62.557   3.992  1.00  0.00    -0.222 N 
HETATM   20  C8  UNL     1       2.200 -61.267   3.720  1.00  0.00     0.175 A 
ATOM     21  H6  UNL     1       1.305 -63.172   3.439  1.00  0.00     0.198 HD
BRANCH  20  22
HETATM   22  N7  UNL     1       1.772 -60.612   2.713  1.00  0.00    -0.380 N 
ATOM     23  H72 UNL     1       1.959 -59.627   2.531  1.00  0.00     0.157 HD
ATOM     24  H71 UNL     1       1.188 -60.965   1.953  1.00  0.00     0.157 HD
ENDBRANCH  20  22
ENDBRANCH  14  15
ENDBRANCH  11  14
ENDBRANCH   9  11
ENDBRANCH   7   9
ENDBRANCH   4   7
BRANCH   5  25
HETATM   25  O7  UNL     1       5.665 -55.690   7.671  1.00  0.00    -0.338 OA
ATOM     26  H7  UNL     1       5.348 -55.162   8.394  1.00  0.00     0.220 HD
ENDBRANCH   5  25
BRANCH   1  27
HETATM   27  C4  UNL     1      10.549 -55.145   7.459  1.00  0.00     0.254 C 
BRANCH  27  28
HETATM   28  C3  UNL     1      11.273 -54.725   6.264  1.00  0.00     0.146 A 
HETATM   29  C2  UNL     1      12.625 -54.491   6.124  1.00  0.00     0.180 A 
HETATM   30  N1  UNL     1      12.856 -54.123   4.853  1.00  0.00    -0.276 N 
HETATM   31  C1  UNL     1      14.123 -53.785   4.271  1.00  0.00     0.164 C 
HETATM   32  C10 UNL     1      11.656 -54.136   4.238  1.00  0.00     0.373 A 
HETATM   33  O9  UNL     1      10.726 -54.496   5.092  1.00  0.00    -0.258 OA
HETATM   34  O10 UNL     1      11.447 -53.846   3.021  1.00  0.00    -0.237 OA
BRANCH  29  35
HETATM   35  O1  UNL     1      13.584 -54.611   7.108  1.00  0.00    -0.344 OA
ATOM     36  H1  UNL     1      13.418 -54.843   8.014  1.00  0.00     0.219 HD
ENDBRANCH  29  35
ENDBRANCH  27  28
BRANCH  27  37
HETATM   37  O2  UNL     1      10.579 -54.119   8.398  1.00  0.00    -0.381 OA
ATOM     38  H2  UNL     1      10.044 -54.360   9.145  1.00  0.00     0.211 HD
ENDBRANCH  27  37
ENDBRANCH   1  27
TORSDOF 11
ENDMDL
MODEL 4
REMARK VINA RESULT: -8.541250844      3.868      5.166
REMARK  11 active torsions:
REMARK  status: ('A' for Active; 'I' for Inactive)
REMARK    1  A    between atoms: C2_3  and  O1_4 
REMARK    2  A    between atoms: C3_6  and  C4_7 
REMARK    3  A    between atoms: C4_7  and  O2_8 
REMARK    4  A    between atoms: C4_7  and  C5_10 
REMARK    5  A    between atoms: C6_13  and  N3_14 
REMARK    6  A    between atoms: N3_14  and  N4_16 
REMARK    7  A    between atoms: N4_16  and  S1_18 
REMARK    8  A    between atoms: S1_18  and  O5_21 
REMARK    9  A    between atoms: O5_21  and  C7_22 
REMARK   10  A    between atoms: C8_28  and  N7_29 
REMARK   11  A    between atoms: C9_32  and  O7_33 
ROOT
HETATM    1  C5  UNL     1       9.212 -54.867   7.351  1.00  0.00     0.164 A 
HETATM    2  N2  UNL     1       8.596 -55.783   6.584  1.00  0.00    -0.319 N 
ATOM      3  H2  UNL     1       9.062 -56.513   6.044  1.00  0.00     0.169 HD
HETATM    4  C6  UNL     1       7.269 -55.585   6.642  1.00  0.00     0.182 A 
HETATM    5  C9  UNL     1       7.087 -54.498   7.483  1.00  0.00     0.232 A 
HETATM    6  O8  UNL     1       8.284 -54.122   7.869  1.00  0.00    -0.269 OA
ENDROOT
BRANCH   4   7
HETATM    7  N3  UNL     1       6.240 -56.315   5.991  1.00  0.00    -0.270 N 
ATOM      8  H3  UNL     1       6.425 -57.232   5.584  1.00  0.00     0.189 HD
BRANCH   7   9
HETATM    9  N4  UNL     1       4.981 -55.749   5.923  1.00  0.00    -0.202 N 
ATOM     10  H4  UNL     1       4.255 -55.856   6.631  1.00  0.00     0.202 HD
BRANCH   9  11
HETATM   11  S1  UNL     1       4.813 -54.823   4.451  1.00  0.00     0.382 S 
HETATM   12  O3  UNL     1       3.465 -55.041   3.840  1.00  0.00    -0.174 OA
HETATM   13  O4  UNL     1       5.078 -53.373   4.739  1.00  0.00    -0.174 OA
BRANCH  11  14
HETATM   14  O5  UNL     1       6.003 -55.370   3.379  1.00  0.00    -0.191 OA
BRANCH  14  15
HETATM   15  C7  UNL     1       6.817 -54.568   2.623  1.00  0.00     0.229 A 
HETATM   16  N5  UNL     1       6.444 -53.505   1.903  1.00  0.00    -0.215 N 
HETATM   17  O6  UNL     1       7.524 -53.008   1.324  1.00  0.00    -0.153 OA
ATOM     18  H5  UNL     1       5.495 -53.142   1.816  1.00  0.00     0.199 HD
HETATM   19  N6  UNL     1       8.571 -53.691   1.630  1.00  0.00    -0.222 N 
HETATM   20  C8  UNL     1       8.170 -54.687   2.451  1.00  0.00     0.175 A 
ATOM     21  H6  UNL     1       9.525 -53.514   1.313  1.00  0.00     0.198 HD
BRANCH  20  22
HETATM   22  N7  UNL     1       8.935 -55.570   2.961  1.00  0.00    -0.380 N 
ATOM     23  H72 UNL     1       9.884 -55.774   2.650  1.00  0.00     0.157 HD
ATOM     24  H71 UNL     1       8.720 -56.194   3.739  1.00  0.00     0.157 HD
ENDBRANCH  20  22
ENDBRANCH  14  15
ENDBRANCH  11  14
ENDBRANCH   9  11
ENDBRANCH   7   9
ENDBRANCH   4   7
BRANCH   5  25
HETATM   25  O7  UNL     1       5.848 -53.965   7.811  1.00  0.00    -0.338 OA
ATOM     26  H7  UNL     1       5.585 -53.072   7.623  1.00  0.00     0.220 HD
ENDBRANCH   5  25
BRANCH   1  27
HETATM   27  C4  UNL     1      10.684 -54.809   7.506  1.00  0.00     0.254 C 
BRANCH  27  28
HETATM   28  C3  UNL     1      11.382 -54.484   6.266  1.00  0.00     0.146 A 
HETATM   29  C2  UNL     1      12.737 -54.307   6.072  1.00  0.00     0.180 A 
HETATM   30  N1  UNL     1      12.938 -54.020   4.776  1.00  0.00    -0.276 N 
HETATM   31  C1  UNL     1      14.196 -53.762   4.137  1.00  0.00     0.164 C 
HETATM   32  C10 UNL     1      11.718 -54.025   4.199  1.00  0.00     0.373 A 
HETATM   33  O9  UNL     1      10.806 -54.302   5.101  1.00  0.00    -0.258 OA
HETATM   34  O10 UNL     1      11.480 -53.797   2.975  1.00  0.00    -0.237 OA
BRANCH  29  35
HETATM   35  O1  UNL     1      13.723 -54.406   7.031  1.00  0.00    -0.344 OA
ATOM     36  H1  UNL     1      13.624 -54.813   7.883  1.00  0.00     0.219 HD
ENDBRANCH  29  35
ENDBRANCH  27  28
BRANCH  27  37
HETATM   37  O2  UNL     1      11.006 -53.865   8.475  1.00  0.00    -0.381 OA
ATOM     38  H2  UNL     1      10.974 -52.996   8.091  1.00  0.00     0.211 HD
ENDBRANCH  27  37
ENDBRANCH   1  27
TORSDOF 11
ENDMDL
MODEL 5
REMARK VINA RESULT: -8.425679940      3.633      4.575
REMARK  11 active torsions:
REMARK  status: ('A' for Active; 'I' for Inactive)
REMARK    1  A    between atoms: C2_3  and  O1_4 
REMARK    2  A    between atoms: C3_6  and  C4_7 
REMARK    3  A    between atoms: C4_7  and  O2_8 
REMARK    4  A    between atoms: C4_7  and  C5_10 
REMARK    5  A    between atoms: C6_13  and  N3_14 
REMARK    6  A    between atoms: N3_14  and  N4_16 
REMARK    7  A    between atoms: N4_16  and  S1_18 
REMARK    8  A    between atoms: S1_18  and  O5_21 
REMARK    9  A    between atoms: O5_21  and  C7_22 
REMARK   10  A    between atoms: C8_28  and  N7_29 
REMARK   11  A    between atoms: C9_32  and  O7_33 
ROOT
HETATM    1  C5  UNL     1       8.790 -54.399   6.976  1.00  0.00     0.164 A 
HETATM    2  N2  UNL     1       8.115 -55.304   6.246  1.00  0.00    -0.319 N 
ATOM      3  H2  UNL     1       8.453 -55.745   5.391  1.00  0.00     0.169 HD
HETATM    4  C6  UNL     1       6.925 -55.534   6.824  1.00  0.00     0.182 A 
HETATM    5  C9  UNL     1       6.891 -54.727   7.951  1.00  0.00     0.232 A 
HETATM    6  O8  UNL     1       8.033 -54.080   7.980  1.00  0.00    -0.269 OA
ENDROOT
BRANCH   4   7
HETATM    7  N3  UNL     1       5.895 -56.413   6.397  1.00  0.00    -0.270 N 
ATOM      8  H3  UNL     1       6.066 -57.413   6.297  1.00  0.00     0.189 HD
BRANCH   7   9
HETATM    9  N4  UNL     1       4.652 -55.874   6.119  1.00  0.00    -0.202 N 
ATOM     10  H4  UNL     1       3.806 -56.050   6.661  1.00  0.00     0.202 HD
BRANCH   9  11
HETATM   11  S1  UNL     1       4.741 -54.847   4.708  1.00  0.00     0.382 S 
HETATM   12  O3  UNL     1       3.562 -55.074   3.815  1.00  0.00    -0.174 OA
HETATM   13  O4  UNL     1       4.858 -53.414   5.139  1.00  0.00    -0.174 OA
BRANCH  11  14
HETATM   14  O5  UNL     1       6.156 -55.262   3.877  1.00  0.00    -0.191 OA
BRANCH  14  15
HETATM   15  C7  UNL     1       6.721 -54.534   2.864  1.00  0.00     0.229 A 
HETATM   16  N5  UNL     1       6.113 -53.615   2.106  1.00  0.00    -0.215 N 
HETATM   17  O6  UNL     1       7.002 -53.145   1.246  1.00  0.00    -0.153 OA
ATOM     18  H5  UNL     1       5.137 -53.329   2.177  1.00  0.00     0.199 HD
HETATM   19  N6  UNL     1       8.148 -53.709   1.409  1.00  0.00    -0.222 N 
HETATM   20  C8  UNL     1       8.015 -54.593   2.422  1.00  0.00     0.175 A 
ATOM     21  H6  UNL     1       8.996 -53.523   0.873  1.00  0.00     0.198 HD
BRANCH  20  22
HETATM   22  N7  UNL     1       8.947 -55.342   2.869  1.00  0.00    -0.380 N 
ATOM     23  H72 UNL     1       9.901 -55.367   2.512  1.00  0.00     0.157 HD
ATOM     24  H71 UNL     1       8.881 -56.015   3.633  1.00  0.00     0.157 HD
ENDBRANCH  20  22
ENDBRANCH  14  15
ENDBRANCH  11  14
ENDBRANCH   9  11
ENDBRANCH   7   9
ENDBRANCH   4   7
BRANCH   5  25
HETATM   25  O7  UNL     1       5.821 -54.667   8.833  1.00  0.00    -0.338 OA
ATOM     26  H7  UNL     1       5.899 -54.436   9.751  1.00  0.00     0.220 HD
ENDBRANCH   5  25
BRANCH   1  27
HETATM   27  C4  UNL     1      10.146 -53.923   6.611  1.00  0.00     0.254 C 
BRANCH  27  28
HETATM   28  C3  UNL     1      11.178 -54.346   7.552  1.00  0.00     0.146 A 
HETATM   29  C2  UNL     1      12.466 -54.756   7.276  1.00  0.00     0.180 A 
HETATM   30  N1  UNL     1      13.067 -55.052   8.440  1.00  0.00    -0.276 N 
HETATM   31  C1  UNL     1      14.412 -55.518   8.620  1.00  0.00     0.164 C 
HETATM   32  C10 UNL     1      12.150 -54.824   9.402  1.00  0.00     0.373 A 
HETATM   33  O9  UNL     1      11.032 -54.405   8.855  1.00  0.00    -0.258 OA
HETATM   34  O10 UNL     1      12.329 -54.986  10.647  1.00  0.00    -0.237 OA
BRANCH  29  35
HETATM   35  O1  UNL     1      13.049 -54.848   6.029  1.00  0.00    -0.344 OA
ATOM     36  H1  UNL     1      13.342 -54.115   5.503  1.00  0.00     0.219 HD
ENDBRANCH  29  35
ENDBRANCH  27  28
BRANCH  27  37
HETATM   37  O2  UNL     1      10.466 -54.387   5.339  1.00  0.00    -0.381 OA
ATOM     38  H2  UNL     1       9.666 -54.603   4.873  1.00  0.00     0.211 HD
ENDBRANCH  27  37
ENDBRANCH   1  27
TORSDOF 11
ENDMDL
