MODEL 1
REMARK VINA RESULT: -8.381262725      0.000      0.000
REMARK  10 active torsions:
REMARK  status: ('A' for Active; 'I' for Inactive)
REMARK    1  A    between atoms: O1_3  and  N2_4 
REMARK       I    between atoms: N2_4  and  C2_6 
REMARK    2  A    between atoms: N4_8  and  N5_10 
REMARK    3  A    between atoms: C3_12  and  N6_13 
REMARK    4  A    between atoms: C3_12  and  C10_31 
REMARK    5  A    between atoms: N6_13  and  N7_15 
REMARK    6  A    between atoms: N7_15  and  C4_17 
REMARK    7  A    between atoms: C5_18  and  O2_19 
REMARK    8  A    between atoms: C7_22  and  N8_23 
REMARK    9  A    between atoms: C9_27  and  N9_28 
REMARK   10  A    between atoms: C11_37  and  N12_38 
ROOT
HETATM    1  N1  UNL     1      16.411 -56.507   7.436  1.00  0.00    -0.162 NA
HETATM    2  C1  UNL     1      15.315 -56.138   7.527  1.00  0.00     0.253 C 
HETATM    3  O1  UNL     1      14.017 -55.713   7.624  1.00  0.00    -0.157 OA
ENDROOT
BRANCH   3   4
HETATM    4  N2  UNL     1      13.667 -54.971   8.725  1.00  0.00    -0.220 N 
HETATM    5  C2  UNL     1      12.310 -54.683   8.981  1.00  0.00     0.228 C 
HETATM    6  N3  UNL     1      11.774 -54.968  10.259  1.00  0.00    -0.060 NA
HETATM    7  N4  UNL     1      11.578 -54.176   8.088  1.00  0.00    -0.270 N 
ATOM      8  H4  UNL     1      10.609 -54.000   8.355  1.00  0.00     0.189 HD
ATOM      9  H2  UNL     1      14.389 -54.627   9.358  1.00  0.00     0.198 HD
BRANCH   7  10
HETATM   10  N5  UNL     1      11.914 -53.832   6.807  1.00  0.00    -0.280 N 
HETATM   11  C3  UNL     1      11.718 -54.576   5.767  1.00  0.00     0.168 C 
ATOM     12  H5  UNL     1      12.352 -52.922   6.661  1.00  0.00     0.188 HD
BRANCH  11  13
HETATM   13  N6  UNL     1      11.126 -55.817   5.924  1.00  0.00    -0.282 N 
ATOM     14  H6  UNL     1      11.615 -56.525   6.472  1.00  0.00     0.188 HD
BRANCH  13  15
HETATM   15  N7  UNL     1       9.908 -56.139   5.376  1.00  0.00    -0.294 N 
ATOM     16  H7  UNL     1       9.887 -56.714   4.533  1.00  0.00     0.187 HD
BRANCH  15  17
HETATM   17  C4  UNL     1       8.662 -55.701   5.939  1.00  0.00     0.114 A 
HETATM   18  C5  UNL     1       8.428 -55.687   7.295  1.00  0.00     0.098 A 
HETATM   19  C6  UNL     1       7.182 -55.208   7.715  1.00  0.00     0.075 A 
HETATM   20  C7  UNL     1       6.225 -54.770   6.835  1.00  0.00     0.108 A 
HETATM   21  C8  UNL     1       6.463 -54.786   5.494  1.00  0.00     0.074 A 
HETATM   22  C9  UNL     1       7.696 -55.255   5.020  1.00  0.00     0.136 A 
BRANCH  18  23
HETATM   23  O2  UNL     1       9.340 -56.115   8.202  1.00  0.00    -0.358 OA
ATOM     24  H2  UNL     1       9.340 -56.995   8.558  1.00  0.00     0.217 HD
ENDBRANCH  18  23
BRANCH  20  25
HETATM   25  N8  UNL     1       4.955 -54.283   7.314  1.00  0.00    -0.116 N 
HETATM   26  O3  UNL     1       4.227 -54.989   8.047  1.00  0.00    -0.532 OA
HETATM   27  O4  UNL     1       4.514 -53.043   6.984  1.00  0.00    -0.532 OA
ENDBRANCH  20  25
BRANCH  22  28
HETATM   28  N9  UNL     1       7.930 -55.256   3.623  1.00  0.00    -0.113 N 
HETATM   29  O5  UNL     1       8.766 -54.526   3.085  1.00  0.00    -0.532 OA
HETATM   30  O6  UNL     1       7.193 -56.074   2.801  1.00  0.00    -0.532 OA
ENDBRANCH  22  28
ENDBRANCH  15  17
ENDBRANCH  13  15
ENDBRANCH  11  13
BRANCH  11  31
HETATM   31  C10 UNL     1      12.163 -54.084   4.486  1.00  0.00     0.148 A 
HETATM   32  N10 UNL     1      11.463 -53.800   3.393  1.00  0.00    -0.234 N 
HETATM   33  O7  UNL     1      12.205 -53.376   2.421  1.00  0.00    -0.155 OA
ATOM     34  H10 UNL     1      10.450 -53.905   3.327  1.00  0.00     0.197 HD
HETATM   35  N11 UNL     1      13.442 -53.366   2.853  1.00  0.00    -0.224 N 
HETATM   36  C11 UNL     1      13.483 -53.793   4.123  1.00  0.00     0.154 A 
ATOM     37  H11 UNL     1      14.252 -53.078   2.305  1.00  0.00     0.198 HD
BRANCH  36  38
HETATM   38  N12 UNL     1      14.461 -53.947   4.935  1.00  0.00    -0.382 N 
ATOM     39 2H12 UNL     1      15.401 -54.319   4.798  1.00  0.00     0.157 HD
ATOM     40 1H12 UNL     1      14.395 -53.685   5.918  1.00  0.00     0.157 HD
ENDBRANCH  36  38
ENDBRANCH  11  31
ENDBRANCH   7  10
ENDBRANCH   3   4
TORSDOF 10
ENDMDL
MODEL 2
REMARK VINA RESULT: -8.024064239      1.516      2.506
REMARK  10 active torsions:
REMARK  status: ('A' for Active; 'I' for Inactive)
REMARK    1  A    between atoms: O1_3  and  N2_4 
REMARK       I    between atoms: N2_4  and  C2_6 
REMARK    2  A    between atoms: N4_8  and  N5_10 
REMARK    3  A    between atoms: C3_12  and  N6_13 
REMARK    4  A    between atoms: C3_12  and  C10_31 
REMARK    5  A    between atoms: N6_13  and  N7_15 
REMARK    6  A    between atoms: N7_15  and  C4_17 
REMARK    7  A    between atoms: C5_18  and  O2_19 
REMARK    8  A    between atoms: C7_22  and  N8_23 
REMARK    9  A    between atoms: C9_27  and  N9_28 
REMARK   10  A    between atoms: C11_37  and  N12_38 
ROOT
HETATM    1  N1  UNL     1      16.430 -56.575   7.724  1.00  0.00    -0.162 NA
HETATM    2  C1  UNL     1      15.348 -56.163   7.784  1.00  0.00     0.253 C 
HETATM    3  O1  UNL     1      14.066 -55.685   7.844  1.00  0.00    -0.157 OA
ENDROOT
BRANCH   3   4
HETATM    4  N2  UNL     1      13.708 -54.952   8.949  1.00  0.00    -0.220 N 
HETATM    5  C2  UNL     1      12.345 -54.731   9.238  1.00  0.00     0.228 C 
HETATM    6  N3  UNL     1      11.858 -55.031  10.532  1.00  0.00    -0.060 NA
HETATM    7  N4  UNL     1      11.564 -54.271   8.361  1.00  0.00    -0.270 N 
ATOM      8  H4  UNL     1      10.595 -54.142   8.653  1.00  0.00     0.189 HD
ATOM      9  H2  UNL     1      14.428 -54.566   9.560  1.00  0.00     0.198 HD
BRANCH   7  10
HETATM   10  N5  UNL     1      11.849 -53.922   7.069  1.00  0.00    -0.280 N 
HETATM   11  C3  UNL     1      11.490 -54.597   6.025  1.00  0.00     0.168 C 
ATOM     12  H5  UNL     1      12.383 -53.066   6.917  1.00  0.00     0.188 HD
BRANCH  11  13
HETATM   13  N6  UNL     1      10.762 -55.763   6.191  1.00  0.00    -0.282 N 
ATOM     14  H6  UNL     1      11.197 -56.650   5.936  1.00  0.00     0.188 HD
BRANCH  13  15
HETATM   15  N7  UNL     1       9.479 -55.781   6.683  1.00  0.00    -0.294 N 
ATOM     16  H7  UNL     1       9.332 -56.050   7.656  1.00  0.00     0.187 HD
BRANCH  15  17
HETATM   17  C4  UNL     1       8.336 -55.436   5.885  1.00  0.00     0.114 A 
HETATM   18  C5  UNL     1       8.330 -55.554   4.514  1.00  0.00     0.098 A 
HETATM   19  C6  UNL     1       7.142 -55.212   3.858  1.00  0.00     0.075 A 
HETATM   20  C7  UNL     1       6.027 -54.777   4.528  1.00  0.00     0.108 A 
HETATM   21  C8  UNL     1       6.040 -54.664   5.885  1.00  0.00     0.074 A 
HETATM   22  C9  UNL     1       7.205 -54.994   6.592  1.00  0.00     0.136 A 
BRANCH  18  23
HETATM   23  O2  UNL     1       9.409 -55.973   3.807  1.00  0.00    -0.358 OA
ATOM     24  H2  UNL     1       9.346 -56.301   2.918  1.00  0.00     0.217 HD
ENDBRANCH  18  23
BRANCH  20  25
HETATM   25  N8  UNL     1       4.824 -54.438   3.810  1.00  0.00    -0.116 N 
HETATM   26  O3  UNL     1       3.746 -55.032   4.039  1.00  0.00    -0.532 OA
HETATM   27  O4  UNL     1       4.825 -53.464   2.866  1.00  0.00    -0.532 OA
ENDBRANCH  20  25
BRANCH  22  28
HETATM   28  N9  UNL     1       7.198 -54.878   8.004  1.00  0.00    -0.113 N 
HETATM   29  O5  UNL     1       7.474 -53.827   8.588  1.00  0.00    -0.532 OA
HETATM   30  O6  UNL     1       6.899 -55.968   8.784  1.00  0.00    -0.532 OA
ENDBRANCH  22  28
ENDBRANCH  15  17
ENDBRANCH  13  15
ENDBRANCH  11  13
BRANCH  11  31
HETATM   31  C10 UNL     1      11.900 -54.115   4.730  1.00  0.00     0.148 A 
HETATM   32  N10 UNL     1      11.165 -53.765   3.680  1.00  0.00    -0.234 N 
HETATM   33  O7  UNL     1      11.883 -53.376   2.674  1.00  0.00    -0.155 OA
ATOM     34  H10 UNL     1      10.145 -53.799   3.667  1.00  0.00     0.197 HD
HETATM   35  N11 UNL     1      13.138 -53.459   3.040  1.00  0.00    -0.224 N 
HETATM   36  C11 UNL     1      13.216 -53.909   4.300  1.00  0.00     0.154 A 
ATOM     37  H11 UNL     1      13.936 -53.217   2.454  1.00  0.00     0.198 HD
BRANCH  36  38
HETATM   38  N12 UNL     1      14.222 -54.144   5.057  1.00  0.00    -0.382 N 
ATOM     39 2H12 UNL     1      14.646 -55.019   5.365  1.00  0.00     0.157 HD
ATOM     40 1H12 UNL     1      14.768 -53.394   5.480  1.00  0.00     0.157 HD
ENDBRANCH  36  38
ENDBRANCH  11  31
ENDBRANCH   7  10
ENDBRANCH   3   4
TORSDOF 10
ENDMDL
MODEL 3
REMARK VINA RESULT: -7.668333100      2.148      7.422
REMARK  10 active torsions:
REMARK  status: ('A' for Active; 'I' for Inactive)
REMARK    1  A    between atoms: O1_3  and  N2_4 
REMARK       I    between atoms: N2_4  and  C2_6 
REMARK    2  A    between atoms: N4_8  and  N5_10 
REMARK    3  A    between atoms: C3_12  and  N6_13 
REMARK    4  A    between atoms: C3_12  and  C10_31 
REMARK    5  A    between atoms: N6_13  and  N7_15 
REMARK    6  A    between atoms: N7_15  and  C4_17 
REMARK    7  A    between atoms: C5_18  and  O2_19 
REMARK    8  A    between atoms: C7_22  and  N8_23 
REMARK    9  A    between atoms: C9_27  and  N9_28 
REMARK   10  A    between atoms: C11_37  and  N12_38 
ROOT
HETATM    1  N1  UNL     1       4.734 -52.417   5.982  1.00  0.00    -0.162 NA
HETATM    2  C1  UNL     1       5.148 -53.493   5.857  1.00  0.00     0.253 C 
HETATM    3  O1  UNL     1       5.641 -54.761   5.696  1.00  0.00    -0.157 OA
ENDROOT
BRANCH   3   4
HETATM    4  N2  UNL     1       5.928 -55.485   6.827  1.00  0.00    -0.220 N 
HETATM    5  C2  UNL     1       6.733 -54.923   7.840  1.00  0.00     0.228 C 
HETATM    6  N3  UNL     1       6.266 -54.932   9.175  1.00  0.00    -0.060 NA
HETATM    7  N4  UNL     1       7.856 -54.419   7.567  1.00  0.00    -0.270 N 
ATOM      8  H4  UNL     1       8.373 -54.034   8.358  1.00  0.00     0.189 HD
ATOM      9  H2  UNL     1       5.559 -56.430   6.935  1.00  0.00     0.198 HD
BRANCH   7  10
HETATM   10  N5  UNL     1       8.471 -54.321   6.348  1.00  0.00    -0.280 N 
HETATM   11  C3  UNL     1       9.713 -54.605   6.123  1.00  0.00     0.168 C 
ATOM     12  H5  UNL     1       7.909 -54.002   5.559  1.00  0.00     0.188 HD
BRANCH  11  13
HETATM   13  N6  UNL     1      10.508 -55.043   7.169  1.00  0.00    -0.282 N 
ATOM     14  H6  UNL     1      10.293 -55.942   7.600  1.00  0.00     0.188 HD
BRANCH  13  15
HETATM   15  N7  UNL     1      11.573 -54.322   7.652  1.00  0.00    -0.294 N 
ATOM     16  H7  UNL     1      11.451 -53.324   7.823  1.00  0.00     0.187 HD
BRANCH  15  17
HETATM   17  C4  UNL     1      12.851 -54.915   7.927  1.00  0.00     0.114 A 
HETATM   18  C5  UNL     1      13.775 -55.171   6.939  1.00  0.00     0.098 A 
HETATM   19  C6  UNL     1      14.995 -55.725   7.344  1.00  0.00     0.075 A 
HETATM   20  C7  UNL     1      15.277 -56.008   8.656  1.00  0.00     0.108 A 
HETATM   21  C8  UNL     1      14.359 -55.751   9.629  1.00  0.00     0.074 A 
HETATM   22  C9  UNL     1      13.121 -55.195   9.277  1.00  0.00     0.136 A 
BRANCH  18  23
HETATM   23  O2  UNL     1      13.539 -54.914   5.628  1.00  0.00    -0.358 OA
ATOM     24  H2  UNL     1      14.207 -54.584   5.040  1.00  0.00     0.217 HD
ENDBRANCH  18  23
BRANCH  20  25
HETATM   25  N8  UNL     1      16.549 -56.576   9.028  1.00  0.00    -0.116 N 
HETATM   26  O3  UNL     1      16.900 -56.643  10.227  1.00  0.00    -0.532 OA
HETATM   27  O4  UNL     1      17.401 -57.055   8.088  1.00  0.00    -0.532 OA
ENDBRANCH  20  25
BRANCH  22  28
HETATM   28  N9  UNL     1      12.181 -54.928  10.303  1.00  0.00    -0.113 N 
HETATM   29  O5  UNL     1      11.621 -53.835  10.427  1.00  0.00    -0.532 OA
HETATM   30  O6  UNL     1      11.878 -55.895  11.231  1.00  0.00    -0.532 OA
ENDBRANCH  22  28
ENDBRANCH  15  17
ENDBRANCH  13  15
ENDBRANCH  11  13
BRANCH  11  31
HETATM   31  C10 UNL     1      10.221 -54.416   4.787  1.00  0.00     0.148 A 
HETATM   32  N10 UNL     1      11.303 -53.765   4.372  1.00  0.00    -0.234 N 
HETATM   33  O7  UNL     1      11.446 -53.804   3.085  1.00  0.00    -0.155 OA
ATOM     34  H10 UNL     1      11.951 -53.287   4.999  1.00  0.00     0.197 HD
HETATM   35  N11 UNL     1      10.443 -54.496   2.605  1.00  0.00    -0.224 N 
HETATM   36  C11 UNL     1       9.650 -54.903   3.606  1.00  0.00     0.154 A 
ATOM     37  H11 UNL     1      10.288 -54.696   1.617  1.00  0.00     0.198 HD
BRANCH  36  38
HETATM   38  N12 UNL     1       8.571 -55.592   3.608  1.00  0.00    -0.382 N 
ATOM     39 2H12 UNL     1       8.411 -56.597   3.678  1.00  0.00     0.157 HD
ATOM     40 1H12 UNL     1       7.651 -55.159   3.529  1.00  0.00     0.157 HD
ENDBRANCH  36  38
ENDBRANCH  11  31
ENDBRANCH   7  10
ENDBRANCH   3   4
TORSDOF 10
ENDMDL
MODEL 4
REMARK VINA RESULT: -7.423762951      2.117      7.256
REMARK  10 active torsions:
REMARK  status: ('A' for Active; 'I' for Inactive)
REMARK    1  A    between atoms: O1_3  and  N2_4 
REMARK       I    between atoms: N2_4  and  C2_6 
REMARK    2  A    between atoms: N4_8  and  N5_10 
REMARK    3  A    between atoms: C3_12  and  N6_13 
REMARK    4  A    between atoms: C3_12  and  C10_31 
REMARK    5  A    between atoms: N6_13  and  N7_15 
REMARK    6  A    between atoms: N7_15  and  C4_17 
REMARK    7  A    between atoms: C5_18  and  O2_19 
REMARK    8  A    between atoms: C7_22  and  N8_23 
REMARK    9  A    between atoms: C9_27  and  N9_28 
REMARK   10  A    between atoms: C11_37  and  N12_38 
ROOT
HETATM    1  N1  UNL     1       4.356 -51.785   5.824  1.00  0.00    -0.162 NA
HETATM    2  C1  UNL     1       5.091 -52.623   6.144  1.00  0.00     0.253 C 
HETATM    3  O1  UNL     1       5.971 -53.605   6.516  1.00  0.00    -0.157 OA
ENDROOT
BRANCH   3   4
HETATM    4  N2  UNL     1       5.554 -54.514   7.457  1.00  0.00    -0.220 N 
HETATM    5  C2  UNL     1       6.287 -55.701   7.666  1.00  0.00     0.228 C 
HETATM    6  N3  UNL     1       6.684 -56.044   8.980  1.00  0.00    -0.060 NA
HETATM    7  N4  UNL     1       6.588 -56.453   6.699  1.00  0.00    -0.270 N 
ATOM      8  H4  UNL     1       7.119 -57.290   6.937  1.00  0.00     0.189 HD
ATOM      9  H2  UNL     1       4.713 -54.331   8.006  1.00  0.00     0.198 HD
BRANCH   7  10
HETATM   10  N5  UNL     1       6.293 -56.291   5.373  1.00  0.00    -0.280 N 
HETATM   11  C3  UNL     1       7.163 -56.044   4.448  1.00  0.00     0.168 C 
ATOM     12  H5  UNL     1       5.315 -56.371   5.093  1.00  0.00     0.188 HD
BRANCH  11  13
HETATM   13  N6  UNL     1       8.500 -55.931   4.789  1.00  0.00    -0.282 N 
ATOM     14  H6  UNL     1       9.079 -56.770   4.773  1.00  0.00     0.188 HD
BRANCH  13  15
HETATM   15  N7  UNL     1       9.082 -54.739   5.148  1.00  0.00    -0.294 N 
ATOM     16  H7  UNL     1       8.487 -53.995   5.512  1.00  0.00     0.187 HD
BRANCH  15  17
HETATM   17  C4  UNL     1      10.492 -54.498   5.032  1.00  0.00     0.114 A 
HETATM   18  C5  UNL     1      11.097 -54.215   3.828  1.00  0.00     0.098 A 
HETATM   19  C6  UNL     1      12.475 -53.971   3.857  1.00  0.00     0.075 A 
HETATM   20  C7  UNL     1      13.206 -54.007   5.017  1.00  0.00     0.108 A 
HETATM   21  C8  UNL     1      12.602 -54.286   6.205  1.00  0.00     0.074 A 
HETATM   22  C9  UNL     1      11.222 -54.538   6.231  1.00  0.00     0.136 A 
BRANCH  18  23
HETATM   23  O2  UNL     1      10.417 -54.174   2.656  1.00  0.00    -0.358 OA
ATOM     24  H2  UNL     1      10.072 -53.369   2.288  1.00  0.00     0.217 HD
ENDBRANCH  18  23
BRANCH  20  25
HETATM   25  N8  UNL     1      14.624 -53.746   4.999  1.00  0.00    -0.116 N 
HETATM   26  O3  UNL     1      15.234 -53.562   3.922  1.00  0.00    -0.532 OA
HETATM   27  O4  UNL     1      15.338 -53.690   6.151  1.00  0.00    -0.532 OA
ENDBRANCH  20  25
BRANCH  22  28
HETATM   28  N9  UNL     1      10.609 -54.819   7.477  1.00  0.00    -0.113 N 
HETATM   29  O5  UNL     1      10.777 -54.116   8.477  1.00  0.00    -0.532 OA
HETATM   30  O6  UNL     1       9.808 -55.926   7.618  1.00  0.00    -0.532 OA
ENDBRANCH  22  28
ENDBRANCH  15  17
ENDBRANCH  13  15
ENDBRANCH  11  13
BRANCH  11  31
HETATM   31  C10 UNL     1       6.687 -55.865   3.098  1.00  0.00     0.148 A 
HETATM   32  N10 UNL     1       6.922 -56.589   2.009  1.00  0.00    -0.234 N 
HETATM   33  O7  UNL     1       6.321 -56.123   0.961  1.00  0.00    -0.155 OA
ATOM     34  H10 UNL     1       7.511 -57.422   2.000  1.00  0.00     0.197 HD
HETATM   35  N11 UNL     1       5.658 -55.057   1.336  1.00  0.00    -0.224 N 
HETATM   36  C11 UNL     1       5.844 -54.843   2.646  1.00  0.00     0.154 A 
ATOM     37  H11 UNL     1       5.087 -54.476   0.723  1.00  0.00     0.198 HD
BRANCH  36  38
HETATM   38  N12 UNL     1       5.399 -53.933   3.429  1.00  0.00    -0.382 N 
ATOM     39 2H12 UNL     1       5.717 -53.613   4.344  1.00  0.00     0.157 HD
ATOM     40 1H12 UNL     1       4.585 -53.366   3.193  1.00  0.00     0.157 HD
ENDBRANCH  36  38
ENDBRANCH  11  31
ENDBRANCH   7  10
ENDBRANCH   3   4
TORSDOF 10
ENDMDL
MODEL 5
REMARK VINA RESULT: -7.388218889      2.042      7.133
REMARK  10 active torsions:
REMARK  status: ('A' for Active; 'I' for Inactive)
REMARK    1  A    between atoms: O1_3  and  N2_4 
REMARK       I    between atoms: N2_4  and  C2_6 
REMARK    2  A    between atoms: N4_8  and  N5_10 
REMARK    3  A    between atoms: C3_12  and  N6_13 
REMARK    4  A    between atoms: C3_12  and  C10_31 
REMARK    5  A    between atoms: N6_13  and  N7_15 
REMARK    6  A    between atoms: N7_15  and  C4_17 
REMARK    7  A    between atoms: C5_18  and  O2_19 
REMARK    8  A    between atoms: C7_22  and  N8_23 
REMARK    9  A    between atoms: C9_27  and  N9_28 
REMARK   10  A    between atoms: C11_37  and  N12_38 
ROOT
HETATM    1  N1  UNL     1       4.233 -51.700   5.886  1.00  0.00    -0.162 NA
HETATM    2  C1  UNL     1       5.038 -52.428   6.293  1.00  0.00     0.253 C 
HETATM    3  O1  UNL     1       6.001 -53.276   6.773  1.00  0.00    -0.157 OA
ENDROOT
BRANCH   3   4
HETATM    4  N2  UNL     1       5.585 -54.409   7.429  1.00  0.00    -0.220 N 
HETATM    5  C2  UNL     1       6.425 -55.541   7.485  1.00  0.00     0.228 C 
HETATM    6  N3  UNL     1       6.698 -56.135   8.739  1.00  0.00    -0.060 NA
HETATM    7  N4  UNL     1       6.929 -56.024   6.434  1.00  0.00    -0.270 N 
ATOM      8  H4  UNL     1       7.524 -56.842   6.564  1.00  0.00     0.189 HD
ATOM      9  H2  UNL     1       4.669 -54.432   7.877  1.00  0.00     0.198 HD
BRANCH   7  10
HETATM   10  N5  UNL     1       6.780 -55.593   5.144  1.00  0.00    -0.280 N 
HETATM   11  C3  UNL     1       7.755 -55.324   4.338  1.00  0.00     0.168 C 
ATOM     12  H5  UNL     1       5.829 -55.475   4.792  1.00  0.00     0.188 HD
BRANCH  11  13
HETATM   13  N6  UNL     1       9.059 -55.474   4.779  1.00  0.00    -0.282 N 
ATOM     14  H6  UNL     1       9.539 -56.354   4.590  1.00  0.00     0.188 HD
BRANCH  13  15
HETATM   15  N7  UNL     1       9.736 -54.491   5.461  1.00  0.00    -0.294 N 
ATOM     16  H7  UNL     1       9.197 -53.777   5.951  1.00  0.00     0.187 HD
BRANCH  15  17
HETATM   17  C4  UNL     1      11.169 -54.428   5.512  1.00  0.00     0.114 A 
HETATM   18  C5  UNL     1      11.935 -54.128   4.408  1.00  0.00     0.098 A 
HETATM   19  C6  UNL     1      13.320 -54.070   4.600  1.00  0.00     0.075 A 
HETATM   20  C7  UNL     1      13.907 -54.297   5.818  1.00  0.00     0.108 A 
HETATM   21  C8  UNL     1      13.143 -54.593   6.907  1.00  0.00     0.074 A 
HETATM   22  C9  UNL     1      11.750 -54.663   6.769  1.00  0.00     0.136 A 
BRANCH  18  23
HETATM   23  O2  UNL     1      11.401 -53.901   3.183  1.00  0.00    -0.358 OA
ATOM     24  H2  UNL     1      10.715 -53.262   3.029  1.00  0.00     0.217 HD
ENDBRANCH  18  23
BRANCH  20  25
HETATM   25  N8  UNL     1      15.339 -54.224   5.969  1.00  0.00    -0.116 N 
HETATM   26  O3  UNL     1      15.969 -53.186   5.662  1.00  0.00    -0.532 OA
HETATM   27  O4  UNL     1      16.046 -55.278   6.450  1.00  0.00    -0.532 OA
ENDBRANCH  20  25
BRANCH  22  28
HETATM   28  N9  UNL     1      10.970 -54.964   7.914  1.00  0.00    -0.113 N 
HETATM   29  O5  UNL     1      11.145 -54.411   9.004  1.00  0.00    -0.532 OA
HETATM   30  O6  UNL     1       9.989 -55.922   7.848  1.00  0.00    -0.532 OA
ENDBRANCH  22  28
ENDBRANCH  15  17
ENDBRANCH  13  15
ENDBRANCH  11  13
BRANCH  11  31
HETATM   31  C10 UNL     1       7.432 -54.844   3.017  1.00  0.00     0.148 A 
HETATM   32  N10 UNL     1       6.424 -54.079   2.612  1.00  0.00    -0.234 N 
HETATM   33  O7  UNL     1       6.453 -53.849   1.338  1.00  0.00    -0.155 OA
ATOM     34  H10 UNL     1       5.705 -53.713   3.237  1.00  0.00     0.197 HD
HETATM   35  N11 UNL     1       7.502 -54.467   0.856  1.00  0.00    -0.224 N 
HETATM   36  C11 UNL     1       8.150 -55.101   1.844  1.00  0.00     0.154 A 
ATOM     37  H11 UNL     1       7.785 -54.466  -0.124  1.00  0.00     0.198 HD
BRANCH  36  38
HETATM   38  N12 UNL     1       9.209 -55.821   1.839  1.00  0.00    -0.382 N 
ATOM     39 2H12 UNL     1       9.356 -56.807   2.052  1.00  0.00     0.157 HD
ATOM     40 1H12 UNL     1      10.122 -55.440   1.593  1.00  0.00     0.157 HD
ENDBRANCH  36  38
ENDBRANCH  11  31
ENDBRANCH   7  10
ENDBRANCH   3   4
TORSDOF 10
ENDMDL
