MODEL 1
REMARK VINA RESULT: -3.985041788      0.000      0.000
REMARK  3 active torsions:
REMARK  status: ('A' for Active; 'I' for Inactive)
REMARK    1  A    between atoms: S1_2  and  C2_3 
REMARK    2  A    between atoms: N2_9  and  N3_10 
REMARK    3  A    between atoms: N3_10  and  C6_12 
ROOT
HETATM    1  C2  UNL     1     -20.692   8.519  -5.197  1.00  0.00     0.156 C 
HETATM    2  N1  UNL     1     -19.444   8.192  -5.150  1.00  0.00    -0.369 N 
ATOM      3  H1  UNL     1     -19.194   7.250  -5.452  1.00  0.00     0.161 HD
HETATM    4  C3  UNL     1     -18.384   9.045  -4.709  1.00  0.00     0.123 C 
HETATM    5  C4  UNL     1     -18.828  10.349  -4.134  1.00  0.00     0.041 C 
HETATM    6  C5  UNL     1     -20.114  10.869  -4.713  1.00  0.00     0.152 C 
HETATM    7  N2  UNL     1     -21.106   9.816  -4.789  1.00  0.00    -0.275 N 
ENDROOT
BRANCH   7   8
HETATM    8  N3  UNL     1     -22.418  10.089  -4.468  1.00  0.00    -0.328 N 
ATOM      9  H3  UNL     1     -22.930   9.556  -3.766  1.00  0.00     0.180 HD
BRANCH   8  10
HETATM   10  C6  UNL     1     -23.009  11.169  -5.188  1.00  0.00     0.091 C 
HETATM   11  C7  UNL     1     -24.228  10.754  -5.986  1.00  0.00     0.033 C 
HETATM   12  C8  UNL     1     -23.457  12.208  -4.171  1.00  0.00     0.033 C 
ENDBRANCH   8  10
ENDBRANCH   7   8
BRANCH   1  13
HETATM   13  S1  UNL     1     -21.967   7.395  -5.762  1.00  0.00    -0.097 SA
HETATM   14  C1  UNL     1     -21.304   5.735  -6.033  1.00  0.00     0.099 C 
ENDBRANCH   1  13
TORSDOF 3
ENDMDL
MODEL 2
REMARK VINA RESULT: -3.954429883      1.446      1.491
REMARK  3 active torsions:
REMARK  status: ('A' for Active; 'I' for Inactive)
REMARK    1  A    between atoms: S1_2  and  C2_3 
REMARK    2  A    between atoms: N2_9  and  N3_10 
REMARK    3  A    between atoms: N3_10  and  C6_12 
ROOT
HETATM    1  C2  UNL     1     -21.384   9.142  -5.151  1.00  0.00     0.156 C 
HETATM    2  N1  UNL     1     -20.304   8.435  -5.107  1.00  0.00    -0.369 N 
ATOM      3  H1  UNL     1     -20.368   7.462  -5.408  1.00  0.00     0.161 HD
HETATM    4  C3  UNL     1     -19.027   8.908  -4.672  1.00  0.00     0.123 C 
HETATM    5  C4  UNL     1     -19.031  10.285  -4.099  1.00  0.00     0.041 C 
HETATM    6  C5  UNL     1     -20.086  11.186  -4.676  1.00  0.00     0.152 C 
HETATM    7  N2  UNL     1     -21.362  10.505  -4.746  1.00  0.00    -0.275 N 
ENDROOT
BRANCH   7   8
HETATM    8  N3  UNL     1     -22.518  11.181  -4.422  1.00  0.00    -0.328 N 
ATOM      9  H3  UNL     1     -23.188  10.823  -3.741  1.00  0.00     0.180 HD
BRANCH   8  10
HETATM   10  C6  UNL     1     -22.712  12.417  -5.106  1.00  0.00     0.091 C 
HETATM   11  C7  UNL     1     -23.096  12.236  -6.561  1.00  0.00     0.033 C 
HETATM   12  C8  UNL     1     -23.854  13.149  -4.417  1.00  0.00     0.033 C 
ENDBRANCH   8  10
ENDBRANCH   7   8
BRANCH   1  13
HETATM   13  S1  UNL     1     -22.952   8.481  -5.711  1.00  0.00    -0.097 SA
HETATM   14  C1  UNL     1     -23.907   7.805  -4.333  1.00  0.00     0.099 C 
ENDBRANCH   1  13
TORSDOF 3
ENDMDL
MODEL 3
REMARK VINA RESULT: -3.941868751      1.029      1.047
REMARK  3 active torsions:
REMARK  status: ('A' for Active; 'I' for Inactive)
REMARK    1  A    between atoms: S1_2  and  C2_3 
REMARK    2  A    between atoms: N2_9  and  N3_10 
REMARK    3  A    between atoms: N3_10  and  C6_12 
ROOT
HETATM    1  C2  UNL     1     -20.379   8.141  -5.295  1.00  0.00     0.156 C 
HETATM    2  N1  UNL     1     -19.090   8.123  -5.227  1.00  0.00    -0.369 N 
ATOM      3  H1  UNL     1     -18.614   7.280  -5.549  1.00  0.00     0.161 HD
HETATM    4  C3  UNL     1     -18.276   9.192  -4.737  1.00  0.00     0.123 C 
HETATM    5  C4  UNL     1     -19.031  10.331  -4.137  1.00  0.00     0.041 C 
HETATM    6  C5  UNL     1     -20.394  10.544  -4.733  1.00  0.00     0.152 C 
HETATM    7  N2  UNL     1     -21.102   9.286  -4.862  1.00  0.00    -0.275 N 
ENDROOT
BRANCH   7   8
HETATM    8  N3  UNL     1     -22.445   9.224  -4.566  1.00  0.00    -0.328 N 
ATOM      9  H3  UNL     1     -22.831   8.532  -3.923  1.00  0.00     0.180 HD
BRANCH   8  10
HETATM   10  C6  UNL     1     -23.259  10.195  -5.221  1.00  0.00     0.091 C 
HETATM   11  C7  UNL     1     -23.465   9.900  -6.693  1.00  0.00     0.033 C 
HETATM   12  C8  UNL     1     -24.626  10.175  -4.553  1.00  0.00     0.033 C 
ENDBRANCH   8  10
ENDBRANCH   7   8
BRANCH   1  13
HETATM   13  S1  UNL     1     -21.334   6.762  -5.923  1.00  0.00    -0.097 SA
HETATM   14  C1  UNL     1     -20.433   5.874  -7.214  1.00  0.00     0.099 C 
ENDBRANCH   1  13
TORSDOF 3
ENDMDL
MODEL 4
REMARK VINA RESULT: -3.902290623      1.880      3.124
REMARK  3 active torsions:
REMARK  status: ('A' for Active; 'I' for Inactive)
REMARK    1  A    between atoms: S1_2  and  C2_3 
REMARK    2  A    between atoms: N2_9  and  N3_10 
REMARK    3  A    between atoms: N3_10  and  C6_12 
ROOT
HETATM    1  C2  UNL     1     -20.835   8.880  -4.701  1.00  0.00     0.156 C 
HETATM    2  N1  UNL     1     -20.777   7.734  -5.292  1.00  0.00    -0.369 N 
ATOM      3  H1  UNL     1     -19.868   7.274  -5.336  1.00  0.00     0.161 HD
HETATM    4  C3  UNL     1     -21.887   7.059  -5.890  1.00  0.00     0.123 C 
HETATM    5  C4  UNL     1     -23.152   7.849  -5.933  1.00  0.00     0.041 C 
HETATM    6  C5  UNL     1     -23.300   8.831  -4.805  1.00  0.00     0.152 C 
HETATM    7  N2  UNL     1     -22.073   9.574  -4.606  1.00  0.00    -0.275 N 
ENDROOT
BRANCH   7   8
HETATM    8  N3  UNL     1     -22.126  10.923  -4.331  1.00  0.00    -0.328 N 
ATOM      9  H3  UNL     1     -22.260  11.282  -3.386  1.00  0.00     0.180 HD
BRANCH   8  10
HETATM   10  C6  UNL     1     -21.982  11.781  -5.461  1.00  0.00     0.091 C 
HETATM   11  C7  UNL     1     -23.283  12.437  -5.878  1.00  0.00     0.033 C 
HETATM   12  C8  UNL     1     -21.011  12.888  -5.077  1.00  0.00     0.033 C 
ENDBRANCH   8  10
ENDBRANCH   7   8
BRANCH   1  13
HETATM   13  S1  UNL     1     -19.400   9.667  -3.972  1.00  0.00    -0.097 SA
HETATM   14  C1  UNL     1     -17.892   9.242  -4.872  1.00  0.00     0.099 C 
ENDBRANCH   1  13
TORSDOF 3
ENDMDL
MODEL 5
REMARK VINA RESULT: -3.691624537      1.780      3.362
REMARK  3 active torsions:
REMARK  status: ('A' for Active; 'I' for Inactive)
REMARK    1  A    between atoms: S1_2  and  C2_3 
REMARK    2  A    between atoms: N2_9  and  N3_10 
REMARK    3  A    between atoms: N3_10  and  C6_12 
ROOT
HETATM    1  C2  UNL     1     -21.499   9.036  -4.908  1.00  0.00     0.156 C 
HETATM    2  N1  UNL     1     -21.500   8.112  -5.810  1.00  0.00    -0.369 N 
ATOM      3  H1  UNL     1     -20.705   7.473  -5.828  1.00  0.00     0.161 HD
HETATM    4  C3  UNL     1     -22.527   7.915  -6.786  1.00  0.00     0.123 C 
HETATM    5  C4  UNL     1     -23.580   8.971  -6.810  1.00  0.00     0.041 C 
HETATM    6  C5  UNL     1     -23.828   9.621  -5.477  1.00  0.00     0.152 C 
HETATM    7  N2  UNL     1     -22.577   9.960  -4.830  1.00  0.00    -0.275 N 
ENDROOT
BRANCH   7   8
HETATM    8  N3  UNL     1     -22.457  11.156  -4.159  1.00  0.00    -0.328 N 
ATOM      9  H3  UNL     1     -22.363  11.206  -3.144  1.00  0.00     0.180 HD
BRANCH   8  10
HETATM   10  C6  UNL     1     -22.471  12.321  -4.982  1.00  0.00     0.091 C 
HETATM   11  C7  UNL     1     -23.386  13.408  -4.454  1.00  0.00     0.033 C 
HETATM   12  C8  UNL     1     -21.058  12.883  -5.009  1.00  0.00     0.033 C 
ENDBRANCH   8  10
ENDBRANCH   7   8
BRANCH   1  13
HETATM   13  S1  UNL     1     -20.175   9.223  -3.716  1.00  0.00    -0.097 SA
HETATM   14  C1  UNL     1     -18.698   9.927  -4.482  1.00  0.00     0.099 C 
ENDBRANCH   1  13
TORSDOF 3
ENDMDL
