MODEL 1
REMARK VINA RESULT: -3.452437244      0.000      0.000
REMARK  3 active torsions:
REMARK  status: ('A' for Active; 'I' for Inactive)
REMARK    1  A    between atoms: S1_2  and  S2_3 
REMARK    2  A    between atoms: S2_3  and  C2_4 
REMARK    3  A    between atoms: C6_9  and  O2_10 
ROOT
HETATM    1  C2  UNL     1     -21.028  11.034  -4.773  1.00  0.00     0.222 C 
HETATM    2  O1  UNL     1     -19.677  11.265  -4.945  1.00  0.00    -0.372 OA
HETATM    3  C3  UNL     1     -18.996  10.438  -4.059  1.00  0.00     0.169 C 
HETATM    4  C4  UNL     1     -19.096   9.010  -4.469  1.00  0.00     0.029 C 
HETATM    5  C5  UNL     1     -20.469   8.605  -4.916  1.00  0.00     0.037 C 
HETATM    6  C6  UNL     1     -21.498   9.645  -4.630  1.00  0.00     0.158 C 
ENDROOT
BRANCH   1   7
HETATM    7  S2  UNL     1     -22.143  12.136  -5.655  1.00  0.00    -0.063 SA
BRANCH   7   8
HETATM    8  S1  UNL     1     -23.702  12.857  -4.417  1.00  0.00    -0.099 SA
HETATM    9  C1  UNL     1     -25.105  11.725  -4.259  1.00  0.00     0.103 C 
ENDBRANCH   7   8
ENDBRANCH   1   7
BRANCH   6  10
HETATM   10  O2  UNL     1     -22.631   9.451  -5.423  1.00  0.00    -0.392 OA
ATOM     11  H2  UNL     1     -22.792   8.521  -5.526  1.00  0.00     0.210 HD
ENDBRANCH   6  10
TORSDOF 3
ENDMDL
MODEL 2
REMARK VINA RESULT: -3.409563443      1.555      1.685
REMARK  3 active torsions:
REMARK  status: ('A' for Active; 'I' for Inactive)
REMARK    1  A    between atoms: S1_2  and  S2_3 
REMARK    2  A    between atoms: S2_3  and  C2_4 
REMARK    3  A    between atoms: C6_9  and  O2_10 
ROOT
HETATM    1  C2  UNL     1     -21.052  10.683  -4.197  1.00  0.00     0.222 C 
HETATM    2  O1  UNL     1     -19.871  11.183  -4.708  1.00  0.00    -0.372 OA
HETATM    3  C3  UNL     1     -18.832  10.427  -4.176  1.00  0.00     0.169 C 
HETATM    4  C4  UNL     1     -18.826   9.049  -4.740  1.00  0.00     0.029 C 
HETATM    5  C5  UNL     1     -20.188   8.429  -4.834  1.00  0.00     0.037 C 
HETATM    6  C6  UNL     1     -21.232   9.222  -4.126  1.00  0.00     0.158 C 
ENDROOT
BRANCH   1   7
HETATM    7  S2  UNL     1     -22.541  11.624  -4.563  1.00  0.00    -0.063 SA
BRANCH   7   8
HETATM    8  S1  UNL     1     -22.774  11.979  -6.638  1.00  0.00    -0.099 SA
HETATM    9  C1  UNL     1     -22.902  10.476  -7.636  1.00  0.00     0.103 C 
ENDBRANCH   7   8
ENDBRANCH   1   7
BRANCH   6  10
HETATM   10  O2  UNL     1     -22.507   8.886  -4.586  1.00  0.00    -0.392 OA
ATOM     11  H2  UNL     1     -22.482   8.759  -5.528  1.00  0.00     0.210 HD
ENDBRANCH   6  10
TORSDOF 3
ENDMDL
MODEL 3
REMARK VINA RESULT: -3.298706444      1.368      1.571
REMARK  3 active torsions:
REMARK  status: ('A' for Active; 'I' for Inactive)
REMARK    1  A    between atoms: S1_2  and  S2_3 
REMARK    2  A    between atoms: S2_3  and  C2_4 
REMARK    3  A    between atoms: C6_9  and  O2_10 
ROOT
HETATM    1  C2  UNL     1     -20.975  10.026  -4.897  1.00  0.00     0.222 C 
HETATM    2  O1  UNL     1     -20.011  11.014  -4.948  1.00  0.00    -0.372 OA
HETATM    3  C3  UNL     1     -19.008  10.667  -4.049  1.00  0.00     0.169 C 
HETATM    4  C4  UNL     1     -18.236   9.490  -4.532  1.00  0.00     0.029 C 
HETATM    5  C5  UNL     1     -19.091   8.400  -5.106  1.00  0.00     0.037 C 
HETATM    6  C6  UNL     1     -20.545   8.617  -4.856  1.00  0.00     0.158 C 
ENDROOT
BRANCH   1   7
HETATM    7  S2  UNL     1     -22.490  10.342  -5.814  1.00  0.00    -0.063 SA
BRANCH   7   8
HETATM    8  S1  UNL     1     -23.066  12.377  -5.732  1.00  0.00    -0.099 SA
HETATM    9  C1  UNL     1     -22.619  13.212  -4.190  1.00  0.00     0.103 C 
ENDBRANCH   7   8
ENDBRANCH   1   7
BRANCH   6  10
HETATM   10  O2  UNL     1     -21.318   7.868  -5.746  1.00  0.00    -0.392 OA
ATOM     11  H2  UNL     1     -21.788   8.453  -6.329  1.00  0.00     0.210 HD
ENDBRANCH   6  10
TORSDOF 3
ENDMDL
MODEL 4
REMARK VINA RESULT: -3.298474686      1.618      2.492
REMARK  3 active torsions:
REMARK  status: ('A' for Active; 'I' for Inactive)
REMARK    1  A    between atoms: S1_2  and  S2_3 
REMARK    2  A    between atoms: S2_3  and  C2_4 
REMARK    3  A    between atoms: C6_9  and  O2_10 
ROOT
HETATM    1  C2  UNL     1     -21.790  10.660  -4.809  1.00  0.00     0.222 C 
HETATM    2  O1  UNL     1     -21.832   9.449  -4.147  1.00  0.00    -0.372 OA
HETATM    3  C3  UNL     1     -20.843   8.639  -4.694  1.00  0.00     0.169 C 
HETATM    4  C4  UNL     1     -19.484   9.122  -4.322  1.00  0.00     0.029 C 
HETATM    5  C5  UNL     1     -19.325  10.609  -4.416  1.00  0.00     0.037 C 
HETATM    6  C6  UNL     1     -20.479  11.271  -5.089  1.00  0.00     0.158 C 
ENDROOT
BRANCH   1   7
HETATM    7  S2  UNL     1     -23.114  11.820  -4.434  1.00  0.00    -0.063 SA
BRANCH   7   8
HETATM    8  S1  UNL     1     -24.010  12.606  -6.184  1.00  0.00    -0.099 SA
HETATM    9  C1  UNL     1     -23.305  11.973  -7.725  1.00  0.00     0.103 C 
ENDBRANCH   7   8
ENDBRANCH   1   7
BRANCH   6  10
HETATM   10  O2  UNL     1     -20.521  12.632  -4.776  1.00  0.00    -0.392 OA
ATOM     11  H2  UNL     1     -21.119  13.075  -5.367  1.00  0.00     0.210 HD
ENDBRANCH   6  10
TORSDOF 3
ENDMDL
MODEL 5
REMARK VINA RESULT: -3.270928542      1.295      2.309
REMARK  3 active torsions:
REMARK  status: ('A' for Active; 'I' for Inactive)
REMARK    1  A    between atoms: S1_2  and  S2_3 
REMARK    2  A    between atoms: S2_3  and  C2_4 
REMARK    3  A    between atoms: C6_9  and  O2_10 
ROOT
HETATM    1  C2  UNL     1     -21.896  10.750  -4.790  1.00  0.00     0.222 C 
HETATM    2  O1  UNL     1     -21.986   9.532  -4.144  1.00  0.00    -0.372 OA
HETATM    3  C3  UNL     1     -21.066   8.676  -4.738  1.00  0.00     0.169 C 
HETATM    4  C4  UNL     1     -19.669   9.072  -4.407  1.00  0.00     0.029 C 
HETATM    5  C5  UNL     1     -19.426  10.550  -4.485  1.00  0.00     0.037 C 
HETATM    6  C6  UNL     1     -20.562  11.288  -5.107  1.00  0.00     0.158 C 
ENDROOT
BRANCH   1   7
HETATM    7  S2  UNL     1     -23.137  11.978  -4.351  1.00  0.00    -0.063 SA
BRANCH   7   8
HETATM    8  S1  UNL     1     -25.099  11.334  -4.817  1.00  0.00    -0.099 SA
HETATM    9  C1  UNL     1     -25.532   9.719  -4.128  1.00  0.00     0.103 C 
ENDBRANCH   7   8
ENDBRANCH   1   7
BRANCH   6  10
HETATM   10  O2  UNL     1     -20.514  12.643  -4.774  1.00  0.00    -0.392 OA
ATOM     11  H2  UNL     1     -19.868  12.779  -4.090  1.00  0.00     0.210 HD
ENDBRANCH   6  10
TORSDOF 3
ENDMDL
