MODEL 1
REMARK VINA RESULT: -5.245281277      0.000      0.000
REMARK  2 active torsions:
REMARK  status: ('A' for Active; 'I' for Inactive)
REMARK    1  A    between atoms: N3_8  and  N4_9 
REMARK    2  A    between atoms: N4_9  and  C4_11 
ROOT
HETATM    1  C1  UNL     1     -18.752  10.256  -4.037  1.00  0.00     0.092 C 
HETATM    2  C2  UNL     1     -19.452   9.111  -4.717  1.00  0.00     0.114 A 
HETATM    3  N1  UNL     1     -18.846   8.116  -5.370  1.00  0.00    -0.287 N 
ATOM      4  H1  UNL     1     -17.842   7.993  -5.497  1.00  0.00     0.188 HD
HETATM    5  N2  UNL     1     -19.804   7.319  -5.819  1.00  0.00    -0.293 N 
ATOM      6  H2  UNL     1     -19.655   6.467  -6.360  1.00  0.00     0.187 HD
HETATM    7  C3  UNL     1     -21.002   7.805  -5.454  1.00  0.00     0.224 A 
HETATM    8  N3  UNL     1     -20.781   8.931  -4.762  1.00  0.00    -0.241 N 
ENDROOT
BRANCH   8   9
HETATM    9  N4  UNL     1     -21.728   9.776  -4.183  1.00  0.00    -0.323 N 
ATOM     10  H4  UNL     1     -21.927   9.695  -3.186  1.00  0.00     0.181 HD
BRANCH   9  11
HETATM   11  C4  UNL     1     -22.443  10.780  -4.983  1.00  0.00     0.100 C 
HETATM   12  C5  UNL     1     -23.887  10.765  -4.534  1.00  0.00     0.026 C 
HETATM   13  C6  UNL     1     -24.706  11.824  -5.233  1.00  0.00     0.002 C 
HETATM   14  C7  UNL     1     -24.018  13.177  -5.195  1.00  0.00     0.000 C 
HETATM   15  C8  UNL     1     -22.832  13.153  -4.254  1.00  0.00     0.002 C 
HETATM   16  C9  UNL     1     -21.845  12.138  -4.787  1.00  0.00     0.026 C 
ENDBRANCH   9  11
ENDBRANCH   8   9
TORSDOF 2
ENDMDL
MODEL 2
REMARK VINA RESULT: -5.125918052      0.915      1.817
REMARK  2 active torsions:
REMARK  status: ('A' for Active; 'I' for Inactive)
REMARK    1  A    between atoms: N3_8  and  N4_9 
REMARK    2  A    between atoms: N4_9  and  C4_11 
ROOT
HETATM    1  C1  UNL     1     -20.647   7.366  -5.549  1.00  0.00     0.092 C 
HETATM    2  C2  UNL     1     -19.482   8.270  -5.248  1.00  0.00     0.114 A 
HETATM    3  N1  UNL     1     -18.210   8.021  -5.570  1.00  0.00    -0.287 N 
ATOM      4  H1  UNL     1     -17.854   7.198  -6.056  1.00  0.00     0.188 HD
HETATM    5  N2  UNL     1     -17.500   9.051  -5.135  1.00  0.00    -0.293 N 
ATOM      6  H2  UNL     1     -16.490   9.153  -5.232  1.00  0.00     0.187 HD
HETATM    7  C3  UNL     1     -18.314   9.942  -4.545  1.00  0.00     0.224 A 
HETATM    8  N3  UNL     1     -19.559   9.451  -4.616  1.00  0.00    -0.241 N 
ENDROOT
BRANCH   8   9
HETATM    9  N4  UNL     1     -20.734  10.033  -4.138  1.00  0.00    -0.323 N 
ATOM     10  H4  UNL     1     -21.001   9.892  -3.163  1.00  0.00     0.181 HD
BRANCH   9  11
HETATM   11  C4  UNL     1     -21.593  10.844  -5.013  1.00  0.00     0.100 C 
HETATM   12  C5  UNL     1     -23.026  10.548  -4.632  1.00  0.00     0.026 C 
HETATM   13  C6  UNL     1     -24.003  11.394  -5.412  1.00  0.00     0.002 C 
HETATM   14  C7  UNL     1     -23.607  12.859  -5.398  1.00  0.00     0.000 C 
HETATM   15  C8  UNL     1     -22.495  13.109  -4.402  1.00  0.00     0.002 C 
HETATM   16  C9  UNL     1     -21.295  12.301  -4.845  1.00  0.00     0.026 C 
ENDBRANCH   9  11
ENDBRANCH   8   9
TORSDOF 2
ENDMDL
MODEL 3
REMARK VINA RESULT: -4.916078780      0.918      1.166
REMARK  2 active torsions:
REMARK  status: ('A' for Active; 'I' for Inactive)
REMARK    1  A    between atoms: N3_8  and  N4_9 
REMARK    2  A    between atoms: N4_9  and  C4_11 
ROOT
HETATM    1  C1  UNL     1     -18.762  10.289  -4.116  1.00  0.00     0.092 C 
HETATM    2  C2  UNL     1     -19.602   9.182  -4.692  1.00  0.00     0.114 A 
HETATM    3  N1  UNL     1     -19.129   8.096  -5.310  1.00  0.00    -0.287 N 
ATOM      4  H1  UNL     1     -18.149   7.868  -5.475  1.00  0.00     0.188 HD
HETATM    5  N2  UNL     1     -20.181   7.374  -5.665  1.00  0.00    -0.293 N 
ATOM      6  H2  UNL     1     -20.142   6.482  -6.159  1.00  0.00     0.187 HD
HETATM    7  C3  UNL     1     -21.306   7.995  -5.276  1.00  0.00     0.224 A 
HETATM    8  N3  UNL     1     -20.943   9.131  -4.665  1.00  0.00    -0.241 N 
ENDROOT
BRANCH   8   9
HETATM    9  N4  UNL     1     -21.774  10.096  -4.096  1.00  0.00    -0.323 N 
ATOM     10  H4  UNL     1     -21.592  10.415  -3.144  1.00  0.00     0.181 HD
BRANCH   9  11
HETATM   11  C4  UNL     1     -22.906  10.662  -4.843  1.00  0.00     0.100 C 
HETATM   12  C5  UNL     1     -23.218  12.010  -4.230  1.00  0.00     0.026 C 
HETATM   13  C6  UNL     1     -24.318  12.727  -4.976  1.00  0.00     0.002 C 
HETATM   14  C7  UNL     1     -24.069  12.726  -6.473  1.00  0.00     0.000 C 
HETATM   15  C8  UNL     1     -22.672  12.236  -6.788  1.00  0.00     0.002 C 
HETATM   16  C9  UNL     1     -22.565  10.811  -6.293  1.00  0.00     0.026 C 
ENDBRANCH   9  11
ENDBRANCH   8   9
TORSDOF 2
ENDMDL
MODEL 4
REMARK VINA RESULT: -4.879111868      1.365      2.526
REMARK  2 active torsions:
REMARK  status: ('A' for Active; 'I' for Inactive)
REMARK    1  A    between atoms: N3_8  and  N4_9 
REMARK    2  A    between atoms: N4_9  and  C4_11 
ROOT
HETATM    1  C1  UNL     1     -21.029   6.991  -5.791  1.00  0.00     0.092 C 
HETATM    2  C2  UNL     1     -19.809   7.800  -5.446  1.00  0.00     0.114 A 
HETATM    3  N1  UNL     1     -18.601   7.646  -5.996  1.00  0.00    -0.287 N 
ATOM      4  H1  UNL     1     -18.340   6.970  -6.714  1.00  0.00     0.188 HD
HETATM    5  N2  UNL     1     -17.808   8.541  -5.426  1.00  0.00    -0.293 N 
ATOM      6  H2  UNL     1     -16.819   8.670  -5.638  1.00  0.00     0.187 HD
HETATM    7  C3  UNL     1     -18.507   9.254  -4.527  1.00  0.00     0.224 A 
HETATM    8  N3  UNL     1     -19.764   8.788  -4.540  1.00  0.00    -0.241 N 
ENDROOT
BRANCH   8   9
HETATM    9  N4  UNL     1     -20.843   9.227  -3.773  1.00  0.00    -0.323 N 
ATOM     10  H4  UNL     1     -21.099   8.714  -2.929  1.00  0.00     0.181 HD
BRANCH   9  11
HETATM   11  C4  UNL     1     -21.619  10.414  -4.159  1.00  0.00     0.100 C 
HETATM   12  C5  UNL     1     -20.653  11.396  -4.785  1.00  0.00     0.026 C 
HETATM   13  C6  UNL     1     -21.356  12.628  -5.300  1.00  0.00     0.002 C 
HETATM   14  C7  UNL     1     -22.568  12.268  -6.141  1.00  0.00     0.000 C 
HETATM   15  C8  UNL     1     -22.593  10.786  -6.445  1.00  0.00     0.002 C 
HETATM   16  C9  UNL     1     -22.700  10.051  -5.127  1.00  0.00     0.026 C 
ENDBRANCH   9  11
ENDBRANCH   8   9
TORSDOF 2
ENDMDL
MODEL 5
REMARK VINA RESULT: -4.540778461      0.458      1.729
REMARK  2 active torsions:
REMARK  status: ('A' for Active; 'I' for Inactive)
REMARK    1  A    between atoms: N3_8  and  N4_9 
REMARK    2  A    between atoms: N4_9  and  C4_11 
ROOT
HETATM    1  C1  UNL     1     -22.452   7.232  -5.767  1.00  0.00     0.092 C 
HETATM    2  C2  UNL     1     -21.108   7.824  -5.441  1.00  0.00     0.114 A 
HETATM    3  N1  UNL     1     -19.931   7.314  -5.814  1.00  0.00    -0.287 N 
ATOM      4  H1  UNL     1     -19.780   6.467  -6.362  1.00  0.00     0.188 HD
HETATM    5  N2  UNL     1     -18.998   8.122  -5.333  1.00  0.00    -0.293 N 
ATOM      6  H2  UNL     1     -17.993   7.997  -5.452  1.00  0.00     0.187 HD
HETATM    7  C3  UNL     1     -19.579   9.132  -4.665  1.00  0.00     0.224 A 
HETATM    8  N3  UNL     1     -20.904   8.944  -4.733  1.00  0.00    -0.241 N 
ENDROOT
BRANCH   8   9
HETATM    9  N4  UNL     1     -21.908   9.744  -4.185  1.00  0.00    -0.323 N 
ATOM     10  H4  UNL     1     -22.174   9.615  -3.209  1.00  0.00     0.181 HD
BRANCH   9  11
HETATM   11  C4  UNL     1     -22.588  10.769  -4.989  1.00  0.00     0.100 C 
HETATM   12  C5  UNL     1     -24.032  10.806  -4.539  1.00  0.00     0.026 C 
HETATM   13  C6  UNL     1     -24.814  11.889  -5.242  1.00  0.00     0.002 C 
HETATM   14  C7  UNL     1     -24.080  13.217  -5.210  1.00  0.00     0.000 C 
HETATM   15  C8  UNL     1     -22.896  13.157  -4.269  1.00  0.00     0.002 C 
HETATM   16  C9  UNL     1     -21.944  12.107  -4.799  1.00  0.00     0.026 C 
ENDBRANCH   9  11
ENDBRANCH   8   9
TORSDOF 2
ENDMDL
