MODEL 1
REMARK VINA RESULT: -4.164215874      0.000      0.000
REMARK  1 active torsions:
REMARK  status: ('A' for Active; 'I' for Inactive)
REMARK    1  A    between atoms: C3_7  and  C4_8 
ROOT
HETATM    1  C1  UNL     1     -22.918   6.960  -5.565  1.00  0.00     0.066 C 
HETATM    2  C2  UNL     1     -22.152   8.220  -5.335  1.00  0.00     0.020 C 
HETATM    3  N1  UNL     1     -20.953   8.251  -4.885  1.00  0.00    -0.299 N 
ATOM      4  H1  UNL     1     -20.419   7.416  -4.646  1.00  0.00     0.187 HD
HETATM    5  N2  UNL     1     -20.458   9.542  -4.758  1.00  0.00    -0.247 N 
HETATM    6  S1  UNL     1     -18.948   9.962  -3.976  1.00  0.00     0.062 SA
HETATM    7  C3  UNL     1     -21.377  10.438  -5.364  1.00  0.00     0.143 C 
HETATM    8  C7  UNL     1     -22.605   9.620  -5.569  1.00  0.00     0.165 C 
HETATM    9  C8  UNL     1     -23.032   9.670  -6.988  1.00  0.00     0.072 C 
HETATM   10  N3  UNL     1     -23.351   9.696  -8.101  1.00  0.00    -0.196 NA
ENDROOT
BRANCH   7  11
HETATM   11  C4  UNL     1     -21.604  11.674  -4.529  1.00  0.00     0.004 C 
HETATM   12  C5  UNL     1     -20.958  12.878  -5.151  1.00  0.00     0.012 C 
HETATM   13  C6  UNL     1     -23.042  11.882  -4.171  1.00  0.00     0.012 C 
ENDBRANCH   7  11
TORSDOF 1
ENDMDL
MODEL 2
REMARK VINA RESULT: -4.146242289      2.457      3.708
REMARK  1 active torsions:
REMARK  status: ('A' for Active; 'I' for Inactive)
REMARK    1  A    between atoms: C3_7  and  C4_8 
ROOT
HETATM    1  C1  UNL     1     -24.058  12.184  -4.405  1.00  0.00     0.066 C 
HETATM    2  C2  UNL     1     -23.058  11.130  -4.742  1.00  0.00     0.020 C 
HETATM    3  N1  UNL     1     -23.344  10.055  -5.377  1.00  0.00    -0.299 N 
ATOM      4  H1  UNL     1     -24.282   9.828  -5.707  1.00  0.00     0.187 HD
HETATM    5  N2  UNL     1     -22.243   9.231  -5.567  1.00  0.00    -0.247 N 
HETATM    6  S1  UNL     1     -22.311   7.598  -6.198  1.00  0.00     0.062 SA
HETATM    7  C3  UNL     1     -21.078   9.937  -5.168  1.00  0.00     0.143 C 
HETATM    8  C7  UNL     1     -21.602  11.116  -4.423  1.00  0.00     0.165 C 
HETATM    9  C8  UNL     1     -21.057  12.373  -4.988  1.00  0.00     0.072 C 
HETATM   10  N3  UNL     1     -20.644  13.353  -5.445  1.00  0.00    -0.196 NA
ENDROOT
BRANCH   7  11
HETATM   11  C4  UNL     1     -20.139   9.077  -4.359  1.00  0.00     0.004 C 
HETATM   12  C5  UNL     1     -18.704   9.398  -4.667  1.00  0.00     0.012 C 
HETATM   13  C6  UNL     1     -20.454   9.082  -2.896  1.00  0.00     0.012 C 
ENDBRANCH   7  11
TORSDOF 1
ENDMDL
MODEL 3
REMARK VINA RESULT: -4.040324903      2.740      3.343
REMARK  1 active torsions:
REMARK  status: ('A' for Active; 'I' for Inactive)
REMARK    1  A    between atoms: C3_7  and  C4_8 
ROOT
HETATM    1  C1  UNL     1     -23.102   7.509  -5.180  1.00  0.00     0.066 C 
HETATM    2  C2  UNL     1     -23.197   8.978  -4.941  1.00  0.00     0.020 C 
HETATM    3  N1  UNL     1     -24.278   9.574  -4.600  1.00  0.00    -0.299 N 
ATOM      4  H1  UNL     1     -25.167   9.095  -4.463  1.00  0.00     0.187 HD
HETATM    5  N2  UNL     1     -24.111  10.943  -4.437  1.00  0.00    -0.247 N 
HETATM    6  S1  UNL     1     -25.413  12.089  -4.190  1.00  0.00     0.062 SA
HETATM    7  C3  UNL     1     -22.724  11.238  -4.505  1.00  0.00     0.143 C 
HETATM    8  C7  UNL     1     -22.111   9.993  -5.045  1.00  0.00     0.165 C 
HETATM    9  C8  UNL     1     -21.030   9.515  -4.151  1.00  0.00     0.072 C 
HETATM   10  N3  UNL     1     -20.200   9.135  -3.438  1.00  0.00    -0.196 NA
ENDROOT
BRANCH   7  11
HETATM   11  C4  UNL     1     -22.442  12.464  -5.339  1.00  0.00     0.004 C 
HETATM   12  C5  UNL     1     -21.091  13.039  -5.022  1.00  0.00     0.012 C 
HETATM   13  C6  UNL     1     -22.672  12.242  -6.801  1.00  0.00     0.012 C 
ENDBRANCH   7  11
TORSDOF 1
ENDMDL
MODEL 4
REMARK VINA RESULT: -3.926640850      2.520      3.230
REMARK  1 active torsions:
REMARK  status: ('A' for Active; 'I' for Inactive)
REMARK    1  A    between atoms: C3_7  and  C4_8 
ROOT
HETATM    1  C1  UNL     1     -21.385   7.314  -5.837  1.00  0.00     0.066 C 
HETATM    2  C2  UNL     1     -22.112   8.536  -5.386  1.00  0.00     0.020 C 
HETATM    3  N1  UNL     1     -23.340   8.540  -5.024  1.00  0.00    -0.299 N 
ATOM      4  H1  UNL     1     -23.927   7.706  -5.013  1.00  0.00     0.187 HD
HETATM    5  N2  UNL     1     -23.788   9.800  -4.648  1.00  0.00    -0.247 N 
HETATM    6  S1  UNL     1     -25.458  10.208  -4.309  1.00  0.00     0.062 SA
HETATM    7  C3  UNL     1     -22.672  10.675  -4.588  1.00  0.00     0.143 C 
HETATM    8  C7  UNL     1     -21.582   9.924  -5.272  1.00  0.00     0.165 C 
HETATM    9  C8  UNL     1     -20.390   9.827  -4.397  1.00  0.00     0.072 C 
HETATM   10  N3  UNL     1     -19.467   9.736  -3.702  1.00  0.00    -0.196 NA
ENDROOT
BRANCH   7  11
HETATM   11  C4  UNL     1     -22.967  12.017  -5.210  1.00  0.00     0.004 C 
HETATM   12  C5  UNL     1     -22.329  13.131  -4.429  1.00  0.00     0.012 C 
HETATM   13  C6  UNL     1     -22.665  12.062  -6.675  1.00  0.00     0.012 C 
ENDBRANCH   7  11
TORSDOF 1
ENDMDL
MODEL 5
REMARK VINA RESULT: -3.731158085      2.396      3.669
REMARK  1 active torsions:
REMARK  status: ('A' for Active; 'I' for Inactive)
REMARK    1  A    between atoms: C3_7  and  C4_8 
ROOT
HETATM    1  C1  UNL     1     -19.312   9.961  -4.276  1.00  0.00     0.066 C 
HETATM    2  C2  UNL     1     -20.761   9.825  -4.599  1.00  0.00     0.020 C 
HETATM    3  N1  UNL     1     -21.517   8.915  -4.108  1.00  0.00    -0.299 N 
ATOM      4  H1  UNL     1     -21.191   8.205  -3.453  1.00  0.00     0.187 HD
HETATM    5  N2  UNL     1     -22.827   8.997  -4.563  1.00  0.00    -0.247 N 
HETATM    6  S1  UNL     1     -24.065   7.794  -4.270  1.00  0.00     0.062 SA
HETATM    7  C3  UNL     1     -22.975  10.207  -5.291  1.00  0.00     0.143 C 
HETATM    8  C7  UNL     1     -21.578  10.674  -5.511  1.00  0.00     0.165 C 
HETATM    9  C8  UNL     1     -21.411  12.063  -5.020  1.00  0.00     0.072 C 
HETATM   10  N3  UNL     1     -21.281  13.141  -4.618  1.00  0.00    -0.196 NA
ENDROOT
BRANCH   7  11
HETATM   11  C4  UNL     1     -23.757  10.012  -6.566  1.00  0.00     0.004 C 
HETATM   12  C5  UNL     1     -24.811  11.071  -6.726  1.00  0.00     0.012 C 
HETATM   13  C6  UNL     1     -22.884   9.849  -7.770  1.00  0.00     0.012 C 
ENDBRANCH   7  11
TORSDOF 1
ENDMDL
