MODEL 1
REMARK VINA RESULT: -6.210731076      0.000      0.000
REMARK  2 active torsions:
REMARK  status: ('A' for Active; 'I' for Inactive)
REMARK    1  A    between atoms: C2_2  and  C3_3 
REMARK    2  A    between atoms: C2_2  and  N2_13 
ROOT
HETATM    1  C3  UNL     1      45.960  42.019  78.428  1.00  0.00     0.042 C 
HETATM    2  C4  UNL     1      45.664  40.682  79.012  1.00  0.00     0.035 C 
HETATM    3  C5  UNL     1      46.470  39.644  78.280  1.00  0.00     0.058 C 
HETATM    4  C6  UNL     1      45.964  38.235  78.527  1.00  0.00     0.034 C 
HETATM    5 CL1  UNL     1      48.130  39.702  78.972  1.00  0.00    -0.118 Cl
HETATM    6  C7  UNL     1      46.568  39.870  76.812  1.00  0.00     0.261 C 
HETATM    7  N1  UNL     1      45.637  40.835  76.292  1.00  0.00    -0.072 N 
HETATM    8  C8  UNL     1      44.275  40.343  76.272  1.00  0.00     0.272 C 
HETATM    9  C9  UNL     1      46.012  41.033  74.881  1.00  0.00     0.272 C 
HETATM   10  C10 UNL     1      45.787  42.097  76.941  1.00  0.00     0.243 C 
ENDROOT
BRANCH   1  11
HETATM   11  C2  UNL     1      45.212  43.147  79.087  1.00  0.00     0.157 C 
HETATM   12  C1  UNL     1      43.775  43.242  78.664  1.00  0.00     0.039 C 
BRANCH  11  13
HETATM   13  N2  UNL     1      45.243  43.050  80.529  1.00  0.00    -0.151 N 
HETATM   14  O1  UNL     1      46.246  42.719  81.171  1.00  0.00    -0.536 OA
HETATM   15  O2  UNL     1      44.095  43.343  81.218  1.00  0.00    -0.536 OA
ENDBRANCH  11  13
ENDBRANCH   1  11
TORSDOF 2
ENDMDL
MODEL 2
REMARK VINA RESULT: -5.782937775      3.205      4.499
REMARK  2 active torsions:
REMARK  status: ('A' for Active; 'I' for Inactive)
REMARK    1  A    between atoms: C2_2  and  C3_3 
REMARK    2  A    between atoms: C2_2  and  N2_13 
ROOT
HETATM    1  C3  UNL     1      44.833  40.295  76.977  1.00  0.00     0.042 C 
HETATM    2  C4  UNL     1      46.268  39.922  77.122  1.00  0.00     0.035 C 
HETATM    3  C5  UNL     1      46.578  39.745  78.583  1.00  0.00     0.058 C 
HETATM    4  C6  UNL     1      48.068  39.748  78.865  1.00  0.00     0.034 C 
HETATM    5 CL1  UNL     1      45.993  38.105  79.035  1.00  0.00    -0.118 Cl
HETATM    6  C7  UNL     1      45.917  40.738  79.473  1.00  0.00     0.261 C 
HETATM    7  N1  UNL     1      45.361  41.875  78.791  1.00  0.00    -0.072 N 
HETATM    8  C8  UNL     1      46.377  42.780  78.294  1.00  0.00     0.272 C 
HETATM    9  C9  UNL     1      44.617  42.631  79.813  1.00  0.00     0.272 C 
HETATM   10  C10 UNL     1      44.413  41.472  77.804  1.00  0.00     0.243 C 
ENDROOT
BRANCH   1  11
HETATM   11  C2  UNL     1      44.401  40.495  75.550  1.00  0.00     0.157 C 
HETATM   12  C1  UNL     1      45.522  40.885  74.631  1.00  0.00     0.039 C 
BRANCH  11  13
HETATM   13  N2  UNL     1      43.772  39.314  75.001  1.00  0.00    -0.151 N 
HETATM   14  O1  UNL     1      44.269  38.631  74.098  1.00  0.00    -0.536 OA
HETATM   15  O2  UNL     1      42.560  38.934  75.513  1.00  0.00    -0.536 OA
ENDBRANCH  11  13
ENDBRANCH   1  11
TORSDOF 2
ENDMDL
MODEL 3
REMARK VINA RESULT: -5.730581338      2.540      3.666
REMARK  2 active torsions:
REMARK  status: ('A' for Active; 'I' for Inactive)
REMARK    1  A    between atoms: C2_2  and  C3_3 
REMARK    2  A    between atoms: C2_2  and  N2_13 
ROOT
HETATM    1  C3  UNL     1      44.996  40.158  77.314  1.00  0.00     0.042 C 
HETATM    2  C4  UNL     1      44.948  39.898  75.849  1.00  0.00     0.035 C 
HETATM    3  C5  UNL     1      44.350  38.537  75.618  1.00  0.00     0.058 C 
HETATM    4  C6  UNL     1      44.608  38.020  74.215  1.00  0.00     0.034 C 
HETATM    5 CL1  UNL     1      42.566  38.733  75.752  1.00  0.00    -0.118 Cl
HETATM    6  C7  UNL     1      44.781  37.504  76.599  1.00  0.00     0.261 C 
HETATM    7  N1  UNL     1      45.919  37.877  77.397  1.00  0.00    -0.072 N 
HETATM    8  C8  UNL     1      47.154  37.882  76.640  1.00  0.00     0.272 C 
HETATM    9  C9  UNL     1      46.070  36.809  78.401  1.00  0.00     0.272 C 
HETATM   10  C10 UNL     1      45.673  39.086  78.112  1.00  0.00     0.243 C 
ENDROOT
BRANCH   1  11
HETATM   11  C2  UNL     1      45.574  41.501  77.672  1.00  0.00     0.157 C 
HETATM   12  C1  UNL     1      45.632  42.457  76.516  1.00  0.00     0.039 C 
BRANCH  11  13
HETATM   13  N2  UNL     1      44.839  42.143  78.739  1.00  0.00    -0.151 N 
HETATM   14  O1  UNL     1      43.783  42.763  78.565  1.00  0.00    -0.536 OA
HETATM   15  O2  UNL     1      45.342  42.057  80.010  1.00  0.00    -0.536 OA
ENDBRANCH  11  13
ENDBRANCH   1  11
TORSDOF 2
ENDMDL
MODEL 4
REMARK VINA RESULT: -5.661655604      2.330      3.228
REMARK  2 active torsions:
REMARK  status: ('A' for Active; 'I' for Inactive)
REMARK    1  A    between atoms: C2_2  and  C3_3 
REMARK    2  A    between atoms: C2_2  and  N2_13 
ROOT
HETATM    1  C3  UNL     1      44.757  41.364  77.134  1.00  0.00     0.042 C 
HETATM    2  C4  UNL     1      46.025  41.157  76.381  1.00  0.00     0.035 C 
HETATM    3  C5  UNL     1      45.693  40.814  74.955  1.00  0.00     0.058 C 
HETATM    4  C6  UNL     1      46.871  40.214  74.212  1.00  0.00     0.034 C 
HETATM    5 CL1  UNL     1      45.325  42.368  74.126  1.00  0.00    -0.118 Cl
HETATM    6  C7  UNL     1      44.517  39.914  74.801  1.00  0.00     0.261 C 
HETATM    7  N1  UNL     1      44.092  39.272  76.016  1.00  0.00    -0.072 N 
HETATM    8  C8  UNL     1      45.010  38.239  76.452  1.00  0.00     0.272 C 
HETATM    9  C9  UNL     1      42.836  38.578  75.684  1.00  0.00     0.272 C 
HETATM   10  C10 UNL     1      43.781  40.232  77.024  1.00  0.00     0.243 C 
ENDROOT
BRANCH   1  11
HETATM   11  C2  UNL     1      44.963  41.721  78.581  1.00  0.00     0.157 C 
HETATM   12  C1  UNL     1      46.382  41.562  79.043  1.00  0.00     0.039 C 
BRANCH  11  13
HETATM   13  N2  UNL     1      44.554  43.077  78.870  1.00  0.00    -0.151 N 
HETATM   14  O1  UNL     1      45.346  44.019  78.991  1.00  0.00    -0.536 OA
HETATM   15  O2  UNL     1      43.215  43.328  79.018  1.00  0.00    -0.536 OA
ENDBRANCH  11  13
ENDBRANCH   1  11
TORSDOF 2
ENDMDL
MODEL 5
REMARK VINA RESULT: -5.605766197      2.441      3.756
REMARK  2 active torsions:
REMARK  status: ('A' for Active; 'I' for Inactive)
REMARK    1  A    between atoms: C2_2  and  C3_3 
REMARK    2  A    between atoms: C2_2  and  N2_13 
ROOT
HETATM    1  C3  UNL     1      45.916  39.616  78.597  1.00  0.00     0.042 C 
HETATM    2  C4  UNL     1      46.354  40.829  77.852  1.00  0.00     0.035 C 
HETATM    3  C5  UNL     1      45.212  41.314  77.001  1.00  0.00     0.058 C 
HETATM    4  C6  UNL     1      45.660  42.290  75.930  1.00  0.00     0.034 C 
HETATM    5 CL1  UNL     1      44.120  42.241  78.090  1.00  0.00    -0.118 Cl
HETATM    6  C7  UNL     1      44.421  40.227  76.363  1.00  0.00     0.261 C 
HETATM    7  N1  UNL     1      45.048  38.933  76.396  1.00  0.00    -0.072 N 
HETATM    8  C8  UNL     1      46.179  38.837  75.496  1.00  0.00     0.272 C 
HETATM    9  C9  UNL     1      44.043  37.988  75.878  1.00  0.00     0.272 C 
HETATM   10  C10 UNL     1      45.339  38.535  77.735  1.00  0.00     0.243 C 
ENDROOT
BRANCH   1  11
HETATM   11  C2  UNL     1      46.979  39.039  79.493  1.00  0.00     0.157 C 
HETATM   12  C1  UNL     1      48.371  39.459  79.121  1.00  0.00     0.039 C 
BRANCH  11  13
HETATM   13  N2  UNL     1      46.769  39.387  80.880  1.00  0.00    -0.151 N 
HETATM   14  O1  UNL     1      46.674  40.552  81.287  1.00  0.00    -0.536 OA
HETATM   15  O2  UNL     1      46.669  38.369  81.791  1.00  0.00    -0.536 OA
ENDBRANCH  11  13
ENDBRANCH   1  11
TORSDOF 2
ENDMDL
