MODEL 1
REMARK VINA RESULT: -6.830003575      0.000      0.000
REMARK  2 active torsions:
REMARK  status: ('A' for Active; 'I' for Inactive)
REMARK    1  A    between atoms: C2_2  and  C3_3 
REMARK    2  A    between atoms: C8_8  and  N1_9 
ROOT
HETATM    1  C3  UNL     1      46.750  41.050  78.621  1.00  0.00     0.030 C 
HETATM    2  C4  UNL     1      46.011  41.374  77.341  1.00  0.00     0.016 C 
HETATM    3  C5  UNL     1      44.997  40.409  76.914  1.00  0.00    -0.003 C 
HETATM    4  C6  UNL     1      45.088  39.007  77.404  1.00  0.00    -0.002 C 
HETATM    5  C7  UNL     1      46.051  38.657  78.444  1.00  0.00     0.031 C 
HETATM    6  C8  UNL     1      47.161  39.635  78.726  1.00  0.00     0.086 C 
HETATM    7  C11 UNL     1      45.264  38.286  76.077  1.00  0.00     0.014 C 
HETATM    8  C12 UNL     1      46.151  39.192  75.248  1.00  0.00     0.014 C 
HETATM    9  C13 UNL     1      44.956  40.146  75.406  1.00  0.00     0.014 C 
HETATM   10  C14 UNL     1      44.149  38.885  75.237  1.00  0.00     0.041 C 
HETATM   11  C15 UNL     1      42.789  38.824  75.772  1.00  0.00     0.033 C 
HETATM   12 CL1  UNL     1      44.244  38.280  73.576  1.00  0.00    -0.119 Cl
ENDROOT
BRANCH   6  13
HETATM   13  N1  UNL     1      47.867  39.326  79.896  1.00  0.00    -0.416 N 
HETATM   14  C9  UNL     1      49.250  39.274  79.998  1.00  0.00     0.143 C 
HETATM   15  C10 UNL     1      47.229  38.458  80.839  1.00  0.00     0.143 C 
ENDBRANCH   6  13
BRANCH   1  16
HETATM   16  C2  UNL     1      46.000  41.585  79.767  1.00  0.00    -0.030 C 
HETATM   17  C1  UNL     1      45.643  42.857  79.795  1.00  0.00     0.007 C 
ENDBRANCH   1  16
TORSDOF 2
ENDMDL
MODEL 2
REMARK VINA RESULT: -6.535720556      3.415      5.720
REMARK  2 active torsions:
REMARK  status: ('A' for Active; 'I' for Inactive)
REMARK    1  A    between atoms: C2_2  and  C3_3 
REMARK    2  A    between atoms: C8_8  and  N1_9 
ROOT
HETATM    1  C3  UNL     1      45.716  40.573  77.070  1.00  0.00     0.030 C 
HETATM    2  C4  UNL     1      45.614  40.740  78.570  1.00  0.00     0.016 C 
HETATM    3  C5  UNL     1      44.589  41.666  79.053  1.00  0.00    -0.003 C 
HETATM    4  C6  UNL     1      44.090  42.726  78.135  1.00  0.00    -0.002 C 
HETATM    5  C7  UNL     1      44.470  42.712  76.726  1.00  0.00     0.031 C 
HETATM    6  C8  UNL     1      45.636  41.846  76.326  1.00  0.00     0.086 C 
HETATM    7  C11 UNL     1      44.516  43.958  78.917  1.00  0.00     0.014 C 
HETATM    8  C12 UNL     1      45.861  43.604  79.515  1.00  0.00     0.014 C 
HETATM    9  C13 UNL     1      45.018  42.539  80.235  1.00  0.00     0.014 C 
HETATM   10  C14 UNL     1      44.000  43.647  80.312  1.00  0.00     0.041 C 
HETATM   11  C15 UNL     1      42.583  43.312  80.453  1.00  0.00     0.033 C 
HETATM   12 CL1  UNL     1      44.507  44.908  81.446  1.00  0.00    -0.119 Cl
ENDROOT
BRANCH   6  13
HETATM   13  N1  UNL     1      45.753  41.709  74.936  1.00  0.00    -0.416 N 
HETATM   14  C9  UNL     1      44.764  42.033  74.020  1.00  0.00     0.143 C 
HETATM   15  C10 UNL     1      46.612  40.673  74.448  1.00  0.00     0.143 C 
ENDBRANCH   6  13
BRANCH   1  16
HETATM   16  C2  UNL     1      44.793  39.516  76.632  1.00  0.00    -0.030 C 
HETATM   17  C1  UNL     1      45.050  38.249  76.906  1.00  0.00     0.007 C 
ENDBRANCH   1  16
TORSDOF 2
ENDMDL
MODEL 3
REMARK VINA RESULT: -6.402400233      1.423      3.182
REMARK  2 active torsions:
REMARK  status: ('A' for Active; 'I' for Inactive)
REMARK    1  A    between atoms: C2_2  and  C3_3 
REMARK    2  A    between atoms: C8_8  and  N1_9 
ROOT
HETATM    1  C3  UNL     1      45.980  40.334  79.426  1.00  0.00     0.030 C 
HETATM    2  C4  UNL     1      45.857  39.073  78.600  1.00  0.00     0.016 C 
HETATM    3  C5  UNL     1      46.135  39.203  77.169  1.00  0.00    -0.003 C 
HETATM    4  C6  UNL     1      46.011  40.543  76.533  1.00  0.00    -0.002 C 
HETATM    5  C7  UNL     1      45.813  41.729  77.359  1.00  0.00     0.031 C 
HETATM    6  C8  UNL     1      45.379  41.522  78.786  1.00  0.00     0.086 C 
HETATM    7  C11 UNL     1      44.904  40.246  75.534  1.00  0.00     0.014 C 
HETATM    8  C12 UNL     1      43.957  39.311  76.256  1.00  0.00     0.014 C 
HETATM    9  C13 UNL     1      45.199  38.405  76.258  1.00  0.00     0.014 C 
HETATM   10  C14 UNL     1      45.399  38.970  74.876  1.00  0.00     0.041 C 
HETATM   11  C15 UNL     1      46.740  38.983  74.292  1.00  0.00     0.033 C 
HETATM   12 CL1  UNL     1      44.183  38.353  73.747  1.00  0.00    -0.119 Cl
ENDROOT
BRANCH   6  13
HETATM   13  N1  UNL     1      45.464  42.693  79.551  1.00  0.00    -0.416 N 
HETATM   14  C9  UNL     1      45.203  42.774  80.911  1.00  0.00     0.143 C 
HETATM   15  C10 UNL     1      45.210  43.934  78.884  1.00  0.00     0.143 C 
ENDBRANCH   6  13
BRANCH   1  16
HETATM   16  C2  UNL     1      47.370  40.487  79.881  1.00  0.00    -0.030 C 
HETATM   17  C1  UNL     1      48.174  39.439  79.932  1.00  0.00     0.007 C 
ENDBRANCH   1  16
TORSDOF 2
ENDMDL
MODEL 4
REMARK VINA RESULT: -6.216418792      2.783      5.096
REMARK  2 active torsions:
REMARK  status: ('A' for Active; 'I' for Inactive)
REMARK    1  A    between atoms: C2_2  and  C3_3 
REMARK    2  A    between atoms: C8_8  and  N1_9 
ROOT
HETATM    1  C3  UNL     1      45.408  39.338  76.447  1.00  0.00     0.030 C 
HETATM    2  C4  UNL     1      46.027  38.088  77.033  1.00  0.00     0.016 C 
HETATM    3  C5  UNL     1      46.213  38.073  78.485  1.00  0.00    -0.003 C 
HETATM    4  C6  UNL     1      46.285  39.370  79.213  1.00  0.00    -0.002 C 
HETATM    5  C7  UNL     1      45.977  40.616  78.518  1.00  0.00     0.031 C 
HETATM    6  C8  UNL     1      45.952  40.589  77.012  1.00  0.00     0.086 C 
HETATM    7  C11 UNL     1      47.692  39.264  79.778  1.00  0.00     0.014 C 
HETATM    8  C12 UNL     1      48.509  38.598  78.690  1.00  0.00     0.014 C 
HETATM    9  C13 UNL     1      47.527  37.446  78.958  1.00  0.00     0.014 C 
HETATM   10  C14 UNL     1      47.687  37.875  80.393  1.00  0.00     0.041 C 
HETATM   11  C15 UNL     1      46.632  37.565  81.358  1.00  0.00     0.033 C 
HETATM   12 CL1  UNL     1      49.297  37.473  81.009  1.00  0.00    -0.119 Cl
ENDROOT
BRANCH   6  13
HETATM   13  N1  UNL     1      45.405  41.755  76.461  1.00  0.00    -0.416 N 
HETATM   14  C9  UNL     1      45.808  42.334  75.267  1.00  0.00     0.143 C 
HETATM   15  C10 UNL     1      44.871  42.724  77.370  1.00  0.00     0.143 C 
ENDBRANCH   6  13
BRANCH   1  16
HETATM   16  C2  UNL     1      43.943  39.211  76.465  1.00  0.00    -0.030 C 
HETATM   17  C1  UNL     1      43.272  39.069  75.335  1.00  0.00     0.007 C 
ENDBRANCH   1  16
TORSDOF 2
ENDMDL
MODEL 5
REMARK VINA RESULT: -6.205502201      2.764      5.038
REMARK  2 active torsions:
REMARK  status: ('A' for Active; 'I' for Inactive)
REMARK    1  A    between atoms: C2_2  and  C3_3 
REMARK    2  A    between atoms: C8_8  and  N1_9 
ROOT
HETATM    1  C3  UNL     1      44.986  40.624  77.804  1.00  0.00     0.030 C 
HETATM    2  C4  UNL     1      45.582  40.519  79.191  1.00  0.00     0.016 C 
HETATM    3  C5  UNL     1      46.952  40.011  79.274  1.00  0.00    -0.003 C 
HETATM    4  C6  UNL     1      47.478  39.180  78.156  1.00  0.00    -0.002 C 
HETATM    5  C7  UNL     1      46.712  39.046  76.921  1.00  0.00     0.031 C 
HETATM    6  C8  UNL     1      45.261  39.449  76.952  1.00  0.00     0.086 C 
HETATM    7  C11 UNL     1      47.743  37.885  78.908  1.00  0.00     0.014 C 
HETATM    8  C12 UNL     1      46.600  37.757  79.894  1.00  0.00     0.014 C 
HETATM    9  C13 UNL     1      47.213  39.056  80.441  1.00  0.00     0.014 C 
HETATM   10  C14 UNL     1      48.516  38.371  80.121  1.00  0.00     0.041 C 
HETATM   11  C15 UNL     1      49.713  39.179  79.885  1.00  0.00     0.033 C 
HETATM   12 CL1  UNL     1      48.824  37.025  81.229  1.00  0.00    -0.119 Cl
ENDROOT
BRANCH   6  13
HETATM   13  N1  UNL     1      44.695  39.522  75.672  1.00  0.00    -0.416 N 
HETATM   14  C9  UNL     1      43.396  39.152  75.356  1.00  0.00     0.143 C 
HETATM   15  C10 UNL     1      45.577  39.378  74.554  1.00  0.00     0.143 C 
ENDBRANCH   6  13
BRANCH   1  16
HETATM   16  C2  UNL     1      45.327  41.930  77.224  1.00  0.00    -0.030 C 
HETATM   17  C1  UNL     1      44.883  43.044  77.779  1.00  0.00     0.007 C 
ENDBRANCH   1  16
TORSDOF 2
ENDMDL
