MODEL 1
REMARK VINA RESULT: -7.066312356      0.000      0.000
REMARK  4 active torsions:
REMARK  status: ('A' for Active; 'I' for Inactive)
REMARK    1  A    between atoms: C2_2  and  N1_4 
REMARK    2  A    between atoms: N1_4  and  C5_6 
REMARK    3  A    between atoms: C5_6  and  O1_7 
REMARK    4  A    between atoms: C5_6  and  C6_9 
ROOT
HETATM    1  C6  UNL     1      45.066  40.543  75.911  1.00  0.00     0.032 C 
HETATM    2  C7  UNL     1      44.414  40.760  74.561  1.00  0.00     0.023 C 
HETATM    3  C8  UNL     1      43.727  39.409  74.355  1.00  0.00    -0.010 C 
HETATM    4  C9  UNL     1      43.041  39.219  75.692  1.00  0.00     0.010 C 
HETATM    5  C10 UNL     1      44.204  39.582  76.639  1.00  0.00     0.005 C 
HETATM    6  C11 UNL     1      44.981  38.249  76.678  1.00  0.00     0.049 C 
HETATM    7  C12 UNL     1      45.720  38.365  75.362  1.00  0.00     0.105 C 
HETATM    8  F1  UNL     1      46.676  37.380  75.225  1.00  0.00    -0.243 F 
HETATM    9  C13 UNL     1      44.820  38.380  74.160  1.00  0.00     0.048 C 
HETATM   10  C14 UNL     1      46.341  39.729  75.558  1.00  0.00     0.061 C 
ENDROOT
BRANCH   1  11
HETATM   11  C5  UNL     1      45.418  41.788  76.560  1.00  0.00     0.122 C 
BRANCH  11  12
HETATM   12  N1  UNL     1      45.281  42.281  77.843  1.00  0.00    -0.365 N 
HETATM   13  C4  UNL     1      44.082  43.092  78.154  1.00  0.00     0.152 C 
BRANCH  12  14
HETATM   14  C2  UNL     1      46.220  42.060  78.896  1.00  0.00     0.077 C 
HETATM   15  C1  UNL     1      46.189  40.593  79.362  1.00  0.00     0.032 C 
HETATM   16  C3  UNL     1      45.814  42.824  80.171  1.00  0.00     0.032 C 
ENDBRANCH  12  14
ENDBRANCH  11  12
BRANCH  11  17
HETATM   17  O1  UNL     1      45.994  42.635  75.737  1.00  0.00    -0.349 OA
ATOM     18  H1  UNL     1      46.373  42.216  74.973  1.00  0.00     0.219 HD
ENDBRANCH  11  17
ENDBRANCH   1  11
TORSDOF 4
ENDMDL
MODEL 2
REMARK VINA RESULT: -6.860398499      1.852      2.815
REMARK  4 active torsions:
REMARK  status: ('A' for Active; 'I' for Inactive)
REMARK    1  A    between atoms: C2_2  and  N1_4 
REMARK    2  A    between atoms: N1_4  and  C5_6 
REMARK    3  A    between atoms: C5_6  and  O1_7 
REMARK    4  A    between atoms: C5_6  and  C6_9 
ROOT
HETATM    1  C6  UNL     1      45.360  41.106  76.657  1.00  0.00     0.032 C 
HETATM    2  C7  UNL     1      44.146  40.233  76.895  1.00  0.00     0.023 C 
HETATM    3  C8  UNL     1      44.138  39.397  75.614  1.00  0.00    -0.010 C 
HETATM    4  C9  UNL     1      45.587  38.963  75.535  1.00  0.00     0.010 C 
HETATM    5  C10 UNL     1      46.283  40.313  75.810  1.00  0.00     0.005 C 
HETATM    6  C11 UNL     1      46.243  40.957  74.408  1.00  0.00     0.049 C 
HETATM    7  C12 UNL     1      44.808  41.441  74.408  1.00  0.00     0.105 C 
HETATM    8  F1  UNL     1      44.546  42.259  73.330  1.00  0.00    -0.243 F 
HETATM    9  C13 UNL     1      43.795  40.334  74.475  1.00  0.00     0.048 C 
HETATM   10  C14 UNL     1      44.818  42.211  75.709  1.00  0.00     0.061 C 
ENDROOT
BRANCH   1  11
HETATM   11  C5  UNL     1      45.870  41.687  77.880  1.00  0.00     0.122 C 
BRANCH  11  12
HETATM   12  N1  UNL     1      46.104  41.207  79.154  1.00  0.00    -0.365 N 
HETATM   13  C4  UNL     1      45.845  42.112  80.298  1.00  0.00     0.152 C 
BRANCH  12  14
HETATM   14  C2  UNL     1      46.578  39.892  79.446  1.00  0.00     0.077 C 
HETATM   15  C1  UNL     1      46.746  39.693  80.964  1.00  0.00     0.032 C 
HETATM   16  C3  UNL     1      48.013  39.691  78.922  1.00  0.00     0.032 C 
ENDBRANCH  12  14
ENDBRANCH  11  12
BRANCH  11  17
HETATM   17  O1  UNL     1      46.175  42.958  77.740  1.00  0.00    -0.349 OA
ATOM     18  H1  UNL     1      45.682  43.388  77.051  1.00  0.00     0.219 HD
ENDBRANCH  11  17
ENDBRANCH   1  11
TORSDOF 4
ENDMDL
MODEL 3
REMARK VINA RESULT: -6.703377274      1.265      2.145
REMARK  4 active torsions:
REMARK  status: ('A' for Active; 'I' for Inactive)
REMARK    1  A    between atoms: C2_2  and  N1_4 
REMARK    2  A    between atoms: N1_4  and  C5_6 
REMARK    3  A    between atoms: C5_6  and  O1_7 
REMARK    4  A    between atoms: C5_6  and  C6_9 
ROOT
HETATM    1  C6  UNL     1      45.262  40.590  76.225  1.00  0.00     0.032 C 
HETATM    2  C7  UNL     1      46.266  39.544  76.659  1.00  0.00     0.023 C 
HETATM    3  C8  UNL     1      46.102  38.510  75.544  1.00  0.00    -0.010 C 
HETATM    4  C9  UNL     1      46.159  39.390  74.313  1.00  0.00     0.010 C 
HETATM    5  C10 UNL     1      45.193  40.512  74.746  1.00  0.00     0.005 C 
HETATM    6  C11 UNL     1      43.828  39.874  74.410  1.00  0.00     0.049 C 
HETATM    7  C12 UNL     1      43.682  38.974  75.619  1.00  0.00     0.105 C 
HETATM    8  F1  UNL     1      42.422  38.418  75.692  1.00  0.00    -0.243 F 
HETATM    9  C13 UNL     1      44.727  37.898  75.705  1.00  0.00     0.048 C 
HETATM   10  C14 UNL     1      43.908  39.999  76.706  1.00  0.00     0.061 C 
ENDROOT
BRANCH   1  11
HETATM   11  C5  UNL     1      45.505  41.878  76.840  1.00  0.00     0.122 C 
BRANCH  11  12
HETATM   12  N1  UNL     1      45.260  42.413  78.089  1.00  0.00    -0.365 N 
HETATM   13  C4  UNL     1      44.036  43.228  78.270  1.00  0.00     0.152 C 
BRANCH  12  14
HETATM   14  C2  UNL     1      46.108  42.235  79.224  1.00  0.00     0.077 C 
HETATM   15  C1  UNL     1      46.086  40.771  79.702  1.00  0.00     0.032 C 
HETATM   16  C3  UNL     1      45.565  42.995  80.448  1.00  0.00     0.032 C 
ENDBRANCH  12  14
ENDBRANCH  11  12
BRANCH  11  17
HETATM   17  O1  UNL     1      46.088  42.721  76.018  1.00  0.00    -0.349 OA
ATOM     18  H1  UNL     1      45.473  43.247  75.521  1.00  0.00     0.219 HD
ENDBRANCH  11  17
ENDBRANCH   1  11
TORSDOF 4
ENDMDL
MODEL 4
REMARK VINA RESULT: -6.580266256      1.388      2.544
REMARK  4 active torsions:
REMARK  status: ('A' for Active; 'I' for Inactive)
REMARK    1  A    between atoms: C2_2  and  N1_4 
REMARK    2  A    between atoms: N1_4  and  C5_6 
REMARK    3  A    between atoms: C5_6  and  O1_7 
REMARK    4  A    between atoms: C5_6  and  C6_9 
ROOT
HETATM    1  C6  UNL     1      45.386  40.503  76.360  1.00  0.00     0.032 C 
HETATM    2  C7  UNL     1      46.253  39.308  76.696  1.00  0.00     0.023 C 
HETATM    3  C8  UNL     1      45.987  38.412  75.485  1.00  0.00    -0.010 C 
HETATM    4  C9  UNL     1      46.167  39.393  74.346  1.00  0.00     0.010 C 
HETATM    5  C10 UNL     1      45.333  40.575  74.880  1.00  0.00     0.005 C 
HETATM    6  C11 UNL     1      43.908  40.138  74.478  1.00  0.00     0.049 C 
HETATM    7  C12 UNL     1      43.637  39.151  75.594  1.00  0.00     0.105 C 
HETATM    8  F1  UNL     1      42.320  38.744  75.606  1.00  0.00    -0.243 F 
HETATM    9  C13 UNL     1      44.547  37.956  75.580  1.00  0.00     0.048 C 
HETATM   10  C14 UNL     1      43.965  40.034  76.776  1.00  0.00     0.061 C 
ENDROOT
BRANCH   1  11
HETATM   11  C5  UNL     1      45.769  41.688  77.098  1.00  0.00     0.122 C 
BRANCH  11  12
HETATM   12  N1  UNL     1      45.861  42.003  78.440  1.00  0.00    -0.365 N 
HETATM   13  C4  UNL     1      46.628  41.091  79.320  1.00  0.00     0.152 C 
BRANCH  12  14
HETATM   14  C2  UNL     1      45.265  43.153  79.041  1.00  0.00     0.077 C 
HETATM   15  C1  UNL     1      45.296  43.049  80.577  1.00  0.00     0.032 C 
HETATM   16  C3  UNL     1      43.755  43.217  78.740  1.00  0.00     0.032 C 
ENDBRANCH  12  14
ENDBRANCH  11  12
BRANCH  11  17
HETATM   17  O1  UNL     1      46.102  42.683  76.307  1.00  0.00    -0.349 OA
ATOM     18  H1  UNL     1      46.607  42.408  75.551  1.00  0.00     0.219 HD
ENDBRANCH  11  17
ENDBRANCH   1  11
TORSDOF 4
ENDMDL
MODEL 5
REMARK VINA RESULT: -6.550137536      1.597      2.819
REMARK  4 active torsions:
REMARK  status: ('A' for Active; 'I' for Inactive)
REMARK    1  A    between atoms: C2_2  and  N1_4 
REMARK    2  A    between atoms: N1_4  and  C5_6 
REMARK    3  A    between atoms: C5_6  and  O1_7 
REMARK    4  A    between atoms: C5_6  and  C6_9 
ROOT
HETATM    1  C6  UNL     1      45.384  40.632  77.235  1.00  0.00     0.032 C 
HETATM    2  C7  UNL     1      45.431  39.448  78.178  1.00  0.00     0.023 C 
HETATM    3  C8  UNL     1      45.634  38.300  77.187  1.00  0.00    -0.010 C 
HETATM    4  C9  UNL     1      46.759  38.844  76.331  1.00  0.00     0.010 C 
HETATM    5  C10 UNL     1      46.227  40.269  76.070  1.00  0.00     0.005 C 
HETATM    6  C11 UNL     1      45.257  40.013  74.898  1.00  0.00     0.049 C 
HETATM    7  C12 UNL     1      44.076  39.474  75.678  1.00  0.00     0.105 C 
HETATM    8  F1  UNL     1      42.955  39.349  74.886  1.00  0.00    -0.243 F 
HETATM    9  C13 UNL     1      44.357  38.177  76.383  1.00  0.00     0.048 C 
HETATM   10  C14 UNL     1      43.931  40.589  76.688  1.00  0.00     0.061 C 
ENDROOT
BRANCH   1  11
HETATM   11  C5  UNL     1      45.639  41.886  77.910  1.00  0.00     0.122 C 
BRANCH  11  12
HETATM   12  N1  UNL     1      45.484  42.333  79.208  1.00  0.00    -0.365 N 
HETATM   13  C4  UNL     1      46.150  41.573  80.291  1.00  0.00     0.152 C 
BRANCH  12  14
HETATM   14  C2  UNL     1      44.725  43.484  79.580  1.00  0.00     0.077 C 
HETATM   15  C1  UNL     1      44.588  43.582  81.110  1.00  0.00     0.032 C 
HETATM   16  C3  UNL     1      43.260  43.354  79.120  1.00  0.00     0.032 C 
ENDBRANCH  12  14
ENDBRANCH  11  12
BRANCH  11  17
HETATM   17  O1  UNL     1      46.125  42.799  77.101  1.00  0.00    -0.349 OA
ATOM     18  H1  UNL     1      45.700  42.812  76.251  1.00  0.00     0.219 HD
ENDBRANCH  11  17
ENDBRANCH   1  11
TORSDOF 4
ENDMDL
