MODEL 1
REMARK VINA RESULT: -7.862509990      0.000      0.000
REMARK  1 active torsions:
REMARK  status: ('A' for Active; 'I' for Inactive)
REMARK    1  A    between atoms: C4_4  and  C5_5 
ROOT
HETATM    1  C5  UNL     1      46.395  40.444  79.127  1.00  0.00     0.015 C 
HETATM    2  C6  UNL     1      46.541  39.037  79.610  1.00  0.00     0.015 C 
HETATM    3  C7  UNL     1      46.154  38.584  78.206  1.00  0.00     0.011 C 
HETATM    4  C8  UNL     1      47.312  38.650  77.221  1.00  0.00     0.131 C 
HETATM    5  N1  UNL     1      46.635  39.274  76.130  1.00  0.00    -0.343 N 
HETATM    6  C9  UNL     1      46.411  39.207  74.744  1.00  0.00     0.223 C 
HETATM    7  O1  UNL     1      46.902  38.356  73.973  1.00  0.00    -0.273 OA
HETATM    8  C10 UNL     1      45.479  40.336  74.350  1.00  0.00     0.148 C 
HETATM    9  C11 UNL     1      44.786  40.566  75.674  1.00  0.00     0.129 C 
HETATM   10  C12 UNL     1      43.629  39.663  75.913  1.00  0.00     0.054 C 
HETATM   11  F1  UNL     1      44.410  41.897  75.713  1.00  0.00    -0.241 F 
HETATM   12  C13 UNL     1      45.916  40.390  76.659  1.00  0.00     0.132 C 
HETATM   13  C14 UNL     1      45.460  39.947  78.006  1.00  0.00     0.025 C 
ENDROOT
BRANCH   1  14
HETATM   14  C4  UNL     1      45.808  41.390  80.045  1.00  0.00    -0.020 C 
HETATM   15  C2  UNL     1      45.442  42.604  79.832  1.00  0.00    -0.091 C 
HETATM   16  C1  UNL     1      45.510  43.398  78.582  1.00  0.00     0.042 C 
HETATM   17  C3  UNL     1      44.844  43.400  81.017  1.00  0.00     0.042 C 
ENDBRANCH   1  14
TORSDOF 1
ENDMDL
MODEL 2
REMARK VINA RESULT: -7.796001971      2.308      3.758
REMARK  1 active torsions:
REMARK  status: ('A' for Active; 'I' for Inactive)
REMARK    1  A    between atoms: C4_4  and  C5_5 
ROOT
HETATM    1  C5  UNL     1      44.533  42.472  79.054  1.00  0.00     0.015 C 
HETATM    2  C6  UNL     1      44.701  43.014  77.671  1.00  0.00     0.015 C 
HETATM    3  C7  UNL     1      45.505  41.759  77.348  1.00  0.00     0.011 C 
HETATM    4  C8  UNL     1      44.628  40.551  77.056  1.00  0.00     0.131 C 
HETATM    5  N1  UNL     1      45.318  39.584  77.850  1.00  0.00    -0.343 N 
HETATM    6  C9  UNL     1      45.853  38.284  77.846  1.00  0.00     0.223 C 
HETATM    7  O1  UNL     1      45.816  37.491  76.882  1.00  0.00    -0.273 OA
HETATM    8  C10 UNL     1      46.478  38.015  79.201  1.00  0.00     0.148 C 
HETATM    9  C11 UNL     1      46.760  39.435  79.636  1.00  0.00     0.129 C 
HETATM   10  C12 UNL     1      48.048  39.976  79.125  1.00  0.00     0.054 C 
HETATM   11  F1  UNL     1      46.712  39.456  81.018  1.00  0.00    -0.241 F 
HETATM   12  C13 UNL     1      45.542  40.171  79.134  1.00  0.00     0.132 C 
HETATM   13  C14 UNL     1      45.797  41.612  78.856  1.00  0.00     0.025 C 
ENDROOT
BRANCH   1  14
HETATM   14  C4  UNL     1      44.599  43.422  80.138  1.00  0.00    -0.020 C 
HETATM   15  C2  UNL     1      43.647  43.882  80.871  1.00  0.00    -0.091 C 
HETATM   16  C1  UNL     1      42.198  43.575  80.826  1.00  0.00     0.042 C 
HETATM   17  C3  UNL     1      44.009  44.912  81.967  1.00  0.00     0.042 C 
ENDBRANCH   1  14
TORSDOF 1
ENDMDL
MODEL 3
REMARK VINA RESULT: -7.488873783      1.528      1.742
REMARK  1 active torsions:
REMARK  status: ('A' for Active; 'I' for Inactive)
REMARK    1  A    between atoms: C4_4  and  C5_5 
ROOT
HETATM    1  C5  UNL     1      45.399  40.783  77.846  1.00  0.00     0.015 C 
HETATM    2  C6  UNL     1      45.993  39.933  78.923  1.00  0.00     0.015 C 
HETATM    3  C7  UNL     1      45.845  38.746  77.977  1.00  0.00     0.011 C 
HETATM    4  C8  UNL     1      46.954  38.674  76.938  1.00  0.00     0.131 C 
HETATM    5  N1  UNL     1      46.154  38.421  75.782  1.00  0.00    -0.343 N 
HETATM    6  C9  UNL     1      46.028  37.606  74.644  1.00  0.00     0.223 C 
HETATM    7  O1  UNL     1      46.812  36.689  74.322  1.00  0.00    -0.273 OA
HETATM    8  C10 UNL     1      44.786  38.027  73.883  1.00  0.00     0.148 C 
HETATM    9  C11 UNL     1      43.999  38.655  75.011  1.00  0.00     0.129 C 
HETATM   10  C12 UNL     1      43.207  37.680  75.807  1.00  0.00     0.054 C 
HETATM   11  F1  UNL     1      43.192  39.630  74.454  1.00  0.00    -0.241 F 
HETATM   12  C13 UNL     1      45.076  39.360  75.799  1.00  0.00     0.132 C 
HETATM   13  C14 UNL     1      44.738  39.529  77.240  1.00  0.00     0.025 C 
ENDROOT
BRANCH   1  14
HETATM   14  C4  UNL     1      44.486  41.820  78.263  1.00  0.00    -0.020 C 
HETATM   15  C2  UNL     1      44.629  42.701  79.188  1.00  0.00    -0.091 C 
HETATM   16  C1  UNL     1      45.774  42.921  80.103  1.00  0.00     0.042 C 
HETATM   17  C3  UNL     1      43.468  43.695  79.429  1.00  0.00     0.042 C 
ENDBRANCH   1  14
TORSDOF 1
ENDMDL
MODEL 4
REMARK VINA RESULT: -7.403966424      2.023      3.252
REMARK  1 active torsions:
REMARK  status: ('A' for Active; 'I' for Inactive)
REMARK    1  A    between atoms: C4_4  and  C5_5 
ROOT
HETATM    1  C5  UNL     1      44.685  41.892  78.228  1.00  0.00     0.015 C 
HETATM    2  C6  UNL     1      45.045  42.560  76.939  1.00  0.00     0.015 C 
HETATM    3  C7  UNL     1      45.661  41.235  76.501  1.00  0.00     0.011 C 
HETATM    4  C8  UNL     1      44.628  40.235  76.005  1.00  0.00     0.131 C 
HETATM    5  N1  UNL     1      45.090  39.078  76.703  1.00  0.00    -0.343 N 
HETATM    6  C9  UNL     1      45.411  37.717  76.560  1.00  0.00     0.223 C 
HETATM    7  O1  UNL     1      45.323  37.063  75.500  1.00  0.00    -0.273 OA
HETATM    8  C10 UNL     1      45.876  37.186  77.901  1.00  0.00     0.148 C 
HETATM    9  C11 UNL     1      46.347  38.476  78.534  1.00  0.00     0.129 C 
HETATM   10  C12 UNL     1      47.740  38.850  78.173  1.00  0.00     0.054 C 
HETATM   11  F1  UNL     1      46.195  38.340  79.902  1.00  0.00    -0.241 F 
HETATM   12  C13 UNL     1      45.305  39.461  78.063  1.00  0.00     0.132 C 
HETATM   13  C14 UNL     1      45.807  40.862  77.991  1.00  0.00     0.025 C 
ENDROOT
BRANCH   1  14
HETATM   14  C4  UNL     1      44.816  42.681  79.429  1.00  0.00    -0.020 C 
HETATM   15  C2  UNL     1      43.932  43.397  80.029  1.00  0.00    -0.091 C 
HETATM   16  C1  UNL     1      42.512  43.626  79.671  1.00  0.00     0.042 C 
HETATM   17  C3  UNL     1      44.358  44.155  81.308  1.00  0.00     0.042 C 
ENDBRANCH   1  14
TORSDOF 1
ENDMDL
MODEL 5
REMARK VINA RESULT: -7.378346870      2.478      4.146
REMARK  1 active torsions:
REMARK  status: ('A' for Active; 'I' for Inactive)
REMARK    1  A    between atoms: C4_4  and  C5_5 
ROOT
HETATM    1  C5  UNL     1      44.784  37.836  76.350  1.00  0.00     0.015 C 
HETATM    2  C6  UNL     1      43.385  37.596  75.881  1.00  0.00     0.015 C 
HETATM    3  C7  UNL     1      43.317  39.080  75.534  1.00  0.00     0.011 C 
HETATM    4  C8  UNL     1      43.989  39.410  74.210  1.00  0.00     0.131 C 
HETATM    5  N1  UNL     1      44.730  40.560  74.622  1.00  0.00    -0.343 N 
HETATM    6  C9  UNL     1      45.050  41.886  74.284  1.00  0.00     0.223 C 
HETATM    7  O1  UNL     1      44.645  42.491  73.269  1.00  0.00    -0.273 OA
HETATM    8  C10 UNL     1      45.964  42.450  75.354  1.00  0.00     0.148 C 
HETATM    9  C11 UNL     1      45.575  41.560  76.513  1.00  0.00     0.129 C 
HETATM   10  C12 UNL     1      44.376  42.031  77.257  1.00  0.00     0.054 C 
HETATM   11  F1  UNL     1      46.679  41.460  77.340  1.00  0.00    -0.241 F 
HETATM   12  C13 UNL     1      45.394  40.221  75.841  1.00  0.00     0.132 C 
HETATM   13  C14 UNL     1      44.444  39.325  76.558  1.00  0.00     0.025 C 
ENDROOT
BRANCH   1  14
HETATM   14  C4  UNL     1      45.204  37.129  77.535  1.00  0.00    -0.020 C 
HETATM   15  C2  UNL     1      46.310  37.223  78.185  1.00  0.00    -0.091 C 
HETATM   16  C1  UNL     1      47.484  38.087  77.917  1.00  0.00     0.042 C 
HETATM   17  C3  UNL     1      46.498  36.325  79.431  1.00  0.00     0.042 C 
ENDBRANCH   1  14
TORSDOF 1
ENDMDL
