MODEL 1
REMARK VINA RESULT: -6.813708345      0.000      0.000
REMARK  3 active torsions:
REMARK  status: ('A' for Active; 'I' for Inactive)
REMARK    1  A    between atoms: C3_3  and  C4_4 
REMARK    2  A    between atoms: C4_4  and  O1_5 
REMARK    3  A    between atoms: C9_13  and  C10_14 
ROOT
HETATM    1  C1  UNL     1      43.593  39.546  75.344  1.00  0.00     0.049 C 
HETATM    2  C2  UNL     1      44.450  39.581  76.572  1.00  0.00    -0.051 A 
HETATM    3  C3  UNL     1      45.033  38.547  77.084  1.00  0.00     0.000 A 
HETATM    4  C7  UNL     1      45.887  38.666  78.336  1.00  0.00     0.068 A 
HETATM    5  C8  UNL     1      46.042  39.957  78.954  1.00  0.00     0.115 A 
HETATM    6 CL1  UNL     1      47.814  40.297  79.044  1.00  0.00    -0.120 Cl
HETATM    7  C9  UNL     1      45.351  41.077  78.317  1.00  0.00    -0.057 A 
HETATM    8  C13 UNL     1      44.628  40.899  77.234  1.00  0.00     0.012 A 
ENDROOT
BRANCH   3   9
HETATM    9  C4  UNL     1      44.975  37.203  76.589  1.00  0.00     0.144 C 
HETATM   10  N1  UNL     1      44.237  36.088  76.401  1.00  0.00    -0.370 N 
HETATM   11  C5  UNL     1      42.889  35.658  76.654  1.00  0.00     0.151 C 
HETATM   12  C6  UNL     1      44.998  34.926  75.736  1.00  0.00     0.151 C 
BRANCH   9  13
HETATM   13  O1  UNL     1      46.247  36.963  76.087  1.00  0.00    -0.346 OA
ATOM     14  H1  UNL     1      46.541  37.809  75.771  1.00  0.00     0.219 HD
ENDBRANCH   9  13
ENDBRANCH   3   9
BRANCH   7  15
HETATM   15  C10 UNL     1      45.449  42.435  78.892  1.00  0.00     0.008 C 
HETATM   16  C11 UNL     1      44.297  43.282  78.327  1.00  0.00     0.014 C 
HETATM   17  C12 UNL     1      45.493  42.497  80.378  1.00  0.00     0.014 C 
ENDBRANCH   7  15
TORSDOF 3
ENDMDL
MODEL 2
REMARK VINA RESULT: -6.752403096      3.631      6.075
REMARK  3 active torsions:
REMARK  status: ('A' for Active; 'I' for Inactive)
REMARK    1  A    between atoms: C3_3  and  C4_4 
REMARK    2  A    between atoms: C4_4  and  O1_5 
REMARK    3  A    between atoms: C9_13  and  C10_14 
ROOT
HETATM    1  C1  UNL     1      46.291  40.299  80.074  1.00  0.00     0.049 C 
HETATM    2  C2  UNL     1      45.790  40.822  78.764  1.00  0.00    -0.051 A 
HETATM    3  C3  UNL     1      45.141  41.931  78.621  1.00  0.00     0.000 A 
HETATM    4  C7  UNL     1      44.665  42.392  77.254  1.00  0.00     0.068 A 
HETATM    5  C8  UNL     1      44.947  41.573  76.104  1.00  0.00     0.115 A 
HETATM    6 CL1  UNL     1      45.843  42.602  74.921  1.00  0.00    -0.120 Cl
HETATM    7  C9  UNL     1      45.684  40.333  76.346  1.00  0.00    -0.057 A 
HETATM    8  C13 UNL     1      46.065  39.998  77.558  1.00  0.00     0.012 A 
ENDROOT
BRANCH   3   9
HETATM    9  C4  UNL     1      44.784  42.850  79.662  1.00  0.00     0.144 C 
HETATM   10  N1  UNL     1      43.800  43.471  80.347  1.00  0.00    -0.370 N 
HETATM   11  C5  UNL     1      42.363  43.485  80.353  1.00  0.00     0.151 C 
HETATM   12  C6  UNL     1      44.297  44.443  81.434  1.00  0.00     0.151 C 
BRANCH   9  13
HETATM   13  O1  UNL     1      46.000  43.278  80.178  1.00  0.00    -0.346 OA
ATOM     14  H1  UNL     1      46.088  42.808  80.998  1.00  0.00     0.219 HD
ENDBRANCH   9  13
ENDBRANCH   3   9
BRANCH   7  15
HETATM   15  C10 UNL     1      46.007  39.429  75.223  1.00  0.00     0.008 C 
HETATM   16  C11 UNL     1      47.028  38.391  75.718  1.00  0.00     0.014 C 
HETATM   17  C12 UNL     1      44.839  38.777  74.572  1.00  0.00     0.014 C 
ENDBRANCH   7  15
TORSDOF 3
ENDMDL
MODEL 3
REMARK VINA RESULT: -6.733270318      3.437      5.986
REMARK  3 active torsions:
REMARK  status: ('A' for Active; 'I' for Inactive)
REMARK    1  A    between atoms: C3_3  and  C4_4 
REMARK    2  A    between atoms: C4_4  and  O1_5 
REMARK    3  A    between atoms: C9_13  and  C10_14 
ROOT
HETATM    1  C1  UNL     1      46.126  39.664  79.278  1.00  0.00     0.049 C 
HETATM    2  C2  UNL     1      45.600  40.303  78.030  1.00  0.00    -0.051 A 
HETATM    3  C3  UNL     1      45.011  41.453  77.992  1.00  0.00     0.000 A 
HETATM    4  C7  UNL     1      44.504  42.032  76.682  1.00  0.00     0.068 A 
HETATM    5  C8  UNL     1      44.688  41.279  75.468  1.00  0.00     0.115 A 
HETATM    6 CL1  UNL     1      45.591  42.336  74.315  1.00  0.00    -0.120 Cl
HETATM    7  C9  UNL     1      45.361  39.987  75.593  1.00  0.00    -0.057 A 
HETATM    8  C13 UNL     1      45.774  39.549  76.761  1.00  0.00     0.012 A 
ENDROOT
BRANCH   3   9
HETATM    9  C4  UNL     1      44.755  42.317  79.106  1.00  0.00     0.144 C 
HETATM   10  N1  UNL     1      45.138  42.747  80.328  1.00  0.00    -0.370 N 
HETATM   11  C5  UNL     1      46.208  42.487  81.252  1.00  0.00     0.151 C 
HETATM   12  C6  UNL     1      44.211  43.808  80.949  1.00  0.00     0.151 C 
BRANCH   9  13
HETATM   13  O1  UNL     1      43.601  43.004  78.754  1.00  0.00    -0.346 OA
ATOM     14  H1  UNL     1      43.908  43.863  78.489  1.00  0.00     0.219 HD
ENDBRANCH   9  13
ENDBRANCH   3   9
BRANCH   7  15
HETATM   15  C10 UNL     1      45.582  39.145  74.399  1.00  0.00     0.008 C 
HETATM   16  C11 UNL     1      47.043  38.669  74.408  1.00  0.00     0.014 C 
HETATM   17  C12 UNL     1      44.639  38.006  74.238  1.00  0.00     0.014 C 
ENDBRANCH   7  15
TORSDOF 3
ENDMDL
MODEL 4
REMARK VINA RESULT: -6.666660217      0.906      1.166
REMARK  3 active torsions:
REMARK  status: ('A' for Active; 'I' for Inactive)
REMARK    1  A    between atoms: C3_3  and  C4_4 
REMARK    2  A    between atoms: C4_4  and  O1_5 
REMARK    3  A    between atoms: C9_13  and  C10_14 
ROOT
HETATM    1  C1  UNL     1      43.633  39.555  75.257  1.00  0.00     0.049 C 
HETATM    2  C2  UNL     1      44.465  39.592  76.501  1.00  0.00    -0.051 A 
HETATM    3  C3  UNL     1      45.087  38.572  76.993  1.00  0.00     0.000 A 
HETATM    4  C7  UNL     1      45.912  38.693  78.264  1.00  0.00     0.068 A 
HETATM    5  C8  UNL     1      45.996  39.971  78.922  1.00  0.00     0.115 A 
HETATM    6 CL1  UNL     1      47.748  40.390  79.055  1.00  0.00    -0.120 Cl
HETATM    7  C9  UNL     1      45.264  41.076  78.305  1.00  0.00    -0.057 A 
HETATM    8  C13 UNL     1      44.570  40.898  77.204  1.00  0.00     0.012 A 
ENDROOT
BRANCH   3   9
HETATM    9  C4  UNL     1      45.101  37.242  76.458  1.00  0.00     0.144 C 
HETATM   10  N1  UNL     1      45.238  36.451  75.372  1.00  0.00    -0.370 N 
HETATM   11  C5  UNL     1      45.498  36.620  73.968  1.00  0.00     0.151 C 
HETATM   12  C6  UNL     1      45.082  34.946  75.657  1.00  0.00     0.151 C 
BRANCH   9  13
HETATM   13  O1  UNL     1      44.871  36.424  77.556  1.00  0.00    -0.346 OA
ATOM     14  H1  UNL     1      44.457  36.993  78.193  1.00  0.00     0.219 HD
ENDBRANCH   9  13
ENDBRANCH   3   9
BRANCH   7  15
HETATM   15  C10 UNL     1      45.288  42.419  78.921  1.00  0.00     0.008 C 
HETATM   16  C11 UNL     1      43.998  43.155  78.524  1.00  0.00     0.014 C 
HETATM   17  C12 UNL     1      45.498  42.442  80.394  1.00  0.00     0.014 C 
ENDBRANCH   7  15
TORSDOF 3
ENDMDL
MODEL 5
REMARK VINA RESULT: -6.657025164      3.903      6.023
REMARK  3 active torsions:
REMARK  status: ('A' for Active; 'I' for Inactive)
REMARK    1  A    between atoms: C3_3  and  C4_4 
REMARK    2  A    between atoms: C4_4  and  O1_5 
REMARK    3  A    between atoms: C9_13  and  C10_14 
ROOT
HETATM    1  C1  UNL     1      44.537  42.132  77.784  1.00  0.00     0.049 C 
HETATM    2  C2  UNL     1      45.412  41.399  78.752  1.00  0.00    -0.051 A 
HETATM    3  C3  UNL     1      45.604  41.758  79.979  1.00  0.00     0.000 A 
HETATM    4  C7  UNL     1      46.511  40.959  80.899  1.00  0.00     0.068 A 
HETATM    5  C8  UNL     1      47.164  39.783  80.385  1.00  0.00     0.115 A 
HETATM    6 CL1  UNL     1      46.699  38.403  81.455  1.00  0.00    -0.120 Cl
HETATM    7  C9  UNL     1      46.899  39.442  78.988  1.00  0.00    -0.057 A 
HETATM    8  C13 UNL     1      46.102  40.181  78.251  1.00  0.00     0.012 A 
ENDROOT
BRANCH   3   9
HETATM    9  C4  UNL     1      45.030  42.897  80.634  1.00  0.00     0.144 C 
HETATM   10  N1  UNL     1      43.949  43.687  80.808  1.00  0.00    -0.370 N 
HETATM   11  C5  UNL     1      42.596  43.749  80.324  1.00  0.00     0.151 C 
HETATM   12  C6  UNL     1      44.167  44.859  81.783  1.00  0.00     0.151 C 
BRANCH   9  13
HETATM   13  O1  UNL     1      46.051  43.388  81.434  1.00  0.00    -0.346 OA
ATOM     14  H1  UNL     1      46.402  42.620  81.870  1.00  0.00     0.219 HD
ENDBRANCH   9  13
ENDBRANCH   3   9
BRANCH   7  15
HETATM   15  C10 UNL     1      47.536  38.256  78.378  1.00  0.00     0.008 C 
HETATM   16  C11 UNL     1      47.380  38.356  76.852  1.00  0.00     0.014 C 
HETATM   17  C12 UNL     1      48.952  38.022  78.767  1.00  0.00     0.014 C 
ENDBRANCH   7  15
TORSDOF 3
ENDMDL
