MODEL 1
REMARK VINA RESULT: -7.602088372      0.000      0.000
REMARK  2 active torsions:
REMARK  status: ('A' for Active; 'I' for Inactive)
REMARK    1  A    between atoms: C2_2  and  C3_4 
REMARK       I    between atoms: C3_4  and  N1_6 
REMARK    2  A    between atoms: N1_6  and  C5_8 
ROOT
HETATM    1  C5  UNL     1      45.169  42.490  77.683  1.00  0.00     0.095 A 
HETATM    2  C6  UNL     1      45.853  41.972  76.514  1.00  0.00     0.015 A 
HETATM    3  C7  UNL     1      45.762  42.377  75.114  1.00  0.00     0.012 C 
HETATM    4  C8  UNL     1      45.477  41.237  74.212  1.00  0.00    -0.013 C 
HETATM    5  C9  UNL     1      44.056  40.722  74.253  1.00  0.00     0.009 C 
HETATM    6  C10 UNL     1      44.478  39.733  75.267  1.00  0.00    -0.013 C 
HETATM    7  C11 UNL     1      45.868  39.886  74.703  1.00  0.00     0.009 C 
HETATM    8  C12 UNL     1      44.376  40.138  76.710  1.00  0.00     0.012 C 
HETATM    9  C13 UNL     1      44.383  41.586  76.895  1.00  0.00     0.015 A 
ENDROOT
BRANCH   1  10
HETATM   10  N1  UNL     1      45.722  42.217  79.002  1.00  0.00    -0.350 N 
HETATM   11  C3  UNL     1      45.278  42.909  80.159  1.00  0.00     0.237 C 
HETATM   12  O1  UNL     1      45.754  42.620  81.302  1.00  0.00    -0.272 OA
HETATM   13  C4  UNL     1      46.746  41.206  79.201  1.00  0.00     0.153 C 
BRANCH  11  14
HETATM   14  C2  UNL     1      44.267  43.991  80.159  1.00  0.00     0.170 C 
HETATM   15  C1  UNL     1      44.140  44.501  81.579  1.00  0.00     0.036 C 
HETATM   16 CL1  UNL     1      42.691  43.457  79.605  1.00  0.00    -0.115 Cl
ENDBRANCH  11  14
ENDBRANCH   1  10
TORSDOF 2
ENDMDL
MODEL 2
REMARK VINA RESULT: -6.881133042      2.425      5.623
REMARK  2 active torsions:
REMARK  status: ('A' for Active; 'I' for Inactive)
REMARK    1  A    between atoms: C2_2  and  C3_4 
REMARK       I    between atoms: C3_4  and  N1_6 
REMARK    2  A    between atoms: N1_6  and  C5_8 
ROOT
HETATM    1  C5  UNL     1      44.981  42.513  78.753  1.00  0.00     0.095 A 
HETATM    2  C6  UNL     1      43.689  42.807  79.342  1.00  0.00     0.015 A 
HETATM    3  C7  UNL     1      42.817  43.966  79.170  1.00  0.00     0.012 C 
HETATM    4  C8  UNL     1      42.423  44.576  80.461  1.00  0.00    -0.013 C 
HETATM    5  C9  UNL     1      43.505  45.375  81.153  1.00  0.00     0.009 C 
HETATM    6  C10 UNL     1      43.871  44.160  81.911  1.00  0.00    -0.013 C 
HETATM    7  C11 UNL     1      42.462  43.688  81.656  1.00  0.00     0.009 C 
HETATM    8  C12 UNL     1      44.916  43.262  81.310  1.00  0.00     0.012 C 
HETATM    9  C13 UNL     1      45.035  43.417  79.864  1.00  0.00     0.015 A 
ENDROOT
BRANCH   1  10
HETATM   10  N1  UNL     1      45.455  41.137  78.746  1.00  0.00    -0.350 N 
HETATM   11  C3  UNL     1      45.100  40.227  77.716  1.00  0.00     0.237 C 
HETATM   12  O1  UNL     1      45.562  39.042  77.719  1.00  0.00    -0.272 OA
HETATM   13  C4  UNL     1      46.331  40.630  79.788  1.00  0.00     0.153 C 
BRANCH  11  14
HETATM   14  C2  UNL     1      44.197  40.542  76.585  1.00  0.00     0.170 C 
HETATM   15  C1  UNL     1      43.698  39.231  76.017  1.00  0.00     0.036 C 
HETATM   16 CL1  UNL     1      44.988  41.449  75.309  1.00  0.00    -0.115 Cl
ENDBRANCH  11  14
ENDBRANCH   1  10
TORSDOF 2
ENDMDL
MODEL 3
REMARK VINA RESULT: -6.812494082      3.331      5.396
REMARK  2 active torsions:
REMARK  status: ('A' for Active; 'I' for Inactive)
REMARK    1  A    between atoms: C2_2  and  C3_4 
REMARK       I    between atoms: C3_4  and  N1_6 
REMARK    2  A    between atoms: N1_6  and  C5_8 
ROOT
HETATM    1  C5  UNL     1      45.961  40.318  77.397  1.00  0.00     0.095 A 
HETATM    2  C6  UNL     1      44.867  41.236  77.645  1.00  0.00     0.015 A 
HETATM    3  C7  UNL     1      44.677  42.616  77.205  1.00  0.00     0.012 C 
HETATM    4  C8  UNL     1      44.376  43.532  78.329  1.00  0.00    -0.013 C 
HETATM    5  C9  UNL     1      45.553  43.877  79.214  1.00  0.00     0.009 C 
HETATM    6  C10 UNL     1      45.169  42.761  80.103  1.00  0.00    -0.013 C 
HETATM    7  C11 UNL     1      43.777  42.918  79.547  1.00  0.00     0.009 C 
HETATM    8  C12 UNL     1      45.773  41.414  79.820  1.00  0.00     0.012 C 
HETATM    9  C13 UNL     1      46.217  41.271  78.437  1.00  0.00     0.015 A 
ENDROOT
BRANCH   1  10
HETATM   10  N1  UNL     1      45.739  38.891  77.581  1.00  0.00    -0.350 N 
HETATM   11  C3  UNL     1      45.032  38.114  76.626  1.00  0.00     0.237 C 
HETATM   12  O1  UNL     1      44.888  36.862  76.796  1.00  0.00    -0.272 OA
HETATM   13  C4  UNL     1      46.245  38.187  78.746  1.00  0.00     0.153 C 
BRANCH  11  14
HETATM   14  C2  UNL     1      44.416  38.651  75.391  1.00  0.00     0.170 C 
HETATM   15  C1  UNL     1      42.927  38.776  75.637  1.00  0.00     0.036 C 
HETATM   16 CL1  UNL     1      44.675  37.624  73.992  1.00  0.00    -0.115 Cl
ENDBRANCH  11  14
ENDBRANCH   1  10
TORSDOF 2
ENDMDL
MODEL 4
REMARK VINA RESULT: -6.781283415      1.055      1.168
REMARK  2 active torsions:
REMARK  status: ('A' for Active; 'I' for Inactive)
REMARK    1  A    between atoms: C2_2  and  C3_4 
REMARK       I    between atoms: C3_4  and  N1_6 
REMARK    2  A    between atoms: N1_6  and  C5_8 
ROOT
HETATM    1  C5  UNL     1      44.719  41.689  77.866  1.00  0.00     0.095 A 
HETATM    2  C6  UNL     1      45.294  41.551  76.542  1.00  0.00     0.015 A 
HETATM    3  C7  UNL     1      44.732  41.873  75.233  1.00  0.00     0.012 C 
HETATM    4  C8  UNL     1      44.805  40.734  74.289  1.00  0.00    -0.013 C 
HETATM    5  C9  UNL     1      43.815  39.619  74.545  1.00  0.00     0.009 C 
HETATM    6  C10 UNL     1      44.845  38.934  75.353  1.00  0.00    -0.013 C 
HETATM    7  C11 UNL     1      45.859  39.715  74.555  1.00  0.00     0.009 C 
HETATM    8  C12 UNL     1      44.884  39.240  76.824  1.00  0.00     0.012 C 
HETATM    9  C13 UNL     1      44.277  40.527  77.152  1.00  0.00     0.015 A 
ENDROOT
BRANCH   1  10
HETATM   10  N1  UNL     1      45.605  41.696  79.021  1.00  0.00    -0.350 N 
HETATM   11  C3  UNL     1      45.314  42.457  80.184  1.00  0.00     0.237 C 
HETATM   12  O1  UNL     1      46.089  42.412  81.192  1.00  0.00    -0.272 OA
HETATM   13  C4  UNL     1      46.827  40.911  79.047  1.00  0.00     0.153 C 
BRANCH  11  14
HETATM   14  C2  UNL     1      44.136  43.341  80.341  1.00  0.00     0.170 C 
HETATM   15  C1  UNL     1      44.257  44.451  79.318  1.00  0.00     0.036 C 
HETATM   16 CL1  UNL     1      44.020  44.053  81.940  1.00  0.00    -0.115 Cl
ENDBRANCH  11  14
ENDBRANCH   1  10
TORSDOF 2
ENDMDL
MODEL 5
REMARK VINA RESULT: -6.463174956      2.608      3.980
REMARK  2 active torsions:
REMARK  status: ('A' for Active; 'I' for Inactive)
REMARK    1  A    between atoms: C2_2  and  C3_4 
REMARK       I    between atoms: C3_4  and  N1_6 
REMARK    2  A    between atoms: N1_6  and  C5_8 
ROOT
HETATM    1  C5  UNL     1      45.708  42.515  79.482  1.00  0.00     0.095 A 
HETATM    2  C6  UNL     1      45.759  41.157  79.987  1.00  0.00     0.015 A 
HETATM    3  C7  UNL     1      46.700  40.531  80.911  1.00  0.00     0.012 C 
HETATM    4  C8  UNL     1      47.283  39.282  80.367  1.00  0.00    -0.013 C 
HETATM    5  C9  UNL     1      48.325  39.474  79.287  1.00  0.00     0.009 C 
HETATM    6  C10 UNL     1      47.255  39.341  78.277  1.00  0.00    -0.013 C 
HETATM    7  C11 UNL     1      46.487  38.575  79.325  1.00  0.00     0.009 C 
HETATM    8  C12 UNL     1      46.562  40.600  77.836  1.00  0.00     0.012 C 
HETATM    9  C13 UNL     1      46.661  41.676  78.817  1.00  0.00     0.015 A 
ENDROOT
BRANCH   1  10
HETATM   10  N1  UNL     1      44.462  43.009  78.914  1.00  0.00    -0.350 N 
HETATM   11  C3  UNL     1      43.424  43.534  79.729  1.00  0.00     0.237 C 
HETATM   12  O1  UNL     1      42.363  43.994  79.200  1.00  0.00    -0.272 OA
HETATM   13  C4  UNL     1      44.225  43.006  77.481  1.00  0.00     0.153 C 
BRANCH  11  14
HETATM   14  C2  UNL     1      43.462  43.597  81.208  1.00  0.00     0.170 C 
HETATM   15  C1  UNL     1      42.032  43.622  81.704  1.00  0.00     0.036 C 
HETATM   16 CL1  UNL     1      44.298  45.016  81.813  1.00  0.00    -0.115 Cl
ENDBRANCH  11  14
ENDBRANCH   1  10
TORSDOF 2
ENDMDL
