MODEL 1
REMARK VINA RESULT: -7.353954231      0.000      0.000
REMARK  3 active torsions:
REMARK  status: ('A' for Active; 'I' for Inactive)
REMARK    1  A    between atoms: C3_5  and  N2_6 
REMARK    2  A    between atoms: C4_8  and  C5_9 
REMARK    3  A    between atoms: C5_9  and  N3_10 
ROOT
HETATM    1  C1  UNL     1      50.924  40.679  68.688  1.00  0.00     0.089 C 
HETATM    2  C2  UNL     1      51.367  40.972  67.291  1.00  0.00     0.080 A 
HETATM    3  N1  UNL     1      52.559  40.619  66.821  1.00  0.00    -0.332 N 
ATOM      4  H1  UNL     1      53.202  40.127  67.441  1.00  0.00     0.168 HD
HETATM    5  C3  UNL     1      52.965  40.888  65.525  1.00  0.00     0.116 A 
HETATM    6  C8  UNL     1      52.064  41.552  64.727  1.00  0.00     0.030 A 
HETATM    7  C9  UNL     1      50.825  41.914  65.239  1.00  0.00     0.112 A 
HETATM    8  N4  UNL     1      50.484  41.621  66.516  1.00  0.00    -0.332 N 
ATOM      9  H4  UNL     1      49.570  41.890  66.883  1.00  0.00     0.168 HD
HETATM   10  N5  UNL     1      49.899  42.594  64.447  1.00  0.00    -0.376 N 
ATOM     11  H5  UNL     1      48.948  42.722  64.793  1.00  0.00     0.161 HD
HETATM   12  C10 UNL     1      50.248  43.115  63.170  1.00  0.00     0.121 C 
HETATM   13  C11 UNL     1      51.312  42.339  62.464  1.00  0.00     0.024 C 
HETATM   14  C12 UNL     1      52.426  41.860  63.351  1.00  0.00     0.048 C 
ENDROOT
BRANCH   5  15
HETATM   15  N2  UNL     1      54.071  40.531  65.192  1.00  0.00    -0.354 N 
HETATM   16  C4  UNL     1      55.415  40.435  65.365  1.00  0.00     0.092 C 
ATOM     17  H2  UNL     1      53.908  40.040  64.313  1.00  0.00     0.166 HD
BRANCH  16  18
HETATM   18  C5  UNL     1      56.043  39.129  64.875  1.00  0.00     0.315 C 
BRANCH  18  19
HETATM   19  N3  UNL     1      55.998  39.059  63.453  1.00  0.00     0.084 N 
HETATM   20  C6  UNL     1      57.264  38.984  62.789  1.00  0.00     0.309 C 
HETATM   21  C7  UNL     1      55.189  37.943  62.989  1.00  0.00     0.309 C 
ENDBRANCH  18  19
ENDBRANCH  16  18
ENDBRANCH   5  15
TORSDOF 3
ENDMDL
MODEL 2
REMARK VINA RESULT: -7.141841638      0.680      1.127
REMARK  3 active torsions:
REMARK  status: ('A' for Active; 'I' for Inactive)
REMARK    1  A    between atoms: C3_5  and  N2_6 
REMARK    2  A    between atoms: C4_8  and  C5_9 
REMARK    3  A    between atoms: C5_9  and  N3_10 
ROOT
HETATM    1  C1  UNL     1      50.761  40.647  68.612  1.00  0.00     0.089 C 
HETATM    2  C2  UNL     1      51.194  40.848  67.196  1.00  0.00     0.080 A 
HETATM    3  N1  UNL     1      52.269  40.263  66.678  1.00  0.00    -0.332 N 
ATOM      4  H1  UNL     1      52.827  39.652  67.274  1.00  0.00     0.168 HD
HETATM    5  C3  UNL     1      52.666  40.449  65.364  1.00  0.00     0.116 A 
HETATM    6  C8  UNL     1      51.883  41.281  64.600  1.00  0.00     0.030 A 
HETATM    7  C9  UNL     1      50.764  41.883  65.162  1.00  0.00     0.112 A 
HETATM    8  N4  UNL     1      50.426  41.662  66.454  1.00  0.00    -0.332 N 
ATOM      9  H4  UNL     1      49.602  42.108  66.858  1.00  0.00     0.168 HD
HETATM   10  N5  UNL     1      49.961  42.737  64.406  1.00  0.00    -0.376 N 
ATOM     11  H5  UNL     1      49.070  43.052  64.791  1.00  0.00     0.161 HD
HETATM   12  C10 UNL     1      50.351  43.179  63.112  1.00  0.00     0.121 C 
HETATM   13  C11 UNL     1      51.207  42.207  62.366  1.00  0.00     0.024 C 
HETATM   14  C12 UNL     1      52.240  41.512  63.208  1.00  0.00     0.048 C 
ENDROOT
BRANCH   5  15
HETATM   15  N2  UNL     1      53.662  39.877  64.987  1.00  0.00    -0.354 N 
HETATM   16  C4  UNL     1      54.413  38.766  64.775  1.00  0.00     0.092 C 
ATOM     17  H2  UNL     1      54.256  40.634  64.648  1.00  0.00     0.166 HD
BRANCH  16  18
HETATM   18  C5  UNL     1      55.285  38.798  63.519  1.00  0.00     0.315 C 
BRANCH  18  19
HETATM   19  N3  UNL     1      56.489  39.518  63.768  1.00  0.00     0.084 N 
HETATM   20  C6  UNL     1      56.985  39.466  65.110  1.00  0.00     0.309 C 
HETATM   21  C7  UNL     1      57.565  39.100  62.883  1.00  0.00     0.309 C 
ENDBRANCH  18  19
ENDBRANCH  16  18
ENDBRANCH   5  15
TORSDOF 3
ENDMDL
MODEL 3
REMARK VINA RESULT: -7.011711357      1.389      3.505
REMARK  3 active torsions:
REMARK  status: ('A' for Active; 'I' for Inactive)
REMARK    1  A    between atoms: C3_5  and  N2_6 
REMARK    2  A    between atoms: C4_8  and  C5_9 
REMARK    3  A    between atoms: C5_9  and  N3_10 
ROOT
HETATM    1  C1  UNL     1      51.145  42.951  62.137  1.00  0.00     0.089 C 
HETATM    2  C2  UNL     1      51.403  41.910  63.177  1.00  0.00     0.080 A 
HETATM    3  N1  UNL     1      52.252  40.903  62.998  1.00  0.00    -0.332 N 
ATOM      4  H1  UNL     1      52.749  40.835  62.110  1.00  0.00     0.168 HD
HETATM    5  C3  UNL     1      52.492  39.941  63.966  1.00  0.00     0.116 A 
HETATM    6  C8  UNL     1      51.799  40.075  65.146  1.00  0.00     0.030 A 
HETATM    7  C9  UNL     1      50.916  41.134  65.311  1.00  0.00     0.112 A 
HETATM    8  N4  UNL     1      50.724  42.044  64.327  1.00  0.00    -0.332 N 
ATOM      9  H4  UNL     1      50.074  42.820  64.459  1.00  0.00     0.168 HD
HETATM   10  N5  UNL     1      50.199  41.283  66.498  1.00  0.00    -0.376 N 
ATOM     11  H5  UNL     1      49.669  42.140  66.654  1.00  0.00     0.161 HD
HETATM   12  C10 UNL     1      50.188  40.271  67.497  1.00  0.00     0.121 C 
HETATM   13  C11 UNL     1      51.438  39.452  67.551  1.00  0.00     0.024 C 
HETATM   14  C12 UNL     1      52.012  39.102  66.207  1.00  0.00     0.048 C 
ENDROOT
BRANCH   5  15
HETATM   15  N2  UNL     1      53.278  39.061  63.706  1.00  0.00    -0.354 N 
HETATM   16  C4  UNL     1      53.985  38.285  62.844  1.00  0.00     0.092 C 
ATOM     17  H2  UNL     1      53.561  38.716  64.624  1.00  0.00     0.166 HD
BRANCH  16  18
HETATM   18  C5  UNL     1      55.384  37.890  63.321  1.00  0.00     0.315 C 
BRANCH  18  19
HETATM   19  N3  UNL     1      56.189  39.049  63.515  1.00  0.00     0.084 N 
HETATM   20  C6  UNL     1      56.561  39.335  64.868  1.00  0.00     0.309 C 
HETATM   21  C7  UNL     1      57.408  39.003  62.722  1.00  0.00     0.309 C 
ENDBRANCH  18  19
ENDBRANCH  16  18
ENDBRANCH   5  15
TORSDOF 3
ENDMDL
MODEL 4
REMARK VINA RESULT: -6.445633484      1.001      1.285
REMARK  3 active torsions:
REMARK  status: ('A' for Active; 'I' for Inactive)
REMARK    1  A    between atoms: C3_5  and  N2_6 
REMARK    2  A    between atoms: C4_8  and  C5_9 
REMARK    3  A    between atoms: C5_9  and  N3_10 
ROOT
HETATM    1  C1  UNL     1      50.863  40.826  68.689  1.00  0.00     0.089 C 
HETATM    2  C2  UNL     1      51.234  41.061  67.261  1.00  0.00     0.080 A 
HETATM    3  N1  UNL     1      52.322  40.542  66.700  1.00  0.00    -0.332 N 
ATOM      4  H1  UNL     1      52.934  39.959  67.271  1.00  0.00     0.168 HD
HETATM    5  C3  UNL     1      52.661  40.760  65.376  1.00  0.00     0.116 A 
HETATM    6  C8  UNL     1      51.806  41.553  64.648  1.00  0.00     0.030 A 
HETATM    7  C9  UNL     1      50.677  42.086  65.253  1.00  0.00     0.112 A 
HETATM    8  N4  UNL     1      50.397  41.837  66.554  1.00  0.00    -0.332 N 
ATOM      9  H4  UNL     1      49.563  42.232  66.990  1.00  0.00     0.168 HD
HETATM   10  N5  UNL     1      49.800  42.899  64.533  1.00  0.00    -0.376 N 
ATOM     11  H5  UNL     1      48.907  43.160  64.952  1.00  0.00     0.161 HD
HETATM   12  C10 UNL     1      50.119  43.372  63.231  1.00  0.00     0.121 C 
HETATM   13  C11 UNL     1      51.003  42.455  62.447  1.00  0.00     0.024 C 
HETATM   14  C12 UNL     1      52.101  41.814  63.246  1.00  0.00     0.048 C 
ENDROOT
BRANCH   5  15
HETATM   15  N2  UNL     1      53.675  40.249  64.960  1.00  0.00    -0.354 N 
HETATM   16  C4  UNL     1      54.945  39.790  65.101  1.00  0.00     0.092 C 
ATOM     17  H2  UNL     1      53.462  40.063  63.979  1.00  0.00     0.166 HD
BRANCH  16  18
HETATM   18  C5  UNL     1      55.287  38.550  64.273  1.00  0.00     0.315 C 
BRANCH  18  19
HETATM   19  N3  UNL     1      54.097  37.911  63.821  1.00  0.00     0.084 N 
HETATM   20  C6  UNL     1      54.226  37.103  62.647  1.00  0.00     0.309 C 
HETATM   21  C7  UNL     1      53.493  37.089  64.859  1.00  0.00     0.309 C 
ENDBRANCH  18  19
ENDBRANCH  16  18
ENDBRANCH   5  15
TORSDOF 3
ENDMDL
MODEL 5
REMARK VINA RESULT: -6.298174270      2.671      4.156
REMARK  3 active torsions:
REMARK  status: ('A' for Active; 'I' for Inactive)
REMARK    1  A    between atoms: C3_5  and  N2_6 
REMARK    2  A    between atoms: C4_8  and  C5_9 
REMARK    3  A    between atoms: C5_9  and  N3_10 
ROOT
HETATM    1  C1  UNL     1      50.236  41.735  68.308  1.00  0.00     0.089 C 
HETATM    2  C2  UNL     1      50.822  40.569  67.581  1.00  0.00     0.080 A 
HETATM    3  N1  UNL     1      51.329  40.660  66.356  1.00  0.00    -0.332 N 
ATOM      4  H1  UNL     1      51.316  41.566  65.888  1.00  0.00     0.168 HD
HETATM    5  C3  UNL     1      51.875  39.577  65.686  1.00  0.00     0.116 A 
HETATM    6  C8  UNL     1      51.871  38.378  66.357  1.00  0.00     0.030 A 
HETATM    7  C9  UNL     1      51.335  38.305  67.636  1.00  0.00     0.112 A 
HETATM    8  N4  UNL     1      50.815  39.399  68.240  1.00  0.00    -0.332 N 
ATOM      9  H4  UNL     1      50.425  39.336  69.181  1.00  0.00     0.168 HD
HETATM   10  N5  UNL     1      51.315  37.095  68.331  1.00  0.00    -0.376 N 
ATOM     11  H5  UNL     1      51.051  37.092  69.316  1.00  0.00     0.161 HD
HETATM   12  C10 UNL     1      51.653  35.865  67.701  1.00  0.00     0.121 C 
HETATM   13  C11 UNL     1      52.644  36.000  66.590  1.00  0.00     0.024 C 
HETATM   14  C12 UNL     1      52.437  37.202  65.712  1.00  0.00     0.048 C 
ENDROOT
BRANCH   5  15
HETATM   15  N2  UNL     1      52.306  39.760  64.572  1.00  0.00    -0.354 N 
HETATM   16  C4  UNL     1      52.695  40.552  63.539  1.00  0.00     0.092 C 
ATOM     17  H2  UNL     1      52.459  38.815  64.218  1.00  0.00     0.166 HD
BRANCH  16  18
HETATM   18  C5  UNL     1      53.874  40.023  62.720  1.00  0.00     0.315 C 
BRANCH  18  19
HETATM   19  N3  UNL     1      54.630  39.088  63.484  1.00  0.00     0.084 N 
HETATM   20  C6  UNL     1      54.843  37.809  62.878  1.00  0.00     0.309 C 
HETATM   21  C7  UNL     1      55.931  39.620  63.862  1.00  0.00     0.309 C 
ENDBRANCH  18  19
ENDBRANCH  16  18
ENDBRANCH   5  15
TORSDOF 3
ENDMDL
