MODEL 1
REMARK VINA RESULT: -6.474923227      0.000      0.000
REMARK  7 active torsions:
REMARK  status: ('A' for Active; 'I' for Inactive)
REMARK    1  A    between atoms: C2_2  and  C3_3 
REMARK    2  A    between atoms: C3_3  and  O1_4 
REMARK    3  A    between atoms: C3_3  and  C4_6 
REMARK    4  A    between atoms: C3_3  and  C12_19 
REMARK    5  A    between atoms: C5_7  and  C6_8 
REMARK    6  A    between atoms: C6_8  and  N1_9 
REMARK    7  A    between atoms: N2_13  and  N3_14 
ROOT
HETATM    1  N1  UNL     1      51.776  40.551  65.661  1.00  0.00    -0.361 N 
HETATM    2  C7  UNL     1      50.821  41.509  65.336  1.00  0.00     0.065 C 
HETATM    3  C8  UNL     1      50.718  42.545  66.431  1.00  0.00     0.066 C 
HETATM    4  C9  UNL     1      50.317  41.990  67.754  1.00  0.00     0.147 C 
HETATM    5  N2  UNL     1      50.984  40.818  68.186  1.00  0.00    -0.332 N 
HETATM    6  C10 UNL     1      50.594  39.593  67.584  1.00  0.00     0.162 C 
HETATM    7  C11 UNL     1      51.279  39.334  66.256  1.00  0.00     0.149 C 
ENDROOT
BRANCH   1   8
HETATM    8  C6  UNL     1      53.084  40.915  66.007  1.00  0.00     0.155 C 
BRANCH   8   9
HETATM    9  C5  UNL     1      54.080  40.341  65.074  1.00  0.00    -0.058 C 
HETATM   10  C4  UNL     1      54.878  39.870  64.297  1.00  0.00    -0.062 C 
BRANCH  10  11
HETATM   11  C3  UNL     1      55.831  39.275  63.344  1.00  0.00     0.120 C 
BRANCH  11  12
HETATM   12  C2  UNL     1      55.569  37.801  63.230  1.00  0.00     0.047 C 
HETATM   13  C1  UNL     1      54.167  37.465  62.881  1.00  0.00     0.009 C 
ENDBRANCH  11  12
BRANCH  11  14
HETATM   14  O1  UNL     1      55.705  39.839  62.094  1.00  0.00    -0.378 OA
ATOM     15  H1  UNL     1      55.852  40.775  62.170  1.00  0.00     0.211 HD
ENDBRANCH  11  14
BRANCH  11  16
HETATM   16  C12 UNL     1      57.210  39.569  63.891  1.00  0.00     0.047 C 
HETATM   17  C13 UNL     1      57.219  39.557  65.404  1.00  0.00     0.009 C 
ENDBRANCH  11  16
ENDBRANCH  10  11
ENDBRANCH   8   9
ENDBRANCH   1   8
BRANCH   5  18
HETATM   18  N3  UNL     1      51.457  40.775  69.458  1.00  0.00    -0.347 N 
ATOM     19  H32 UNL     1      52.400  40.416  69.602  1.00  0.00     0.176 HD
ATOM     20  H31 UNL     1      50.790  40.647  70.220  1.00  0.00     0.176 HD
ENDBRANCH   5  18
TORSDOF 7
ENDMDL
MODEL 2
REMARK VINA RESULT: -6.123759943      1.349      1.484
REMARK  7 active torsions:
REMARK  status: ('A' for Active; 'I' for Inactive)
REMARK    1  A    between atoms: C2_2  and  C3_3 
REMARK    2  A    between atoms: C3_3  and  O1_4 
REMARK    3  A    between atoms: C3_3  and  C4_6 
REMARK    4  A    between atoms: C3_3  and  C12_19 
REMARK    5  A    between atoms: C5_7  and  C6_8 
REMARK    6  A    between atoms: C6_8  and  N1_9 
REMARK    7  A    between atoms: N2_13  and  N3_14 
ROOT
HETATM    1  N1  UNL     1      51.681  40.799  64.089  1.00  0.00    -0.361 N 
HETATM    2  C7  UNL     1      50.488  41.438  64.416  1.00  0.00     0.065 C 
HETATM    3  C8  UNL     1      50.731  42.511  65.452  1.00  0.00     0.066 C 
HETATM    4  C9  UNL     1      51.293  41.999  66.733  1.00  0.00     0.147 C 
HETATM    5  N2  UNL     1      52.375  41.091  66.640  1.00  0.00    -0.332 N 
HETATM    6  C10 UNL     1      52.067  39.755  66.273  1.00  0.00     0.162 C 
HETATM    7  C11 UNL     1      51.946  39.557  64.775  1.00  0.00     0.149 C 
ENDROOT
BRANCH   1   8
HETATM    8  C6  UNL     1      52.806  41.525  63.675  1.00  0.00     0.155 C 
BRANCH   8   9
HETATM    9  C5  UNL     1      53.977  40.647  63.457  1.00  0.00    -0.058 C 
HETATM   10  C4  UNL     1      54.947  39.947  63.274  1.00  0.00    -0.062 C 
BRANCH  10  11
HETATM   11  C3  UNL     1      56.133  39.109  63.030  1.00  0.00     0.120 C 
BRANCH  11  12
HETATM   12  C2  UNL     1      55.773  37.664  63.226  1.00  0.00     0.047 C 
HETATM   13  C1  UNL     1      54.372  37.339  62.861  1.00  0.00     0.009 C 
ENDBRANCH  11  12
BRANCH  11  14
HETATM   14  O1  UNL     1      56.602  39.270  61.745  1.00  0.00    -0.378 OA
ATOM     15  H1  UNL     1      57.467  38.882  61.689  1.00  0.00     0.211 HD
ENDBRANCH  11  14
BRANCH  11  16
HETATM   16  C12 UNL     1      57.186  39.573  64.010  1.00  0.00     0.047 C 
HETATM   17  C13 UNL     1      56.673  39.528  65.433  1.00  0.00     0.009 C 
ENDBRANCH  11  16
ENDBRANCH  10  11
ENDBRANCH   8   9
ENDBRANCH   1   8
BRANCH   5  18
HETATM   18  N3  UNL     1      53.461  41.295  67.430  1.00  0.00    -0.347 N 
ATOM     19  H32 UNL     1      54.140  41.995  67.131  1.00  0.00     0.176 HD
ATOM     20  H31 UNL     1      53.812  40.514  67.984  1.00  0.00     0.176 HD
ENDBRANCH   5  18
TORSDOF 7
ENDMDL
MODEL 3
REMARK VINA RESULT: -5.732123933      1.240      1.937
REMARK  7 active torsions:
REMARK  status: ('A' for Active; 'I' for Inactive)
REMARK    1  A    between atoms: C2_2  and  C3_3 
REMARK    2  A    between atoms: C3_3  and  O1_4 
REMARK    3  A    between atoms: C3_3  and  C4_6 
REMARK    4  A    between atoms: C3_3  and  C12_19 
REMARK    5  A    between atoms: C5_7  and  C6_8 
REMARK    6  A    between atoms: C6_8  and  N1_9 
REMARK    7  A    between atoms: N2_13  and  N3_14 
ROOT
HETATM    1  N1  UNL     1      51.887  41.176  65.465  1.00  0.00    -0.361 N 
HETATM    2  C7  UNL     1      50.786  41.996  65.234  1.00  0.00     0.065 C 
HETATM    3  C8  UNL     1      50.467  42.811  66.466  1.00  0.00     0.066 C 
HETATM    4  C9  UNL     1      50.131  41.992  67.663  1.00  0.00     0.147 C 
HETATM    5  N2  UNL     1      50.983  40.899  67.951  1.00  0.00    -0.332 N 
HETATM    6  C10 UNL     1      50.837  39.737  67.149  1.00  0.00     0.162 C 
HETATM    7  C11 UNL     1      51.596  39.813  65.840  1.00  0.00     0.149 C 
ENDROOT
BRANCH   1   8
HETATM    8  C6  UNL     1      53.098  41.700  65.937  1.00  0.00     0.155 C 
BRANCH   8   9
HETATM    9  C5  UNL     1      54.254  40.878  65.516  1.00  0.00    -0.058 C 
HETATM   10  C4  UNL     1      55.185  40.191  65.162  1.00  0.00    -0.062 C 
BRANCH  10  11
HETATM   11  C3  UNL     1      56.305  39.334  64.738  1.00  0.00     0.120 C 
BRANCH  11  12
HETATM   12  C2  UNL     1      57.103  40.042  63.681  1.00  0.00     0.047 C 
HETATM   13  C1  UNL     1      57.784  39.129  62.730  1.00  0.00     0.009 C 
ENDBRANCH  11  12
BRANCH  11  14
HETATM   14  O1  UNL     1      57.140  39.045  65.794  1.00  0.00    -0.378 OA
ATOM     15  H1  UNL     1      57.735  39.776  65.916  1.00  0.00     0.211 HD
ENDBRANCH  11  14
BRANCH  11  16
HETATM   16  C12 UNL     1      55.685  38.055  64.223  1.00  0.00     0.047 C 
HETATM   17  C13 UNL     1      54.482  38.337  63.349  1.00  0.00     0.009 C 
ENDBRANCH  11  16
ENDBRANCH  10  11
ENDBRANCH   8   9
ENDBRANCH   1   8
BRANCH   5  18
HETATM   18  N3  UNL     1      51.417  40.735  69.228  1.00  0.00    -0.347 N 
ATOM     19  H32 UNL     1      51.004  41.327  69.949  1.00  0.00     0.176 HD
ATOM     20  H31 UNL     1      52.375  40.419  69.379  1.00  0.00     0.176 HD
ENDBRANCH   5  18
TORSDOF 7
ENDMDL
MODEL 4
REMARK VINA RESULT: -5.729104033      3.229      6.340
REMARK  7 active torsions:
REMARK  status: ('A' for Active; 'I' for Inactive)
REMARK    1  A    between atoms: C2_2  and  C3_3 
REMARK    2  A    between atoms: C3_3  and  O1_4 
REMARK    3  A    between atoms: C3_3  and  C4_6 
REMARK    4  A    between atoms: C3_3  and  C12_19 
REMARK    5  A    between atoms: C5_7  and  C6_8 
REMARK    6  A    between atoms: C6_8  and  N1_9 
REMARK    7  A    between atoms: N2_13  and  N3_14 
ROOT
HETATM    1  N1  UNL     1      54.457  38.886  63.803  1.00  0.00    -0.361 N 
HETATM    2  C7  UNL     1      54.930  39.031  65.104  1.00  0.00     0.065 C 
HETATM    3  C8  UNL     1      56.126  39.954  65.132  1.00  0.00     0.066 C 
HETATM    4  C9  UNL     1      57.280  39.474  64.322  1.00  0.00     0.147 C 
HETATM    5  N2  UNL     1      56.995  39.007  63.016  1.00  0.00    -0.332 N 
HETATM    6  C10 UNL     1      56.416  37.716  62.904  1.00  0.00     0.162 C 
HETATM    7  C11 UNL     1      54.911  37.717  63.088  1.00  0.00     0.149 C 
ENDROOT
BRANCH   1   8
HETATM    8  C6  UNL     1      54.135  40.001  63.017  1.00  0.00     0.155 C 
BRANCH   8   9
HETATM    9  C5  UNL     1      52.979  40.744  63.565  1.00  0.00    -0.058 C 
HETATM   10  C4  UNL     1      52.035  41.340  64.032  1.00  0.00    -0.062 C 
BRANCH  10  11
HETATM   11  C3  UNL     1      50.875  42.041  64.608  1.00  0.00     0.120 C 
BRANCH  11  12
HETATM   12  C2  UNL     1      50.319  43.001  63.595  1.00  0.00     0.047 C 
HETATM   13  C1  UNL     1      50.976  42.922  62.268  1.00  0.00     0.009 C 
ENDBRANCH  11  12
BRANCH  11  14
HETATM   14  O1  UNL     1      49.881  41.156  64.961  1.00  0.00    -0.378 OA
ATOM     15  H1  UNL     1      50.167  40.278  64.736  1.00  0.00     0.211 HD
ENDBRANCH  11  14
BRANCH  11  16
HETATM   16  C12 UNL     1      51.382  42.747  65.845  1.00  0.00     0.047 C 
HETATM   17  C13 UNL     1      50.942  42.036  67.106  1.00  0.00     0.009 C 
ENDBRANCH  11  16
ENDBRANCH  10  11
ENDBRANCH   8   9
ENDBRANCH   1   8
BRANCH   5  18
HETATM   18  N3  UNL     1      57.770  39.443  61.990  1.00  0.00    -0.347 N 
ATOM     19  H32 UNL     1      58.019  40.432  61.969  1.00  0.00     0.176 HD
ATOM     20  H31 UNL     1      57.704  38.963  61.092  1.00  0.00     0.176 HD
ENDBRANCH   5  18
TORSDOF 7
ENDMDL
MODEL 5
REMARK VINA RESULT: -5.537704362      6.502      8.110
REMARK  7 active torsions:
REMARK  status: ('A' for Active; 'I' for Inactive)
REMARK    1  A    between atoms: C2_2  and  C3_3 
REMARK    2  A    between atoms: C3_3  and  O1_4 
REMARK    3  A    between atoms: C3_3  and  C4_6 
REMARK    4  A    between atoms: C3_3  and  C12_19 
REMARK    5  A    between atoms: C5_7  and  C6_8 
REMARK    6  A    between atoms: C6_8  and  N1_9 
REMARK    7  A    between atoms: N2_13  and  N3_14 
ROOT
HETATM    1  N1  UNL     1      52.290  44.495  59.048  1.00  0.00    -0.361 N 
HETATM    2  C7  UNL     1      52.618  45.663  58.366  1.00  0.00     0.065 C 
HETATM    3  C8  UNL     1      51.386  46.270  57.736  1.00  0.00     0.066 C 
HETATM    4  C9  UNL     1      50.714  45.384  56.744  1.00  0.00     0.147 C 
HETATM    5  N2  UNL     1      50.512  44.035  57.124  1.00  0.00    -0.332 N 
HETATM    6  C10 UNL     1      51.642  43.177  57.085  1.00  0.00     0.162 C 
HETATM    7  C11 UNL     1      52.500  43.260  58.331  1.00  0.00     0.149 C 
ENDROOT
BRANCH   1   8
HETATM    8  C6  UNL     1      51.279  44.478  60.019  1.00  0.00     0.155 C 
BRANCH   8   9
HETATM    9  C5  UNL     1      51.507  43.422  61.031  1.00  0.00    -0.058 C 
HETATM   10  C4  UNL     1      51.675  42.566  61.869  1.00  0.00    -0.062 C 
BRANCH  10  11
HETATM   11  C3  UNL     1      51.876  41.543  62.909  1.00  0.00     0.120 C 
BRANCH  11  12
HETATM   12  C2  UNL     1      52.055  42.214  64.241  1.00  0.00     0.047 C 
HETATM   13  C1  UNL     1      50.835  42.212  65.084  1.00  0.00     0.009 C 
ENDBRANCH  11  12
BRANCH  11  14
HETATM   14  O1  UNL     1      50.795  40.695  62.991  1.00  0.00    -0.378 OA
ATOM     15  H1  UNL     1      50.939  39.966  62.398  1.00  0.00     0.211 HD
ENDBRANCH  11  14
BRANCH  11  16
HETATM   16  C12 UNL     1      53.101  40.758  62.497  1.00  0.00     0.047 C 
HETATM   17  C13 UNL     1      53.887  40.289  63.701  1.00  0.00     0.009 C 
ENDBRANCH  11  16
ENDBRANCH  10  11
ENDBRANCH   8   9
ENDBRANCH   1   8
BRANCH   5  18
HETATM   18  N3  UNL     1      49.290  43.481  56.916  1.00  0.00    -0.347 N 
ATOM     19  H32 UNL     1      48.476  44.095  56.961  1.00  0.00     0.176 HD
ATOM     20  H31 UNL     1      49.149  42.504  57.174  1.00  0.00     0.176 HD
ENDBRANCH   5  18
TORSDOF 7
ENDMDL
