MODEL 1
REMARK VINA RESULT: -6.498608667      0.000      0.000
REMARK  5 active torsions:
REMARK  status: ('A' for Active; 'I' for Inactive)
REMARK    1  A    between atoms: C2_2  and  C3_3 
REMARK    2  A    between atoms: C4_4  and  C5_5 
REMARK    3  A    between atoms: C12_14  and  O2_15 
REMARK    4  A    between atoms: C12_14  and  C13_17 
REMARK    5  A    between atoms: C13_17  and  O3_18 
ROOT
HETATM    1  C3  UNL     1      52.846  41.598  64.802  1.00  0.00     0.047 C 
HETATM    2  C4  UNL     1      53.268  40.226  64.457  1.00  0.00     0.000 C 
HETATM    3  C7  UNL     1      52.308  39.220  65.015  1.00  0.00     0.015 C 
HETATM    4  C8  UNL     1      52.924  37.835  64.818  1.00  0.00     0.012 C 
HETATM    5  C9  UNL     1      52.075  39.410  66.478  1.00  0.00     0.285 C 
HETATM    6  N1  UNL     1      51.974  40.714  66.949  1.00  0.00     0.161 N 
HETATM    7  C10 UNL     1      52.212  41.809  66.113  1.00  0.00     0.261 C 
HETATM    8  C11 UNL     1      50.796  42.396  65.965  1.00  0.00     0.210 C 
HETATM    9  O1  UNL     1      50.393  42.331  67.320  1.00  0.00    -0.327 OA
HETATM   10  C12 UNL     1      50.685  41.001  67.599  1.00  0.00     0.393 C 
ENDROOT
BRANCH  10  11
HETATM   11  O2  UNL     1      49.670  40.214  67.095  1.00  0.00    -0.340 OA
ATOM     12  H2  UNL     1      48.834  40.663  67.112  1.00  0.00     0.215 HD
ENDBRANCH  10  11
BRANCH  10  13
HETATM   13  C13 UNL     1      50.779  40.744  69.088  1.00  0.00     0.268 C 
BRANCH  13  14
HETATM   14  O3  UNL     1      50.432  41.848  69.826  1.00  0.00    -0.393 OA
ATOM     15  H3  UNL     1      49.624  42.244  69.519  1.00  0.00     0.209 HD
ENDBRANCH  13  14
ENDBRANCH  10  13
BRANCH   1  16
HETATM   16  C2  UNL     1      51.992  42.266  63.759  1.00  0.00    -0.030 C 
HETATM   17  C1  UNL     1      51.812  41.793  62.539  1.00  0.00     0.007 C 
ENDBRANCH   1  16
BRANCH   2  18
HETATM   18  C5  UNL     1      54.663  39.881  64.937  1.00  0.00     0.001 C 
HETATM   19  C6  UNL     1      55.666  39.871  63.813  1.00  0.00     0.005 C 
ENDBRANCH   2  18
TORSDOF 5
ENDMDL
MODEL 2
REMARK VINA RESULT: -6.359505767      1.627      3.525
REMARK  5 active torsions:
REMARK  status: ('A' for Active; 'I' for Inactive)
REMARK    1  A    between atoms: C2_2  and  C3_3 
REMARK    2  A    between atoms: C4_4  and  C5_5 
REMARK    3  A    between atoms: C12_14  and  O2_15 
REMARK    4  A    between atoms: C12_14  and  C13_17 
REMARK    5  A    between atoms: C13_17  and  O3_18 
ROOT
HETATM    1  C3  UNL     1      52.212  38.287  65.366  1.00  0.00     0.047 C 
HETATM    2  C4  UNL     1      53.570  38.520  64.835  1.00  0.00     0.000 C 
HETATM    3  C7  UNL     1      54.111  39.830  65.318  1.00  0.00     0.015 C 
HETATM    4  C8  UNL     1      55.407  40.105  64.555  1.00  0.00     0.012 C 
HETATM    5  C9  UNL     1      53.176  40.963  65.050  1.00  0.00     0.285 C 
HETATM    6  N1  UNL     1      51.818  40.732  65.229  1.00  0.00     0.161 N 
HETATM    7  C10 UNL     1      51.331  39.455  65.522  1.00  0.00     0.261 C 
HETATM    8  C11 UNL     1      50.877  39.626  66.984  1.00  0.00     0.210 C 
HETATM    9  O1  UNL     1      50.212  40.868  66.859  1.00  0.00    -0.327 OA
HETATM   10  C12 UNL     1      51.203  41.616  66.234  1.00  0.00     0.393 C 
ENDROOT
BRANCH  10  11
HETATM   11  O2  UNL     1      52.115  42.020  67.187  1.00  0.00    -0.340 OA
ATOM     12  H2  UNL     1      52.801  42.560  66.813  1.00  0.00     0.215 HD
ENDBRANCH  10  11
BRANCH  10  13
HETATM   13  C13 UNL     1      50.642  42.856  65.570  1.00  0.00     0.268 C 
BRANCH  13  14
HETATM   14  O3  UNL     1      49.962  42.559  64.414  1.00  0.00    -0.393 OA
ATOM     15  H3  UNL     1      50.404  41.893  63.900  1.00  0.00     0.209 HD
ENDBRANCH  13  14
ENDBRANCH  10  13
BRANCH   1  16
HETATM   16  C2  UNL     1      52.173  37.499  66.647  1.00  0.00    -0.030 C 
HETATM   17  C1  UNL     1      51.940  36.200  66.707  1.00  0.00     0.007 C 
ENDBRANCH   1  16
BRANCH   2  18
HETATM   18  C5  UNL     1      53.642  38.496  63.321  1.00  0.00     0.001 C 
HETATM   19  C6  UNL     1      54.071  37.152  62.793  1.00  0.00     0.005 C 
ENDBRANCH   2  18
TORSDOF 5
ENDMDL
MODEL 3
REMARK VINA RESULT: -6.059446360      3.523      5.641
REMARK  5 active torsions:
REMARK  status: ('A' for Active; 'I' for Inactive)
REMARK    1  A    between atoms: C2_2  and  C3_3 
REMARK    2  A    between atoms: C4_4  and  C5_5 
REMARK    3  A    between atoms: C12_14  and  O2_15 
REMARK    4  A    between atoms: C12_14  and  C13_17 
REMARK    5  A    between atoms: C13_17  and  O3_18 
ROOT
HETATM    1  C3  UNL     1      52.558  39.588  65.743  1.00  0.00     0.047 C 
HETATM    2  C4  UNL     1      51.780  40.603  65.005  1.00  0.00     0.000 C 
HETATM    3  C7  UNL     1      52.107  40.564  63.545  1.00  0.00     0.015 C 
HETATM    4  C8  UNL     1      51.445  41.777  62.890  1.00  0.00     0.012 C 
HETATM    5  C9  UNL     1      53.576  40.654  63.289  1.00  0.00     0.285 C 
HETATM    6  N1  UNL     1      54.421  39.962  64.148  1.00  0.00     0.161 N 
HETATM    7  C10 UNL     1      53.929  39.313  65.285  1.00  0.00     0.261 C 
HETATM    8  C11 UNL     1      54.106  37.833  64.894  1.00  0.00     0.210 C 
HETATM    9  O1  UNL     1      55.413  37.907  64.358  1.00  0.00    -0.327 OA
HETATM   10  C12 UNL     1      55.253  38.958  63.464  1.00  0.00     0.393 C 
ENDROOT
BRANCH  10  11
HETATM   11  O2  UNL     1      54.642  38.476  62.325  1.00  0.00    -0.340 OA
ATOM     12  H2  UNL     1      54.402  37.562  62.414  1.00  0.00     0.215 HD
ENDBRANCH  10  11
BRANCH  10  13
HETATM   13  C13 UNL     1      56.581  39.564  63.061  1.00  0.00     0.268 C 
BRANCH  13  14
HETATM   14  O3  UNL     1      56.954  39.192  61.792  1.00  0.00    -0.393 OA
ATOM     15  H3  UNL     1      57.898  39.144  61.698  1.00  0.00     0.209 HD
ENDBRANCH  13  14
ENDBRANCH  10  13
BRANCH   1  16
HETATM   16  C2  UNL     1      51.852  38.270  65.918  1.00  0.00    -0.030 C 
HETATM   17  C1  UNL     1      51.479  37.783  67.087  1.00  0.00     0.007 C 
ENDBRANCH   1  16
BRANCH   2  18
HETATM   18  C5  UNL     1      51.993  42.016  65.511  1.00  0.00     0.001 C 
HETATM   19  C6  UNL     1      51.050  42.368  66.632  1.00  0.00     0.005 C 
ENDBRANCH   2  18
TORSDOF 5
ENDMDL
MODEL 4
REMARK VINA RESULT: -5.993499852      1.600      3.198
REMARK  5 active torsions:
REMARK  status: ('A' for Active; 'I' for Inactive)
REMARK    1  A    between atoms: C2_2  and  C3_3 
REMARK    2  A    between atoms: C4_4  and  C5_5 
REMARK    3  A    between atoms: C12_14  and  O2_15 
REMARK    4  A    between atoms: C12_14  and  C13_17 
REMARK    5  A    between atoms: C13_17  and  O3_18 
ROOT
HETATM    1  C3  UNL     1      52.858  38.840  64.601  1.00  0.00     0.047 C 
HETATM    2  C4  UNL     1      54.272  39.262  64.545  1.00  0.00     0.000 C 
HETATM    3  C7  UNL     1      54.603  40.160  65.697  1.00  0.00     0.015 C 
HETATM    4  C8  UNL     1      56.000  40.732  65.450  1.00  0.00     0.012 C 
HETATM    5  C9  UNL     1      53.655  41.308  65.812  1.00  0.00     0.285 C 
HETATM    6  N1  UNL     1      52.310  41.058  65.568  1.00  0.00     0.161 N 
HETATM    7  C10 UNL     1      51.875  39.812  65.106  1.00  0.00     0.261 C 
HETATM    8  C11 UNL     1      51.129  39.269  66.339  1.00  0.00     0.210 C 
HETATM    9  O1  UNL     1      50.408  40.436  66.685  1.00  0.00    -0.327 OA
HETATM   10  C12 UNL     1      51.442  41.363  66.718  1.00  0.00     0.393 C 
ENDROOT
BRANCH  10  11
HETATM   11  O2  UNL     1      52.113  41.231  67.916  1.00  0.00    -0.340 OA
ATOM     12  H2  UNL     1      52.934  41.708  67.915  1.00  0.00     0.215 HD
ENDBRANCH  10  11
BRANCH  10  13
HETATM   13  C13 UNL     1      50.930  42.785  66.625  1.00  0.00     0.268 C 
BRANCH  13  14
HETATM   14  O3  UNL     1      50.063  42.954  65.573  1.00  0.00    -0.393 OA
ATOM     15  H3  UNL     1      49.175  42.704  65.799  1.00  0.00     0.209 HD
ENDBRANCH  13  14
ENDBRANCH  10  13
BRANCH   1  16
HETATM   16  C2  UNL     1      52.627  37.533  65.309  1.00  0.00    -0.030 C 
HETATM   17  C1  UNL     1      53.357  36.450  65.116  1.00  0.00     0.007 C 
ENDBRANCH   1  16
BRANCH   2  18
HETATM   18  C5  UNL     1      54.644  39.970  63.258  1.00  0.00     0.001 C 
HETATM   19  C6  UNL     1      53.441  40.257  62.398  1.00  0.00     0.005 C 
ENDBRANCH   2  18
TORSDOF 5
ENDMDL
MODEL 5
REMARK VINA RESULT: -5.886479599      3.363      5.604
REMARK  5 active torsions:
REMARK  status: ('A' for Active; 'I' for Inactive)
REMARK    1  A    between atoms: C2_2  and  C3_3 
REMARK    2  A    between atoms: C4_4  and  C5_5 
REMARK    3  A    between atoms: C12_14  and  O2_15 
REMARK    4  A    between atoms: C12_14  and  C13_17 
REMARK    5  A    between atoms: C13_17  and  O3_18 
ROOT
HETATM    1  C3  UNL     1      52.360  38.711  66.195  1.00  0.00     0.047 C 
HETATM    2  C4  UNL     1      51.481  39.893  66.088  1.00  0.00     0.000 C 
HETATM    3  C7  UNL     1      51.460  40.412  64.684  1.00  0.00     0.015 C 
HETATM    4  C8  UNL     1      50.723  41.752  64.698  1.00  0.00     0.012 C 
HETATM    5  C9  UNL     1      52.833  40.654  64.148  1.00  0.00     0.285 C 
HETATM    6  N1  UNL     1      53.820  39.730  64.469  1.00  0.00     0.161 N 
HETATM    7  C10 UNL     1      53.574  38.685  65.364  1.00  0.00     0.261 C 
HETATM    8  C11 UNL     1      53.586  37.465  64.424  1.00  0.00     0.210 C 
HETATM    9  O1  UNL     1      54.737  37.789  63.667  1.00  0.00    -0.327 OA
HETATM   10  C12 UNL     1      54.425  39.089  63.289  1.00  0.00     0.393 C 
ENDROOT
BRANCH  10  11
HETATM   11  O2  UNL     1      53.545  39.038  62.227  1.00  0.00    -0.340 OA
ATOM     12  H2  UNL     1      52.680  38.755  62.499  1.00  0.00     0.215 HD
ENDBRANCH  10  11
BRANCH  10  13
HETATM   13  C13 UNL     1      55.650  39.858  62.844  1.00  0.00     0.268 C 
BRANCH  13  14
HETATM   14  O3  UNL     1      56.493  39.089  62.079  1.00  0.00    -0.393 OA
ATOM     15  H3  UNL     1      56.021  38.577  61.432  1.00  0.00     0.209 HD
ENDBRANCH  13  14
ENDBRANCH  10  13
BRANCH   1  16
HETATM   16  C2  UNL     1      51.653  37.393  66.028  1.00  0.00    -0.030 C 
HETATM   17  C1  UNL     1      51.565  36.477  66.975  1.00  0.00     0.007 C 
ENDBRANCH   1  16
BRANCH   2  18
HETATM   18  C5  UNL     1      51.871  41.025  67.016  1.00  0.00     0.001 C 
HETATM   19  C6  UNL     1      51.012  41.068  68.253  1.00  0.00     0.005 C 
ENDBRANCH   2  18
TORSDOF 5
ENDMDL
