MODEL 1
REMARK VINA RESULT: -6.861528673      0.000      0.000
REMARK  4 active torsions:
REMARK  status: ('A' for Active; 'I' for Inactive)
REMARK    1  A    between atoms: C2_2  and  N1_3 
REMARK    2  A    between atoms: C8_12  and  N3_13 
REMARK       I    between atoms: N3_13  and  C10_15 
REMARK    3  A    between atoms: C10_15  and  O2_17 
REMARK    4  A    between atoms: O2_17  and  C11_18 
ROOT
HETATM    1  N1  UNL     1      51.829  41.069  67.500  1.00  0.00     0.112 N 
HETATM    2  C3  UNL     1      50.730  41.874  67.048  1.00  0.00     0.281 C 
HETATM    3  C4  UNL     1      51.066  42.349  65.662  1.00  0.00     0.049 C 
HETATM    4  C5  UNL     1      50.529  43.734  65.487  1.00  0.00     0.239 C 
HETATM    5  N2  UNL     1      51.689  44.581  65.303  1.00  0.00    -0.074 N 
ATOM      6  H21 UNL     1      51.551  45.534  65.638  1.00  0.00     0.277 HD
ATOM      7  H22 UNL     1      51.868  44.815  64.326  1.00  0.00     0.277 HD
HETATM    8  C6  UNL     1      52.798  43.902  65.942  1.00  0.00     0.241 C 
HETATM    9  C7  UNL     1      52.575  42.445  65.719  1.00  0.00     0.072 C 
HETATM   10  C8  UNL     1      53.015  41.548  66.822  1.00  0.00     0.334 C 
ENDROOT
BRANCH  10  11
HETATM   11  N3  UNL     1      53.632  40.370  66.240  1.00  0.00    -0.301 N 
HETATM   12  C9  UNL     1      52.756  39.260  65.928  1.00  0.00     0.157 C 
HETATM   13  C10 UNL     1      55.036  40.310  65.985  1.00  0.00     0.364 C 
HETATM   14  O1  UNL     1      55.792  41.274  66.251  1.00  0.00    -0.238 OA
BRANCH  13  15
HETATM   15  O2  UNL     1      55.605  39.176  65.433  1.00  0.00    -0.294 OA
BRANCH  15  16
HETATM   16  C11 UNL     1      55.820  38.948  64.074  1.00  0.00     0.061 C 
HETATM   17  C12 UNL     1      55.088  40.059  63.314  1.00  0.00     0.046 C 
HETATM   18  C13 UNL     1      55.248  37.619  63.611  1.00  0.00     0.046 C 
HETATM   19  C14 UNL     1      57.271  38.996  63.673  1.00  0.00     0.046 C 
ENDBRANCH  15  16
ENDBRANCH  13  15
ENDBRANCH  10  11
BRANCH   1  20
HETATM   20  C2  UNL     1      51.969  41.045  68.930  1.00  0.00     0.270 C 
HETATM   21  C1  UNL     1      51.373  39.841  69.588  1.00  0.00     0.037 C 
ENDBRANCH   1  20
TORSDOF 4
ENDMDL
MODEL 2
REMARK VINA RESULT: -6.797831593      1.563      3.406
REMARK  4 active torsions:
REMARK  status: ('A' for Active; 'I' for Inactive)
REMARK    1  A    between atoms: C2_2  and  N1_3 
REMARK    2  A    between atoms: C8_12  and  N3_13 
REMARK       I    between atoms: N3_13  and  C10_15 
REMARK    3  A    between atoms: C10_15  and  O2_17 
REMARK    4  A    between atoms: O2_17  and  C11_18 
ROOT
HETATM    1  N1  UNL     1      52.417  42.178  65.989  1.00  0.00     0.112 N 
HETATM    2  C3  UNL     1      51.877  42.414  67.297  1.00  0.00     0.281 C 
HETATM    3  C4  UNL     1      52.488  41.398  68.222  1.00  0.00     0.049 C 
HETATM    4  C5  UNL     1      51.465  40.994  69.236  1.00  0.00     0.239 C 
HETATM    5  N2  UNL     1      51.210  39.590  68.994  1.00  0.00    -0.074 N 
ATOM      6  H21 UNL     1      50.263  39.303  69.241  1.00  0.00     0.277 HD
ATOM      7  H22 UNL     1      51.702  38.972  69.639  1.00  0.00     0.277 HD
HETATM    8  C6  UNL     1      51.538  39.347  67.604  1.00  0.00     0.241 C 
HETATM    9  C7  UNL     1      52.706  40.221  67.297  1.00  0.00     0.072 C 
HETATM   10  C8  UNL     1      52.755  40.772  65.915  1.00  0.00     0.334 C 
ENDROOT
BRANCH  10  11
HETATM   11  N3  UNL     1      54.128  40.727  65.448  1.00  0.00    -0.301 N 
HETATM   12  C9  UNL     1      55.158  41.039  66.416  1.00  0.00     0.157 C 
HETATM   13  C10 UNL     1      54.448  40.388  64.098  1.00  0.00     0.364 C 
HETATM   14  O1  UNL     1      53.555  40.113  63.262  1.00  0.00    -0.238 OA
BRANCH  13  15
HETATM   15  O2  UNL     1      55.764  40.354  63.672  1.00  0.00    -0.294 OA
BRANCH  15  16
HETATM   16  C11 UNL     1      56.676  39.326  63.914  1.00  0.00     0.061 C 
HETATM   17  C12 UNL     1      57.637  39.293  62.722  1.00  0.00     0.046 C 
HETATM   18  C13 UNL     1      56.006  37.966  64.005  1.00  0.00     0.046 C 
HETATM   19  C14 UNL     1      57.496  39.526  65.161  1.00  0.00     0.046 C 
ENDBRANCH  15  16
ENDBRANCH  13  15
ENDBRANCH  10  11
BRANCH   1  20
HETATM   20  C2  UNL     1      51.547  42.605  64.927  1.00  0.00     0.270 C 
HETATM   21  C1  UNL     1      52.106  43.700  64.075  1.00  0.00     0.037 C 
ENDBRANCH   1  20
TORSDOF 4
ENDMDL
MODEL 3
REMARK VINA RESULT: -6.724660946      2.213      5.992
REMARK  4 active torsions:
REMARK  status: ('A' for Active; 'I' for Inactive)
REMARK    1  A    between atoms: C2_2  and  N1_3 
REMARK    2  A    between atoms: C8_12  and  N3_13 
REMARK       I    between atoms: N3_13  and  C10_15 
REMARK    3  A    between atoms: C10_15  and  O2_17 
REMARK    4  A    between atoms: O2_17  and  C11_18 
ROOT
HETATM    1  N1  UNL     1      55.771  39.227  64.623  1.00  0.00     0.112 N 
HETATM    2  C3  UNL     1      55.812  37.971  63.931  1.00  0.00     0.281 C 
HETATM    3  C4  UNL     1      54.392  37.584  63.624  1.00  0.00     0.049 C 
HETATM    4  C5  UNL     1      54.265  36.098  63.736  1.00  0.00     0.239 C 
HETATM    5  N2  UNL     1      53.352  35.867  64.836  1.00  0.00    -0.074 N 
ATOM      6  H21 UNL     1      53.526  34.991  65.328  1.00  0.00     0.277 HD
ATOM      7  H22 UNL     1      52.401  35.657  64.535  1.00  0.00     0.277 HD
HETATM    8  C6  UNL     1      53.439  37.032  65.692  1.00  0.00     0.241 C 
HETATM    9  C7  UNL     1      53.640  38.198  64.785  1.00  0.00     0.072 C 
HETATM   10  C8  UNL     1      54.501  39.290  65.316  1.00  0.00     0.334 C 
ENDROOT
BRANCH  10  11
HETATM   11  N3  UNL     1      53.916  40.563  64.940  1.00  0.00    -0.301 N 
HETATM   12  C9  UNL     1      53.607  40.752  63.537  1.00  0.00     0.157 C 
HETATM   13  C10 UNL     1      53.654  41.581  65.907  1.00  0.00     0.364 C 
HETATM   14  O1  UNL     1      53.918  41.415  67.122  1.00  0.00    -0.238 OA
BRANCH  13  15
HETATM   15  O2  UNL     1      53.099  42.791  65.526  1.00  0.00    -0.294 OA
BRANCH  15  16
HETATM   16  C11 UNL     1      51.770  43.172  65.706  1.00  0.00     0.061 C 
HETATM   17  C12 UNL     1      51.190  43.437  64.313  1.00  0.00     0.046 C 
HETATM   18  C13 UNL     1      51.638  44.453  66.512  1.00  0.00     0.046 C 
HETATM   19  C14 UNL     1      50.920  42.118  66.366  1.00  0.00     0.046 C 
ENDBRANCH  15  16
ENDBRANCH  13  15
ENDBRANCH  10  11
BRANCH   1  20
HETATM   20  C2  UNL     1      56.897  39.438  65.491  1.00  0.00     0.270 C 
HETATM   21  C1  UNL     1      58.113  39.973  64.805  1.00  0.00     0.037 C 
ENDBRANCH   1  20
TORSDOF 4
ENDMDL
MODEL 4
REMARK VINA RESULT: -6.706199721      1.225      1.451
REMARK  4 active torsions:
REMARK  status: ('A' for Active; 'I' for Inactive)
REMARK    1  A    between atoms: C2_2  and  N1_3 
REMARK    2  A    between atoms: C8_12  and  N3_13 
REMARK       I    between atoms: N3_13  and  C10_15 
REMARK    3  A    between atoms: C10_15  and  O2_17 
REMARK    4  A    between atoms: O2_17  and  C11_18 
ROOT
HETATM    1  N1  UNL     1      52.126  41.596  66.640  1.00  0.00     0.112 N 
HETATM    2  C3  UNL     1      50.872  42.285  66.743  1.00  0.00     0.281 C 
HETATM    3  C4  UNL     1      50.729  43.138  65.513  1.00  0.00     0.049 C 
HETATM    4  C5  UNL     1      50.036  44.410  65.888  1.00  0.00     0.239 C 
HETATM    5  N2  UNL     1      51.002  45.462  65.654  1.00  0.00    -0.074 N 
ATOM      6  H21 UNL     1      50.882  46.265  66.271  1.00  0.00     0.277 HD
ATOM      7  H22 UNL     1      50.856  45.957  64.773  1.00  0.00     0.277 HD
HETATM    8  C6  UNL     1      52.310  44.849  65.757  1.00  0.00     0.241 C 
HETATM    9  C7  UNL     1      52.169  43.476  65.194  1.00  0.00     0.072 C 
HETATM   10  C8  UNL     1      53.003  42.425  65.839  1.00  0.00     0.334 C 
ENDROOT
BRANCH  10  11
HETATM   11  N3  UNL     1      53.525  41.551  64.804  1.00  0.00    -0.301 N 
HETATM   12  C9  UNL     1      52.633  41.231  63.708  1.00  0.00     0.157 C 
HETATM   13  C10 UNL     1      54.855  41.034  64.862  1.00  0.00     0.364 C 
HETATM   14  O1  UNL     1      55.627  41.317  65.809  1.00  0.00    -0.238 OA
BRANCH  13  15
HETATM   15  O2  UNL     1      55.332  40.200  63.867  1.00  0.00    -0.294 OA
BRANCH  15  16
HETATM   16  C11 UNL     1      56.054  39.022  64.063  1.00  0.00     0.061 C 
HETATM   17  C12 UNL     1      57.307  39.117  63.187  1.00  0.00     0.046 C 
HETATM   18  C13 UNL     1      55.280  37.789  63.630  1.00  0.00     0.046 C 
HETATM   19  C14 UNL     1      56.501  38.816  65.486  1.00  0.00     0.046 C 
ENDBRANCH  15  16
ENDBRANCH  13  15
ENDBRANCH  10  11
BRANCH   1  20
HETATM   20  C2  UNL     1      52.692  41.246  67.914  1.00  0.00     0.270 C 
HETATM   21  C1  UNL     1      51.685  41.050  69.003  1.00  0.00     0.037 C 
ENDBRANCH   1  20
TORSDOF 4
ENDMDL
MODEL 5
REMARK VINA RESULT: -6.422998992      2.489      5.810
REMARK  4 active torsions:
REMARK  status: ('A' for Active; 'I' for Inactive)
REMARK    1  A    between atoms: C2_2  and  N1_3 
REMARK    2  A    between atoms: C8_12  and  N3_13 
REMARK       I    between atoms: N3_13  and  C10_15 
REMARK    3  A    between atoms: C10_15  and  O2_17 
REMARK    4  A    between atoms: O2_17  and  C11_18 
ROOT
HETATM    1  N1  UNL     1      54.543  40.250  65.684  1.00  0.00     0.112 N 
HETATM    2  C3  UNL     1      54.685  38.847  65.420  1.00  0.00     0.281 C 
HETATM    3  C4  UNL     1      53.301  38.277  65.283  1.00  0.00     0.049 C 
HETATM    4  C5  UNL     1      53.291  36.896  65.859  1.00  0.00     0.239 C 
HETATM    5  N2  UNL     1      52.399  36.955  66.997  1.00  0.00    -0.074 N 
ATOM      6  H21 UNL     1      52.641  36.293  67.735  1.00  0.00     0.277 HD
ATOM      7  H22 UNL     1      51.467  36.589  66.800  1.00  0.00     0.277 HD
HETATM    8  C6  UNL     1      52.392  38.333  67.443  1.00  0.00     0.241 C 
HETATM    9  C7  UNL     1      52.501  39.166  66.211  1.00  0.00     0.072 C 
HETATM   10  C8  UNL     1      53.272  40.431  66.353  1.00  0.00     0.334 C 
ENDROOT
BRANCH  10  11
HETATM   11  N3  UNL     1      52.588  41.474  65.610  1.00  0.00    -0.301 N 
HETATM   12  C9  UNL     1      53.003  41.678  64.237  1.00  0.00     0.157 C 
HETATM   13  C10 UNL     1      51.553  42.260  66.204  1.00  0.00     0.364 C 
HETATM   14  O1  UNL     1      51.193  42.079  67.391  1.00  0.00    -0.238 OA
BRANCH  13  15
HETATM   15  O2  UNL     1      50.917  43.252  65.479  1.00  0.00    -0.294 OA
BRANCH  15  16
HETATM   16  C11 UNL     1      51.168  44.620  65.571  1.00  0.00     0.061 C 
HETATM   17  C12 UNL     1      51.624  45.083  64.183  1.00  0.00     0.046 C 
HETATM   18  C13 UNL     1      52.281  44.941  66.553  1.00  0.00     0.046 C 
HETATM   19  C14 UNL     1      49.960  45.434  65.953  1.00  0.00     0.046 C 
ENDBRANCH  15  16
ENDBRANCH  13  15
ENDBRANCH  10  11
BRANCH   1  20
HETATM   20  C2  UNL     1      55.648  40.808  66.416  1.00  0.00     0.270 C 
HETATM   21  C1  UNL     1      56.988  40.287  66.002  1.00  0.00     0.037 C 
ENDBRANCH   1  20
TORSDOF 4
ENDMDL
