MODEL 1
REMARK VINA RESULT: -6.496248122      0.000      0.000
REMARK  4 active torsions:
REMARK  status: ('A' for Active; 'I' for Inactive)
REMARK    1  A    between atoms: C2_2  and  C6_12 
REMARK    2  A    between atoms: N1_3  and  N2_5 
REMARK    3  A    between atoms: N2_5  and  C3_7 
REMARK    4  A    between atoms: C3_7  and  N3_9 
ROOT
HETATM    1  C1  UNL     1      52.835  38.215  66.197  1.00  0.00     0.070 C 
HETATM    2  C2  UNL     1      53.507  39.154  65.257  1.00  0.00     0.036 C 
HETATM    3  N1  UNL     1      52.766  40.193  64.923  1.00  0.00    -0.302 N 
ATOM      4  H1  UNL     1      53.172  40.874  64.281  1.00  0.00     0.186 HD
ENDROOT
BRANCH   2   5
HETATM    5  C6  UNL     1      54.829  38.986  64.738  1.00  0.00     0.035 A 
HETATM    6  C7  UNL     1      55.227  38.005  63.855  1.00  0.00     0.036 A 
HETATM    7  C8  UNL     1      54.388  36.957  63.284  1.00  0.00     0.070 C 
HETATM    8  N4  UNL     1      56.537  38.176  63.604  1.00  0.00    -0.302 N 
HETATM    9  N5  UNL     1      56.981  39.219  64.288  1.00  0.00    -0.300 N 
ATOM     10  H4  UNL     1      57.100  37.593  62.985  1.00  0.00     0.186 HD
HETATM   11  C9  UNL     1      58.333  39.738  64.295  1.00  0.00     0.177 C 
HETATM   12  C10 UNL     1      55.933  39.742  65.004  1.00  0.00     0.038 A 
HETATM   13  C11 UNL     1      56.059  40.903  65.873  1.00  0.00     0.071 C 
ENDBRANCH   2   5
BRANCH   3  14
HETATM   14  N2  UNL     1      51.497  40.427  65.372  1.00  0.00    -0.276 N 
ATOM     15  H2  UNL     1      50.713  39.868  65.035  1.00  0.00     0.189 HD
BRANCH  14  16
HETATM   16  C3  UNL     1      51.292  41.481  66.332  1.00  0.00     0.188 C 
HETATM   17  S1  UNL     1      50.929  43.001  65.832  1.00  0.00    -0.039 SA
BRANCH  16  18
HETATM   18  N3  UNL     1      51.393  41.256  67.716  1.00  0.00    -0.366 N 
HETATM   19  C4  UNL     1      52.672  41.168  68.348  1.00  0.00     0.151 C 
HETATM   20  C5  UNL     1      50.195  41.113  68.498  1.00  0.00     0.151 C 
ENDBRANCH  16  18
ENDBRANCH  14  16
ENDBRANCH   3  14
TORSDOF 4
ENDMDL
MODEL 2
REMARK VINA RESULT: -6.446707234      1.263      1.663
REMARK  4 active torsions:
REMARK  status: ('A' for Active; 'I' for Inactive)
REMARK    1  A    between atoms: C2_2  and  C6_12 
REMARK    2  A    between atoms: N1_3  and  N2_5 
REMARK    3  A    between atoms: N2_5  and  C3_7 
REMARK    4  A    between atoms: C3_7  and  N3_9 
ROOT
HETATM    1  C1  UNL     1      52.866  38.372  66.303  1.00  0.00     0.070 C 
HETATM    2  C2  UNL     1      53.526  39.250  65.299  1.00  0.00     0.036 C 
HETATM    3  N1  UNL     1      52.781  40.268  64.912  1.00  0.00    -0.302 N 
ATOM      4  H1  UNL     1      53.178  40.908  64.224  1.00  0.00     0.186 HD
ENDROOT
BRANCH   2   5
HETATM    5  C6  UNL     1      54.841  39.050  64.775  1.00  0.00     0.035 A 
HETATM    6  C7  UNL     1      55.215  38.045  63.909  1.00  0.00     0.036 A 
HETATM    7  C8  UNL     1      54.355  37.000  63.364  1.00  0.00     0.070 C 
HETATM    8  N4  UNL     1      56.526  38.188  63.645  1.00  0.00    -0.302 N 
HETATM    9  N5  UNL     1      56.993  39.238  64.305  1.00  0.00    -0.300 N 
ATOM     10  H4  UNL     1      57.075  37.584  63.034  1.00  0.00     0.186 HD
HETATM   11  C9  UNL     1      58.354  39.733  64.292  1.00  0.00     0.177 C 
HETATM   12  C10 UNL     1      55.960  39.792  65.017  1.00  0.00     0.038 A 
HETATM   13  C11 UNL     1      56.111  40.967  65.862  1.00  0.00     0.071 C 
ENDBRANCH   2   5
BRANCH   3  14
HETATM   14  N2  UNL     1      51.518  40.531  65.362  1.00  0.00    -0.276 N 
ATOM     15  H2  UNL     1      50.738  39.924  65.111  1.00  0.00     0.189 HD
BRANCH  14  16
HETATM   16  C3  UNL     1      51.314  41.684  66.201  1.00  0.00     0.188 C 
HETATM   17  S1  UNL     1      50.879  41.502  67.772  1.00  0.00    -0.039 SA
BRANCH  16  18
HETATM   18  N3  UNL     1      51.477  42.994  65.716  1.00  0.00    -0.366 N 
HETATM   19  C4  UNL     1      52.142  43.984  66.504  1.00  0.00     0.151 C 
HETATM   20  C5  UNL     1      50.970  43.334  64.415  1.00  0.00     0.151 C 
ENDBRANCH  16  18
ENDBRANCH  14  16
ENDBRANCH   3  14
TORSDOF 4
ENDMDL
MODEL 3
REMARK VINA RESULT: -6.415552593      2.885      6.421
REMARK  4 active torsions:
REMARK  status: ('A' for Active; 'I' for Inactive)
REMARK    1  A    between atoms: C2_2  and  C6_12 
REMARK    2  A    between atoms: N1_3  and  N2_5 
REMARK    3  A    between atoms: N2_5  and  C3_7 
REMARK    4  A    between atoms: C3_7  and  N3_9 
ROOT
HETATM    1  C1  UNL     1      52.376  41.755  62.941  1.00  0.00     0.070 C 
HETATM    2  C2  UNL     1      52.658  42.081  64.365  1.00  0.00     0.036 C 
HETATM    3  N1  UNL     1      53.716  41.460  64.853  1.00  0.00    -0.302 N 
ATOM      4  H1  UNL     1      53.961  41.642  65.826  1.00  0.00     0.186 HD
ENDROOT
BRANCH   2   5
HETATM    5  C6  UNL     1      51.885  42.975  65.170  1.00  0.00     0.035 A 
HETATM    6  C7  UNL     1      51.047  42.607  66.201  1.00  0.00     0.036 A 
HETATM    7  C8  UNL     1      50.788  41.250  66.669  1.00  0.00     0.070 C 
HETATM    8  N4  UNL     1      50.499  43.724  66.712  1.00  0.00    -0.302 N 
HETATM    9  N5  UNL     1      50.955  44.777  66.051  1.00  0.00    -0.300 N 
ATOM     10  H4  UNL     1      49.838  43.755  67.488  1.00  0.00     0.186 HD
HETATM   11  C9  UNL     1      50.612  46.164  66.289  1.00  0.00     0.177 C 
HETATM   12  C10 UNL     1      51.821  44.335  65.082  1.00  0.00     0.038 A 
HETATM   13  C11 UNL     1      52.512  45.225  64.161  1.00  0.00     0.071 C 
ENDBRANCH   2   5
BRANCH   3  14
HETATM   14  N2  UNL     1      54.506  40.592  64.154  1.00  0.00    -0.276 N 
ATOM     15  H2  UNL     1      54.214  40.239  63.243  1.00  0.00     0.189 HD
BRANCH  14  16
HETATM   16  C3  UNL     1      55.760  40.187  64.735  1.00  0.00     0.188 C 
HETATM   17  S1  UNL     1      56.282  40.861  66.136  1.00  0.00    -0.039 SA
BRANCH  16  18
HETATM   18  N3  UNL     1      56.576  39.211  64.136  1.00  0.00    -0.366 N 
HETATM   19  C4  UNL     1      57.964  39.465  63.906  1.00  0.00     0.151 C 
HETATM   20  C5  UNL     1      56.004  37.950  63.753  1.00  0.00     0.151 C 
ENDBRANCH  16  18
ENDBRANCH  14  16
ENDBRANCH   3  14
TORSDOF 4
ENDMDL
MODEL 4
REMARK VINA RESULT: -6.235169889      3.441      5.871
REMARK  4 active torsions:
REMARK  status: ('A' for Active; 'I' for Inactive)
REMARK    1  A    between atoms: C2_2  and  C6_12 
REMARK    2  A    between atoms: N1_3  and  N2_5 
REMARK    3  A    between atoms: N2_5  and  C3_7 
REMARK    4  A    between atoms: C3_7  and  N3_9 
ROOT
HETATM    1  C1  UNL     1      50.883  41.877  66.519  1.00  0.00     0.070 C 
HETATM    2  C2  UNL     1      52.056  42.506  65.853  1.00  0.00     0.036 C 
HETATM    3  N1  UNL     1      53.193  41.873  66.070  1.00  0.00    -0.302 N 
ATOM      4  H1  UNL     1      54.035  42.255  65.639  1.00  0.00     0.186 HD
ENDROOT
BRANCH   2   5
HETATM    5  C6  UNL     1      52.004  43.684  65.044  1.00  0.00     0.035 A 
HETATM    6  C7  UNL     1      51.977  43.711  63.666  1.00  0.00     0.036 A 
HETATM    7  C8  UNL     1      51.995  42.558  62.772  1.00  0.00     0.070 C 
HETATM    8  N4  UNL     1      51.931  44.997  63.275  1.00  0.00    -0.302 N 
HETATM    9  N5  UNL     1      51.927  45.779  64.343  1.00  0.00    -0.300 N 
ATOM     10  H4  UNL     1      51.902  45.319  62.307  1.00  0.00     0.186 HD
HETATM   11  C9  UNL     1      51.883  47.227  64.357  1.00  0.00     0.177 C 
HETATM   12  C10 UNL     1      51.973  44.983  65.460  1.00  0.00     0.038 A 
HETATM   13  C11 UNL     1      51.984  45.508  66.817  1.00  0.00     0.071 C 
ENDBRANCH   2   5
BRANCH   3  14
HETATM   14  N2  UNL     1      53.329  40.744  66.828  1.00  0.00    -0.276 N 
ATOM     15  H2  UNL     1      53.303  40.794  67.847  1.00  0.00     0.189 HD
BRANCH  14  16
HETATM   16  C3  UNL     1      53.509  39.484  66.156  1.00  0.00     0.188 C 
HETATM   17  S1  UNL     1      52.633  38.171  66.604  1.00  0.00    -0.039 SA
BRANCH  16  18
HETATM   18  N3  UNL     1      54.428  39.327  65.104  1.00  0.00    -0.366 N 
HETATM   19  C4  UNL     1      55.830  39.233  65.370  1.00  0.00     0.151 C 
HETATM   20  C5  UNL     1      53.949  39.260  63.750  1.00  0.00     0.151 C 
ENDBRANCH  16  18
ENDBRANCH  14  16
ENDBRANCH   3  14
TORSDOF 4
ENDMDL
MODEL 5
REMARK VINA RESULT: -6.219712296      2.918      6.316
REMARK  4 active torsions:
REMARK  status: ('A' for Active; 'I' for Inactive)
REMARK    1  A    between atoms: C2_2  and  C6_12 
REMARK    2  A    between atoms: N1_3  and  N2_5 
REMARK    3  A    between atoms: N2_5  and  C3_7 
REMARK    4  A    between atoms: C3_7  and  N3_9 
ROOT
HETATM    1  C1  UNL     1      52.323  41.732  62.823  1.00  0.00     0.070 C 
HETATM    2  C2  UNL     1      52.660  42.046  64.239  1.00  0.00     0.036 C 
HETATM    3  N1  UNL     1      53.751  41.444  64.672  1.00  0.00    -0.302 N 
ATOM      4  H1  UNL     1      54.034  41.619  65.636  1.00  0.00     0.186 HD
ENDROOT
BRANCH   2   5
HETATM    5  C6  UNL     1      51.902  42.912  65.088  1.00  0.00     0.035 A 
HETATM    6  C7  UNL     1      51.113  42.511  66.145  1.00  0.00     0.036 A 
HETATM    7  C8  UNL     1      50.898  41.141  66.600  1.00  0.00     0.070 C 
HETATM    8  N4  UNL     1      50.564  43.608  66.696  1.00  0.00    -0.302 N 
HETATM    9  N5  UNL     1      50.973  44.680  66.035  1.00  0.00    -0.300 N 
ATOM     10  H4  UNL     1      49.933  43.613  67.497  1.00  0.00     0.186 HD
HETATM   11  C9  UNL     1      50.613  46.056  66.310  1.00  0.00     0.177 C 
HETATM   12  C10 UNL     1      51.808  44.271  65.026  1.00  0.00     0.038 A 
HETATM   13  C11 UNL     1      52.445  45.190  64.094  1.00  0.00     0.071 C 
ENDBRANCH   2   5
BRANCH   3  14
HETATM   14  N2  UNL     1      54.530  40.603  63.928  1.00  0.00    -0.276 N 
ATOM     15  H2  UNL     1      54.638  40.745  62.923  1.00  0.00     0.189 HD
BRANCH  14  16
HETATM   16  C3  UNL     1      55.194  39.513  64.595  1.00  0.00     0.188 C 
HETATM   17  S1  UNL     1      54.322  38.309  65.288  1.00  0.00    -0.039 SA
BRANCH  16  18
HETATM   18  N3  UNL     1      56.595  39.436  64.679  1.00  0.00    -0.366 N 
HETATM   19  C4  UNL     1      57.367  38.980  63.565  1.00  0.00     0.151 C 
HETATM   20  C5  UNL     1      57.252  39.821  65.897  1.00  0.00     0.151 C 
ENDBRANCH  16  18
ENDBRANCH  14  16
ENDBRANCH   3  14
TORSDOF 4
ENDMDL
