MODEL 1
REMARK VINA RESULT: -6.374895552      0.000      0.000
REMARK  4 active torsions:
REMARK  status: ('A' for Active; 'I' for Inactive)
REMARK    1  A    between atoms: C3_3  and  C4_4 
REMARK    2  A    between atoms: C7_10  and  C9_12 
REMARK    3  A    between atoms: C9_12  and  O2_14 
REMARK    4  A    between atoms: O2_14  and  C10_15 
REMARK       I    between atoms: N2_17  and  C12_18 
ROOT
HETATM    1  C1  UNL     1      52.728  35.787  69.904  1.00  0.00     0.112 C 
HETATM    2  C2  UNL     1      52.603  36.626  68.689  1.00  0.00    -0.107 C 
HETATM    3  C3  UNL     1      52.503  37.291  67.688  1.00  0.00    -0.053 C 
ENDROOT
BRANCH   3   4
HETATM    4  C4  UNL     1      52.372  38.076  66.464  1.00  0.00     0.371 C 
HETATM    5  N1  UNL     1      53.320  37.657  65.501  1.00  0.00    -0.036 N 
HETATM    6  C5  UNL     1      54.389  38.598  65.453  1.00  0.00     0.223 C 
ATOM      7  H12 UNL     1      53.648  36.706  65.669  1.00  0.00     0.281 HD
ATOM      8  H11 UNL     1      52.898  37.504  64.585  1.00  0.00     0.281 HD
HETATM    9  C6  UNL     1      55.076  38.664  64.108  1.00  0.00     0.043 C 
HETATM   10  C7  UNL     1      53.716  39.905  65.801  1.00  0.00     0.150 C 
HETATM   11  C8  UNL     1      54.753  40.798  66.440  1.00  0.00     0.052 C 
HETATM   12  N2  UNL     1      52.669  39.491  66.696  1.00  0.00    -0.293 N 
HETATM   13  C12 UNL     1      51.972  40.246  67.676  1.00  0.00     0.219 C 
HETATM   14  C13 UNL     1      52.267  41.690  67.915  1.00  0.00     0.117 C 
HETATM   15  O3  UNL     1      51.087  39.728  68.373  1.00  0.00    -0.274 OA
BRANCH  10  16
HETATM   16  C9  UNL     1      53.091  40.542  64.617  1.00  0.00     0.289 C 
HETATM   17  O1  UNL     1      52.417  39.878  63.802  1.00  0.00    -0.262 OA
BRANCH  16  18
HETATM   18  O2  UNL     1      53.249  41.890  64.405  1.00  0.00    -0.320 OA
BRANCH  18  19
HETATM   19  C10 UNL     1      52.159  42.797  64.282  1.00  0.00     0.174 C 
HETATM   20  C11 UNL     1      52.548  44.039  65.077  1.00  0.00     0.034 C 
ENDBRANCH  18  19
ENDBRANCH  16  18
ENDBRANCH  10  16
ENDBRANCH   3   4
TORSDOF 4
ENDMDL
MODEL 2
REMARK VINA RESULT: -6.288586517      2.192      5.915
REMARK  4 active torsions:
REMARK  status: ('A' for Active; 'I' for Inactive)
REMARK    1  A    between atoms: C3_3  and  C4_4 
REMARK    2  A    between atoms: C7_10  and  C9_12 
REMARK    3  A    between atoms: C9_12  and  O2_14 
REMARK    4  A    between atoms: O2_14  and  C10_15 
REMARK       I    between atoms: N2_17  and  C12_18 
ROOT
HETATM    1  C1  UNL     1      51.978  46.814  64.431  1.00  0.00     0.112 C 
HETATM    2  C2  UNL     1      51.701  45.406  64.803  1.00  0.00    -0.107 C 
HETATM    3  C3  UNL     1      51.466  44.267  65.122  1.00  0.00    -0.053 C 
ENDROOT
BRANCH   3   4
HETATM    4  C4  UNL     1      51.161  42.897  65.521  1.00  0.00     0.371 C 
HETATM    5  N1  UNL     1      51.217  42.764  66.928  1.00  0.00    -0.036 N 
HETATM    6  C5  UNL     1      52.434  42.119  67.292  1.00  0.00     0.223 C 
ATOM      7  H12 UNL     1      51.094  43.656  67.407  1.00  0.00     0.281 HD
ATOM      8  H11 UNL     1      50.398  42.285  67.304  1.00  0.00     0.281 HD
HETATM    9  C6  UNL     1      52.343  41.342  68.586  1.00  0.00     0.043 C 
HETATM   10  C7  UNL     1      52.711  41.212  66.115  1.00  0.00     0.150 C 
HETATM   11  C8  UNL     1      54.205  41.013  66.032  1.00  0.00     0.052 C 
HETATM   12  N2  UNL     1      52.157  41.951  65.013  1.00  0.00    -0.293 N 
HETATM   13  C12 UNL     1      52.454  41.858  63.628  1.00  0.00     0.219 C 
HETATM   14  C13 UNL     1      53.466  40.894  63.101  1.00  0.00     0.117 C 
HETATM   15  O3  UNL     1      51.879  42.580  62.799  1.00  0.00    -0.274 OA
BRANCH  10  16
HETATM   16  C9  UNL     1      51.985  39.924  66.223  1.00  0.00     0.289 C 
HETATM   17  O1  UNL     1      50.801  39.875  66.616  1.00  0.00    -0.262 OA
BRANCH  16  18
HETATM   18  O2  UNL     1      52.620  38.754  65.882  1.00  0.00    -0.320 OA
BRANCH  18  19
HETATM   19  C10 UNL     1      52.702  37.627  66.747  1.00  0.00     0.174 C 
HETATM   20  C11 UNL     1      52.737  36.399  65.842  1.00  0.00     0.034 C 
ENDBRANCH  18  19
ENDBRANCH  16  18
ENDBRANCH  10  16
ENDBRANCH   3   4
TORSDOF 4
ENDMDL
MODEL 3
REMARK VINA RESULT: -6.088875597      2.031      3.426
REMARK  4 active torsions:
REMARK  status: ('A' for Active; 'I' for Inactive)
REMARK    1  A    between atoms: C3_3  and  C4_4 
REMARK    2  A    between atoms: C7_10  and  C9_12 
REMARK    3  A    between atoms: C9_12  and  O2_14 
REMARK    4  A    between atoms: O2_14  and  C10_15 
REMARK       I    between atoms: N2_17  and  C12_18 
ROOT
HETATM    1  C1  UNL     1      52.480  34.845  65.508  1.00  0.00     0.112 C 
HETATM    2  C2  UNL     1      52.738  36.233  65.960  1.00  0.00    -0.107 C 
HETATM    3  C3  UNL     1      52.929  37.368  66.319  1.00  0.00    -0.053 C 
ENDROOT
BRANCH   3   4
HETATM    4  C4  UNL     1      53.135  38.746  66.754  1.00  0.00     0.371 C 
HETATM    5  N1  UNL     1      51.956  39.264  67.341  1.00  0.00    -0.036 N 
HETATM    6  C5  UNL     1      51.310  40.130  66.412  1.00  0.00     0.223 C 
ATOM      7  H12 UNL     1      51.337  38.528  67.679  1.00  0.00     0.281 HD
ATOM      8  H11 UNL     1      52.138  39.721  68.234  1.00  0.00     0.281 HD
HETATM    9  C6  UNL     1      50.485  41.213  67.069  1.00  0.00     0.043 C 
HETATM   10  C7  UNL     1      52.459  40.709  65.620  1.00  0.00     0.150 C 
HETATM   11  C8  UNL     1      51.938  41.062  64.247  1.00  0.00     0.052 C 
HETATM   12  N2  UNL     1      53.415  39.634  65.623  1.00  0.00    -0.293 N 
HETATM   13  C12 UNL     1      54.488  39.381  64.729  1.00  0.00     0.219 C 
HETATM   14  C13 UNL     1      54.783  40.284  63.575  1.00  0.00     0.117 C 
HETATM   15  O3  UNL     1      55.226  38.395  64.875  1.00  0.00    -0.274 OA
BRANCH  10  16
HETATM   16  C9  UNL     1      53.071  41.876  66.298  1.00  0.00     0.289 C 
HETATM   17  O1  UNL     1      53.557  41.782  67.444  1.00  0.00    -0.262 OA
BRANCH  16  18
HETATM   18  O2  UNL     1      53.111  43.091  65.659  1.00  0.00    -0.320 OA
BRANCH  18  19
HETATM   19  C10 UNL     1      52.354  44.222  66.076  1.00  0.00     0.174 C 
HETATM   20  C11 UNL     1      52.284  45.155  64.871  1.00  0.00     0.034 C 
ENDBRANCH  18  19
ENDBRANCH  16  18
ENDBRANCH  10  16
ENDBRANCH   3   4
TORSDOF 4
ENDMDL
MODEL 4
REMARK VINA RESULT: -5.970792547      1.914      5.573
REMARK  4 active torsions:
REMARK  status: ('A' for Active; 'I' for Inactive)
REMARK    1  A    between atoms: C3_3  and  C4_4 
REMARK    2  A    between atoms: C7_10  and  C9_12 
REMARK    3  A    between atoms: C9_12  and  O2_14 
REMARK    4  A    between atoms: O2_14  and  C10_15 
REMARK       I    between atoms: N2_17  and  C12_18 
ROOT
HETATM    1  C1  UNL     1      52.339  44.981  63.268  1.00  0.00     0.112 C 
HETATM    2  C2  UNL     1      52.133  43.646  63.880  1.00  0.00    -0.107 C 
HETATM    3  C3  UNL     1      51.970  42.570  64.398  1.00  0.00    -0.053 C 
ENDROOT
BRANCH   3   4
HETATM    4  C4  UNL     1      51.765  41.278  65.045  1.00  0.00     0.371 C 
HETATM    5  N1  UNL     1      50.735  41.362  66.011  1.00  0.00    -0.036 N 
HETATM    6  C5  UNL     1      51.313  41.415  67.312  1.00  0.00     0.223 C 
ATOM      7  H12 UNL     1      50.104  42.145  65.836  1.00  0.00     0.281 HD
ATOM      8  H11 UNL     1      50.056  40.607  65.919  1.00  0.00     0.281 HD
HETATM    9  C6  UNL     1      50.418  40.854  68.394  1.00  0.00     0.043 C 
HETATM   10  C7  UNL     1      52.580  40.606  67.161  1.00  0.00     0.150 C 
HETATM   11  C8  UNL     1      53.576  41.122  68.172  1.00  0.00     0.052 C 
HETATM   12  N2  UNL     1      52.951  40.855  65.794  1.00  0.00    -0.293 N 
HETATM   13  C12 UNL     1      54.221  40.741  65.172  1.00  0.00     0.219 C 
HETATM   14  C13 UNL     1      55.434  40.307  65.928  1.00  0.00     0.117 C 
HETATM   15  O3  UNL     1      54.371  40.999  63.968  1.00  0.00    -0.274 OA
BRANCH  10  16
HETATM   16  C9  UNL     1      52.334  39.152  67.319  1.00  0.00     0.289 C 
HETATM   17  O1  UNL     1      52.246  38.626  68.447  1.00  0.00    -0.262 OA
BRANCH  16  18
HETATM   18  O2  UNL     1      52.198  38.360  66.205  1.00  0.00    -0.320 OA
BRANCH  18  19
HETATM   19  C10 UNL     1      53.077  37.284  65.896  1.00  0.00     0.174 C 
HETATM   20  C11 UNL     1      52.318  36.005  66.237  1.00  0.00     0.034 C 
ENDBRANCH  18  19
ENDBRANCH  16  18
ENDBRANCH  10  16
ENDBRANCH   3   4
TORSDOF 4
ENDMDL
MODEL 5
REMARK VINA RESULT: -5.854986464      2.233      2.761
REMARK  4 active torsions:
REMARK  status: ('A' for Active; 'I' for Inactive)
REMARK    1  A    between atoms: C3_3  and  C4_4 
REMARK    2  A    between atoms: C7_10  and  C9_12 
REMARK    3  A    between atoms: C9_12  and  O2_14 
REMARK    4  A    between atoms: O2_14  and  C10_15 
REMARK       I    between atoms: N2_17  and  C12_18 
ROOT
HETATM    1  C1  UNL     1      51.652  40.994  71.707  1.00  0.00     0.112 C 
HETATM    2  C2  UNL     1      51.687  40.710  70.252  1.00  0.00    -0.107 C 
HETATM    3  C3  UNL     1      51.727  40.498  69.066  1.00  0.00    -0.053 C 
ENDROOT
BRANCH   3   4
HETATM    4  C4  UNL     1      51.799  40.253  67.629  1.00  0.00     0.371 C 
HETATM    5  N1  UNL     1      53.038  39.663  67.285  1.00  0.00    -0.036 N 
HETATM    6  C5  UNL     1      53.883  40.651  66.702  1.00  0.00     0.223 C 
ATOM      7  H12 UNL     1      53.478  39.198  68.079  1.00  0.00     0.281 HD
ATOM      8  H11 UNL     1      52.925  38.847  66.684  1.00  0.00     0.281 HD
HETATM    9  C6  UNL     1      54.893  40.085  65.730  1.00  0.00     0.043 C 
HETATM   10  C7  UNL     1      52.908  41.580  66.015  1.00  0.00     0.150 C 
HETATM   11  C8  UNL     1      53.540  42.950  65.964  1.00  0.00     0.052 C 
HETATM   12  N2  UNL     1      51.750  41.501  66.864  1.00  0.00    -0.293 N 
HETATM   13  C12 UNL     1      50.680  42.421  67.012  1.00  0.00     0.219 C 
HETATM   14  C13 UNL     1      50.620  43.695  66.234  1.00  0.00     0.117 C 
HETATM   15  O3  UNL     1      49.747  42.199  67.800  1.00  0.00    -0.274 OA
BRANCH  10  16
HETATM   16  C9  UNL     1      52.531  41.092  64.667  1.00  0.00     0.289 C 
HETATM   17  O1  UNL     1      52.028  39.961  64.501  1.00  0.00    -0.262 OA
BRANCH  16  18
HETATM   18  O2  UNL     1      52.732  41.896  63.571  1.00  0.00    -0.320 OA
BRANCH  18  19
HETATM   19  C10 UNL     1      51.686  42.604  62.916  1.00  0.00     0.174 C 
HETATM   20  C11 UNL     1      52.092  44.075  62.938  1.00  0.00     0.034 C 
ENDBRANCH  18  19
ENDBRANCH  16  18
ENDBRANCH  10  16
ENDBRANCH   3   4
TORSDOF 4
ENDMDL
