MODEL 1
REMARK VINA RESULT: -6.537383625      0.000      0.000
REMARK  3 active torsions:
REMARK  status: ('A' for Active; 'I' for Inactive)
REMARK    1  A    between atoms: O1_2  and  C2_3 
REMARK    2  A    between atoms: C13_16  and  C14_17 
REMARK    3  A    between atoms: C14_17  and  O3_18 
ROOT
HETATM    1  C2  UNL     1      52.423  40.195  64.799  1.00  0.00     0.133 C 
HETATM    2  C3  UNL     1      53.187  39.434  65.836  1.00  0.00     0.041 C 
HETATM    3  C4  UNL     1      53.873  40.257  66.871  1.00  0.00     0.037 C 
HETATM    4  C5  UNL     1      54.664  41.326  66.132  1.00  0.00     0.017 C 
HETATM    5  C6  UNL     1      53.670  42.266  65.534  1.00  0.00     0.030 C 
HETATM    6  C7  UNL     1      52.727  42.787  66.593  1.00  0.00     0.137 C 
HETATM    7  O2  UNL     1      52.862  42.233  67.809  1.00  0.00    -0.360 OA
HETATM    8  C8  UNL     1      53.010  40.872  67.905  1.00  0.00     0.226 C 
HETATM    9  N1  UNL     1      51.676  40.263  67.966  1.00  0.00    -0.368 N 
HETATM   10  C9  UNL     1      51.508  39.073  68.768  1.00  0.00     0.151 C 
HETATM   11  C10 UNL     1      50.507  40.731  67.307  1.00  0.00     0.084 C 
HETATM   12  C11 UNL     1      50.500  41.655  66.357  1.00  0.00    -0.002 C 
HETATM   13  C12 UNL     1      51.592  42.422  65.738  1.00  0.00     0.052 C 
HETATM   14  C13 UNL     1      52.530  41.657  64.835  1.00  0.00     0.022 C 
ENDROOT
BRANCH  14  15
HETATM   15  C14 UNL     1      52.418  42.233  63.413  1.00  0.00     0.177 C 
BRANCH  15  16
HETATM   16  O3  UNL     1      51.202  41.765  62.861  1.00  0.00    -0.400 OA
ATOM     17  H3  UNL     1      51.052  42.244  62.054  1.00  0.00     0.209 HD
ENDBRANCH  15  16
ENDBRANCH  14  15
BRANCH   1  18
HETATM   18  O1  UNL     1      52.787  39.688  63.551  1.00  0.00    -0.390 OA
HETATM   19  C1  UNL     1      53.953  38.938  63.583  1.00  0.00     0.202 C 
ENDBRANCH   1  18
TORSDOF 3
ENDMDL
MODEL 2
REMARK VINA RESULT: -6.184862081      2.030      3.504
REMARK  3 active torsions:
REMARK  status: ('A' for Active; 'I' for Inactive)
REMARK    1  A    between atoms: O1_2  and  C2_3 
REMARK    2  A    between atoms: C13_16  and  C14_17 
REMARK    3  A    between atoms: C14_17  and  O3_18 
ROOT
HETATM    1  C2  UNL     1      55.308  40.191  65.684  1.00  0.00     0.133 C 
HETATM    2  C3  UNL     1      54.518  40.923  66.722  1.00  0.00     0.041 C 
HETATM    3  C4  UNL     1      53.177  41.412  66.292  1.00  0.00     0.037 C 
HETATM    4  C5  UNL     1      53.378  42.155  64.980  1.00  0.00     0.017 C 
HETATM    5  C6  UNL     1      53.730  41.131  63.950  1.00  0.00     0.030 C 
HETATM    6  C7  UNL     1      52.688  40.037  63.912  1.00  0.00     0.137 C 
HETATM    7  O2  UNL     1      51.742  40.107  64.861  1.00  0.00    -0.360 OA
HETATM    8  C8  UNL     1      52.116  40.389  66.151  1.00  0.00     0.226 C 
HETATM    9  N1  UNL     1      52.452  39.127  66.823  1.00  0.00    -0.368 N 
HETATM   10  C9  UNL     1      52.153  39.007  68.231  1.00  0.00     0.151 C 
HETATM   11  C10 UNL     1      53.049  37.988  66.221  1.00  0.00     0.084 C 
HETATM   12  C11 UNL     1      53.601  37.977  65.016  1.00  0.00    -0.002 C 
HETATM   13  C12 UNL     1      53.759  39.038  64.010  1.00  0.00     0.052 C 
HETATM   14  C13 UNL     1      54.742  40.138  64.332  1.00  0.00     0.022 C 
ENDROOT
BRANCH  14  15
HETATM   15  C14 UNL     1      55.869  40.109  63.285  1.00  0.00     0.177 C 
BRANCH  15  16
HETATM   16  O3  UNL     1      56.398  38.796  63.269  1.00  0.00    -0.400 OA
ATOM     17  H3  UNL     1      56.147  38.399  62.443  1.00  0.00     0.209 HD
ENDBRANCH  15  16
ENDBRANCH  14  15
BRANCH   1  18
HETATM   18  O1  UNL     1      56.595  40.729  65.677  1.00  0.00    -0.390 OA
HETATM   19  C1  UNL     1      57.538  39.903  66.271  1.00  0.00     0.202 C 
ENDBRANCH   1  18
TORSDOF 3
ENDMDL
MODEL 3
REMARK VINA RESULT: -5.817829201      2.293      4.255
REMARK  3 active torsions:
REMARK  status: ('A' for Active; 'I' for Inactive)
REMARK    1  A    between atoms: O1_2  and  C2_3 
REMARK    2  A    between atoms: C13_16  and  C14_17 
REMARK    3  A    between atoms: C14_17  and  O3_18 
ROOT
HETATM    1  C2  UNL     1      55.708  40.548  64.472  1.00  0.00     0.133 C 
HETATM    2  C3  UNL     1      54.880  40.249  63.262  1.00  0.00     0.041 C 
HETATM    3  C4  UNL     1      53.696  39.374  63.486  1.00  0.00     0.037 C 
HETATM    4  C5  UNL     1      54.184  38.158  64.258  1.00  0.00     0.017 C 
HETATM    5  C6  UNL     1      54.541  38.630  65.629  1.00  0.00     0.030 C 
HETATM    6  C7  UNL     1      53.378  39.360  66.259  1.00  0.00     0.137 C 
HETATM    7  O2  UNL     1      52.321  39.564  65.457  1.00  0.00    -0.360 OA
HETATM    8  C8  UNL     1      52.538  39.992  64.171  1.00  0.00     0.226 C 
HETATM    9  N1  UNL     1      52.598  41.459  64.174  1.00  0.00    -0.368 N 
HETATM   10  C9  UNL     1      52.083  42.162  63.022  1.00  0.00     0.151 C 
HETATM   11  C10 UNL     1      53.117  42.276  65.213  1.00  0.00     0.084 C 
HETATM   12  C11 UNL     1      53.834  41.828  66.234  1.00  0.00    -0.002 C 
HETATM   13  C12 UNL     1      54.279  40.472  66.589  1.00  0.00     0.052 C 
HETATM   14  C13 UNL     1      55.344  39.857  65.712  1.00  0.00     0.022 C 
ENDROOT
BRANCH  14  15
HETATM   15  C14 UNL     1      56.597  39.607  66.569  1.00  0.00     0.177 C 
BRANCH  15  16
HETATM   16  O3  UNL     1      57.159  40.869  66.875  1.00  0.00    -0.400 OA
ATOM     17  H3  UNL     1      57.460  40.836  67.776  1.00  0.00     0.209 HD
ENDBRANCH  15  16
ENDBRANCH  14  15
BRANCH   1  18
HETATM   18  O1  UNL     1      57.043  40.322  64.136  1.00  0.00    -0.390 OA
HETATM   19  C1  UNL     1      57.203  39.380  63.130  1.00  0.00     0.202 C 
ENDBRANCH   1  18
TORSDOF 3
ENDMDL
MODEL 4
REMARK VINA RESULT: -5.677007567      1.360      1.396
REMARK  3 active torsions:
REMARK  status: ('A' for Active; 'I' for Inactive)
REMARK    1  A    between atoms: O1_2  and  C2_3 
REMARK    2  A    between atoms: C13_16  and  C14_17 
REMARK    3  A    between atoms: C14_17  and  O3_18 
ROOT
HETATM    1  C2  UNL     1      52.621  39.652  65.272  1.00  0.00     0.133 C 
HETATM    2  C3  UNL     1      53.001  39.356  66.688  1.00  0.00     0.041 C 
HETATM    3  C4  UNL     1      53.658  40.469  67.430  1.00  0.00     0.037 C 
HETATM    4  C5  UNL     1      54.783  40.985  66.547  1.00  0.00     0.017 C 
HETATM    5  C6  UNL     1      54.143  41.665  65.381  1.00  0.00     0.030 C 
HETATM    6  C7  UNL     1      53.166  42.717  65.851  1.00  0.00     0.137 C 
HETATM    7  O2  UNL     1      52.957  42.761  67.176  1.00  0.00    -0.360 OA
HETATM    8  C8  UNL     1      52.783  41.583  67.859  1.00  0.00     0.226 C 
HETATM    9  N1  UNL     1      51.357  41.232  67.821  1.00  0.00    -0.368 N 
HETATM   10  C9  UNL     1      50.792  40.563  68.969  1.00  0.00     0.151 C 
HETATM   11  C10 UNL     1      50.457  41.489  66.752  1.00  0.00     0.084 C 
HETATM   12  C11 UNL     1      50.822  41.877  65.539  1.00  0.00    -0.002 C 
HETATM   13  C12 UNL     1      52.148  42.144  64.962  1.00  0.00     0.052 C 
HETATM   14  C13 UNL     1      53.040  40.948  64.729  1.00  0.00     0.022 C 
ENDROOT
BRANCH  14  15
HETATM   15  C14 UNL     1      53.312  40.828  63.219  1.00  0.00     0.177 C 
BRANCH  15  16
HETATM   16  O3  UNL     1      54.618  40.304  63.064  1.00  0.00    -0.400 OA
ATOM     17  H3  UNL     1      54.778  40.211  62.132  1.00  0.00     0.209 HD
ENDBRANCH  15  16
ENDBRANCH  14  15
BRANCH   1  18
HETATM   18  O1  UNL     1      53.079  38.597  64.483  1.00  0.00    -0.390 OA
HETATM   19  C1  UNL     1      53.769  37.633  65.203  1.00  0.00     0.202 C 
ENDBRANCH   1  18
TORSDOF 3
ENDMDL
MODEL 5
REMARK VINA RESULT: -5.653882644      2.233      4.030
REMARK  3 active torsions:
REMARK  status: ('A' for Active; 'I' for Inactive)
REMARK    1  A    between atoms: O1_2  and  C2_3 
REMARK    2  A    between atoms: C13_16  and  C14_17 
REMARK    3  A    between atoms: C14_17  and  O3_18 
ROOT
HETATM    1  C2  UNL     1      53.214  38.840  66.361  1.00  0.00     0.133 C 
HETATM    2  C3  UNL     1      53.697  38.487  64.990  1.00  0.00     0.041 C 
HETATM    3  C4  UNL     1      53.613  39.573  63.973  1.00  0.00     0.037 C 
HETATM    4  C5  UNL     1      52.202  40.136  64.043  1.00  0.00     0.017 C 
HETATM    5  C6  UNL     1      52.087  40.859  65.345  1.00  0.00     0.030 C 
HETATM    6  C7  UNL     1      53.190  41.882  65.483  1.00  0.00     0.137 C 
HETATM    7  O2  UNL     1      54.116  41.868  64.512  1.00  0.00    -0.360 OA
HETATM    8  C8  UNL     1      54.611  40.661  64.085  1.00  0.00     0.226 C 
HETATM    9  N1  UNL     1      55.751  40.299  64.938  1.00  0.00    -0.368 N 
HETATM   10  C9  UNL     1      56.848  39.578  64.336  1.00  0.00     0.151 C 
HETATM   11  C10 UNL     1      55.892  40.594  66.321  1.00  0.00     0.084 C 
HETATM   12  C11 UNL     1      54.915  41.036  67.098  1.00  0.00    -0.002 C 
HETATM   13  C12 UNL     1      53.504  41.338  66.810  1.00  0.00     0.052 C 
HETATM   14  C13 UNL     1      52.601  40.161  66.530  1.00  0.00     0.022 C 
ENDROOT
BRANCH  14  15
HETATM   15  C14 UNL     1      51.516  40.107  67.620  1.00  0.00     0.177 C 
BRANCH  15  16
HETATM   16  O3  UNL     1      52.122  39.605  68.796  1.00  0.00    -0.400 OA
ATOM     17  H3  UNL     1      51.426  39.291  69.363  1.00  0.00     0.209 HD
ENDBRANCH  15  16
ENDBRANCH  14  15
BRANCH   1  18
HETATM   18  O1  UNL     1      52.357  37.822  66.780  1.00  0.00    -0.390 OA
HETATM   19  C1  UNL     1      52.729  36.568  66.321  1.00  0.00     0.202 C 
ENDBRANCH   1  18
TORSDOF 3
ENDMDL
