MODEL 1
REMARK VINA RESULT: -7.699858659      0.000      0.000
REMARK  3 active torsions:
REMARK  status: ('A' for Active; 'I' for Inactive)
REMARK    1  A    between atoms: C2_2  and  C3_4 
REMARK    2  A    between atoms: C9_11  and  O3_12 
REMARK    3  A    between atoms: C12_16  and  N1_17 
ROOT
HETATM    1  C3  UNL     1      52.143  42.730  65.608  1.00  0.00     0.086 C 
HETATM    2  C4  UNL     1      51.726  42.396  64.205  1.00  0.00     0.047 C 
HETATM    3  C5  UNL     1      52.580  41.214  63.755  1.00  0.00     0.128 C 
HETATM    4  O2  UNL     1      52.039  40.085  64.379  1.00  0.00    -0.372 OA
HETATM    5  C6  UNL     1      53.125  39.482  65.054  1.00  0.00     0.095 C 
HETATM    6  C7  UNL     1      52.756  38.430  65.990  1.00  0.00     0.048 C 
HETATM    7  C8  UNL     1      53.677  40.752  65.721  1.00  0.00     0.058 C 
HETATM    8  C9  UNL     1      52.577  41.529  66.387  1.00  0.00     0.137 C 
HETATM    9  C10 UNL     1      53.950  41.430  64.366  1.00  0.00     0.026 C 
HETATM   10  C11 UNL     1      54.935  40.417  63.808  1.00  0.00     0.046 C 
HETATM   11  C12 UNL     1      54.125  39.135  63.999  1.00  0.00     0.256 C 
ENDROOT
BRANCH   1  12
HETATM   12  C2  UNL     1      50.971  43.331  66.304  1.00  0.00     0.129 C 
HETATM   13  C1  UNL     1      50.616  44.745  66.044  1.00  0.00     0.091 C 
HETATM   14  O1  UNL     1      50.286  42.693  67.090  1.00  0.00    -0.298 OA
ENDBRANCH   1  12
BRANCH   8  15
HETATM   15  O3  UNL     1      53.040  41.991  67.639  1.00  0.00    -0.394 OA
ATOM     16  H3  UNL     1      53.645  42.702  67.469  1.00  0.00     0.210 HD
ENDBRANCH   8  15
BRANCH  11  17
HETATM   17  N1  UNL     1      54.919  37.993  64.244  1.00  0.00     0.087 N 
HETATM   18  C13 UNL     1      54.462  36.920  63.344  1.00  0.00     0.310 C 
HETATM   19  C14 UNL     1      56.323  38.104  64.052  1.00  0.00     0.310 C 
ENDBRANCH  11  17
TORSDOF 3
ENDMDL
MODEL 2
REMARK VINA RESULT: -7.114701489      2.391      5.407
REMARK  3 active torsions:
REMARK  status: ('A' for Active; 'I' for Inactive)
REMARK    1  A    between atoms: C2_2  and  C3_4 
REMARK    2  A    between atoms: C9_11  and  O3_12 
REMARK    3  A    between atoms: C12_16  and  N1_17 
ROOT
HETATM    1  C3  UNL     1      55.659  39.968  64.140  1.00  0.00     0.086 C 
HETATM    2  C4  UNL     1      56.240  40.434  65.444  1.00  0.00     0.047 C 
HETATM    3  C5  UNL     1      55.081  40.959  66.286  1.00  0.00     0.128 C 
HETATM    4  O2  UNL     1      54.416  39.830  66.776  1.00  0.00    -0.372 OA
HETATM    5  C6  UNL     1      53.066  40.004  66.397  1.00  0.00     0.095 C 
HETATM    6  C7  UNL     1      52.223  38.829  66.572  1.00  0.00     0.048 C 
HETATM    7  C8  UNL     1      53.318  40.384  64.929  1.00  0.00     0.058 C 
HETATM    8  C9  UNL     1      54.274  39.422  64.283  1.00  0.00     0.137 C 
HETATM    9  C10 UNL     1      54.129  41.633  65.317  1.00  0.00     0.026 C 
HETATM   10  C11 UNL     1      53.044  42.372  66.082  1.00  0.00     0.046 C 
HETATM   11  C12 UNL     1      52.613  41.270  67.050  1.00  0.00     0.256 C 
ENDROOT
BRANCH   1  12
HETATM   12  C2  UNL     1      56.529  38.881  63.613  1.00  0.00     0.129 C 
HETATM   13  C1  UNL     1      57.881  39.212  63.105  1.00  0.00     0.091 C 
HETATM   14  O1  UNL     1      56.166  37.715  63.583  1.00  0.00    -0.298 OA
ENDBRANCH   1  12
BRANCH   8  15
HETATM   15  O3  UNL     1      53.809  39.122  62.983  1.00  0.00    -0.394 OA
ATOM     16  H3  UNL     1      52.860  39.117  63.020  1.00  0.00     0.210 HD
ENDBRANCH   8  15
BRANCH  11  17
HETATM   17  N1  UNL     1      51.249  41.332  67.410  1.00  0.00     0.087 N 
HETATM   18  C13 UNL     1      51.163  41.280  68.880  1.00  0.00     0.310 C 
HETATM   19  C14 UNL     1      50.505  42.475  67.007  1.00  0.00     0.310 C 
ENDBRANCH  11  17
TORSDOF 3
ENDMDL
MODEL 3
REMARK VINA RESULT: -6.910309162      2.304      5.441
REMARK  3 active torsions:
REMARK  status: ('A' for Active; 'I' for Inactive)
REMARK    1  A    between atoms: C2_2  and  C3_4 
REMARK    2  A    between atoms: C9_11  and  O3_12 
REMARK    3  A    between atoms: C12_16  and  N1_17 
ROOT
HETATM    1  C3  UNL     1      54.570  38.921  65.065  1.00  0.00     0.086 C 
HETATM    2  C4  UNL     1      53.270  38.548  65.717  1.00  0.00     0.047 C 
HETATM    3  C5  UNL     1      52.489  39.842  65.926  1.00  0.00     0.128 C 
HETATM    4  O2  UNL     1      51.971  40.189  64.674  1.00  0.00    -0.372 OA
HETATM    5  C6  UNL     1      52.401  41.517  64.452  1.00  0.00     0.095 C 
HETATM    6  C7  UNL     1      52.201  42.008  63.096  1.00  0.00     0.048 C 
HETATM    7  C8  UNL     1      53.875  41.317  64.839  1.00  0.00     0.058 C 
HETATM    8  C9  UNL     1      54.448  40.106  64.160  1.00  0.00     0.137 C 
HETATM    9  C10 UNL     1      53.516  40.900  66.276  1.00  0.00     0.026 C 
HETATM   10  C11 UNL     1      52.819  42.180  66.708  1.00  0.00     0.046 C 
HETATM   11  C12 UNL     1      51.818  42.329  65.563  1.00  0.00     0.256 C 
ENDROOT
BRANCH   1  12
HETATM   12  C2  UNL     1      55.021  37.762  64.245  1.00  0.00     0.129 C 
HETATM   13  C1  UNL     1      54.116  36.604  64.062  1.00  0.00     0.091 C 
HETATM   14  O1  UNL     1      56.121  37.731  63.714  1.00  0.00    -0.298 OA
ENDBRANCH   1  12
BRANCH   8  15
HETATM   15  O3  UNL     1      55.747  40.413  63.699  1.00  0.00    -0.394 OA
ATOM     16  H3  UNL     1      55.652  41.037  62.989  1.00  0.00     0.210 HD
ENDBRANCH   8  15
BRANCH  11  17
HETATM   17  N1  UNL     1      51.505  43.672  65.255  1.00  0.00     0.087 N 
HETATM   18  C13 UNL     1      50.267  44.026  65.972  1.00  0.00     0.310 C 
HETATM   19  C14 UNL     1      52.459  44.672  65.588  1.00  0.00     0.310 C 
ENDBRANCH  11  17
TORSDOF 3
ENDMDL
MODEL 4
REMARK VINA RESULT: -6.842081750      2.226      5.349
REMARK  3 active torsions:
REMARK  status: ('A' for Active; 'I' for Inactive)
REMARK    1  A    between atoms: C2_2  and  C3_4 
REMARK    2  A    between atoms: C9_11  and  O3_12 
REMARK    3  A    between atoms: C12_16  and  N1_17 
ROOT
HETATM    1  C3  UNL     1      53.941  38.854  63.811  1.00  0.00     0.086 C 
HETATM    2  C4  UNL     1      54.741  40.032  63.336  1.00  0.00     0.047 C 
HETATM    3  C5  UNL     1      54.127  41.275  63.974  1.00  0.00     0.128 C 
HETATM    4  O2  UNL     1      54.562  41.284  65.304  1.00  0.00    -0.372 OA
HETATM    5  C6  UNL     1      53.383  41.379  66.076  1.00  0.00     0.095 C 
HETATM    6  C7  UNL     1      53.564  41.145  67.502  1.00  0.00     0.048 C 
HETATM    7  C8  UNL     1      52.581  40.283  65.355  1.00  0.00     0.058 C 
HETATM    8  C9  UNL     1      53.403  39.036  65.194  1.00  0.00     0.137 C 
HETATM    9  C10 UNL     1      52.631  41.032  64.012  1.00  0.00     0.026 C 
HETATM   10  C11 UNL     1      51.908  42.298  64.438  1.00  0.00     0.046 C 
HETATM   11  C12 UNL     1      52.729  42.662  65.674  1.00  0.00     0.256 C 
ENDROOT
BRANCH   1  12
HETATM   12  C2  UNL     1      54.837  37.664  63.819  1.00  0.00     0.129 C 
HETATM   13  C1  UNL     1      56.303  37.858  63.895  1.00  0.00     0.091 C 
HETATM   14  O1  UNL     1      54.402  36.524  63.764  1.00  0.00    -0.298 OA
ENDBRANCH   1  12
BRANCH   8  15
HETATM   15  O3  UNL     1      52.591  37.916  65.476  1.00  0.00    -0.394 OA
ATOM     16  H3  UNL     1      52.632  37.343  64.719  1.00  0.00     0.210 HD
ENDBRANCH   8  15
BRANCH  11  17
HETATM   17  N1  UNL     1      51.984  43.322  66.677  1.00  0.00     0.087 N 
HETATM   18  C13 UNL     1      52.129  44.773  66.469  1.00  0.00     0.310 C 
HETATM   19  C14 UNL     1      50.587  43.066  66.746  1.00  0.00     0.310 C 
ENDBRANCH  11  17
TORSDOF 3
ENDMDL
MODEL 5
REMARK VINA RESULT: -6.807993085      2.903      4.795
REMARK  3 active torsions:
REMARK  status: ('A' for Active; 'I' for Inactive)
REMARK    1  A    between atoms: C2_2  and  C3_4 
REMARK    2  A    between atoms: C9_11  and  O3_12 
REMARK    3  A    between atoms: C12_16  and  N1_17 
ROOT
HETATM    1  C3  UNL     1      51.796  40.215  68.147  1.00  0.00     0.086 C 
HETATM    2  C4  UNL     1      53.186  40.779  68.075  1.00  0.00     0.047 C 
HETATM    3  C5  UNL     1      53.254  41.637  66.815  1.00  0.00     0.128 C 
HETATM    4  O2  UNL     1      52.591  42.829  67.121  1.00  0.00    -0.372 OA
HETATM    5  C6  UNL     1      51.616  42.979  66.109  1.00  0.00     0.095 C 
HETATM    6  C7  UNL     1      50.626  44.017  66.360  1.00  0.00     0.048 C 
HETATM    7  C8  UNL     1      51.053  41.549  66.160  1.00  0.00     0.058 C 
HETATM    8  C9  UNL     1      50.765  41.136  67.576  1.00  0.00     0.137 C 
HETATM    9  C10 UNL     1      52.408  40.926  65.777  1.00  0.00     0.026 C 
HETATM   10  C11 UNL     1      52.579  41.591  64.421  1.00  0.00     0.046 C 
HETATM   11  C12 UNL     1      52.367  43.051  64.819  1.00  0.00     0.256 C 
ENDROOT
BRANCH   1  12
HETATM   12  C2  UNL     1      51.466  39.991  69.582  1.00  0.00     0.129 C 
HETATM   13  C1  UNL     1      51.465  41.139  70.517  1.00  0.00     0.091 C 
HETATM   14  O1  UNL     1      51.194  38.883  70.020  1.00  0.00    -0.298 OA
ENDBRANCH   1  12
BRANCH   8  15
HETATM   15  O3  UNL     1      49.531  40.450  67.608  1.00  0.00    -0.394 OA
ATOM     16  H3  UNL     1      49.416  40.123  68.492  1.00  0.00     0.210 HD
ENDBRANCH   8  15
BRANCH  11  17
HETATM   17  N1  UNL     1      51.784  43.838  63.801  1.00  0.00     0.087 N 
HETATM   18  C13 UNL     1      52.440  45.157  63.814  1.00  0.00     0.310 C 
HETATM   19  C14 UNL     1      51.865  43.363  62.464  1.00  0.00     0.310 C 
ENDBRANCH  11  17
TORSDOF 3
ENDMDL
