MODEL 1
REMARK VINA RESULT: -7.071224360      0.000      0.000
REMARK  4 active torsions:
REMARK  status: ('A' for Active; 'I' for Inactive)
REMARK    1  A    between atoms: C3_3  and  N1_4 
REMARK    2  A    between atoms: N1_4  and  C4_6 
REMARK    3  A    between atoms: C6_11  and  C7_12 
REMARK       I    between atoms: C7_12  and  N2_14 
REMARK    4  A    between atoms: N2_14  and  C8_16 
ROOT
HETATM    1  C1  UNL     1      52.325  42.384  66.690  1.00  0.00     0.015 C 
HETATM    2  C2  UNL     1      52.718  41.377  67.729  1.00  0.00     0.053 C 
HETATM    3  C3  UNL     1      51.640  41.418  68.823  1.00  0.00     0.188 C 
HETATM    4  C5  UNL     1      50.557  40.675  68.139  1.00  0.00     0.283 C 
HETATM    5  O1  UNL     1      49.342  40.704  68.418  1.00  0.00    -0.263 OA
HETATM    6  O2  UNL     1      51.099  39.918  67.113  1.00  0.00    -0.304 OA
HETATM    7  C6  UNL     1      52.526  39.949  67.272  1.00  0.00     0.229 C 
ENDROOT
BRANCH   7   8
HETATM    8  C7  UNL     1      53.210  39.655  66.000  1.00  0.00     0.248 C 
HETATM    9  O3  UNL     1      52.620  39.234  64.976  1.00  0.00    -0.271 OA
HETATM   10  N2  UNL     1      54.611  39.856  65.921  1.00  0.00    -0.351 N 
ATOM     11  H2  UNL     1      55.114  40.198  66.740  1.00  0.00     0.163 HD
BRANCH  10  12
HETATM   12  C8  UNL     1      55.345  39.584  64.695  1.00  0.00     0.022 C 
HETATM   13  C9  UNL     1      55.391  38.100  64.416  1.00  0.00     0.037 C 
HETATM   14  C10 UNL     1      56.773  40.044  64.889  1.00  0.00     0.037 C 
HETATM   15  C11 UNL     1      54.783  40.357  63.522  1.00  0.00     0.037 C 
ENDBRANCH  10  12
ENDBRANCH   7   8
BRANCH   3  16
HETATM   16  N1  UNL     1      52.105  40.616  69.926  1.00  0.00    -0.376 N 
ATOM     17  H1  UNL     1      52.734  39.833  69.748  1.00  0.00     0.160 HD
BRANCH  16  18
HETATM   18  C4  UNL     1      51.737  40.874  71.135  1.00  0.00     0.166 C 
HETATM   19  S1  UNL     1      51.888  40.933  72.741  1.00  0.00    -0.075 SA
ENDBRANCH  16  18
ENDBRANCH   3  16
TORSDOF 4
ENDMDL
MODEL 2
REMARK VINA RESULT: -6.910053853      0.058      1.031
REMARK  4 active torsions:
REMARK  status: ('A' for Active; 'I' for Inactive)
REMARK    1  A    between atoms: C3_3  and  N1_4 
REMARK    2  A    between atoms: N1_4  and  C4_6 
REMARK    3  A    between atoms: C6_11  and  C7_12 
REMARK       I    between atoms: C7_12  and  N2_14 
REMARK    4  A    between atoms: N2_14  and  C8_16 
ROOT
HETATM    1  C1  UNL     1      52.303  42.411  66.682  1.00  0.00     0.015 C 
HETATM    2  C2  UNL     1      52.716  41.418  67.727  1.00  0.00     0.053 C 
HETATM    3  C3  UNL     1      51.631  41.438  68.817  1.00  0.00     0.188 C 
HETATM    4  C5  UNL     1      50.570  40.665  68.130  1.00  0.00     0.283 C 
HETATM    5  O1  UNL     1      49.353  40.666  68.404  1.00  0.00    -0.263 OA
HETATM    6  O2  UNL     1      51.135  39.918  67.111  1.00  0.00    -0.304 OA
HETATM    7  C6  UNL     1      52.560  39.984  67.275  1.00  0.00     0.229 C 
ENDROOT
BRANCH   7   8
HETATM    8  C7  UNL     1      53.257  39.701  66.008  1.00  0.00     0.248 C 
HETATM    9  O3  UNL     1      52.680  39.276  64.978  1.00  0.00    -0.271 OA
HETATM   10  N2  UNL     1      54.656  39.920  65.940  1.00  0.00    -0.351 N 
ATOM     11  H2  UNL     1      55.149  40.267  66.763  1.00  0.00     0.163 HD
BRANCH  10  12
HETATM   12  C8  UNL     1      55.402  39.661  64.718  1.00  0.00     0.022 C 
HETATM   13  C9  UNL     1      54.748  40.338  63.538  1.00  0.00     0.037 C 
HETATM   14  C10 UNL     1      55.368  38.172  64.454  1.00  0.00     0.037 C 
HETATM   15  C11 UNL     1      56.857  40.056  64.855  1.00  0.00     0.037 C 
ENDBRANCH  10  12
ENDBRANCH   7   8
BRANCH   3  16
HETATM   16  N1  UNL     1      52.111  40.651  69.925  1.00  0.00    -0.376 N 
ATOM     17  H1  UNL     1      52.774  39.896  69.755  1.00  0.00     0.160 HD
BRANCH  16  18
HETATM   18  C4  UNL     1      51.712  40.889  71.128  1.00  0.00     0.166 C 
HETATM   19  S1  UNL     1      51.831  40.940  72.738  1.00  0.00    -0.075 SA
ENDBRANCH  16  18
ENDBRANCH   3  16
TORSDOF 4
ENDMDL
MODEL 3
REMARK VINA RESULT: -6.608778413      4.211      5.054
REMARK  4 active torsions:
REMARK  status: ('A' for Active; 'I' for Inactive)
REMARK    1  A    between atoms: C3_3  and  N1_4 
REMARK    2  A    between atoms: N1_4  and  C4_6 
REMARK    3  A    between atoms: C6_11  and  C7_12 
REMARK       I    between atoms: C7_12  and  N2_14 
REMARK    4  A    between atoms: N2_14  and  C8_16 
ROOT
HETATM    1  C1  UNL     1      51.586  42.965  63.863  1.00  0.00     0.015 C 
HETATM    2  C2  UNL     1      52.237  44.014  64.714  1.00  0.00     0.053 C 
HETATM    3  C3  UNL     1      51.214  45.147  64.889  1.00  0.00     0.188 C 
HETATM    4  C5  UNL     1      50.315  44.524  65.888  1.00  0.00     0.283 C 
HETATM    5  O1  UNL     1      49.136  44.849  66.134  1.00  0.00    -0.263 OA
HETATM    6  O2  UNL     1      50.987  43.498  66.531  1.00  0.00    -0.304 OA
HETATM    7  C6  UNL     1      52.371  43.601  66.162  1.00  0.00     0.229 C 
ENDROOT
BRANCH   7   8
HETATM    8  C7  UNL     1      53.064  42.311  66.331  1.00  0.00     0.248 C 
HETATM    9  O3  UNL     1      52.965  41.599  67.359  1.00  0.00    -0.271 OA
HETATM   10  N2  UNL     1      53.891  41.843  65.278  1.00  0.00    -0.351 N 
ATOM     11  H2  UNL     1      53.988  42.403  64.431  1.00  0.00     0.163 HD
BRANCH  10  12
HETATM   12  C8  UNL     1      54.603  40.579  65.383  1.00  0.00     0.022 C 
HETATM   13  C9  UNL     1      55.805  40.715  66.285  1.00  0.00     0.037 C 
HETATM   14  C10 UNL     1      55.117  40.213  64.008  1.00  0.00     0.037 C 
HETATM   15  C11 UNL     1      53.690  39.457  65.830  1.00  0.00     0.037 C 
ENDBRANCH  10  12
ENDBRANCH   7   8
BRANCH   3  16
HETATM   16  N1  UNL     1      51.889  46.251  65.523  1.00  0.00    -0.376 N 
ATOM     17  H1  UNL     1      52.559  46.069  66.269  1.00  0.00     0.160 HD
BRANCH  16  18
HETATM   18  C4  UNL     1      51.657  47.467  65.159  1.00  0.00     0.166 C 
HETATM   19  S1  UNL     1      51.970  48.872  64.427  1.00  0.00    -0.075 SA
ENDBRANCH  16  18
ENDBRANCH   3  16
TORSDOF 4
ENDMDL
MODEL 4
REMARK VINA RESULT: -6.569688188      3.991      5.975
REMARK  4 active torsions:
REMARK  status: ('A' for Active; 'I' for Inactive)
REMARK    1  A    between atoms: C3_3  and  N1_4 
REMARK    2  A    between atoms: N1_4  and  C4_6 
REMARK    3  A    between atoms: C6_11  and  C7_12 
REMARK       I    between atoms: C7_12  and  N2_14 
REMARK    4  A    between atoms: N2_14  and  C8_16 
ROOT
HETATM    1  C1  UNL     1      52.148  39.991  66.127  1.00  0.00     0.015 C 
HETATM    2  C2  UNL     1      53.529  40.498  65.840  1.00  0.00     0.053 C 
HETATM    3  C3  UNL     1      54.386  39.278  65.469  1.00  0.00     0.188 C 
HETATM    4  C5  UNL     1      53.905  39.043  64.088  1.00  0.00     0.283 C 
HETATM    5  O1  UNL     1      54.002  37.984  63.436  1.00  0.00    -0.263 OA
HETATM    6  O2  UNL     1      53.315  40.199  63.606  1.00  0.00    -0.304 OA
HETATM    7  C6  UNL     1      53.624  41.251  64.533  1.00  0.00     0.229 C 
ENDROOT
BRANCH   7   8
HETATM    8  C7  UNL     1      52.650  42.353  64.432  1.00  0.00     0.248 C 
HETATM    9  O3  UNL     1      51.785  42.435  63.527  1.00  0.00    -0.271 OA
HETATM   10  N2  UNL     1      52.686  43.382  65.408  1.00  0.00    -0.351 N 
ATOM     11  H2  UNL     1      53.379  43.339  66.155  1.00  0.00     0.163 HD
BRANCH  10  12
HETATM   12  C8  UNL     1      51.753  44.497  65.364  1.00  0.00     0.022 C 
HETATM   13  C9  UNL     1      51.970  45.328  64.122  1.00  0.00     0.037 C 
HETATM   14  C10 UNL     1      52.031  45.390  66.552  1.00  0.00     0.037 C 
HETATM   15  C11 UNL     1      50.318  44.031  65.482  1.00  0.00     0.037 C 
ENDBRANCH  10  12
ENDBRANCH   7   8
BRANCH   3  16
HETATM   16  N1  UNL     1      55.758  39.713  65.396  1.00  0.00    -0.376 N 
ATOM     17  H1  UNL     1      56.070  40.490  65.978  1.00  0.00     0.160 HD
BRANCH  16  18
HETATM   18  C4  UNL     1      56.596  39.134  64.606  1.00  0.00     0.166 C 
HETATM   19  S1  UNL     1      57.630  39.034  63.369  1.00  0.00    -0.075 SA
ENDBRANCH  16  18
ENDBRANCH   3  16
TORSDOF 4
ENDMDL
MODEL 5
REMARK VINA RESULT: -6.397580740      3.751      6.017
REMARK  4 active torsions:
REMARK  status: ('A' for Active; 'I' for Inactive)
REMARK    1  A    between atoms: C3_3  and  N1_4 
REMARK    2  A    between atoms: N1_4  and  C4_6 
REMARK    3  A    between atoms: C6_11  and  C7_12 
REMARK       I    between atoms: C7_12  and  N2_14 
REMARK    4  A    between atoms: N2_14  and  C8_16 
ROOT
HETATM    1  C1  UNL     1      52.060  39.843  66.283  1.00  0.00     0.015 C 
HETATM    2  C2  UNL     1      53.501  40.258  66.310  1.00  0.00     0.053 C 
HETATM    3  C3  UNL     1      54.259  39.307  65.370  1.00  0.00     0.188 C 
HETATM    4  C5  UNL     1      53.851  39.867  64.061  1.00  0.00     0.283 C 
HETATM    5  O1  UNL     1      53.889  39.285  62.958  1.00  0.00    -0.263 OA
HETATM    6  O2  UNL     1      53.410  41.168  64.238  1.00  0.00    -0.304 OA
HETATM    7  C6  UNL     1      53.756  41.555  65.576  1.00  0.00     0.229 C 
ENDROOT
BRANCH   7   8
HETATM    8  C7  UNL     1      52.903  42.661  66.048  1.00  0.00     0.248 C 
HETATM    9  O3  UNL     1      52.521  42.784  67.236  1.00  0.00    -0.271 OA
HETATM   10  N2  UNL     1      52.487  43.643  65.114  1.00  0.00    -0.351 N 
ATOM     11  H2  UNL     1      52.784  43.566  64.141  1.00  0.00     0.163 HD
BRANCH  10  12
HETATM   12  C8  UNL     1      51.644  44.758  65.516  1.00  0.00     0.022 C 
HETATM   13  C9  UNL     1      50.218  44.305  65.719  1.00  0.00     0.037 C 
HETATM   14  C10 UNL     1      51.634  45.770  64.391  1.00  0.00     0.037 C 
HETATM   15  C11 UNL     1      52.190  45.459  66.741  1.00  0.00     0.037 C 
ENDBRANCH  10  12
ENDBRANCH   7   8
BRANCH   3  16
HETATM   16  N1  UNL     1      55.668  39.553  65.543  1.00  0.00    -0.376 N 
ATOM     17  H1  UNL     1      55.987  40.114  66.332  1.00  0.00     0.160 HD
BRANCH  16  18
HETATM   18  C4  UNL     1      56.531  39.074  64.713  1.00  0.00     0.166 C 
HETATM   19  S1  UNL     1      57.581  39.120  63.487  1.00  0.00    -0.075 SA
ENDBRANCH  16  18
ENDBRANCH   3  16
TORSDOF 4
ENDMDL
