MODEL 1
REMARK VINA RESULT: -6.708094801      0.000      0.000
REMARK  4 active torsions:
REMARK  status: ('A' for Active; 'I' for Inactive)
REMARK    1  A    between atoms: N1_2  and  C3_4 
REMARK    2  A    between atoms: C3_4  and  C4_5 
REMARK    3  A    between atoms: C5_6  and  C6_7 
REMARK    4  A    between atoms: C6_7  and  C7_8 
ROOT
HETATM    1  C7  UNL     1      53.264  42.847  65.677  1.00  0.00     0.168 C 
HETATM    2  O1  UNL     1      52.777  42.277  66.881  1.00  0.00    -0.264 OA
HETATM    3  S1  UNL     1      51.139  42.062  66.580  1.00  0.00     0.310 S 
HETATM    4  O2  UNL     1      50.748  40.673  66.289  1.00  0.00    -0.192 OA
HETATM    5  O3  UNL     1      50.316  42.659  67.712  1.00  0.00    -0.192 OA
HETATM    6  C8  UNL     1      51.015  43.134  65.169  1.00  0.00     0.137 C 
HETATM    7  N2  UNL     1      50.144  43.206  64.271  1.00  0.00    -0.391 N 
ATOM      8  H21 UNL     1      50.072  43.821  63.461  1.00  0.00     0.156 HD
ATOM      9  H22 UNL     1      49.290  42.664  64.131  1.00  0.00     0.156 HD
HETATM   10  C9  UNL     1      52.282  43.939  65.377  1.00  0.00     0.036 C 
HETATM   11  C10 UNL     1      52.612  44.828  64.252  1.00  0.00     0.025 C 
HETATM   12  C11 UNL     1      52.135  44.726  66.682  1.00  0.00     0.025 C 
ENDROOT
BRANCH   1  13
HETATM   13  C6  UNL     1      53.346  41.745  64.688  1.00  0.00     0.128 C 
BRANCH  13  14
HETATM   14  C5  UNL     1      54.492  40.877  64.930  1.00  0.00    -0.102 C 
HETATM   15  C4  UNL     1      55.440  40.120  65.129  1.00  0.00    -0.076 C 
BRANCH  15  16
HETATM   16  C3  UNL     1      56.561  39.210  65.373  1.00  0.00     0.364 C 
BRANCH  16  17
HETATM   17  N1  UNL     1      56.750  38.392  64.191  1.00  0.00     0.090 N 
HETATM   18  C1  UNL     1      57.373  39.199  63.139  1.00  0.00     0.310 C 
HETATM   19  C2  UNL     1      55.456  37.952  63.708  1.00  0.00     0.310 C 
ENDBRANCH  16  17
ENDBRANCH  15  16
ENDBRANCH  13  14
ENDBRANCH   1  13
TORSDOF 4
ENDMDL
MODEL 2
REMARK VINA RESULT: -6.664193716      0.851      1.345
REMARK  4 active torsions:
REMARK  status: ('A' for Active; 'I' for Inactive)
REMARK    1  A    between atoms: N1_2  and  C3_4 
REMARK    2  A    between atoms: C3_4  and  C4_5 
REMARK    3  A    between atoms: C5_6  and  C6_7 
REMARK    4  A    between atoms: C6_7  and  C7_8 
ROOT
HETATM    1  C7  UNL     1      53.173  42.877  65.498  1.00  0.00     0.168 C 
HETATM    2  O1  UNL     1      52.772  42.288  66.724  1.00  0.00    -0.264 OA
HETATM    3  S1  UNL     1      51.111  42.112  66.551  1.00  0.00     0.310 S 
HETATM    4  O2  UNL     1      50.669  40.737  66.262  1.00  0.00    -0.192 OA
HETATM    5  O3  UNL     1      50.394  42.697  67.759  1.00  0.00    -0.192 OA
HETATM    6  C8  UNL     1      50.897  43.219  65.179  1.00  0.00     0.137 C 
HETATM    7  N2  UNL     1      49.959  43.329  64.356  1.00  0.00    -0.391 N 
ATOM      8  H21 UNL     1      49.835  43.965  63.568  1.00  0.00     0.156 HD
ATOM      9  H22 UNL     1      49.086  42.807  64.273  1.00  0.00     0.156 HD
HETATM   10  C9  UNL     1      52.194  43.995  65.302  1.00  0.00     0.036 C 
HETATM   11  C10 UNL     1      52.451  44.904  64.175  1.00  0.00     0.025 C 
HETATM   12  C11 UNL     1      52.168  44.754  66.632  1.00  0.00     0.025 C 
ENDROOT
BRANCH   1  13
HETATM   13  C6  UNL     1      53.153  41.798  64.481  1.00  0.00     0.128 C 
BRANCH  13  14
HETATM   14  C5  UNL     1      54.166  40.782  64.741  1.00  0.00    -0.102 C 
HETATM   15  C4  UNL     1      55.012  39.926  64.992  1.00  0.00    -0.076 C 
BRANCH  15  16
HETATM   16  C3  UNL     1      56.024  38.915  65.300  1.00  0.00     0.364 C 
BRANCH  16  17
HETATM   17  N1  UNL     1      57.219  39.593  65.765  1.00  0.00     0.090 N 
HETATM   18  C1  UNL     1      56.836  40.815  66.475  1.00  0.00     0.310 C 
HETATM   19  C2  UNL     1      58.022  39.975  64.620  1.00  0.00     0.310 C 
ENDBRANCH  16  17
ENDBRANCH  15  16
ENDBRANCH  13  14
ENDBRANCH   1  13
TORSDOF 4
ENDMDL
MODEL 3
REMARK VINA RESULT: -6.507682188      2.683      6.051
REMARK  4 active torsions:
REMARK  status: ('A' for Active; 'I' for Inactive)
REMARK    1  A    between atoms: N1_2  and  C3_4 
REMARK    2  A    between atoms: C3_4  and  C4_5 
REMARK    3  A    between atoms: C5_6  and  C6_7 
REMARK    4  A    between atoms: C6_7  and  C7_8 
ROOT
HETATM    1  C7  UNL     1      52.662  42.359  65.256  1.00  0.00     0.168 C 
HETATM    2  O1  UNL     1      51.262  42.131  65.265  1.00  0.00    -0.264 OA
HETATM    3  S1  UNL     1      50.941  41.713  66.860  1.00  0.00     0.310 S 
HETATM    4  O2  UNL     1      50.320  42.783  67.658  1.00  0.00    -0.192 OA
HETATM    5  O3  UNL     1      50.135  40.424  66.912  1.00  0.00    -0.192 OA
HETATM    6  C8  UNL     1      52.610  41.353  67.350  1.00  0.00     0.137 C 
HETATM    7  N2  UNL     1      53.129  41.274  68.488  1.00  0.00    -0.391 N 
ATOM      8  H21 UNL     1      54.086  41.067  68.770  1.00  0.00     0.156 HD
ATOM      9  H22 UNL     1      52.717  41.397  69.414  1.00  0.00     0.156 HD
HETATM   10  C9  UNL     1      53.222  41.169  65.976  1.00  0.00     0.036 C 
HETATM   11  C10 UNL     1      54.687  41.040  65.990  1.00  0.00     0.025 C 
HETATM   12  C11 UNL     1      52.563  39.950  65.323  1.00  0.00     0.025 C 
ENDROOT
BRANCH   1  13
HETATM   13  C6  UNL     1      52.881  43.679  65.896  1.00  0.00     0.128 C 
BRANCH  13  14
HETATM   14  C5  UNL     1      52.494  44.781  65.024  1.00  0.00    -0.102 C 
HETATM   15  C4  UNL     1      52.147  45.719  64.309  1.00  0.00    -0.076 C 
BRANCH  15  16
HETATM   16  C3  UNL     1      51.719  46.832  63.460  1.00  0.00     0.364 C 
BRANCH  16  17
HETATM   17  N1  UNL     1      51.261  47.909  64.317  1.00  0.00     0.090 N 
HETATM   18  C1  UNL     1      52.302  48.936  64.401  1.00  0.00     0.310 C 
HETATM   19  C2  UNL     1      51.038  47.389  65.652  1.00  0.00     0.310 C 
ENDBRANCH  16  17
ENDBRANCH  15  16
ENDBRANCH  13  14
ENDBRANCH   1  13
TORSDOF 4
ENDMDL
MODEL 4
REMARK VINA RESULT: -6.458741333      3.345      6.199
REMARK  4 active torsions:
REMARK  status: ('A' for Active; 'I' for Inactive)
REMARK    1  A    between atoms: N1_2  and  C3_4 
REMARK    2  A    between atoms: C3_4  and  C4_5 
REMARK    3  A    between atoms: C5_6  and  C6_7 
REMARK    4  A    between atoms: C6_7  and  C7_8 
ROOT
HETATM    1  C7  UNL     1      54.514  40.837  64.145  1.00  0.00     0.168 C 
HETATM    2  O1  UNL     1      55.282  40.050  63.248  1.00  0.00    -0.264 OA
HETATM    3  S1  UNL     1      54.934  38.474  63.711  1.00  0.00     0.310 S 
HETATM    4  O2  UNL     1      53.997  37.768  62.822  1.00  0.00    -0.192 OA
HETATM    5  O3  UNL     1      56.223  37.691  63.913  1.00  0.00    -0.192 OA
HETATM    6  C8  UNL     1      54.244  38.842  65.306  1.00  0.00     0.137 C 
HETATM    7  N2  UNL     1      53.511  38.157  66.057  1.00  0.00    -0.391 N 
ATOM      8  H21 UNL     1      53.115  38.368  66.973  1.00  0.00     0.156 HD
ATOM      9  H22 UNL     1      53.131  37.218  65.935  1.00  0.00     0.156 HD
HETATM   10  C9  UNL     1      54.808  40.237  65.487  1.00  0.00     0.036 C 
HETATM   11  C10 UNL     1      54.270  40.948  66.657  1.00  0.00     0.025 C 
HETATM   12  C11 UNL     1      56.334  40.125  65.559  1.00  0.00     0.025 C 
ENDROOT
BRANCH   1  13
HETATM   13  C6  UNL     1      53.108  40.757  63.682  1.00  0.00     0.128 C 
BRANCH  13  14
HETATM   14  C5  UNL     1      52.331  41.922  64.091  1.00  0.00    -0.102 C 
HETATM   15  C4  UNL     1      51.674  42.891  64.465  1.00  0.00    -0.076 C 
BRANCH  15  16
HETATM   16  C3  UNL     1      50.881  44.036  64.915  1.00  0.00     0.364 C 
BRANCH  16  17
HETATM   17  N1  UNL     1      51.790  45.116  65.252  1.00  0.00     0.090 N 
HETATM   18  C1  UNL     1      51.224  45.898  66.352  1.00  0.00     0.310 C 
HETATM   19  C2  UNL     1      51.928  45.993  64.105  1.00  0.00     0.310 C 
ENDBRANCH  16  17
ENDBRANCH  15  16
ENDBRANCH  13  14
ENDBRANCH   1  13
TORSDOF 4
ENDMDL
MODEL 5
REMARK VINA RESULT: -6.400339539      0.804      1.122
REMARK  4 active torsions:
REMARK  status: ('A' for Active; 'I' for Inactive)
REMARK    1  A    between atoms: N1_2  and  C3_4 
REMARK    2  A    between atoms: C3_4  and  C4_5 
REMARK    3  A    between atoms: C5_6  and  C6_7 
REMARK    4  A    between atoms: C6_7  and  C7_8 
ROOT
HETATM    1  C7  UNL     1      53.004  42.974  65.218  1.00  0.00     0.168 C 
HETATM    2  O1  UNL     1      52.848  42.344  66.479  1.00  0.00    -0.264 OA
HETATM    3  S1  UNL     1      51.183  42.206  66.647  1.00  0.00     0.310 S 
HETATM    4  O2  UNL     1      50.653  40.854  66.407  1.00  0.00    -0.192 OA
HETATM    5  O3  UNL     1      50.745  42.757  67.996  1.00  0.00    -0.192 OA
HETATM    6  C8  UNL     1      50.721  43.372  65.388  1.00  0.00     0.137 C 
HETATM    7  N2  UNL     1      49.637  43.533  64.781  1.00  0.00    -0.391 N 
ATOM      8  H21 UNL     1      49.372  44.202  64.059  1.00  0.00     0.156 HD
ATOM      9  H22 UNL     1      48.752  43.031  64.862  1.00  0.00     0.156 HD
HETATM   10  C9  UNL     1      52.036  44.117  65.268  1.00  0.00     0.036 C 
HETATM   11  C10 UNL     1      52.080  45.066  64.145  1.00  0.00     0.025 C 
HETATM   12  C11 UNL     1      52.304  44.822  66.601  1.00  0.00     0.025 C 
ENDROOT
BRANCH   1  13
HETATM   13  C6  UNL     1      52.746  41.937  64.190  1.00  0.00     0.128 C 
BRANCH  13  14
HETATM   14  C5  UNL     1      53.806  40.936  64.145  1.00  0.00    -0.102 C 
HETATM   15  C4  UNL     1      54.710  40.103  64.134  1.00  0.00    -0.076 C 
BRANCH  15  16
HETATM   16  C3  UNL     1      55.795  39.121  64.125  1.00  0.00     0.364 C 
BRANCH  16  17
HETATM   17  N1  UNL     1      57.049  39.825  64.315  1.00  0.00     0.090 N 
HETATM   18  C1  UNL     1      58.084  39.198  63.491  1.00  0.00     0.310 C 
HETATM   19  C2  UNL     1      57.452  39.706  65.704  1.00  0.00     0.310 C 
ENDBRANCH  16  17
ENDBRANCH  15  16
ENDBRANCH  13  14
ENDBRANCH   1  13
TORSDOF 4
ENDMDL
