MODEL 1
REMARK VINA RESULT: -7.778925413      0.000      0.000
REMARK  1 active torsions:
REMARK  status: ('A' for Active; 'I' for Inactive)
REMARK    1  A    between atoms: C17_22  and  O5_23 
ROOT
HETATM    1  O1  UNL     1      38.384 -20.962   0.697  1.00  0.00    -0.298 OA
HETATM    2  C1  UNL     1      38.752 -20.375  -0.305  1.00  0.00     0.130 C 
HETATM    3  C2  UNL     1      39.963 -19.583  -0.047  1.00  0.00     0.083 C 
HETATM    4  C3  UNL     1      41.068 -20.524   0.372  1.00  0.00     0.069 C 
HETATM    5  C4  UNL     1      41.494 -21.425  -0.765  1.00  0.00     0.269 C 
HETATM    6  O2  UNL     1      42.032 -20.640  -1.779  1.00  0.00    -0.359 OA
HETATM    7  C5  UNL     1      43.275 -20.159  -1.364  1.00  0.00     0.191 C 
HETATM    8  C6  UNL     1      44.286 -20.381  -2.488  1.00  0.00     0.106 C 
HETATM    9 CL1  UNL     1      43.884 -21.916  -3.261  1.00  0.00    -0.123 Cl
HETATM   10  C7  UNL     1      44.163 -19.204  -3.421  1.00  0.00     0.026 C 
HETATM   11  C8  UNL     1      44.589 -19.545  -4.838  1.00  0.00     0.028 C 
HETATM   12  C9  UNL     1      43.943 -18.571  -5.761  1.00  0.00    -0.031 C 
HETATM   13  C10 UNL     1      43.063 -18.921  -6.694  1.00  0.00    -0.029 C 
HETATM   14  C11 UNL     1      42.626 -20.327  -6.917  1.00  0.00     0.053 C 
HETATM   15  C12 UNL     1      41.236 -20.336  -7.546  1.00  0.00     0.182 C 
HETATM   16  O3  UNL     1      40.398 -19.368  -6.932  1.00  0.00    -0.321 OA
HETATM   17  C13 UNL     1      39.214 -19.681  -6.293  1.00  0.00     0.258 C 
HETATM   18  O4  UNL     1      38.203 -18.943  -6.225  1.00  0.00    -0.265 OA
HETATM   19  C14 UNL     1      39.118 -21.003  -5.625  1.00  0.00     0.111 C 
HETATM   20  C15 UNL     1      38.564 -20.725  -4.220  1.00  0.00     0.013 C 
HETATM   21  C16 UNL     1      37.921 -21.932  -3.623  1.00  0.00     0.049 C 
HETATM   22  C17 UNL     1      38.072 -21.940  -2.121  1.00  0.00     0.151 C 
HETATM   23  C18 UNL     1      37.899 -20.610  -1.486  1.00  0.00     0.126 C 
HETATM   24  C19 UNL     1      39.358 -22.606  -1.781  1.00  0.00     0.296 C 
HETATM   25  O6  UNL     1      39.300 -23.795  -2.199  1.00  0.00    -0.262 OA
HETATM   26  O7  UNL     1      40.533 -22.323  -1.176  1.00  0.00    -0.287 OA
ENDROOT
BRANCH  22  27
HETATM   27  O5  UNL     1      37.058 -22.796  -1.631  1.00  0.00    -0.379 OA
ATOM     28  H5  UNL     1      36.541 -22.272  -1.030  1.00  0.00     0.211 HD
ENDBRANCH  22  27
TORSDOF 1
ENDMDL
MODEL 2
REMARK VINA RESULT: -7.700000997      1.687      2.217
REMARK  1 active torsions:
REMARK  status: ('A' for Active; 'I' for Inactive)
REMARK    1  A    between atoms: C17_22  and  O5_23 
ROOT
HETATM    1  O1  UNL     1      38.842 -20.902   2.531  1.00  0.00    -0.298 OA
HETATM    2  C1  UNL     1      39.135 -20.358   1.481  1.00  0.00     0.130 C 
HETATM    3  C2  UNL     1      40.592 -20.242   1.327  1.00  0.00     0.083 C 
HETATM    4  C3  UNL     1      41.183 -21.632   1.310  1.00  0.00     0.069 C 
HETATM    5  C4  UNL     1      40.775 -22.395   0.070  1.00  0.00     0.269 C 
HETATM    6  O2  UNL     1      41.300 -21.750  -1.044  1.00  0.00    -0.359 OA
HETATM    7  C5  UNL     1      42.681 -21.951  -1.071  1.00  0.00     0.191 C 
HETATM    8  C6  UNL     1      43.087 -22.377  -2.482  1.00  0.00     0.106 C 
HETATM    9 CL1  UNL     1      41.796 -23.403  -3.113  1.00  0.00    -0.123 Cl
HETATM   10  C7  UNL     1      43.273 -21.112  -3.280  1.00  0.00     0.026 C 
HETATM   11  C8  UNL     1      43.052 -21.330  -4.766  1.00  0.00     0.028 C 
HETATM   12  C9  UNL     1      42.711 -20.016  -5.380  1.00  0.00    -0.031 C 
HETATM   13  C10 UNL     1      41.542 -19.762  -5.960  1.00  0.00    -0.029 C 
HETATM   14  C11 UNL     1      40.445 -20.764  -6.059  1.00  0.00     0.053 C 
HETATM   15  C12 UNL     1      39.104 -20.043  -6.168  1.00  0.00     0.182 C 
HETATM   16  O3  UNL     1      39.050 -18.942  -5.273  1.00  0.00    -0.321 OA
HETATM   17  C13 UNL     1      38.105 -18.818  -4.273  1.00  0.00     0.258 C 
HETATM   18  O4  UNL     1      37.638 -17.739  -3.838  1.00  0.00    -0.265 OA
HETATM   19  C14 UNL     1      37.589 -20.063  -3.652  1.00  0.00     0.111 C 
HETATM   20  C15 UNL     1      37.672 -19.843  -2.135  1.00  0.00     0.013 C 
HETATM   21  C16 UNL     1      36.737 -20.734  -1.388  1.00  0.00     0.049 C 
HETATM   22  C17 UNL     1      37.296 -21.092  -0.032  1.00  0.00     0.151 C 
HETATM   23  C18 UNL     1      37.972 -19.967   0.662  1.00  0.00     0.126 C 
HETATM   24  C19 UNL     1      38.144 -22.305  -0.178  1.00  0.00     0.296 C 
HETATM   25  O6  UNL     1      37.408 -23.245  -0.584  1.00  0.00    -0.262 OA
HETATM   26  O7  UNL     1      39.430 -22.685  -0.009  1.00  0.00    -0.287 OA
ENDROOT
BRANCH  22  27
HETATM   27  O5  UNL     1      36.190 -21.491   0.753  1.00  0.00    -0.379 OA
ATOM     28  H5  UNL     1      35.422 -21.366   0.209  1.00  0.00     0.211 HD
ENDBRANCH  22  27
TORSDOF 1
ENDMDL
MODEL 3
REMARK VINA RESULT: -7.668231278      2.490      4.726
REMARK  1 active torsions:
REMARK  status: ('A' for Active; 'I' for Inactive)
REMARK    1  A    between atoms: C17_22  and  O5_23 
ROOT
HETATM    1  O1  UNL     1      37.369 -22.831   1.111  1.00  0.00    -0.298 OA
HETATM    2  C1  UNL     1      37.938 -22.915   0.037  1.00  0.00     0.130 C 
HETATM    3  C2  UNL     1      36.998 -22.759  -1.081  1.00  0.00     0.083 C 
HETATM    4  C3  UNL     1      36.373 -21.387  -0.992  1.00  0.00     0.069 C 
HETATM    5  C4  UNL     1      37.387 -20.296  -1.253  1.00  0.00     0.269 C 
HETATM    6  O2  UNL     1      37.846 -20.416  -2.561  1.00  0.00    -0.359 OA
HETATM    7  C5  UNL     1      36.828 -20.024  -3.433  1.00  0.00     0.191 C 
HETATM    8  C6  UNL     1      37.414 -19.068  -4.470  1.00  0.00     0.106 C 
HETATM    9 CL1  UNL     1      38.624 -18.079  -3.650  1.00  0.00    -0.123 Cl
HETATM   10  C7  UNL     1      37.999 -19.921  -5.566  1.00  0.00     0.026 C 
HETATM   11  C8  UNL     1      39.123 -19.219  -6.307  1.00  0.00     0.028 C 
HETATM   12  C9  UNL     1      39.976 -20.259  -6.946  1.00  0.00    -0.031 C 
HETATM   13  C10 UNL     1      41.253 -20.452  -6.631  1.00  0.00    -0.029 C 
HETATM   14  C11 UNL     1      41.970 -19.648  -5.603  1.00  0.00     0.053 C 
HETATM   15  C12 UNL     1      43.126 -20.466  -5.032  1.00  0.00     0.182 C 
HETATM   16  O3  UNL     1      42.730 -21.810  -4.806  1.00  0.00    -0.321 OA
HETATM   17  C13 UNL     1      42.767 -22.417  -3.566  1.00  0.00     0.258 C 
HETATM   18  O4  UNL     1      42.976 -23.636  -3.355  1.00  0.00    -0.265 OA
HETATM   19  C14 UNL     1      42.543 -21.565  -2.372  1.00  0.00     0.111 C 
HETATM   20  C15 UNL     1      41.500 -22.301  -1.519  1.00  0.00     0.013 C 
HETATM   21  C16 UNL     1      41.549 -21.880  -0.088  1.00  0.00     0.049 C 
HETATM   22  C17 UNL     1      40.182 -21.957   0.547  1.00  0.00     0.151 C 
HETATM   23  C18 UNL     1      39.392 -23.147   0.145  1.00  0.00     0.126 C 
HETATM   24  C19 UNL     1      39.482 -20.665   0.316  1.00  0.00     0.296 C 
HETATM   25  O6  UNL     1      40.152 -19.756   0.880  1.00  0.00    -0.262 OA
HETATM   26  O7  UNL     1      38.377 -20.191  -0.300  1.00  0.00    -0.287 OA
ENDROOT
BRANCH  22  27
HETATM   27  O5  UNL     1      40.403 -22.028   1.942  1.00  0.00    -0.379 OA
ATOM     28  H5  UNL     1      40.640 -21.149   2.215  1.00  0.00     0.211 HD
ENDBRANCH  22  27
TORSDOF 1
ENDMDL
MODEL 4
REMARK VINA RESULT: -7.456439796      2.429      6.145
REMARK  1 active torsions:
REMARK  status: ('A' for Active; 'I' for Inactive)
REMARK    1  A    between atoms: C17_22  and  O5_23 
ROOT
HETATM    1  O1  UNL     1      40.818 -19.669  -5.964  1.00  0.00    -0.298 OA
HETATM    2  C1  UNL     1      40.365 -20.553  -5.258  1.00  0.00     0.130 C 
HETATM    3  C2  UNL     1      41.437 -21.356  -4.651  1.00  0.00     0.083 C 
HETATM    4  C3  UNL     1      42.278 -20.452  -3.782  1.00  0.00     0.069 C 
HETATM    5  C4  UNL     1      41.506 -19.961  -2.579  1.00  0.00     0.269 C 
HETATM    6  O2  UNL     1      41.180 -21.052  -1.781  1.00  0.00    -0.359 OA
HETATM    7  C5  UNL     1      42.341 -21.518  -1.160  1.00  0.00     0.191 C 
HETATM    8  C6  UNL     1      42.050 -21.729   0.325  1.00  0.00     0.106 C 
HETATM    9 CL1  UNL     1      40.948 -20.447   0.833  1.00  0.00    -0.123 Cl
HETATM   10  C7  UNL     1      41.449 -23.105   0.458  1.00  0.00     0.026 C 
HETATM   11  C8  UNL     1      40.554 -23.229   1.678  1.00  0.00     0.028 C 
HETATM   12  C9  UNL     1      39.608 -24.355   1.446  1.00  0.00    -0.031 C 
HETATM   13  C10 UNL     1      38.291 -24.199   1.369  1.00  0.00    -0.029 C 
HETATM   14  C11 UNL     1      37.616 -22.878   1.507  1.00  0.00     0.053 C 
HETATM   15  C12 UNL     1      36.279 -22.910   0.772  1.00  0.00     0.182 C 
HETATM   16  O3  UNL     1      36.406 -23.572  -0.478  1.00  0.00    -0.321 OA
HETATM   17  C13 UNL     1      36.126 -22.971  -1.690  1.00  0.00     0.258 C 
HETATM   18  O4  UNL     1      35.686 -23.553  -2.710  1.00  0.00    -0.265 OA
HETATM   19  C14 UNL     1      36.363 -21.511  -1.809  1.00  0.00     0.111 C 
HETATM   20  C15 UNL     1      37.160 -21.318  -3.107  1.00  0.00     0.013 C 
HETATM   21  C16 UNL     1      37.028 -19.933  -3.645  1.00  0.00     0.049 C 
HETATM   22  C17 UNL     1      38.282 -19.511  -4.372  1.00  0.00     0.151 C 
HETATM   23  C18 UNL     1      38.891 -20.580  -5.202  1.00  0.00     0.126 C 
HETATM   24  C19 UNL     1      39.218 -18.909  -3.385  1.00  0.00     0.296 C 
HETATM   25  O6  UNL     1      38.660 -17.890  -2.894  1.00  0.00    -0.262 OA
HETATM   26  O7  UNL     1      40.450 -19.125  -2.875  1.00  0.00    -0.287 OA
ENDROOT
BRANCH  22  27
HETATM   27  O5  UNL     1      37.900 -18.454  -5.229  1.00  0.00    -0.379 OA
ATOM     28  H5  UNL     1      38.695 -17.971  -5.421  1.00  0.00     0.211 HD
ENDBRANCH  22  27
TORSDOF 1
ENDMDL
MODEL 5
REMARK VINA RESULT: -7.428043319      1.823      5.533
REMARK  1 active torsions:
REMARK  status: ('A' for Active; 'I' for Inactive)
REMARK    1  A    between atoms: C17_22  and  O5_23 
ROOT
HETATM    1  O1  UNL     1      37.664 -20.708  -6.966  1.00  0.00    -0.298 OA
HETATM    2  C1  UNL     1      38.158 -21.279  -6.010  1.00  0.00     0.130 C 
HETATM    3  C2  UNL     1      39.483 -21.825  -6.337  1.00  0.00     0.083 C 
HETATM    4  C3  UNL     1      40.392 -20.679  -6.714  1.00  0.00     0.069 C 
HETATM    5  C4  UNL     1      40.682 -19.785  -5.530  1.00  0.00     0.269 C 
HETATM    6  O2  UNL     1      41.379 -20.519  -4.576  1.00  0.00    -0.359 OA
HETATM    7  C5  UNL     1      42.676 -20.745  -5.041  1.00  0.00     0.191 C 
HETATM    8  C6  UNL     1      43.662 -20.413  -3.923  1.00  0.00     0.106 C 
HETATM    9 CL1  UNL     1      43.015 -19.023  -3.047  1.00  0.00    -0.123 Cl
HETATM   10  C7  UNL     1      43.775 -21.646  -3.063  1.00  0.00     0.026 C 
HETATM   11  C8  UNL     1      44.173 -21.320  -1.635  1.00  0.00     0.028 C 
HETATM   12  C9  UNL     1      43.735 -22.446  -0.765  1.00  0.00    -0.031 C 
HETATM   13  C10 UNL     1      42.833 -22.314   0.202  1.00  0.00    -0.029 C 
HETATM   14  C11 UNL     1      42.160 -21.024   0.521  1.00  0.00     0.053 C 
HETATM   15  C12 UNL     1      40.809 -21.301   1.172  1.00  0.00     0.182 C 
HETATM   16  O3  UNL     1      40.139 -22.365   0.512  1.00  0.00    -0.321 OA
HETATM   17  C13 UNL     1      38.901 -22.231  -0.086  1.00  0.00     0.258 C 
HETATM   18  O4  UNL     1      38.035 -23.133  -0.184  1.00  0.00    -0.265 OA
HETATM   19  C14 UNL     1      38.553 -20.911  -0.667  1.00  0.00     0.111 C 
HETATM   20  C15 UNL     1      38.020 -21.199  -2.078  1.00  0.00     0.013 C 
HETATM   21  C16 UNL     1      37.156 -20.094  -2.587  1.00  0.00     0.049 C 
HETATM   22  C17 UNL     1      37.262 -19.970  -4.087  1.00  0.00     0.151 C 
HETATM   23  C18 UNL     1      37.310 -21.270  -4.802  1.00  0.00     0.126 C 
HETATM   24  C19 UNL     1      38.400 -19.066  -4.406  1.00  0.00     0.296 C 
HETATM   25  O6  UNL     1      38.144 -17.933  -3.913  1.00  0.00    -0.262 OA
HETATM   26  O7  UNL     1      39.589 -19.099  -5.047  1.00  0.00    -0.287 OA
ENDROOT
BRANCH  22  27
HETATM   27  O5  UNL     1      36.100 -19.282  -4.505  1.00  0.00    -0.379 OA
ATOM     28  H5  UNL     1      36.401 -18.560  -5.044  1.00  0.00     0.211 HD
ENDBRANCH  22  27
TORSDOF 1
ENDMDL
