MODEL 1
REMARK VINA RESULT: -6.929935508      0.000      0.000
REMARK  1 active torsions:
REMARK  status: ('A' for Active; 'I' for Inactive)
REMARK    1  A    between atoms: C6_9  and  O2_10 
ROOT
HETATM    1  O1  UNL     1      40.916 -24.428  -2.294  1.00  0.00    -0.272 OA
HETATM    2  C1  UNL     1      41.269 -23.411  -1.624  1.00  0.00     0.239 C 
HETATM    3  C2  UNL     1      41.969 -23.783  -0.381  1.00  0.00     0.115 C 
HETATM    4  C3  UNL     1      41.465 -23.110   0.856  1.00  0.00     0.083 C 
HETATM    5  S1  UNL     1      42.248 -21.513   1.170  1.00  0.00    -0.167 SA
HETATM    6  C4  UNL     1      42.774 -20.804  -0.402  1.00  0.00     0.095 C 
HETATM    7  C5  UNL     1      41.583 -20.132  -1.014  1.00  0.00     0.161 C 
HETATM    8  N1  UNL     1      41.287 -20.871  -2.275  1.00  0.00    -0.264 N 
HETATM    9  C6  UNL     1      41.585 -19.970  -3.310  1.00  0.00     0.188 C 
HETATM   10  C7  UNL     1      41.146 -19.831  -4.698  1.00  0.00     0.129 A 
HETATM   11  C8  UNL     1      41.685 -19.924  -5.971  1.00  0.00     0.123 A 
HETATM   12 CL1  UNL     1      43.244 -20.263  -6.767  1.00  0.00    -0.072 Cl
HETATM   13  S2  UNL     1      40.324 -19.558  -6.842  1.00  0.00     0.009 SA
HETATM   14  N2  UNL     1      39.981 -19.525  -5.204  1.00  0.00    -0.270 N 
HETATM   15  C9  UNL     1      38.745 -19.237  -4.508  1.00  0.00     0.192 C 
HETATM   16  N3  UNL     1      38.890 -18.794  -3.156  1.00  0.00    -0.385 N 
ATOM     17  H3  UNL     1      39.734 -18.864  -2.589  1.00  0.00     0.160 HD
HETATM   18  C10 UNL     1      37.624 -18.229  -2.737  1.00  0.00     0.121 C 
HETATM   19  C11 UNL     1      36.933 -19.020  -1.667  1.00  0.00     0.030 C 
HETATM   20  C12 UNL     1      36.707 -20.471  -2.001  1.00  0.00     0.075 C 
HETATM   21  S3  UNL     1      38.188 -21.381  -1.501  1.00  0.00    -0.167 SA
HETATM   22  C13 UNL     1      38.473 -22.880  -2.452  1.00  0.00     0.095 C 
HETATM   23  C14 UNL     1      39.811 -22.768  -3.149  1.00  0.00     0.162 C 
HETATM   24  N4  UNL     1      40.851 -22.196  -2.330  1.00  0.00    -0.256 N 
ENDROOT
BRANCH   9  25
HETATM   25  O2  UNL     1      42.459 -19.062  -2.912  1.00  0.00    -0.343 OA
ATOM     26  H2  UNL     1      42.148 -18.184  -3.099  1.00  0.00     0.219 HD
ENDBRANCH   9  25
TORSDOF 1
ENDMDL
MODEL 2
REMARK VINA RESULT: -6.901528131      2.394      5.224
REMARK  1 active torsions:
REMARK  status: ('A' for Active; 'I' for Inactive)
REMARK    1  A    between atoms: C6_9  and  O2_10 
ROOT
HETATM    1  O1  UNL     1      39.243 -17.533  -2.375  1.00  0.00    -0.272 OA
HETATM    2  C1  UNL     1      38.883 -18.415  -3.212  1.00  0.00     0.239 C 
HETATM    3  C2  UNL     1      37.480 -18.241  -3.629  1.00  0.00     0.115 C 
HETATM    4  C3  UNL     1      36.640 -19.478  -3.560  1.00  0.00     0.083 C 
HETATM    5  S1  UNL     1      36.717 -20.478  -5.062  1.00  0.00    -0.167 SA
HETATM    6  C4  UNL     1      38.308 -20.200  -5.864  1.00  0.00     0.095 C 
HETATM    7  C5  UNL     1      39.313 -21.084  -5.190  1.00  0.00     0.161 C 
HETATM    8  N1  UNL     1      40.301 -20.175  -4.541  1.00  0.00    -0.264 N 
HETATM    9  C6  UNL     1      41.496 -20.359  -5.254  1.00  0.00     0.188 C 
HETATM   10  C7  UNL     1      42.911 -20.168  -4.937  1.00  0.00     0.129 A 
HETATM   11  C8  UNL     1      43.964 -19.361  -5.337  1.00  0.00     0.123 A 
HETATM   12 CL1  UNL     1      44.305 -18.040  -6.485  1.00  0.00    -0.072 Cl
HETATM   13  S2  UNL     1      45.142 -19.988  -4.357  1.00  0.00     0.009 SA
HETATM   14  N2  UNL     1      43.695 -20.789  -4.097  1.00  0.00    -0.270 N 
HETATM   15  C9  UNL     1      43.370 -21.876  -3.197  1.00  0.00     0.192 C 
HETATM   16  N3  UNL     1      42.231 -22.657  -3.564  1.00  0.00    -0.385 N 
ATOM     17  H3  UNL     1      41.525 -22.401  -4.255  1.00  0.00     0.160 HD
HETATM   18  C10 UNL     1      42.257 -23.875  -2.781  1.00  0.00     0.121 C 
HETATM   19  C11 UNL     1      41.137 -23.981  -1.789  1.00  0.00     0.030 C 
HETATM   20  C12 UNL     1      41.022 -22.818  -0.839  1.00  0.00     0.075 C 
HETATM   21  S3  UNL     1      39.992 -21.564  -1.636  1.00  0.00    -0.167 SA
HETATM   22  C13 UNL     1      40.339 -19.886  -1.091  1.00  0.00     0.095 C 
HETATM   23  C14 UNL     1      40.776 -19.067  -2.285  1.00  0.00     0.162 C 
HETATM   24  N4  UNL     1      40.007 -19.318  -3.480  1.00  0.00    -0.256 N 
ENDROOT
BRANCH   9  25
HETATM   25  O2  UNL     1      41.257 -20.802  -6.476  1.00  0.00    -0.343 OA
ATOM     26  H2  UNL     1      40.347 -20.671  -6.715  1.00  0.00     0.219 HD
ENDBRANCH   9  25
TORSDOF 1
ENDMDL
MODEL 3
REMARK VINA RESULT: -6.877719265      2.261      4.982
REMARK  1 active torsions:
REMARK  status: ('A' for Active; 'I' for Inactive)
REMARK    1  A    between atoms: C6_9  and  O2_10 
ROOT
HETATM    1  O1  UNL     1      38.542 -17.762  -2.240  1.00  0.00    -0.272 OA
HETATM    2  C1  UNL     1      38.145 -18.929  -2.540  1.00  0.00     0.239 C 
HETATM    3  C2  UNL     1      36.770 -19.182  -2.072  1.00  0.00     0.115 C 
HETATM    4  C3  UNL     1      36.584 -20.458  -1.314  1.00  0.00     0.083 C 
HETATM    5  S1  UNL     1      36.233 -21.875  -2.377  1.00  0.00    -0.167 SA
HETATM    6  C4  UNL     1      36.974 -21.586  -3.995  1.00  0.00     0.095 C 
HETATM    7  C5  UNL     1      38.418 -21.976  -3.905  1.00  0.00     0.161 C 
HETATM    8  N1  UNL     1      39.203 -20.727  -4.127  1.00  0.00    -0.264 N 
HETATM    9  C6  UNL     1      39.843 -20.909  -5.364  1.00  0.00     0.188 C 
HETATM   10  C7  UNL     1      41.047 -20.352  -5.980  1.00  0.00     0.129 A 
HETATM   11  C8  UNL     1      41.383 -19.542  -7.053  1.00  0.00     0.123 A 
HETATM   12 CL1  UNL     1      40.600 -18.652  -8.384  1.00  0.00    -0.072 Cl
HETATM   13  S2  UNL     1      43.029 -19.558  -6.866  1.00  0.00     0.009 SA
HETATM   14  N2  UNL     1      42.309 -20.485  -5.673  1.00  0.00    -0.270 N 
HETATM   15  C9  UNL     1      42.896 -21.241  -4.586  1.00  0.00     0.192 C 
HETATM   16  N3  UNL     1      42.091 -22.305  -4.073  1.00  0.00    -0.385 N 
ATOM     17  H3  UNL     1      41.096 -22.442  -4.246  1.00  0.00     0.160 HD
HETATM   18  C10 UNL     1      42.942 -23.153  -3.263  1.00  0.00     0.121 C 
HETATM   19  C11 UNL     1      42.605 -23.129  -1.802  1.00  0.00     0.030 C 
HETATM   20  C12 UNL     1      42.588 -21.758  -1.181  1.00  0.00     0.075 C 
HETATM   21  S3  UNL     1      40.931 -21.075  -1.416  1.00  0.00    -0.167 SA
HETATM   22  C13 UNL     1      40.888 -19.278  -1.474  1.00  0.00     0.095 C 
HETATM   23  C14 UNL     1      40.333 -18.847  -2.813  1.00  0.00     0.162 C 
HETATM   24  N4  UNL     1      39.209 -19.634  -3.261  1.00  0.00    -0.256 N 
ENDROOT
BRANCH   9  25
HETATM   25  O2  UNL     1      39.189 -21.779  -6.114  1.00  0.00    -0.343 OA
ATOM     26  H2  UNL     1      38.266 -21.559  -6.167  1.00  0.00     0.219 HD
ENDBRANCH   9  25
TORSDOF 1
ENDMDL
MODEL 4
REMARK VINA RESULT: -6.862092133      1.571      1.702
REMARK  1 active torsions:
REMARK  status: ('A' for Active; 'I' for Inactive)
REMARK    1  A    between atoms: C6_9  and  O2_10 
ROOT
HETATM    1  O1  UNL     1      40.971 -24.380  -1.459  1.00  0.00    -0.272 OA
HETATM    2  C1  UNL     1      40.839 -23.289  -0.826  1.00  0.00     0.239 C 
HETATM    3  C2  UNL     1      40.716 -23.505   0.627  1.00  0.00     0.115 C 
HETATM    4  C3  UNL     1      39.570 -22.798   1.279  1.00  0.00     0.083 C 
HETATM    5  S1  UNL     1      39.972 -21.116   1.800  1.00  0.00    -0.167 SA
HETATM    6  C4  UNL     1      41.274 -20.472   0.732  1.00  0.00     0.095 C 
HETATM    7  C5  UNL     1      40.622 -19.961  -0.516  1.00  0.00     0.161 C 
HETATM    8  N1  UNL     1      41.128 -20.811  -1.632  1.00  0.00    -0.264 N 
HETATM    9  C6  UNL     1      41.931 -19.961  -2.410  1.00  0.00     0.188 C 
HETATM   10  C7  UNL     1      42.358 -19.962  -3.808  1.00  0.00     0.129 A 
HETATM   11  C8  UNL     1      43.531 -20.092  -4.534  1.00  0.00     0.123 A 
HETATM   12 CL1  UNL     1      45.277 -20.336  -4.266  1.00  0.00    -0.072 Cl
HETATM   13  S2  UNL     1      42.900 -19.918  -6.056  1.00  0.00     0.009 SA
HETATM   14  N2  UNL     1      41.681 -19.803  -4.914  1.00  0.00    -0.270 N 
HETATM   15  C9  UNL     1      40.259 -19.586  -5.075  1.00  0.00     0.192 C 
HETATM   16  N3  UNL     1      39.589 -19.038  -3.938  1.00  0.00    -0.385 N 
ATOM     17  H3  UNL     1      39.959 -18.987  -2.989  1.00  0.00     0.160 HD
HETATM   18  C10 UNL     1      38.290 -18.568  -4.373  1.00  0.00     0.121 C 
HETATM   19  C11 UNL     1      37.142 -19.344  -3.801  1.00  0.00     0.030 C 
HETATM   20  C12 UNL     1      37.203 -20.829  -4.039  1.00  0.00     0.075 C 
HETATM   21  S3  UNL     1      38.166 -21.557  -2.692  1.00  0.00    -0.167 SA
HETATM   22  C13 UNL     1      39.000 -23.086  -3.141  1.00  0.00     0.095 C 
HETATM   23  C14 UNL     1      40.491 -22.896  -2.968  1.00  0.00     0.162 C 
HETATM   24  N4  UNL     1      40.854 -22.172  -1.775  1.00  0.00    -0.256 N 
ENDROOT
BRANCH   9  25
HETATM   25  O2  UNL     1      42.385 -18.948  -1.692  1.00  0.00    -0.343 OA
ATOM     26  H2  UNL     1      43.324 -18.852  -1.793  1.00  0.00     0.219 HD
ENDBRANCH   9  25
TORSDOF 1
ENDMDL
MODEL 5
REMARK VINA RESULT: -6.787733252      3.132      5.828
REMARK  1 active torsions:
REMARK  status: ('A' for Active; 'I' for Inactive)
REMARK    1  A    between atoms: C6_9  and  O2_10 
ROOT
HETATM    1  O1  UNL     1      38.221 -23.344  -3.808  1.00  0.00    -0.272 OA
HETATM    2  C1  UNL     1      38.405 -22.132  -4.132  1.00  0.00     0.239 C 
HETATM    3  C2  UNL     1      37.723 -21.787  -5.394  1.00  0.00     0.115 C 
HETATM    4  C3  UNL     1      38.576 -21.085  -6.403  1.00  0.00     0.083 C 
HETATM    5  S1  UNL     1      38.595 -19.291  -6.196  1.00  0.00    -0.167 SA
HETATM    6  C4  UNL     1      38.295 -18.902  -4.461  1.00  0.00     0.095 C 
HETATM    7  C5  UNL     1      39.602 -19.028  -3.740  1.00  0.00     0.161 C 
HETATM    8  N1  UNL     1      39.436 -20.146  -2.766  1.00  0.00    -0.264 N 
HETATM    9  C6  UNL     1      39.470 -19.541  -1.499  1.00  0.00     0.188 C 
HETATM   10  C7  UNL     1      39.803 -20.010  -0.155  1.00  0.00     0.129 A 
HETATM   11  C8  UNL     1      39.169 -20.213   1.060  1.00  0.00     0.123 A 
HETATM   12 CL1  UNL     1      37.555 -20.041   1.797  1.00  0.00    -0.072 Cl
HETATM   13  S2  UNL     1      40.472 -20.748   1.932  1.00  0.00     0.009 SA
HETATM   14  N2  UNL     1      40.937 -20.406   0.360  1.00  0.00    -0.270 N 
HETATM   15  C9  UNL     1      42.231 -20.508  -0.281  1.00  0.00     0.192 C 
HETATM   16  N3  UNL     1      42.411 -19.683  -1.435  1.00  0.00    -0.385 N 
ATOM     17  H3  UNL     1      41.673 -19.209  -1.955  1.00  0.00     0.160 HD
HETATM   18  C10 UNL     1      43.828 -19.640  -1.732  1.00  0.00     0.121 C 
HETATM   19  C11 UNL     1      44.196 -20.315  -3.020  1.00  0.00     0.030 C 
HETATM   20  C12 UNL     1      43.739 -21.745  -3.137  1.00  0.00     0.075 C 
HETATM   21  S3  UNL     1      42.059 -21.725  -3.807  1.00  0.00    -0.167 SA
HETATM   22  C13 UNL     1      41.069 -23.147  -3.325  1.00  0.00     0.095 C 
HETATM   23  C14 UNL     1      39.858 -22.660  -2.560  1.00  0.00     0.162 C 
HETATM   24  N4  UNL     1      39.246 -21.481  -3.123  1.00  0.00    -0.256 N 
ENDROOT
BRANCH   9  25
HETATM   25  O2  UNL     1      39.116 -18.269  -1.570  1.00  0.00    -0.343 OA
ATOM     26  H2  UNL     1      38.790 -17.958  -0.734  1.00  0.00     0.219 HD
ENDBRANCH   9  25
TORSDOF 1
ENDMDL
