MODEL 1
REMARK VINA RESULT: -7.098434293      0.000      0.000
REMARK  4 active torsions:
REMARK  status: ('A' for Active; 'I' for Inactive)
REMARK    1  A    between atoms: C2_2  and  O2_4 
REMARK    2  A    between atoms: O2_4  and  C3_5 
REMARK    3  A    between atoms: C12_15  and  O3_16 
REMARK    4  A    between atoms: C13_19  and  O5_20 
ROOT
HETATM    1  C3  UNL     1      39.023 -20.313  -3.074  1.00  0.00     0.188 C 
HETATM    2  C4  UNL     1      39.607 -20.131  -4.376  1.00  0.00     0.051 C 
HETATM    3  C5  UNL     1      40.631 -21.006  -4.957  1.00  0.00     0.007 C 
HETATM    4  C6  UNL     1      42.044 -20.457  -4.756  1.00  0.00    -0.018 C 
HETATM    5  C7  UNL     1      42.245 -19.385  -5.802  1.00  0.00     0.010 C 
HETATM    6  C8  UNL     1      43.053 -21.539  -4.914  1.00  0.00     0.008 C 
HETATM    7  C9  UNL     1      43.077 -22.549  -3.815  1.00  0.00     0.029 C 
HETATM    8  C10 UNL     1      43.596 -22.044  -2.528  1.00  0.00     0.002 C 
HETATM    9  C11 UNL     1      42.921 -21.989  -1.386  1.00  0.00     0.088 C 
HETATM   10 CL1  UNL     1      43.725 -21.345   0.076  1.00  0.00    -0.080 Cl
HETATM   11  C12 UNL     1      41.539 -22.420  -1.195  1.00  0.00     0.204 C 
HETATM   12  O4  UNL     1      40.446 -21.963  -1.920  1.00  0.00    -0.264 OA
HETATM   13  C13 UNL     1      39.821 -20.735  -1.895  1.00  0.00     0.324 C 
HETATM   14  O6  UNL     1      38.735 -20.898  -0.972  1.00  0.00    -0.318 OA
HETATM   15  C14 UNL     1      37.996 -21.893  -1.606  1.00  0.00     0.199 C 
HETATM   16  C15 UNL     1      36.538 -21.590  -1.569  1.00  0.00     0.084 C 
HETATM   17  C16 UNL     1      36.106 -20.564  -0.542  1.00  0.00     0.048 C 
HETATM   18  C17 UNL     1      35.615 -22.786  -1.513  1.00  0.00     0.048 C 
HETATM   19  O7  UNL     1      36.669 -21.085  -2.871  1.00  0.00    -0.361 OA
HETATM   20  C18 UNL     1      38.000 -21.474  -3.047  1.00  0.00     0.127 C 
HETATM   21  C19 UNL     1      38.118 -22.513  -4.073  1.00  0.00     0.052 C 
ENDROOT
BRANCH   1  22
HETATM   22  O2  UNL     1      38.235 -19.223  -2.714  1.00  0.00    -0.299 OA
BRANCH  22  23
HETATM   23  C2  UNL     1      38.369 -17.907  -2.853  1.00  0.00     0.255 C 
HETATM   24  C1  UNL     1      37.556 -17.074  -3.764  1.00  0.00     0.126 C 
HETATM   25  O1  UNL     1      39.239 -17.364  -2.163  1.00  0.00    -0.266 OA
ENDBRANCH  22  23
ENDBRANCH   1  22
BRANCH  13  26
HETATM   26  O5  UNL     1      40.635 -19.814  -1.309  1.00  0.00    -0.340 OA
ATOM     27  H5  UNL     1      40.841 -19.920  -0.388  1.00  0.00     0.215 HD
ENDBRANCH  13  26
BRANCH  11  28
HETATM   28  O3  UNL     1      41.402 -23.307  -0.250  1.00  0.00    -0.340 OA
ATOM     29  H3  UNL     1      40.913 -24.075  -0.525  1.00  0.00     0.220 HD
ENDBRANCH  11  28
TORSDOF 4
ENDMDL
MODEL 2
REMARK VINA RESULT: -6.935318728      1.293      1.405
REMARK  4 active torsions:
REMARK  status: ('A' for Active; 'I' for Inactive)
REMARK    1  A    between atoms: C2_2  and  O2_4 
REMARK    2  A    between atoms: O2_4  and  C3_5 
REMARK    3  A    between atoms: C12_15  and  O3_16 
REMARK    4  A    between atoms: C13_19  and  O5_20 
ROOT
HETATM    1  C3  UNL     1      39.431 -20.112  -2.906  1.00  0.00     0.188 C 
HETATM    2  C4  UNL     1      39.525 -20.097  -4.342  1.00  0.00     0.051 C 
HETATM    3  C5  UNL     1      40.499 -20.871  -5.120  1.00  0.00     0.007 C 
HETATM    4  C6  UNL     1      41.730 -20.044  -5.493  1.00  0.00    -0.018 C 
HETATM    5  C7  UNL     1      41.337 -19.190  -6.676  1.00  0.00     0.010 C 
HETATM    6  C8  UNL     1      42.870 -20.934  -5.845  1.00  0.00     0.008 C 
HETATM    7  C9  UNL     1      43.472 -21.677  -4.698  1.00  0.00     0.029 C 
HETATM    8  C10 UNL     1      44.224 -20.834  -3.748  1.00  0.00     0.002 C 
HETATM    9  C11 UNL     1      43.942 -20.671  -2.461  1.00  0.00     0.088 C 
HETATM   10 CL1  UNL     1      44.977 -19.606  -1.465  1.00  0.00    -0.080 Cl
HETATM   11  C12 UNL     1      42.831 -21.298  -1.751  1.00  0.00     0.204 C 
HETATM   12  O4  UNL     1      41.492 -21.205  -2.107  1.00  0.00    -0.264 OA
HETATM   13  C13 UNL     1      40.630 -20.132  -2.030  1.00  0.00     0.324 C 
HETATM   14  O6  UNL     1      39.953 -20.298  -0.777  1.00  0.00    -0.318 OA
HETATM   15  C14 UNL     1      39.316 -21.519  -0.979  1.00  0.00     0.199 C 
HETATM   16  C15 UNL     1      37.912 -21.485  -0.483  1.00  0.00     0.084 C 
HETATM   17  C16 UNL     1      37.585 -20.367   0.486  1.00  0.00     0.048 C 
HETATM   18  C17 UNL     1      37.366 -22.792   0.045  1.00  0.00     0.048 C 
HETATM   19  O7  UNL     1      37.511 -21.241  -1.805  1.00  0.00    -0.361 OA
HETATM   20  C18 UNL     1      38.775 -21.409  -2.375  1.00  0.00     0.127 C 
HETATM   21  C19 UNL     1      38.818 -22.597  -3.233  1.00  0.00     0.052 C 
ENDROOT
BRANCH   1  22
HETATM   22  O2  UNL     1      38.556 -19.134  -2.445  1.00  0.00    -0.299 OA
BRANCH  22  23
HETATM   23  C2  UNL     1      38.369 -17.851  -2.745  1.00  0.00     0.255 C 
HETATM   24  C1  UNL     1      37.396 -17.357  -3.741  1.00  0.00     0.126 C 
HETATM   25  O1  UNL     1      39.069 -17.034  -2.136  1.00  0.00    -0.266 OA
ENDBRANCH  22  23
ENDBRANCH   1  22
BRANCH  13  26
HETATM   26  O5  UNL     1      41.340 -18.978  -1.889  1.00  0.00    -0.340 OA
ATOM     27  H5  UNL     1      41.052 -18.214  -2.375  1.00  0.00     0.215 HD
ENDBRANCH  13  26
BRANCH  11  28
HETATM   28  O3  UNL     1      43.208 -21.983  -0.708  1.00  0.00    -0.340 OA
ATOM     29  H3  UNL     1      42.948 -22.896  -0.746  1.00  0.00     0.220 HD
ENDBRANCH  11  28
TORSDOF 4
ENDMDL
MODEL 3
REMARK VINA RESULT: -6.908391726      2.597      4.797
REMARK  4 active torsions:
REMARK  status: ('A' for Active; 'I' for Inactive)
REMARK    1  A    between atoms: C2_2  and  O2_4 
REMARK    2  A    between atoms: O2_4  and  C3_5 
REMARK    3  A    between atoms: C12_15  and  O3_16 
REMARK    4  A    between atoms: C13_19  and  O5_20 
ROOT
HETATM    1  C3  UNL     1      40.019 -21.734  -1.838  1.00  0.00     0.188 C 
HETATM    2  C4  UNL     1      41.365 -21.401  -2.223  1.00  0.00     0.051 C 
HETATM    3  C5  UNL     1      41.721 -20.332  -3.162  1.00  0.00     0.007 C 
HETATM    4  C6  UNL     1      41.937 -20.856  -4.582  1.00  0.00    -0.018 C 
HETATM    5  C7  UNL     1      43.321 -21.462  -4.614  1.00  0.00     0.010 C 
HETATM    6  C8  UNL     1      41.826 -19.749  -5.570  1.00  0.00     0.008 C 
HETATM    7  C9  UNL     1      40.447 -19.212  -5.768  1.00  0.00     0.029 C 
HETATM    8  C10 UNL     1      39.524 -20.131  -6.463  1.00  0.00     0.002 C 
HETATM    9  C11 UNL     1      38.399 -20.628  -5.963  1.00  0.00     0.088 C 
HETATM   10 CL1  UNL     1      37.406 -21.728  -6.963  1.00  0.00    -0.080 Cl
HETATM   11  C12 UNL     1      37.871 -20.356  -4.628  1.00  0.00     0.204 C 
HETATM   12  O4  UNL     1      38.551 -20.561  -3.436  1.00  0.00    -0.264 OA
HETATM   13  C13 UNL     1      38.892 -21.739  -2.805  1.00  0.00     0.324 C 
HETATM   14  O6  UNL     1      37.831 -21.971  -1.869  1.00  0.00    -0.318 OA
HETATM   15  C14 UNL     1      37.943 -20.845  -1.057  1.00  0.00     0.199 C 
HETATM   16  C15 UNL     1      37.816 -21.202   0.383  1.00  0.00     0.084 C 
HETATM   17  C16 UNL     1      37.189 -22.550   0.673  1.00  0.00     0.048 C 
HETATM   18  C17 UNL     1      37.195 -20.150   1.273  1.00  0.00     0.048 C 
HETATM   19  O7  UNL     1      39.217 -21.190   0.451  1.00  0.00    -0.361 OA
HETATM   20  C18 UNL     1      39.423 -20.707  -0.844  1.00  0.00     0.127 C 
HETATM   21  C19 UNL     1      40.000 -19.360  -0.825  1.00  0.00     0.052 C 
ENDROOT
BRANCH   1  22
HETATM   22  O2  UNL     1      39.979 -22.911  -1.098  1.00  0.00    -0.299 OA
BRANCH  22  23
HETATM   23  C2  UNL     1      40.745 -23.998  -1.058  1.00  0.00     0.255 C 
HETATM   24  C1  UNL     1      41.336 -24.562   0.173  1.00  0.00     0.126 C 
HETATM   25  O1  UNL     1      40.963 -24.560  -2.137  1.00  0.00    -0.266 OA
ENDBRANCH  22  23
ENDBRANCH   1  22
BRANCH  13  26
HETATM   26  O5  UNL     1      38.808 -22.775  -3.685  1.00  0.00    -0.340 OA
ATOM     27  H5  UNL     1      37.990 -22.899  -4.153  1.00  0.00     0.215 HD
ENDBRANCH  13  26
BRANCH  11  28
HETATM   28  O3  UNL     1      36.656 -19.882  -4.642  1.00  0.00    -0.340 OA
ATOM     29  H3  UNL     1      36.379 -19.586  -5.501  1.00  0.00     0.220 HD
ENDBRANCH  11  28
TORSDOF 4
ENDMDL
MODEL 4
REMARK VINA RESULT: -6.900074655      2.462      4.599
REMARK  4 active torsions:
REMARK  status: ('A' for Active; 'I' for Inactive)
REMARK    1  A    between atoms: C2_2  and  O2_4 
REMARK    2  A    between atoms: O2_4  and  C3_5 
REMARK    3  A    between atoms: C12_15  and  O3_16 
REMARK    4  A    between atoms: C13_19  and  O5_20 
ROOT
HETATM    1  C3  UNL     1      40.444 -21.298  -2.462  1.00  0.00     0.188 C 
HETATM    2  C4  UNL     1      41.811 -21.030  -2.103  1.00  0.00     0.051 C 
HETATM    3  C5  UNL     1      42.633 -19.969  -2.694  1.00  0.00     0.007 C 
HETATM    4  C6  UNL     1      43.519 -20.487  -3.827  1.00  0.00    -0.018 C 
HETATM    5  C7  UNL     1      44.705 -21.161  -3.178  1.00  0.00     0.010 C 
HETATM    6  C8  UNL     1      43.966 -19.364  -4.696  1.00  0.00     0.008 C 
HETATM    7  C9  UNL     1      42.898 -18.754  -5.544  1.00  0.00     0.029 C 
HETATM    8  C10 UNL     1      42.420 -19.617  -6.643  1.00  0.00     0.002 C 
HETATM    9  C11 UNL     1      41.178 -20.062  -6.798  1.00  0.00     0.088 C 
HETATM   10 CL1  UNL     1      40.788 -21.098  -8.201  1.00  0.00    -0.080 Cl
HETATM   11  C12 UNL     1      40.058 -19.780  -5.904  1.00  0.00     0.204 C 
HETATM   12  O4  UNL     1      40.033 -20.034  -4.539  1.00  0.00    -0.264 OA
HETATM   13  C13 UNL     1      39.963 -21.234  -3.866  1.00  0.00     0.324 C 
HETATM   14  O6  UNL     1      38.566 -21.424  -3.603  1.00  0.00    -0.318 OA
HETATM   15  C14 UNL     1      38.294 -20.315  -2.805  1.00  0.00     0.199 C 
HETATM   16  C15 UNL     1      37.442 -20.682  -1.641  1.00  0.00     0.084 C 
HETATM   17  C16 UNL     1      36.704 -22.000  -1.756  1.00  0.00     0.048 C 
HETATM   18  C17 UNL     1      36.496 -19.610  -1.149  1.00  0.00     0.048 C 
HETATM   19  O7  UNL     1      38.615 -20.742  -0.874  1.00  0.00    -0.361 OA
HETATM   20  C18 UNL     1      39.466 -20.255  -1.870  1.00  0.00     0.127 C 
HETATM   21  C19 UNL     1      40.005 -18.940  -1.513  1.00  0.00     0.052 C 
ENDROOT
BRANCH   1  22
HETATM   22  O2  UNL     1      39.991 -22.481  -1.887  1.00  0.00    -0.299 OA
BRANCH  22  23
HETATM   23  C2  UNL     1      40.574 -23.637  -1.579  1.00  0.00     0.255 C 
HETATM   24  C1  UNL     1      40.826 -24.108  -0.202  1.00  0.00     0.126 C 
HETATM   25  O1  UNL     1      40.921 -24.349  -2.528  1.00  0.00    -0.266 OA
ENDBRANCH  22  23
ENDBRANCH   1  22
BRANCH  13  26
HETATM   26  O5  UNL     1      40.297 -22.255  -4.704  1.00  0.00    -0.340 OA
ATOM     27  H5  UNL     1      40.298 -22.083  -5.639  1.00  0.00     0.215 HD
ENDBRANCH  13  26
BRANCH  11  28
HETATM   28  O3  UNL     1      39.037 -19.245  -6.512  1.00  0.00    -0.340 OA
ATOM     29  H3  UNL     1      38.771 -18.413  -6.138  1.00  0.00     0.220 HD
ENDBRANCH  11  28
TORSDOF 4
ENDMDL
MODEL 5
REMARK VINA RESULT: -6.830052272      2.510      3.715
REMARK  4 active torsions:
REMARK  status: ('A' for Active; 'I' for Inactive)
REMARK    1  A    between atoms: C2_2  and  O2_4 
REMARK    2  A    between atoms: O2_4  and  C3_5 
REMARK    3  A    between atoms: C12_15  and  O3_16 
REMARK    4  A    between atoms: C13_19  and  O5_20 
ROOT
HETATM    1  C3  UNL     1      42.058 -20.815  -2.706  1.00  0.00     0.188 C 
HETATM    2  C4  UNL     1      42.374 -20.595  -4.093  1.00  0.00     0.051 C 
HETATM    3  C5  UNL     1      43.695 -20.815  -4.690  1.00  0.00     0.007 C 
HETATM    4  C6  UNL     1      44.512 -19.525  -4.779  1.00  0.00    -0.018 C 
HETATM    5  C7  UNL     1      44.000 -18.769  -5.983  1.00  0.00     0.010 C 
HETATM    6  C8  UNL     1      45.960 -19.833  -4.931  1.00  0.00     0.008 C 
HETATM    7  C9  UNL     1      46.619 -20.400  -3.716  1.00  0.00     0.029 C 
HETATM    8  C10 UNL     1      46.782 -19.443  -2.604  1.00  0.00     0.002 C 
HETATM    9  C11 UNL     1      46.249 -19.560  -1.393  1.00  0.00     0.088 C 
HETATM   10 CL1  UNL     1      46.565 -18.294  -0.171  1.00  0.00    -0.080 Cl
HETATM   11  C12 UNL     1      45.399 -20.660  -0.943  1.00  0.00     0.204 C 
HETATM   12  O4  UNL     1      44.224 -21.072  -1.555  1.00  0.00    -0.264 OA
HETATM   13  C13 UNL     1      42.993 -20.454  -1.610  1.00  0.00     0.324 C 
HETATM   14  O6  UNL     1      42.250 -21.023  -0.524  1.00  0.00    -0.318 OA
HETATM   15  C14 UNL     1      42.224 -22.365  -0.896  1.00  0.00     0.199 C 
HETATM   16  C15 UNL     1      40.873 -22.957  -0.688  1.00  0.00     0.084 C 
HETATM   17  C16 UNL     1      39.954 -22.187   0.238  1.00  0.00     0.048 C 
HETATM   18  C17 UNL     1      40.843 -24.425  -0.330  1.00  0.00     0.048 C 
HETATM   19  O7  UNL     1      40.631 -22.742  -2.053  1.00  0.00    -0.361 OA
HETATM   20  C18 UNL     1      41.926 -22.319  -2.367  1.00  0.00     0.127 C 
HETATM   21  C19 UNL     1      42.601 -23.280  -3.243  1.00  0.00     0.052 C 
ENDROOT
BRANCH   1  22
HETATM   22  O2  UNL     1      40.792 -20.333  -2.391  1.00  0.00    -0.299 OA
BRANCH  22  23
HETATM   23  C2  UNL     1      40.091 -19.269  -2.775  1.00  0.00     0.255 C 
HETATM   24  C1  UNL     1      39.217 -19.226  -3.965  1.00  0.00     0.126 C 
HETATM   25  O1  UNL     1      40.194 -18.258  -2.072  1.00  0.00    -0.266 OA
ENDBRANCH  22  23
ENDBRANCH   1  22
BRANCH  13  26
HETATM   26  O5  UNL     1      43.122 -19.137  -1.286  1.00  0.00    -0.340 OA
ATOM     27  H5  UNL     1      43.822 -18.890  -0.693  1.00  0.00     0.215 HD
ENDBRANCH  13  26
BRANCH  11  28
HETATM   28  O3  UNL     1      45.850 -21.253   0.127  1.00  0.00    -0.340 OA
ATOM     29  H3  UNL     1      45.167 -21.473   0.749  1.00  0.00     0.220 HD
ENDBRANCH  11  28
TORSDOF 4
ENDMDL
