MODEL 1
REMARK VINA RESULT: -9.099155045      0.000      0.000
REMARK  1 active torsions:
REMARK  status: ('A' for Active; 'I' for Inactive)
REMARK    1  A    between atoms: C4_4  and  O1_5 
ROOT
HETATM    1  C1  UNL     1      36.304 -22.722  -2.693  1.00  0.00     0.047 C 
HETATM    2  C2  UNL     1      37.017 -21.472  -3.201  1.00  0.00     0.068 A 
HETATM    3  C3  UNL     1      36.656 -21.227  -4.623  1.00  0.00     0.073 C 
HETATM    4  C4  UNL     1      37.363 -20.075  -5.260  1.00  0.00     0.156 C 
HETATM    5  C5  UNL     1      38.709 -20.356  -5.789  1.00  0.00     0.103 C 
HETATM    6  C6  UNL     1      38.723 -21.747  -6.389  1.00  0.00     0.050 C 
HETATM    7  O2  UNL     1      38.948 -19.455  -6.885  1.00  0.00    -0.319 OA
HETATM    8  C7  UNL     1      40.332 -19.385  -7.017  1.00  0.00     0.174 A 
HETATM    9  N1  UNL     1      41.303 -19.045  -7.876  1.00  0.00    -0.237 N 
ATOM     10  H1  UNL     1      41.157 -18.688  -8.820  1.00  0.00     0.197 HD
HETATM   11  O3  UNL     1      42.456 -19.240  -7.317  1.00  0.00    -0.223 OA
HETATM   12  C8  UNL     1      42.307 -19.703  -6.103  1.00  0.00     0.179 A 
HETATM   13 CL1  UNL     1      43.513 -20.136  -4.916  1.00  0.00    -0.054 Cl
HETATM   14  C9  UNL     1      40.943 -19.810  -5.874  1.00  0.00     0.053 A 
HETATM   15  C10 UNL     1      39.869 -20.189  -4.914  1.00  0.00     0.086 C 
HETATM   16  C11 UNL     1      39.753 -19.147  -3.870  1.00  0.00    -0.015 C 
HETATM   17  C12 UNL     1      39.157 -19.275  -2.714  1.00  0.00     0.011 C 
HETATM   18  C13 UNL     1      38.463 -20.446  -2.159  1.00  0.00     0.119 A 
HETATM   19  O4  UNL     1      38.366 -21.541  -2.961  1.00  0.00    -0.361 OA
HETATM   20  C14 UNL     1      36.936 -20.307  -2.259  1.00  0.00     0.062 A 
HETATM   21  C15 UNL     1      36.399 -20.639  -0.899  1.00  0.00     0.014 C 
HETATM   22  C16 UNL     1      37.523 -20.235   0.031  1.00  0.00     0.044 C 
HETATM   23  C17 UNL     1      38.756 -20.680  -0.698  1.00  0.00     0.117 C 
HETATM   24  C18 UNL     1      39.901 -19.778  -0.289  1.00  0.00     0.209 C 
HETATM   25  O5  UNL     1      40.507 -20.194   0.895  1.00  0.00    -0.386 OA
HETATM   26  C19 UNL     1      41.060 -21.454   0.787  1.00  0.00     0.194 C 
HETATM   27  C20 UNL     1      40.449 -22.224  -0.372  1.00  0.00     0.195 C 
HETATM   28  O6  UNL     1      39.074 -22.016  -0.447  1.00  0.00    -0.372 OA
ENDROOT
BRANCH   4  29
HETATM   29  O1  UNL     1      36.568 -19.740  -6.393  1.00  0.00    -0.392 OA
ATOM     30  H1  UNL     1      36.984 -20.186  -7.122  1.00  0.00     0.210 HD
ENDBRANCH   4  29
TORSDOF 1
ENDMDL
MODEL 2
REMARK VINA RESULT: -9.098589532      3.044      5.471
REMARK  1 active torsions:
REMARK  status: ('A' for Active; 'I' for Inactive)
REMARK    1  A    between atoms: C4_4  and  O1_5 
ROOT
HETATM    1  C1  UNL     1      39.753 -20.664  -0.715  1.00  0.00     0.047 C 
HETATM    2  C2  UNL     1      40.799 -21.163  -1.708  1.00  0.00     0.068 A 
HETATM    3  C3  UNL     1      42.110 -21.326  -1.023  1.00  0.00     0.073 C 
HETATM    4  C4  UNL     1      43.239 -21.728  -1.915  1.00  0.00     0.156 C 
HETATM    5  C5  UNL     1      43.906 -20.636  -2.644  1.00  0.00     0.103 C 
HETATM    6  C6  UNL     1      43.977 -19.416  -1.749  1.00  0.00     0.050 C 
HETATM    7  O2  UNL     1      45.270 -21.031  -2.875  1.00  0.00    -0.319 OA
HETATM    8  C7  UNL     1      45.704 -20.264  -3.953  1.00  0.00     0.174 A 
HETATM    9  N1  UNL     1      46.810 -19.829  -4.572  1.00  0.00    -0.237 N 
ATOM     10  H1  UNL     1      47.766 -20.038  -4.286  1.00  0.00     0.197 HD
HETATM   11  O3  UNL     1      46.473 -19.101  -5.590  1.00  0.00    -0.223 OA
HETATM   12  C8  UNL     1      45.170 -19.024  -5.689  1.00  0.00     0.179 A 
HETATM   13 CL1  UNL     1      44.187 -18.182  -6.862  1.00  0.00    -0.054 Cl
HETATM   14  C9  UNL     1      44.639 -19.766  -4.645  1.00  0.00     0.053 A 
HETATM   15  C10 UNL     1      43.406 -20.248  -3.963  1.00  0.00     0.086 C 
HETATM   16  C11 UNL     1      42.787 -21.323  -4.768  1.00  0.00    -0.015 C 
HETATM   17  C12 UNL     1      41.561 -21.762  -4.658  1.00  0.00     0.011 C 
HETATM   18  C13 UNL     1      40.502 -21.323  -3.736  1.00  0.00     0.119 A 
HETATM   19  O4  UNL     1      40.837 -20.369  -2.826  1.00  0.00    -0.361 OA
HETATM   20  C14 UNL     1      40.323 -22.299  -2.565  1.00  0.00     0.062 A 
HETATM   21  C15 UNL     1      38.853 -22.576  -2.475  1.00  0.00     0.014 C 
HETATM   22  C16 UNL     1      38.376 -22.406  -3.902  1.00  0.00     0.044 C 
HETATM   23  C17 UNL     1      39.147 -21.214  -4.388  1.00  0.00     0.117 C 
HETATM   24  C18 UNL     1      39.323 -21.342  -5.886  1.00  0.00     0.209 C 
HETATM   25  O5  UNL     1      38.224 -20.861  -6.593  1.00  0.00    -0.386 OA
HETATM   26  C19 UNL     1      38.001 -19.517  -6.368  1.00  0.00     0.194 C 
HETATM   27  C20 UNL     1      38.669 -19.060  -5.081  1.00  0.00     0.195 C 
HETATM   28  O6  UNL     1      38.521 -20.007  -4.072  1.00  0.00    -0.372 OA
ENDROOT
BRANCH   4  29
HETATM   29  O1  UNL     1      44.224 -22.263  -1.038  1.00  0.00    -0.392 OA
ATOM     30  H1  UNL     1      44.511 -21.524  -0.515  1.00  0.00     0.210 HD
ENDBRANCH   4  29
TORSDOF 1
ENDMDL
MODEL 3
REMARK VINA RESULT: -8.994824875      2.248      3.786
REMARK  1 active torsions:
REMARK  status: ('A' for Active; 'I' for Inactive)
REMARK    1  A    between atoms: C4_4  and  O1_5 
ROOT
HETATM    1  C1  UNL     1      38.839 -21.924  -6.710  1.00  0.00     0.047 C 
HETATM    2  C2  UNL     1      39.743 -20.862  -6.090  1.00  0.00     0.068 A 
HETATM    3  C3  UNL     1      40.468 -20.127  -7.162  1.00  0.00     0.073 C 
HETATM    4  C4  UNL     1      41.454 -19.116  -6.674  1.00  0.00     0.156 C 
HETATM    5  C5  UNL     1      42.784 -19.634  -6.313  1.00  0.00     0.103 C 
HETATM    6  C6  UNL     1      43.166 -20.734  -7.282  1.00  0.00     0.050 C 
HETATM    7  O2  UNL     1      43.738 -18.579  -6.524  1.00  0.00    -0.319 OA
HETATM    8  C7  UNL     1      44.835 -18.901  -5.729  1.00  0.00     0.174 A 
HETATM    9  N1  UNL     1      46.140 -18.646  -5.562  1.00  0.00    -0.237 N 
ATOM     10  H1  UNL     1      46.694 -18.011  -6.135  1.00  0.00     0.197 HD
HETATM   11  O3  UNL     1      46.585 -19.333  -4.558  1.00  0.00    -0.223 OA
HETATM   12  C8  UNL     1      45.628 -20.052  -4.030  1.00  0.00     0.179 A 
HETATM   13 CL1  UNL     1      45.672 -21.149  -2.672  1.00  0.00    -0.054 Cl
HETATM   14  C9  UNL     1      44.478 -19.796  -4.763  1.00  0.00     0.053 A 
HETATM   15  C10 UNL     1      43.028 -20.083  -4.942  1.00  0.00     0.086 C 
HETATM   16  C11 UNL     1      42.256 -19.395  -3.884  1.00  0.00    -0.015 C 
HETATM   17  C12 UNL     1      41.025 -19.655  -3.533  1.00  0.00     0.011 C 
HETATM   18  C13 UNL     1      40.104 -20.665  -4.076  1.00  0.00     0.119 A 
HETATM   19  O4  UNL     1      40.553 -21.404  -5.126  1.00  0.00    -0.361 OA
HETATM   20  C14 UNL     1      39.071 -20.043  -5.027  1.00  0.00     0.062 A 
HETATM   21  C15 UNL     1      37.735 -20.565  -4.589  1.00  0.00     0.014 C 
HETATM   22  C16 UNL     1      37.922 -20.803  -3.105  1.00  0.00     0.044 C 
HETATM   23  C17 UNL     1      39.304 -21.379  -3.015  1.00  0.00     0.117 C 
HETATM   24  C18 UNL     1      39.879 -21.024  -1.661  1.00  0.00     0.209 C 
HETATM   25  O5  UNL     1      39.491 -21.921  -0.669  1.00  0.00    -0.386 OA
HETATM   26  C19 UNL     1      39.928 -23.206  -0.922  1.00  0.00     0.194 C 
HETATM   27  C20 UNL     1      40.260 -23.392  -2.393  1.00  0.00     0.195 C 
HETATM   28  O6  UNL     1      39.321 -22.762  -3.206  1.00  0.00    -0.372 OA
ENDROOT
BRANCH   4  29
HETATM   29  O1  UNL     1      41.667 -18.249  -7.782  1.00  0.00    -0.392 OA
ATOM     30  H1  UNL     1      41.163 -18.632  -8.491  1.00  0.00     0.210 HD
ENDBRANCH   4  29
TORSDOF 1
ENDMDL
MODEL 4
REMARK VINA RESULT: -8.701471979      2.580      4.507
REMARK  1 active torsions:
REMARK  status: ('A' for Active; 'I' for Inactive)
REMARK    1  A    between atoms: C4_4  and  O1_5 
ROOT
HETATM    1  C1  UNL     1      38.978 -22.078  -7.244  1.00  0.00     0.047 C 
HETATM    2  C2  UNL     1      39.521 -21.027  -6.279  1.00  0.00     0.068 A 
HETATM    3  C3  UNL     1      40.836 -20.528  -6.762  1.00  0.00     0.073 C 
HETATM    4  C4  UNL     1      41.511 -19.554  -5.852  1.00  0.00     0.156 C 
HETATM    5  C5  UNL     1      42.290 -20.138  -4.747  1.00  0.00     0.103 C 
HETATM    6  C6  UNL     1      42.974 -21.397  -5.235  1.00  0.00     0.050 C 
HETATM    7  O2  UNL     1      43.348 -19.219  -4.421  1.00  0.00    -0.319 OA
HETATM    8  C7  UNL     1      43.721 -19.525  -3.115  1.00  0.00     0.174 A 
HETATM    9  N1  UNL     1      44.714 -19.372  -2.229  1.00  0.00    -0.237 N 
ATOM     10  H1  UNL     1      45.591 -18.883  -2.405  1.00  0.00     0.197 HD
HETATM   11  O3  UNL     1      44.386 -19.946  -1.114  1.00  0.00    -0.223 OA
HETATM   12  C8  UNL     1      43.198 -20.487  -1.207  1.00  0.00     0.179 A 
HETATM   13 CL1  UNL     1      42.278 -21.375  -0.017  1.00  0.00    -0.054 Cl
HETATM   14  C9  UNL     1      42.736 -20.233  -2.490  1.00  0.00     0.053 A 
HETATM   15  C10 UNL     1      41.627 -20.405  -3.469  1.00  0.00     0.086 C 
HETATM   16  C11 UNL     1      40.512 -19.501  -3.112  1.00  0.00    -0.015 C 
HETATM   17  C12 UNL     1      39.279 -19.589  -3.537  1.00  0.00     0.011 C 
HETATM   18  C13 UNL     1      38.688 -20.576  -4.454  1.00  0.00     0.119 A 
HETATM   19  O4  UNL     1      39.531 -21.499  -4.991  1.00  0.00    -0.361 OA
HETATM   20  C14 UNL     1      38.504 -20.004  -5.867  1.00  0.00     0.062 A 
HETATM   21  C15 UNL     1      37.095 -20.328  -6.266  1.00  0.00     0.014 C 
HETATM   22  C16 UNL     1      36.356 -20.365  -4.946  1.00  0.00     0.044 C 
HETATM   23  C17 UNL     1      37.322 -21.050  -4.024  1.00  0.00     0.117 C 
HETATM   24  C18 UNL     1      37.065 -20.558  -2.616  1.00  0.00     0.209 C 
HETATM   25  O5  UNL     1      36.040 -21.262  -1.988  1.00  0.00    -0.386 OA
HETATM   26  C19 UNL     1      36.328 -22.605  -1.855  1.00  0.00     0.194 C 
HETATM   27  C20 UNL     1      37.409 -23.033  -2.835  1.00  0.00     0.195 C 
HETATM   28  O6  UNL     1      37.222 -22.441  -4.082  1.00  0.00    -0.372 OA
ENDROOT
BRANCH   4  29
HETATM   29  O1  UNL     1      42.458 -18.881  -6.675  1.00  0.00    -0.392 OA
ATOM     30  H1  UNL     1      42.000 -18.721  -7.491  1.00  0.00     0.210 HD
ENDBRANCH   4  29
TORSDOF 1
ENDMDL
MODEL 5
REMARK VINA RESULT: -8.639471651      3.110      6.744
REMARK  1 active torsions:
REMARK  status: ('A' for Active; 'I' for Inactive)
REMARK    1  A    between atoms: C4_4  and  O1_5 
ROOT
HETATM    1  C1  UNL     1      42.751 -22.358  -4.272  1.00  0.00     0.047 C 
HETATM    2  C2  UNL     1      42.091 -21.268  -3.432  1.00  0.00     0.068 A 
HETATM    3  C3  UNL     1      42.676 -21.259  -2.064  1.00  0.00     0.073 C 
HETATM    4  C4  UNL     1      42.047 -20.288  -1.119  1.00  0.00     0.156 C 
HETATM    5  C5  UNL     1      40.819 -20.746  -0.446  1.00  0.00     0.103 C 
HETATM    6  C6  UNL     1      40.953 -22.220  -0.122  1.00  0.00     0.050 C 
HETATM    7  O2  UNL     1      40.737 -20.074   0.823  1.00  0.00    -0.319 OA
HETATM    8  C7  UNL     1      39.393 -20.118   1.184  1.00  0.00     0.174 A 
HETATM    9  N1  UNL     1      38.569 -20.000   2.233  1.00  0.00    -0.237 N 
ATOM     10  H1  UNL     1      38.858 -19.810   3.192  1.00  0.00     0.197 HD
HETATM   11  O3  UNL     1      37.345 -20.166   1.838  1.00  0.00    -0.223 OA
HETATM   12  C8  UNL     1      37.304 -20.393   0.550  1.00  0.00     0.179 A 
HETATM   13 CL1  UNL     1      35.932 -20.683  -0.490  1.00  0.00    -0.054 Cl
HETATM   14  C9  UNL     1      38.613 -20.369   0.093  1.00  0.00     0.053 A 
HETATM   15  C10 UNL     1      39.524 -20.499  -1.079  1.00  0.00     0.086 C 
HETATM   16  C11 UNL     1      39.428 -19.282  -1.914  1.00  0.00    -0.015 C 
HETATM   17  C12 UNL     1      39.826 -19.162  -3.153  1.00  0.00     0.011 C 
HETATM   18  C13 UNL     1      40.457 -20.167  -4.021  1.00  0.00     0.119 A 
HETATM   19  O4  UNL     1      40.724 -21.379  -3.464  1.00  0.00    -0.361 OA
HETATM   20  C14 UNL     1      41.973 -19.950  -4.140  1.00  0.00     0.062 A 
HETATM   21  C15 UNL     1      42.286 -19.998  -5.605  1.00  0.00     0.014 C 
HETATM   22  C16 UNL     1      41.009 -19.506  -6.253  1.00  0.00     0.044 C 
HETATM   23  C17 UNL     1      39.931 -20.154  -5.435  1.00  0.00     0.117 C 
HETATM   24  C18 UNL     1      38.704 -19.268  -5.481  1.00  0.00     0.209 C 
HETATM   25  O5  UNL     1      37.923 -19.503  -6.610  1.00  0.00    -0.386 OA
HETATM   26  C19 UNL     1      37.439 -20.795  -6.655  1.00  0.00     0.194 C 
HETATM   27  C20 UNL     1      38.261 -21.719  -5.772  1.00  0.00     0.195 C 
HETATM   28  O6  UNL     1      39.621 -21.440  -5.878  1.00  0.00    -0.372 OA
ENDROOT
BRANCH   4  29
HETATM   29  O1  UNL     1      43.008 -20.112  -0.084  1.00  0.00    -0.392 OA
ATOM     30  H1  UNL     1      42.606 -19.499   0.520  1.00  0.00     0.210 HD
ENDBRANCH   4  29
TORSDOF 1
ENDMDL
