MODEL 1
REMARK VINA RESULT: -7.448176255      0.000      0.000
REMARK  7 active torsions:
REMARK  status: ('A' for Active; 'I' for Inactive)
REMARK    1  A    between atoms: C3_3  and  C4_4 
REMARK    2  A    between atoms: C4_4  and  O2_6 
REMARK    3  A    between atoms: O2_6  and  C5_7 
REMARK    4  A    between atoms: C16_20  and  O5_21 
REMARK    5  A    between atoms: C16_20  and  C17_23 
REMARK    6  A    between atoms: C17_23  and  O6_24 
REMARK    7  A    between atoms: O6_24  and  C18_25 
ROOT
HETATM    1  C5  UNL     1       5.688  45.063  21.858  1.00  0.00     0.161 C 
HETATM    2  C6  UNL     1       5.457  46.468  22.237  1.00  0.00     0.211 C 
HETATM    3  O3  UNL     1       5.828  47.444  21.290  1.00  0.00    -0.315 OA
HETATM    4  C7  UNL     1       6.080  47.235  19.941  1.00  0.00     0.289 C 
HETATM    5  O4  UNL     1       7.076  47.934  19.534  1.00  0.00    -0.260 OA
HETATM    6  C8  UNL     1       5.412  46.386  18.999  1.00  0.00     0.048 C 
HETATM    7  C9  UNL     1       5.410  44.910  19.342  1.00  0.00     0.034 C 
HETATM    8  C10 UNL     1       5.803  43.976  18.249  1.00  0.00     0.037 C 
HETATM    9  C11 UNL     1       4.737  43.416  17.373  1.00  0.00    -0.023 C 
HETATM   10  C12 UNL     1       3.594  43.785  16.734  1.00  0.00    -0.077 C 
HETATM   11  C13 UNL     1       2.917  42.760  15.968  1.00  0.00     0.044 C 
HETATM   12  C14 UNL     1       2.886  45.167  16.709  1.00  0.00     0.117 C 
HETATM   13  C15 UNL     1       3.596  45.978  17.582  1.00  0.00    -0.134 C 
HETATM   14  C16 UNL     1       4.084  46.945  18.509  1.00  0.00     0.162 C 
HETATM   15  C20 UNL     1       6.405  44.843  20.525  1.00  0.00     0.022 C 
HETATM   16  C21 UNL     1       7.015  43.463  20.654  1.00  0.00     0.013 C 
ENDROOT
BRANCH  14  17
HETATM   17  O5  UNL     1       3.258  47.193  19.601  1.00  0.00    -0.372 OA
ATOM     18  H5  UNL     1       2.439  46.725  19.489  1.00  0.00     0.212 HD
ENDBRANCH  14  17
BRANCH  14  19
HETATM   19  C17 UNL     1       4.327  48.236  17.780  1.00  0.00     0.234 C 
BRANCH  19  20
HETATM   20  O6  UNL     1       3.278  49.035  17.425  1.00  0.00    -0.317 OA
BRANCH  20  21
HETATM   21  C18 UNL     1       2.729  49.324  16.212  1.00  0.00     0.254 C 
HETATM   22  C19 UNL     1       2.917  50.721  15.694  1.00  0.00     0.126 C 
HETATM   23  O7  UNL     1       2.112  48.460  15.589  1.00  0.00    -0.266 OA
ENDBRANCH  20  21
ENDBRANCH  19  20
ENDBRANCH  14  19
BRANCH   1  24
HETATM   24  O2  UNL     1       6.255  44.337  22.905  1.00  0.00    -0.310 OA
BRANCH  24  25
HETATM   25  C4  UNL     1       5.508  43.773  23.903  1.00  0.00     0.283 C 
HETATM   26  O1  UNL     1       5.745  44.163  25.079  1.00  0.00    -0.260 OA
BRANCH  25  27
HETATM   27  C3  UNL     1       4.493  42.773  23.606  1.00  0.00     0.077 C 
HETATM   28  C2  UNL     1       3.206  43.071  23.590  1.00  0.00    -0.025 C 
HETATM   29  C1  UNL     1       2.688  44.433  23.868  1.00  0.00     0.036 C 
ENDBRANCH  25  27
ENDBRANCH  24  25
ENDBRANCH   1  24
TORSDOF 7
ENDMDL
MODEL 2
REMARK VINA RESULT: -6.957058466      2.342      3.701
REMARK  7 active torsions:
REMARK  status: ('A' for Active; 'I' for Inactive)
REMARK    1  A    between atoms: C3_3  and  C4_4 
REMARK    2  A    between atoms: C4_4  and  O2_6 
REMARK    3  A    between atoms: O2_6  and  C5_7 
REMARK    4  A    between atoms: C16_20  and  O5_21 
REMARK    5  A    between atoms: C16_20  and  C17_23 
REMARK    6  A    between atoms: C17_23  and  O6_24 
REMARK    7  A    between atoms: O6_24  and  C18_25 
ROOT
HETATM    1  C5  UNL     1       5.251  42.919  22.481  1.00  0.00     0.161 C 
HETATM    2  C6  UNL     1       5.742  43.897  23.467  1.00  0.00     0.211 C 
HETATM    3  O3  UNL     1       6.799  44.731  23.053  1.00  0.00    -0.315 OA
HETATM    4  C7  UNL     1       7.210  44.960  21.746  1.00  0.00     0.289 C 
HETATM    5  O4  UNL     1       8.489  45.018  21.659  1.00  0.00    -0.260 OA
HETATM    6  C8  UNL     1       6.436  45.127  20.552  1.00  0.00     0.048 C 
HETATM    7  C9  UNL     1       5.546  43.955  20.185  1.00  0.00     0.034 C 
HETATM    8  C10 UNL     1       5.613  43.491  18.771  1.00  0.00     0.037 C 
HETATM    9  C11 UNL     1       4.661  44.071  17.784  1.00  0.00    -0.023 C 
HETATM   10  C12 UNL     1       4.098  45.259  17.435  1.00  0.00    -0.077 C 
HETATM   11  C13 UNL     1       3.177  45.239  16.318  1.00  0.00     0.044 C 
HETATM   12  C14 UNL     1       4.290  46.662  18.073  1.00  0.00     0.117 C 
HETATM   13  C15 UNL     1       5.093  46.471  19.186  1.00  0.00    -0.134 C 
HETATM   14  C16 UNL     1       5.792  46.499  20.429  1.00  0.00     0.162 C 
HETATM   15  C20 UNL     1       6.025  42.856  21.164  1.00  0.00     0.022 C 
HETATM   16  C21 UNL     1       5.731  41.473  20.624  1.00  0.00     0.013 C 
ENDROOT
BRANCH  14  17
HETATM   17  O5  UNL     1       5.003  46.740  21.550  1.00  0.00    -0.372 OA
ATOM     18  H5  UNL     1       4.121  46.958  21.273  1.00  0.00     0.212 HD
ENDBRANCH  14  17
BRANCH  14  19
HETATM   19  C17 UNL     1       6.866  47.547  20.357  1.00  0.00     0.234 C 
BRANCH  19  20
HETATM   20  O6  UNL     1       6.672  48.774  20.924  1.00  0.00    -0.317 OA
BRANCH  20  21
HETATM   21  C18 UNL     1       6.945  49.250  22.171  1.00  0.00     0.254 C 
HETATM   22  C19 UNL     1       7.540  48.284  23.154  1.00  0.00     0.126 C 
HETATM   23  O7  UNL     1       6.705  50.424  22.453  1.00  0.00    -0.266 OA
ENDBRANCH  20  21
ENDBRANCH  19  20
ENDBRANCH  14  19
BRANCH   1  24
HETATM   24  O2  UNL     1       5.059  41.663  23.057  1.00  0.00    -0.310 OA
BRANCH  24  25
HETATM   25  C4  UNL     1       4.042  41.400  23.933  1.00  0.00     0.283 C 
HETATM   26  O1  UNL     1       4.354  41.302  25.152  1.00  0.00    -0.260 OA
BRANCH  25  27
HETATM   27  C3  UNL     1       2.673  41.242  23.467  1.00  0.00     0.077 C 
HETATM   28  C2  UNL     1       1.785  42.216  23.571  1.00  0.00    -0.025 C 
HETATM   29  C1  UNL     1       2.103  43.539  24.163  1.00  0.00     0.036 C 
ENDBRANCH  25  27
ENDBRANCH  24  25
ENDBRANCH   1  24
TORSDOF 7
ENDMDL
MODEL 3
REMARK VINA RESULT: -6.923519826      1.274      2.027
REMARK  7 active torsions:
REMARK  status: ('A' for Active; 'I' for Inactive)
REMARK    1  A    between atoms: C3_3  and  C4_4 
REMARK    2  A    between atoms: C4_4  and  O2_6 
REMARK    3  A    between atoms: O2_6  and  C5_7 
REMARK    4  A    between atoms: C16_20  and  O5_21 
REMARK    5  A    between atoms: C16_20  and  C17_23 
REMARK    6  A    between atoms: C17_23  and  O6_24 
REMARK    7  A    between atoms: O6_24  and  C18_25 
ROOT
HETATM    1  C5  UNL     1       5.717  45.056  21.851  1.00  0.00     0.161 C 
HETATM    2  C6  UNL     1       5.482  46.459  22.236  1.00  0.00     0.211 C 
HETATM    3  O3  UNL     1       5.845  47.439  21.291  1.00  0.00    -0.315 OA
HETATM    4  C7  UNL     1       6.091  47.235  19.940  1.00  0.00     0.289 C 
HETATM    5  O4  UNL     1       7.083  47.941  19.531  1.00  0.00    -0.260 OA
HETATM    6  C8  UNL     1       5.423  46.388  18.998  1.00  0.00     0.048 C 
HETATM    7  C9  UNL     1       5.429  44.910  19.335  1.00  0.00     0.034 C 
HETATM    8  C10 UNL     1       5.820  43.982  18.237  1.00  0.00     0.037 C 
HETATM    9  C11 UNL     1       4.753  43.421  17.364  1.00  0.00    -0.023 C 
HETATM   10  C12 UNL     1       3.605  43.787  16.732  1.00  0.00    -0.077 C 
HETATM   11  C13 UNL     1       2.928  42.762  15.966  1.00  0.00     0.044 C 
HETATM   12  C14 UNL     1       2.892  45.167  16.715  1.00  0.00     0.117 C 
HETATM   13  C15 UNL     1       3.602  45.977  17.588  1.00  0.00    -0.134 C 
HETATM   14  C16 UNL     1       4.091  46.942  18.516  1.00  0.00     0.162 C 
HETATM   15  C20 UNL     1       6.429  44.843  20.514  1.00  0.00     0.022 C 
HETATM   16  C21 UNL     1       7.045  43.465  20.635  1.00  0.00     0.013 C 
ENDROOT
BRANCH  14  17
HETATM   17  O5  UNL     1       3.269  47.183  19.613  1.00  0.00    -0.372 OA
ATOM     18  H5  UNL     1       3.048  46.358  20.028  1.00  0.00     0.212 HD
ENDBRANCH  14  17
BRANCH  14  19
HETATM   19  C17 UNL     1       4.325  48.237  17.790  1.00  0.00     0.234 C 
BRANCH  19  20
HETATM   20  O6  UNL     1       3.271  49.031  17.438  1.00  0.00    -0.317 OA
BRANCH  20  21
HETATM   21  C18 UNL     1       2.718  49.319  16.227  1.00  0.00     0.254 C 
HETATM   22  C19 UNL     1       2.895  50.719  15.713  1.00  0.00     0.126 C 
HETATM   23  O7  UNL     1       2.107  48.453  15.602  1.00  0.00    -0.266 OA
ENDBRANCH  20  21
ENDBRANCH  19  20
ENDBRANCH  14  19
BRANCH   1  24
HETATM   24  O2  UNL     1       6.292  44.328  22.893  1.00  0.00    -0.310 OA
BRANCH  24  25
HETATM   25  C4  UNL     1       7.075  44.907  23.853  1.00  0.00     0.283 C 
HETATM   26  O1  UNL     1       6.589  44.980  25.015  1.00  0.00    -0.260 OA
BRANCH  25  27
HETATM   27  C3  UNL     1       8.403  45.409  23.536  1.00  0.00     0.077 C 
HETATM   28  C2  UNL     1       9.452  44.609  23.461  1.00  0.00    -0.025 C 
HETATM   29  C1  UNL     1       9.368  43.145  23.691  1.00  0.00     0.036 C 
ENDBRANCH  25  27
ENDBRANCH  24  25
ENDBRANCH   1  24
TORSDOF 7
ENDMDL
MODEL 4
REMARK VINA RESULT: -6.692896865      1.046      1.110
REMARK  7 active torsions:
REMARK  status: ('A' for Active; 'I' for Inactive)
REMARK    1  A    between atoms: C3_3  and  C4_4 
REMARK    2  A    between atoms: C4_4  and  O2_6 
REMARK    3  A    between atoms: O2_6  and  C5_7 
REMARK    4  A    between atoms: C16_20  and  O5_21 
REMARK    5  A    between atoms: C16_20  and  C17_23 
REMARK    6  A    between atoms: C17_23  and  O6_24 
REMARK    7  A    between atoms: O6_24  and  C18_25 
ROOT
HETATM    1  C5  UNL     1       5.278  44.658  22.473  1.00  0.00     0.161 C 
HETATM    2  C6  UNL     1       5.276  46.091  22.816  1.00  0.00     0.211 C 
HETATM    3  O3  UNL     1       6.019  46.940  21.973  1.00  0.00    -0.315 OA
HETATM    4  C7  UNL     1       6.479  46.644  20.697  1.00  0.00     0.289 C 
HETATM    5  O4  UNL     1       7.658  47.111  20.502  1.00  0.00    -0.260 OA
HETATM    6  C8  UNL     1       5.845  45.924  19.632  1.00  0.00     0.048 C 
HETATM    7  C9  UNL     1       5.470  44.490  19.950  1.00  0.00     0.034 C 
HETATM    8  C10 UNL     1       5.864  43.464  18.944  1.00  0.00     0.037 C 
HETATM    9  C11 UNL     1       4.896  43.111  17.869  1.00  0.00    -0.023 C 
HETATM   10  C12 UNL     1       4.002  43.689  17.023  1.00  0.00    -0.077 C 
HETATM   11  C13 UNL     1       3.288  42.804  16.127  1.00  0.00     0.044 C 
HETATM   12  C14 UNL     1       3.616  45.186  16.876  1.00  0.00     0.117 C 
HETATM   13  C15 UNL     1       4.295  45.858  17.881  1.00  0.00    -0.134 C 
HETATM   14  C16 UNL     1       4.784  46.730  18.898  1.00  0.00     0.162 C 
HETATM   15  C20 UNL     1       6.180  44.255  21.305  1.00  0.00     0.022 C 
HETATM   16  C21 UNL     1       6.452  42.783  21.534  1.00  0.00     0.013 C 
ENDROOT
BRANCH  14  17
HETATM   17  O5  UNL     1       3.832  47.175  19.809  1.00  0.00    -0.372 OA
ATOM     18  H5  UNL     1       2.963  46.974  19.481  1.00  0.00     0.212 HD
ENDBRANCH  14  17
BRANCH  14  19
HETATM   19  C17 UNL     1       5.427  47.921  18.246  1.00  0.00     0.234 C 
BRANCH  19  20
HETATM   20  O6  UNL     1       4.794  49.131  18.242  1.00  0.00    -0.317 OA
BRANCH  20  21
HETATM   21  C18 UNL     1       3.833  49.649  17.428  1.00  0.00     0.254 C 
HETATM   22  C19 UNL     1       4.060  51.036  16.902  1.00  0.00     0.126 C 
HETATM   23  O7  UNL     1       2.832  48.987  17.152  1.00  0.00    -0.266 OA
ENDBRANCH  20  21
ENDBRANCH  19  20
ENDBRANCH  14  19
BRANCH   1  24
HETATM   24  O2  UNL     1       5.468  43.861  23.603  1.00  0.00    -0.310 OA
BRANCH  24  25
HETATM   25  C4  UNL     1       4.427  43.375  24.346  1.00  0.00     0.283 C 
HETATM   26  O1  UNL     1       4.367  43.748  25.550  1.00  0.00    -0.260 OA
BRANCH  25  27
HETATM   27  C3  UNL     1       3.446  42.473  23.764  1.00  0.00     0.077 C 
HETATM   28  C2  UNL     1       2.200  42.849  23.538  1.00  0.00    -0.025 C 
HETATM   29  C1  UNL     1       1.698  44.210  23.853  1.00  0.00     0.036 C 
ENDBRANCH  25  27
ENDBRANCH  24  25
ENDBRANCH   1  24
TORSDOF 7
ENDMDL
MODEL 5
REMARK VINA RESULT: -6.421368619      2.567      4.363
REMARK  7 active torsions:
REMARK  status: ('A' for Active; 'I' for Inactive)
REMARK    1  A    between atoms: C3_3  and  C4_4 
REMARK    2  A    between atoms: C4_4  and  O2_6 
REMARK    3  A    between atoms: O2_6  and  C5_7 
REMARK    4  A    between atoms: C16_20  and  O5_21 
REMARK    5  A    between atoms: C16_20  and  C17_23 
REMARK    6  A    between atoms: C17_23  and  O6_24 
REMARK    7  A    between atoms: O6_24  and  C18_25 
ROOT
HETATM    1  C5  UNL     1       5.402  42.093  21.627  1.00  0.00     0.161 C 
HETATM    2  C6  UNL     1       5.799  42.784  22.866  1.00  0.00     0.211 C 
HETATM    3  O3  UNL     1       6.733  43.829  22.732  1.00  0.00    -0.315 OA
HETATM    4  C7  UNL     1       7.074  44.490  21.560  1.00  0.00     0.289 C 
HETATM    5  O4  UNL     1       8.334  44.732  21.506  1.00  0.00    -0.260 OA
HETATM    6  C8  UNL     1       6.251  44.909  20.464  1.00  0.00     0.048 C 
HETATM    7  C9  UNL     1       5.501  43.800  19.753  1.00  0.00     0.034 C 
HETATM    8  C10 UNL     1       5.583  43.794  18.265  1.00  0.00     0.037 C 
HETATM    9  C11 UNL     1       4.539  44.519  17.491  1.00  0.00    -0.023 C 
HETATM   10  C12 UNL     1       3.825  45.677  17.511  1.00  0.00    -0.077 C 
HETATM   11  C13 UNL     1       2.881  45.877  16.431  1.00  0.00     0.044 C 
HETATM   12  C14 UNL     1       3.862  46.836  18.544  1.00  0.00     0.117 C 
HETATM   13  C15 UNL     1       4.715  46.421  19.555  1.00  0.00    -0.134 C 
HETATM   14  C16 UNL     1       5.441  46.163  20.755  1.00  0.00     0.162 C 
HETATM   15  C20 UNL     1       6.140  42.527  20.359  1.00  0.00     0.022 C 
HETATM   16  C21 UNL     1       6.001  41.344  19.424  1.00  0.00     0.013 C 
ENDROOT
BRANCH  14  17
HETATM   17  O5  UNL     1       4.661  45.954  21.889  1.00  0.00    -0.372 OA
ATOM     18  H5  UNL     1       5.225  45.882  22.650  1.00  0.00     0.212 HD
ENDBRANCH  14  17
BRANCH  14  19
HETATM   19  C17 UNL     1       6.376  47.310  21.012  1.00  0.00     0.234 C 
BRANCH  19  20
HETATM   20  O6  UNL     1       6.463  47.864  22.258  1.00  0.00    -0.317 OA
BRANCH  20  21
HETATM   21  C18 UNL     1       6.922  47.368  23.440  1.00  0.00     0.254 C 
HETATM   22  C19 UNL     1       8.384  47.548  23.733  1.00  0.00     0.126 C 
HETATM   23  O7  UNL     1       6.153  46.802  24.217  1.00  0.00    -0.266 OA
ENDBRANCH  20  21
ENDBRANCH  19  20
ENDBRANCH  14  19
BRANCH   1  24
HETATM   24  O2  UNL     1       5.383  40.709  21.795  1.00  0.00    -0.310 OA
BRANCH  24  25
HETATM   25  C4  UNL     1       4.494  40.077  22.621  1.00  0.00     0.283 C 
HETATM   26  O1  UNL     1       4.938  39.675  23.731  1.00  0.00    -0.260 OA
BRANCH  25  27
HETATM   27  C3  UNL     1       3.107  39.887  22.225  1.00  0.00     0.077 C 
HETATM   28  C2  UNL     1       2.129  40.610  22.742  1.00  0.00    -0.025 C 
HETATM   29  C1  UNL     1       2.356  41.666  23.760  1.00  0.00     0.036 C 
ENDBRANCH  25  27
ENDBRANCH  24  25
ENDBRANCH   1  24
TORSDOF 7
ENDMDL
