MODEL 1
REMARK VINA RESULT: -5.938174968      0.000      0.000
REMARK  6 active torsions:
REMARK  status: ('A' for Active; 'I' for Inactive)
REMARK    1  A    between atoms: C2_2  and  C3_3 
REMARK    2  A    between atoms: C11_12  and  O2_13 
REMARK    3  A    between atoms: O2_13  and  C12_14 
REMARK    4  A    between atoms: C15_19  and  C16_20 
REMARK    5  A    between atoms: C19_24  and  O5_25 
REMARK    6  A    between atoms: O5_25  and  C20_26 
ROOT
HETATM    1  C3  UNL     1       6.128  41.239  20.139  1.00  0.00    -0.026 C 
HETATM    2  C4  UNL     1       7.623  41.002  20.301  1.00  0.00     0.019 C 
HETATM    3  C5  UNL     1       5.575  41.524  21.516  1.00  0.00     0.018 C 
HETATM    4  C6  UNL     1       5.212  42.962  21.575  1.00  0.00    -0.003 C 
HETATM    5  C7  UNL     1       5.664  43.654  22.836  1.00  0.00     0.028 C 
HETATM    6  C8  UNL     1       5.426  45.135  22.757  1.00  0.00     0.081 C 
HETATM    7  C9  UNL     1       5.108  45.602  21.386  1.00  0.00     0.171 C 
HETATM    8  O1  UNL     1       4.463  46.686  21.257  1.00  0.00    -0.292 OA
HETATM    9  C10 UNL     1       5.501  44.877  20.188  1.00  0.00     0.016 C 
HETATM   10  C11 UNL     1       5.364  45.334  18.962  1.00  0.00     0.158 C 
HETATM   11  C13 UNL     1       6.085  43.542  20.450  1.00  0.00     0.029 C 
HETATM   12  C14 UNL     1       5.882  42.547  19.373  1.00  0.00     0.023 C 
HETATM   13  C15 UNL     1       6.613  45.834  23.359  1.00  0.00     0.030 C 
HETATM   14  C18 UNL     1       6.079  46.262  24.703  1.00  0.00     0.177 C 
HETATM   15  O4  UNL     1       4.786  46.663  24.392  1.00  0.00    -0.359 OA
HETATM   16  C19 UNL     1       4.300  45.587  23.660  1.00  0.00     0.286 C 
ENDROOT
BRANCH  13  17
HETATM   17  C16 UNL     1       7.074  47.007  22.531  1.00  0.00     0.004 C 
HETATM   18  C17 UNL     1       8.431  46.663  21.954  1.00  0.00     0.005 C 
ENDBRANCH  13  17
BRANCH  16  19
HETATM   19  O5  UNL     1       3.841  44.582  24.515  1.00  0.00    -0.289 OA
BRANCH  19  20
HETATM   20  C20 UNL     1       2.477  44.370  24.713  1.00  0.00     0.257 C 
HETATM   21  C21 UNL     1       1.660  43.510  23.813  1.00  0.00     0.126 C 
HETATM   22  O6  UNL     1       1.962  44.963  25.721  1.00  0.00    -0.266 OA
ENDBRANCH  19  20
ENDBRANCH  16  19
BRANCH  10  23
HETATM   23  O2  UNL     1       4.823  46.575  18.673  1.00  0.00    -0.275 OA
BRANCH  23  24
HETATM   24  C12 UNL     1       3.670  46.732  17.888  1.00  0.00     0.377 C 
HETATM   25  N1  UNL     1       2.900  47.930  17.906  1.00  0.00    -0.032 NA
HETATM   26  O3  UNL     1       3.365  45.735  17.167  1.00  0.00    -0.242 OA
ENDBRANCH  23  24
ENDBRANCH  10  23
BRANCH   1  27
HETATM   27  C2  UNL     1       5.508  40.085  19.489  1.00  0.00    -0.028 C 
HETATM   28  C1  UNL     1       4.748  40.273  18.421  1.00  0.00     0.007 C 
ENDBRANCH   1  27
TORSDOF 6
ENDMDL
MODEL 2
REMARK VINA RESULT: -5.935814510      2.795      5.849
REMARK  6 active torsions:
REMARK  status: ('A' for Active; 'I' for Inactive)
REMARK    1  A    between atoms: C2_2  and  C3_3 
REMARK    2  A    between atoms: C11_12  and  O2_13 
REMARK    3  A    between atoms: O2_13  and  C12_14 
REMARK    4  A    between atoms: C15_19  and  C16_20 
REMARK    5  A    between atoms: C19_24  and  O5_25 
REMARK    6  A    between atoms: O5_25  and  C20_26 
ROOT
HETATM    1  C3  UNL     1       2.813  44.200  24.530  1.00  0.00    -0.026 C 
HETATM    2  C4  UNL     1       1.516  43.966  23.770  1.00  0.00     0.019 C 
HETATM    3  C5  UNL     1       3.731  43.046  24.201  1.00  0.00     0.018 C 
HETATM    4  C6  UNL     1       4.820  43.560  23.335  1.00  0.00    -0.003 C 
HETATM    5  C7  UNL     1       5.123  42.680  22.149  1.00  0.00     0.028 C 
HETATM    6  C8  UNL     1       6.103  43.339  21.221  1.00  0.00     0.081 C 
HETATM    7  C9  UNL     1       6.299  44.781  21.506  1.00  0.00     0.171 C 
HETATM    8  O1  UNL     1       7.379  45.326  21.128  1.00  0.00    -0.292 OA
HETATM    9  C10 UNL     1       5.311  45.595  22.198  1.00  0.00     0.016 C 
HETATM   10  C11 UNL     1       5.389  46.901  22.337  1.00  0.00     0.158 C 
HETATM   11  C13 UNL     1       4.173  44.828  22.754  1.00  0.00     0.029 C 
HETATM   12  C14 UNL     1       3.547  45.420  23.958  1.00  0.00     0.023 C 
HETATM   13  C15 UNL     1       5.664  43.071  19.808  1.00  0.00     0.030 C 
HETATM   14  C18 UNL     1       6.638  42.004  19.372  1.00  0.00     0.177 C 
HETATM   15  O4  UNL     1       7.827  42.440  19.941  1.00  0.00    -0.359 OA
HETATM   16  C19 UNL     1       7.465  42.683  21.260  1.00  0.00     0.286 C 
ENDROOT
BRANCH  13  17
HETATM   17  C16 UNL     1       5.741  44.299  18.935  1.00  0.00     0.004 C 
HETATM   18  C17 UNL     1       4.804  44.094  17.763  1.00  0.00     0.005 C 
ENDBRANCH  13  17
BRANCH  16  19
HETATM   19  O5  UNL     1       7.484  41.497  21.998  1.00  0.00    -0.289 OA
BRANCH  19  20
HETATM   20  C20 UNL     1       8.624  40.694  22.044  1.00  0.00     0.257 C 
HETATM   21  C21 UNL     1       8.619  39.269  21.612  1.00  0.00     0.126 C 
HETATM   22  O6  UNL     1       9.683  41.255  22.484  1.00  0.00    -0.266 OA
ENDBRANCH  19  20
ENDBRANCH  16  19
BRANCH  10  23
HETATM   23  O2  UNL     1       6.433  47.655  21.833  1.00  0.00    -0.275 OA
BRANCH  23  24
HETATM   24  C12 UNL     1       6.997  48.731  22.538  1.00  0.00     0.377 C 
HETATM   25  N1  UNL     1       6.779  50.085  22.154  1.00  0.00    -0.032 NA
HETATM   26  O3  UNL     1       7.710  48.410  23.536  1.00  0.00    -0.242 OA
ENDBRANCH  23  24
ENDBRANCH  10  23
BRANCH   1  27
HETATM   27  C2  UNL     1       2.535  44.336  25.960  1.00  0.00    -0.028 C 
HETATM   28  C1  UNL     1       1.395  44.886  26.350  1.00  0.00     0.007 C 
ENDBRANCH   1  27
TORSDOF 6
ENDMDL
MODEL 3
REMARK VINA RESULT: -5.865888106      3.360      5.752
REMARK  6 active torsions:
REMARK  status: ('A' for Active; 'I' for Inactive)
REMARK    1  A    between atoms: C2_2  and  C3_3 
REMARK    2  A    between atoms: C11_12  and  O2_13 
REMARK    3  A    between atoms: O2_13  and  C12_14 
REMARK    4  A    between atoms: C15_19  and  C16_20 
REMARK    5  A    between atoms: C19_24  and  O5_25 
REMARK    6  A    between atoms: O5_25  and  C20_26 
ROOT
HETATM    1  C3  UNL     1       3.359  44.414  24.769  1.00  0.00    -0.026 C 
HETATM    2  C4  UNL     1       3.912  45.272  25.898  1.00  0.00     0.019 C 
HETATM    3  C5  UNL     1       3.065  45.342  23.613  1.00  0.00     0.018 C 
HETATM    4  C6  UNL     1       4.066  45.078  22.549  1.00  0.00    -0.003 C 
HETATM    5  C7  UNL     1       4.657  46.326  21.944  1.00  0.00     0.028 C 
HETATM    6  C8  UNL     1       5.783  45.993  21.007  1.00  0.00     0.081 C 
HETATM    7  C9  UNL     1       6.249  44.591  21.129  1.00  0.00     0.171 C 
HETATM    8  O1  UNL     1       6.840  44.067  20.138  1.00  0.00    -0.292 OA
HETATM    9  C10 UNL     1       6.059  43.792  22.331  1.00  0.00     0.016 C 
HETATM   10  C11 UNL     1       6.586  42.602  22.523  1.00  0.00     0.158 C 
HETATM   11  C13 UNL     1       5.203  44.431  23.356  1.00  0.00     0.029 C 
HETATM   12  C14 UNL     1       4.456  43.491  24.222  1.00  0.00     0.023 C 
HETATM   13  C15 UNL     1       6.880  47.000  21.216  1.00  0.00     0.030 C 
HETATM   14  C18 UNL     1       6.722  47.894  20.011  1.00  0.00     0.177 C 
HETATM   15  O4  UNL     1       6.437  46.981  19.003  1.00  0.00    -0.359 OA
HETATM   16  C19 UNL     1       5.414  46.221  19.559  1.00  0.00     0.286 C 
ENDROOT
BRANCH  13  17
HETATM   17  C16 UNL     1       8.246  46.364  21.276  1.00  0.00     0.004 C 
HETATM   18  C17 UNL     1       8.739  46.458  22.705  1.00  0.00     0.005 C 
ENDBRANCH  13  17
BRANCH  16  19
HETATM   19  O5  UNL     1       4.185  46.866  19.397  1.00  0.00    -0.289 OA
BRANCH  19  20
HETATM   20  C20 UNL     1       3.537  46.885  18.163  1.00  0.00     0.257 C 
HETATM   21  C21 UNL     1       3.562  45.728  17.226  1.00  0.00     0.126 C 
HETATM   22  O6  UNL     1       2.915  47.964  17.877  1.00  0.00    -0.266 OA
ENDBRANCH  19  20
ENDBRANCH  16  19
BRANCH  10  23
HETATM   23  O2  UNL     1       7.390  41.970  21.593  1.00  0.00    -0.275 OA
BRANCH  23  24
HETATM   24  C12 UNL     1       8.750  41.707  21.824  1.00  0.00     0.377 C 
HETATM   25  N1  UNL     1       9.210  40.433  22.264  1.00  0.00    -0.032 NA
HETATM   26  O3  UNL     1       9.534  42.682  21.614  1.00  0.00    -0.242 OA
ENDBRANCH  23  24
ENDBRANCH  10  23
BRANCH   1  27
HETATM   27  C2  UNL     1       2.186  43.674  25.235  1.00  0.00    -0.028 C 
HETATM   28  C1  UNL     1       1.014  43.883  24.655  1.00  0.00     0.007 C 
ENDBRANCH   1  27
TORSDOF 6
ENDMDL
MODEL 4
REMARK VINA RESULT: -5.771270570      2.970      5.639
REMARK  6 active torsions:
REMARK  status: ('A' for Active; 'I' for Inactive)
REMARK    1  A    between atoms: C2_2  and  C3_3 
REMARK    2  A    between atoms: C11_12  and  O2_13 
REMARK    3  A    between atoms: O2_13  and  C12_14 
REMARK    4  A    between atoms: C15_19  and  C16_20 
REMARK    5  A    between atoms: C19_24  and  O5_25 
REMARK    6  A    between atoms: O5_25  and  C20_26 
ROOT
HETATM    1  C3  UNL     1       5.001  46.653  19.045  1.00  0.00    -0.026 C 
HETATM    2  C4  UNL     1       6.222  47.561  19.039  1.00  0.00     0.019 C 
HETATM    3  C5  UNL     1       5.466  45.286  18.600  1.00  0.00     0.018 C 
HETATM    4  C6  UNL     1       5.426  44.384  19.777  1.00  0.00    -0.003 C 
HETATM    5  C7  UNL     1       6.653  43.521  19.926  1.00  0.00     0.028 C 
HETATM    6  C8  UNL     1       6.631  42.766  21.225  1.00  0.00     0.081 C 
HETATM    7  C9  UNL     1       5.604  43.263  22.171  1.00  0.00     0.171 C 
HETATM    8  O1  UNL     1       5.179  42.471  23.066  1.00  0.00    -0.292 OA
HETATM    9  C10 UNL     1       5.063  44.613  22.120  1.00  0.00     0.016 C 
HETATM   10  C11 UNL     1       4.264  45.129  23.029  1.00  0.00     0.158 C 
HETATM   11  C13 UNL     1       5.487  45.393  20.935  1.00  0.00     0.029 C 
HETATM   12  C14 UNL     1       4.522  46.421  20.485  1.00  0.00     0.023 C 
HETATM   13  C15 UNL     1       8.020  42.780  21.799  1.00  0.00     0.030 C 
HETATM   14  C18 UNL     1       8.500  41.382  21.499  1.00  0.00     0.177 C 
HETATM   15  O4  UNL     1       7.366  40.620  21.749  1.00  0.00    -0.359 OA
HETATM   16  C19 UNL     1       6.384  41.287  21.027  1.00  0.00     0.286 C 
ENDROOT
BRANCH  13  17
HETATM   17  C16 UNL     1       8.032  43.078  23.278  1.00  0.00     0.004 C 
HETATM   18  C17 UNL     1       8.802  44.365  23.485  1.00  0.00     0.005 C 
ENDBRANCH  13  17
BRANCH  16  19
HETATM   19  O5  UNL     1       6.415  40.897  19.686  1.00  0.00    -0.289 OA
BRANCH  19  20
HETATM   20  C20 UNL     1       5.368  40.171  19.121  1.00  0.00     0.257 C 
HETATM   21  C21 UNL     1       4.507  40.717  18.034  1.00  0.00     0.126 C 
HETATM   22  O6  UNL     1       5.184  38.998  19.593  1.00  0.00    -0.266 OA
ENDBRANCH  19  20
ENDBRANCH  16  19
BRANCH  10  23
HETATM   23  O2  UNL     1       3.844  44.436  24.150  1.00  0.00    -0.275 OA
BRANCH  23  24
HETATM   24  C12 UNL     1       2.488  44.292  24.486  1.00  0.00     0.377 C 
HETATM   25  N1  UNL     1       1.905  44.980  25.588  1.00  0.00    -0.032 NA
HETATM   26  O3  UNL     1       1.825  43.510  23.740  1.00  0.00    -0.242 OA
ENDBRANCH  23  24
ENDBRANCH  10  23
BRANCH   1  27
HETATM   27  C2  UNL     1       3.955  47.220  18.193  1.00  0.00    -0.028 C 
HETATM   28  C1  UNL     1       3.210  46.411  17.455  1.00  0.00     0.007 C 
ENDBRANCH   1  27
TORSDOF 6
ENDMDL
MODEL 5
REMARK VINA RESULT: -5.625738779      3.419      5.530
REMARK  6 active torsions:
REMARK  status: ('A' for Active; 'I' for Inactive)
REMARK    1  A    between atoms: C2_2  and  C3_3 
REMARK    2  A    between atoms: C11_12  and  O2_13 
REMARK    3  A    between atoms: O2_13  and  C12_14 
REMARK    4  A    between atoms: C15_19  and  C16_20 
REMARK    5  A    between atoms: C19_24  and  O5_25 
REMARK    6  A    between atoms: O5_25  and  C20_26 
ROOT
HETATM    1  C3  UNL     1       3.009  43.927  24.292  1.00  0.00    -0.026 C 
HETATM    2  C4  UNL     1       2.919  44.764  25.560  1.00  0.00     0.019 C 
HETATM    3  C5  UNL     1       2.950  44.886  23.125  1.00  0.00     0.018 C 
HETATM    4  C6  UNL     1       4.296  44.932  22.502  1.00  0.00    -0.003 C 
HETATM    5  C7  UNL     1       4.772  46.325  22.180  1.00  0.00     0.028 C 
HETATM    6  C8  UNL     1       6.202  46.317  21.719  1.00  0.00     0.081 C 
HETATM    7  C9  UNL     1       6.891  45.030  21.980  1.00  0.00     0.171 C 
HETATM    8  O1  UNL     1       7.897  44.734  21.267  1.00  0.00    -0.292 OA
HETATM    9  C10 UNL     1       6.467  44.096  23.012  1.00  0.00     0.016 C 
HETATM   10  C11 UNL     1       7.140  43.022  23.364  1.00  0.00     0.158 C 
HETATM   11  C13 UNL     1       5.184  44.449  23.660  1.00  0.00     0.029 C 
HETATM   12  C14 UNL     1       4.405  43.299  24.172  1.00  0.00     0.023 C 
HETATM   13  C15 UNL     1       6.900  47.497  22.336  1.00  0.00     0.030 C 
HETATM   14  C18 UNL     1       6.990  48.454  21.173  1.00  0.00     0.177 C 
HETATM   15  O4  UNL     1       7.291  47.605  20.115  1.00  0.00    -0.359 OA
HETATM   16  C19 UNL     1       6.333  46.607  20.241  1.00  0.00     0.286 C 
ENDROOT
BRANCH  13  17
HETATM   17  C16 UNL     1       8.260  47.142  22.884  1.00  0.00     0.004 C 
HETATM   18  C17 UNL     1       8.294  47.554  24.341  1.00  0.00     0.005 C 
ENDBRANCH  13  17
BRANCH  16  19
HETATM   19  O5  UNL     1       5.132  47.006  19.648  1.00  0.00    -0.289 OA
BRANCH  19  20
HETATM   20  C20 UNL     1       4.566  46.278  18.603  1.00  0.00     0.257 C 
HETATM   21  C21 UNL     1       5.084  44.947  18.180  1.00  0.00     0.126 C 
HETATM   22  O6  UNL     1       3.567  46.822  18.022  1.00  0.00    -0.266 OA
ENDBRANCH  19  20
ENDBRANCH  16  19
BRANCH  10  23
HETATM   23  O2  UNL     1       8.342  42.656  22.785  1.00  0.00    -0.275 OA
BRANCH  23  24
HETATM   24  C12 UNL     1       8.501  41.461  22.065  1.00  0.00     0.377 C 
HETATM   25  N1  UNL     1       9.374  40.425  22.503  1.00  0.00    -0.032 NA
HETATM   26  O3  UNL     1       7.814  41.373  21.003  1.00  0.00    -0.242 OA
ENDBRANCH  23  24
ENDBRANCH  10  23
BRANCH   1  27
HETATM   27  C2  UNL     1       1.943  42.926  24.279  1.00  0.00    -0.028 C 
HETATM   28  C1  UNL     1       2.112  41.806  23.592  1.00  0.00     0.007 C 
ENDBRANCH   1  27
TORSDOF 6
ENDMDL
