MODEL 1
REMARK VINA RESULT: -5.195669941      0.000      0.000
REMARK  6 active torsions:
REMARK  status: ('A' for Active; 'I' for Inactive)
REMARK    1  A    between atoms: O1_2  and  C2_3 
REMARK    2  A    between atoms: C2_3  and  C3_5 
REMARK    3  A    between atoms: C3_5  and  C5_7 
REMARK    4  A    between atoms: C3_5  and  O6_28 
REMARK    5  A    between atoms: C5_7  and  C6_8 
REMARK    6  A    between atoms: C16_19  and  O4_20 
ROOT
HETATM    1  C6  UNL     1       6.013  45.003  23.397  1.00  0.00     0.195 C 
HETATM    2  O3  UNL     1       6.220  44.768  24.724  1.00  0.00    -0.368 OA
HETATM    3  C7  UNL     1       5.217  44.126  25.407  1.00  0.00     0.059 C 
HETATM    4  C8  UNL     1       4.487  45.135  26.229  1.00  0.00     0.046 C 
HETATM    5  C9  UNL     1       5.904  43.168  26.391  1.00  0.00     0.046 C 
HETATM    6  C10 UNL     1       4.330  43.273  24.546  1.00  0.00     0.031 C 
HETATM    7  C11 UNL     1       3.413  42.462  25.376  1.00  0.00     0.018 C 
HETATM    8  C12 UNL     1       2.045  42.257  24.745  1.00  0.00    -0.040 C 
HETATM    9  C13 UNL     1       2.214  41.453  23.451  1.00  0.00     0.015 C 
HETATM   10  C14 UNL     1       1.262  41.398  25.682  1.00  0.00     0.012 C 
HETATM   11  C15 UNL     1      -0.138  41.913  25.942  1.00  0.00     0.032 C 
HETATM   12  C16 UNL     1       0.088  43.305  26.548  1.00  0.00     0.118 C 
HETATM   13  C17 UNL     1       0.584  44.185  25.470  1.00  0.00     0.037 C 
HETATM   14  C18 UNL     1       1.367  43.536  24.384  1.00  0.00    -0.003 C 
HETATM   15  C19 UNL     1       2.300  44.562  23.805  1.00  0.00     0.018 C 
HETATM   16  C20 UNL     1       3.653  44.068  23.462  1.00  0.00     0.065 C 
HETATM   17  C21 UNL     1       4.543  45.238  23.208  1.00  0.00     0.160 C 
HETATM   18  O5  UNL     1       4.058  46.288  22.870  1.00  0.00    -0.295 OA
ENDROOT
BRANCH   1  19
HETATM   19  C5  UNL     1       6.706  46.192  22.855  1.00  0.00     0.088 C 
BRANCH  19  20
HETATM   20  C3  UNL     1       7.381  46.021  21.511  1.00  0.00     0.146 C 
HETATM   21  C4  UNL     1       7.426  44.514  21.211  1.00  0.00     0.057 C 
BRANCH  20  22
HETATM   22  C2  UNL     1       6.733  46.762  20.440  1.00  0.00     0.293 C 
HETATM   23  O2  UNL     1       7.239  47.807  19.898  1.00  0.00    -0.262 OA
BRANCH  22  24
HETATM   24  O1  UNL     1       5.514  46.394  19.916  1.00  0.00    -0.324 OA
HETATM   25  C1  UNL     1       5.339  46.049  18.536  1.00  0.00     0.213 C 
ENDBRANCH  22  24
ENDBRANCH  20  22
BRANCH  20  26
HETATM   26  O6  UNL     1       8.667  46.464  21.705  1.00  0.00    -0.375 OA
HETATM   27  C22 UNL     1       9.633  45.581  22.030  1.00  0.00     0.203 C 
ENDBRANCH  20  26
ENDBRANCH  19  20
ENDBRANCH   1  19
BRANCH  12  28
HETATM   28  O4  UNL     1      -1.034  43.787  27.177  1.00  0.00    -0.396 OA
ATOM     29  H4  UNL     1      -1.775  43.855  26.587  1.00  0.00     0.210 HD
ENDBRANCH  12  28
TORSDOF 6
ENDMDL
MODEL 2
REMARK VINA RESULT: -5.069470346      3.935      6.588
REMARK  6 active torsions:
REMARK  status: ('A' for Active; 'I' for Inactive)
REMARK    1  A    between atoms: O1_2  and  C2_3 
REMARK    2  A    between atoms: C2_3  and  C3_5 
REMARK    3  A    between atoms: C3_5  and  C5_7 
REMARK    4  A    between atoms: C3_5  and  O6_28 
REMARK    5  A    between atoms: C5_7  and  C6_8 
REMARK    6  A    between atoms: C16_19  and  O4_20 
ROOT
HETATM    1  C6  UNL     1       4.984  44.145  18.754  1.00  0.00     0.195 C 
HETATM    2  O3  UNL     1       5.746  43.191  19.360  1.00  0.00    -0.368 OA
HETATM    3  C7  UNL     1       6.200  43.467  20.626  1.00  0.00     0.059 C 
HETATM    4  C8  UNL     1       7.644  43.831  20.539  1.00  0.00     0.046 C 
HETATM    5  C9  UNL     1       6.121  42.150  21.413  1.00  0.00     0.046 C 
HETATM    6  C10 UNL     1       5.359  44.455  21.382  1.00  0.00     0.031 C 
HETATM    7  C11 UNL     1       5.790  44.541  22.794  1.00  0.00     0.018 C 
HETATM    8  C12 UNL     1       5.664  45.938  23.383  1.00  0.00    -0.040 C 
HETATM    9  C13 UNL     1       4.182  46.331  23.403  1.00  0.00     0.015 C 
HETATM   10  C14 UNL     1       6.101  45.847  24.807  1.00  0.00     0.012 C 
HETATM   11  C15 UNL     1       7.064  46.943  25.212  1.00  0.00     0.032 C 
HETATM   12  C16 UNL     1       8.259  46.749  24.268  1.00  0.00     0.118 C 
HETATM   13  C17 UNL     1       7.827  47.152  22.914  1.00  0.00     0.037 C 
HETATM   14  C18 UNL     1       6.386  46.976  22.592  1.00  0.00    -0.003 C 
HETATM   15  C19 UNL     1       6.260  46.788  21.107  1.00  0.00     0.018 C 
HETATM   16  C20 UNL     1       5.263  45.780  20.676  1.00  0.00     0.065 C 
HETATM   17  C21 UNL     1       5.476  45.480  19.230  1.00  0.00     0.160 C 
HETATM   18  O5  UNL     1       6.014  46.299  18.528  1.00  0.00    -0.295 OA
ENDROOT
BRANCH   1  19
HETATM   19  C5  UNL     1       5.062  44.166  17.277  1.00  0.00     0.088 C 
BRANCH  19  20
HETATM   20  C3  UNL     1       3.800  43.785  16.532  1.00  0.00     0.146 C 
HETATM   21  C4  UNL     1       3.992  44.205  15.066  1.00  0.00     0.057 C 
BRANCH  20  22
HETATM   22  C2  UNL     1       3.464  42.375  16.647  1.00  0.00     0.293 C 
HETATM   23  O2  UNL     1       2.442  41.845  16.084  1.00  0.00    -0.262 OA
BRANCH  22  24
HETATM   24  O1  UNL     1       4.226  41.487  17.373  1.00  0.00    -0.324 OA
HETATM   25  C1  UNL     1       3.862  40.111  17.538  1.00  0.00     0.213 C 
ENDBRANCH  22  24
ENDBRANCH  20  22
BRANCH  20  26
HETATM   26  O6  UNL     1       2.817  44.570  17.084  1.00  0.00    -0.375 OA
HETATM   27  C22 UNL     1       2.496  45.743  16.502  1.00  0.00     0.203 C 
ENDBRANCH  20  26
ENDBRANCH  19  20
ENDBRANCH   1  19
BRANCH  12  28
HETATM   28  O4  UNL     1       9.380  47.411  24.706  1.00  0.00    -0.396 OA
ATOM     29  H4  UNL     1      10.181  46.990  24.418  1.00  0.00     0.210 HD
ENDBRANCH  12  28
TORSDOF 6
ENDMDL
MODEL 3
REMARK VINA RESULT: -5.031631939      4.422      6.598
REMARK  6 active torsions:
REMARK  status: ('A' for Active; 'I' for Inactive)
REMARK    1  A    between atoms: O1_2  and  C2_3 
REMARK    2  A    between atoms: C2_3  and  C3_5 
REMARK    3  A    between atoms: C3_5  and  C5_7 
REMARK    4  A    between atoms: C3_5  and  O6_28 
REMARK    5  A    between atoms: C5_7  and  C6_8 
REMARK    6  A    between atoms: C16_19  and  O4_20 
ROOT
HETATM    1  C6  UNL     1       5.971  46.430  20.933  1.00  0.00     0.195 C 
HETATM    2  O3  UNL     1       6.010  47.246  22.025  1.00  0.00    -0.368 OA
HETATM    3  C7  UNL     1       6.994  47.002  22.951  1.00  0.00     0.059 C 
HETATM    4  C8  UNL     1       6.376  46.319  24.125  1.00  0.00     0.046 C 
HETATM    5  C9  UNL     1       7.479  48.374  23.442  1.00  0.00     0.046 C 
HETATM    6  C10 UNL     1       8.204  46.305  22.398  1.00  0.00     0.031 C 
HETATM    7  C11 UNL     1       9.291  46.264  23.400  1.00  0.00     0.018 C 
HETATM    8  C12 UNL     1      10.128  44.996  23.336  1.00  0.00    -0.040 C 
HETATM    9  C13 UNL     1      10.843  44.946  21.982  1.00  0.00     0.015 C 
HETATM   10  C14 UNL     1      11.190  45.127  24.376  1.00  0.00     0.012 C 
HETATM   11  C15 UNL     1      11.348  43.890  25.235  1.00  0.00     0.032 C 
HETATM   12  C16 UNL     1       9.971  43.718  25.890  1.00  0.00     0.118 C 
HETATM   13  C17 UNL     1       9.027  43.290  24.838  1.00  0.00     0.037 C 
HETATM   14  C18 UNL     1       9.316  43.750  23.453  1.00  0.00    -0.003 C 
HETATM   15  C19 UNL     1       8.015  43.814  22.703  1.00  0.00     0.018 C 
HETATM   16  C20 UNL     1       7.865  44.971  21.790  1.00  0.00     0.065 C 
HETATM   17  C21 UNL     1       6.436  45.073  21.372  1.00  0.00     0.160 C 
HETATM   18  O5  UNL     1       5.739  44.090  21.402  1.00  0.00    -0.295 OA
ENDROOT
BRANCH   1  19
HETATM   19  C5  UNL     1       4.632  46.247  20.333  1.00  0.00     0.088 C 
BRANCH  19  20
HETATM   20  C3  UNL     1       4.508  46.561  18.857  1.00  0.00     0.146 C 
HETATM   21  C4  UNL     1       5.559  47.635  18.530  1.00  0.00     0.057 C 
BRANCH  20  22
HETATM   22  C2  UNL     1       4.652  45.393  18.003  1.00  0.00     0.293 C 
HETATM   23  O2  UNL     1       5.664  44.608  18.046  1.00  0.00    -0.262 OA
BRANCH  22  24
HETATM   24  O1  UNL     1       3.702  45.031  17.074  1.00  0.00    -0.324 OA
HETATM   25  C1  UNL     1       3.486  43.671  16.680  1.00  0.00     0.213 C 
ENDBRANCH  22  24
ENDBRANCH  20  22
BRANCH  20  26
HETATM   26  O6  UNL     1       3.260  47.118  18.721  1.00  0.00    -0.375 OA
HETATM   27  C22 UNL     1       3.085  48.162  17.887  1.00  0.00     0.203 C 
ENDBRANCH  20  26
ENDBRANCH  19  20
ENDBRANCH   1  19
BRANCH  12  28
HETATM   28  O4  UNL     1      10.010  42.871  26.969  1.00  0.00    -0.396 OA
ATOM     29  H4  UNL     1      10.422  42.041  26.760  1.00  0.00     0.210 HD
ENDBRANCH  12  28
TORSDOF 6
ENDMDL
MODEL 4
REMARK VINA RESULT: -5.010489356      4.212      7.097
REMARK  6 active torsions:
REMARK  status: ('A' for Active; 'I' for Inactive)
REMARK    1  A    between atoms: O1_2  and  C2_3 
REMARK    2  A    between atoms: C2_3  and  C3_5 
REMARK    3  A    between atoms: C3_5  and  C5_7 
REMARK    4  A    between atoms: C3_5  and  O6_28 
REMARK    5  A    between atoms: C5_7  and  C6_8 
REMARK    6  A    between atoms: C16_19  and  O4_20 
ROOT
HETATM    1  C6  UNL     1       4.125  45.850  18.345  1.00  0.00     0.195 C 
HETATM    2  O3  UNL     1       4.758  44.643  18.354  1.00  0.00    -0.368 OA
HETATM    3  C7  UNL     1       5.559  44.367  19.435  1.00  0.00     0.059 C 
HETATM    4  C8  UNL     1       6.982  44.529  19.017  1.00  0.00     0.046 C 
HETATM    5  C9  UNL     1       5.359  42.879  19.756  1.00  0.00     0.046 C 
HETATM    6  C10 UNL     1       5.193  45.117  20.683  1.00  0.00     0.031 C 
HETATM    7  C11 UNL     1       5.963  44.616  21.842  1.00  0.00     0.018 C 
HETATM    8  C12 UNL     1       6.326  45.701  22.844  1.00  0.00    -0.040 C 
HETATM    9  C13 UNL     1       5.035  46.265  23.448  1.00  0.00     0.015 C 
HETATM   10  C14 UNL     1       7.061  45.032  23.957  1.00  0.00     0.012 C 
HETATM   11  C15 UNL     1       8.330  45.754  24.360  1.00  0.00     0.032 C 
HETATM   12  C16 UNL     1       9.176  45.754  23.078  1.00  0.00     0.118 C 
HETATM   13  C17 UNL     1       8.537  46.683  22.123  1.00  0.00     0.037 C 
HETATM   14  C18 UNL     1       7.062  46.844  22.231  1.00  0.00    -0.003 C 
HETATM   15  C19 UNL     1       6.537  47.235  20.879  1.00  0.00     0.018 C 
HETATM   16  C20 UNL     1       5.252  46.608  20.491  1.00  0.00     0.065 C 
HETATM   17  C21 UNL     1       5.026  46.833  19.034  1.00  0.00     0.160 C 
HETATM   18  O5  UNL     1       5.559  47.767  18.490  1.00  0.00    -0.295 OA
ENDROOT
BRANCH   1  19
HETATM   19  C5  UNL     1       3.843  46.402  17.002  1.00  0.00     0.088 C 
BRANCH  19  20
HETATM   20  C3  UNL     1       2.407  46.794  16.724  1.00  0.00     0.146 C 
HETATM   21  C4  UNL     1       1.778  47.200  18.067  1.00  0.00     0.057 C 
BRANCH  20  22
HETATM   22  C2  UNL     1       2.278  47.848  15.730  1.00  0.00     0.293 C 
HETATM   23  O2  UNL     1       2.194  47.624  14.472  1.00  0.00    -0.262 OA
BRANCH  22  24
HETATM   24  O1  UNL     1       2.231  49.182  16.065  1.00  0.00    -0.324 OA
HETATM   25  C1  UNL     1       2.612  50.221  15.155  1.00  0.00     0.213 C 
ENDBRANCH  22  24
ENDBRANCH  20  22
BRANCH  20  26
HETATM   26  O6  UNL     1       1.805  45.637  16.294  1.00  0.00    -0.375 OA
HETATM   27  C22 UNL     1       2.558  44.653  15.761  1.00  0.00     0.203 C 
ENDBRANCH  20  26
ENDBRANCH  19  20
ENDBRANCH   1  19
BRANCH  12  28
HETATM   28  O4  UNL     1      10.495  46.043  23.326  1.00  0.00    -0.396 OA
ATOM     29  H4  UNL     1      10.698  46.957  23.170  1.00  0.00     0.210 HD
ENDBRANCH  12  28
TORSDOF 6
ENDMDL
MODEL 5
REMARK VINA RESULT: -4.986065834      0.886      1.240
REMARK  6 active torsions:
REMARK  status: ('A' for Active; 'I' for Inactive)
REMARK    1  A    between atoms: O1_2  and  C2_3 
REMARK    2  A    between atoms: C2_3  and  C3_5 
REMARK    3  A    between atoms: C3_5  and  C5_7 
REMARK    4  A    between atoms: C3_5  and  O6_28 
REMARK    5  A    between atoms: C5_7  and  C6_8 
REMARK    6  A    between atoms: C16_19  and  O4_20 
ROOT
HETATM    1  C6  UNL     1       5.770  44.675  23.312  1.00  0.00     0.195 C 
HETATM    2  O3  UNL     1       6.019  44.512  24.643  1.00  0.00    -0.368 OA
HETATM    3  C7  UNL     1       5.015  43.963  25.401  1.00  0.00     0.059 C 
HETATM    4  C8  UNL     1       4.366  45.055  26.184  1.00  0.00     0.046 C 
HETATM    5  C9  UNL     1       5.696  43.034  26.418  1.00  0.00     0.046 C 
HETATM    6  C10 UNL     1       4.056  43.103  24.629  1.00  0.00     0.031 C 
HETATM    7  C11 UNL     1       3.137  42.390  25.542  1.00  0.00     0.018 C 
HETATM    8  C12 UNL     1       1.736  42.213  24.976  1.00  0.00    -0.040 C 
HETATM    9  C13 UNL     1       1.817  41.324  23.730  1.00  0.00     0.015 C 
HETATM   10  C14 UNL     1       0.952  41.453  25.993  1.00  0.00     0.012 C 
HETATM   11  C15 UNL     1      -0.411  42.050  26.271  1.00  0.00     0.032 C 
HETATM   12  C16 UNL     1      -0.097  43.464  26.780  1.00  0.00     0.118 C 
HETATM   13  C17 UNL     1       0.397  44.251  25.631  1.00  0.00     0.037 C 
HETATM   14  C18 UNL     1       1.104  43.499  24.560  1.00  0.00    -0.003 C 
HETATM   15  C19 UNL     1       2.060  44.441  23.884  1.00  0.00     0.018 C 
HETATM   16  C20 UNL     1       3.375  43.862  23.523  1.00  0.00     0.065 C 
HETATM   17  C21 UNL     1       4.307  44.969  23.163  1.00  0.00     0.160 C 
HETATM   18  O5  UNL     1       3.858  46.020  22.777  1.00  0.00    -0.295 OA
ENDROOT
BRANCH   1  19
HETATM   19  C5  UNL     1       6.496  45.794  22.671  1.00  0.00     0.088 C 
BRANCH  19  20
HETATM   20  C3  UNL     1       7.310  45.449  21.442  1.00  0.00     0.146 C 
HETATM   21  C4  UNL     1       8.570  44.710  21.922  1.00  0.00     0.057 C 
BRANCH  20  22
HETATM   22  C2  UNL     1       6.573  44.670  20.459  1.00  0.00     0.293 C 
HETATM   23  O2  UNL     1       6.930  43.501  20.074  1.00  0.00    -0.262 OA
BRANCH  22  24
HETATM   24  O1  UNL     1       5.421  45.128  19.861  1.00  0.00    -0.324 OA
HETATM   25  C1  UNL     1       5.374  45.540  18.490  1.00  0.00     0.213 C 
ENDBRANCH  22  24
ENDBRANCH  20  22
BRANCH  20  26
HETATM   26  O6  UNL     1       7.690  46.662  20.921  1.00  0.00    -0.375 OA
HETATM   27  C22 UNL     1       7.093  47.789  21.358  1.00  0.00     0.203 C 
ENDBRANCH  20  26
ENDBRANCH  19  20
ENDBRANCH   1  19
BRANCH  12  28
HETATM   28  O4  UNL     1      -1.169  44.038  27.418  1.00  0.00    -0.396 OA
ATOM     29  H4  UNL     1      -1.985  43.889  26.954  1.00  0.00     0.210 HD
ENDBRANCH  12  28
TORSDOF 6
ENDMDL
