MODEL 1
REMARK VINA RESULT: -9.018723353      0.000      0.000
REMARK  6 active torsions:
REMARK  status: ('A' for Active; 'I' for Inactive)
REMARK    1  A    between atoms: C2_2  and  C3_4 
REMARK    2  A    between atoms: C8_9  and  C9_10 
REMARK    3  A    between atoms: C9_10  and  C10_11 
REMARK    4  A    between atoms: C23_25  and  O2_26 
REMARK    5  A    between atoms: C24_28  and  C26_30 
REMARK    6  A    between atoms: C26_30  and  O3_31 
ROOT
HETATM    1  C3  UNL     1      18.703  12.219 -12.320  1.00  0.00    -0.042 C 
HETATM    2  C4  UNL     1      18.706  12.218 -10.791  1.00  0.00     0.043 C 
HETATM    3  C5  UNL     1      19.871  11.387 -10.316  1.00  0.00    -0.001 C 
HETATM    4  C6  UNL     1      19.413   9.975  -9.957  1.00  0.00    -0.001 C 
HETATM    5  C7  UNL     1      18.902   9.861  -8.535  1.00  0.00     0.011 C 
HETATM    6  C8  UNL     1      20.004   8.840  -8.285  1.00  0.00    -0.001 C 
HETATM    7  C14 UNL     1      20.653   9.205  -9.571  1.00  0.00    -0.036 C 
HETATM    8  C15 UNL     1      20.891   7.986 -10.462  1.00  0.00     0.016 C 
HETATM    9  C16 UNL     1      21.875  10.049  -9.524  1.00  0.00     0.010 C 
HETATM   10  C17 UNL     1      22.176  10.739 -10.826  1.00  0.00     0.007 C 
HETATM   11  C18 UNL     1      20.878  11.237 -11.427  1.00  0.00     0.003 C 
HETATM   12  C19 UNL     1      21.101  12.589 -12.131  1.00  0.00    -0.015 C 
HETATM   13  C20 UNL     1      21.382  13.565 -11.082  1.00  0.00     0.020 C 
HETATM   14  C21 UNL     1      22.314  12.335 -13.012  1.00  0.00     0.016 C 
HETATM   15  C22 UNL     1      22.072  12.982 -14.342  1.00  0.00     0.034 C 
HETATM   16  C23 UNL     1      21.308  14.257 -14.249  1.00  0.00     0.132 C 
HETATM   17  C24 UNL     1      19.855  14.048 -13.758  1.00  0.00     0.028 C 
HETATM   18  C25 UNL     1      19.060  13.847 -15.068  1.00  0.00     0.025 C 
HETATM   19  C27 UNL     1      19.840  12.812 -12.983  1.00  0.00    -0.053 C 
ENDROOT
BRANCH   6  20
HETATM   20  C9  UNL     1      20.724   9.105  -7.007  1.00  0.00     0.046 C 
BRANCH  20  21
HETATM   21  C10 UNL     1      21.148   7.788  -6.420  1.00  0.00    -0.034 A 
HETATM   22  C11 UNL     1      20.607   7.140  -5.338  1.00  0.00     0.033 A 
HETATM   23  C12 UNL     1      21.334   5.962  -5.185  1.00  0.00     0.142 A 
HETATM   24  O1  UNL     1      22.237   5.931  -6.119  1.00  0.00    -0.334 OA
HETATM   25  C13 UNL     1      22.179   6.983  -6.883  1.00  0.00     0.148 A 
ENDBRANCH  20  21
ENDBRANCH   6  20
BRANCH   1  26
HETATM   26  C2  UNL     1      17.298  12.365 -12.779  1.00  0.00     0.195 C 
HETATM   27  C1  UNL     1      16.326  11.625 -11.829  1.00  0.00     0.050 C 
HETATM   28  F1  UNL     1      16.830  13.664 -12.745  1.00  0.00    -0.245 F 
ENDBRANCH   1  26
BRANCH  17  29
HETATM   29  C26 UNL     1      19.488  15.361 -13.187  1.00  0.00     0.180 C 
BRANCH  29  30
HETATM   30  O3  UNL     1      20.619  16.239 -13.164  1.00  0.00    -0.400 OA
ATOM     31  H3  UNL     1      21.305  15.891 -12.608  1.00  0.00     0.209 HD
ENDBRANCH  29  30
ENDBRANCH  17  29
BRANCH  16  32
HETATM   32  O2  UNL     1      21.311  14.882 -15.486  1.00  0.00    -0.394 OA
ATOM     33  H2  UNL     1      20.547  14.604 -15.978  1.00  0.00     0.210 HD
ENDBRANCH  16  32
TORSDOF 6
ENDMDL
MODEL 2
REMARK VINA RESULT: -7.282006431      1.605      1.961
REMARK  6 active torsions:
REMARK  status: ('A' for Active; 'I' for Inactive)
REMARK    1  A    between atoms: C2_2  and  C3_4 
REMARK    2  A    between atoms: C8_9  and  C9_10 
REMARK    3  A    between atoms: C9_10  and  C10_11 
REMARK    4  A    between atoms: C23_25  and  O2_26 
REMARK    5  A    between atoms: C24_28  and  C26_30 
REMARK    6  A    between atoms: C26_30  and  O3_31 
ROOT
HETATM    1  C3  UNL     1      16.948  11.708 -12.375  1.00  0.00    -0.042 C 
HETATM    2  C4  UNL     1      17.188  11.727 -10.865  1.00  0.00     0.043 C 
HETATM    3  C5  UNL     1      18.589  11.239 -10.598  1.00  0.00    -0.001 C 
HETATM    4  C6  UNL     1      18.579   9.760 -10.214  1.00  0.00    -0.001 C 
HETATM    5  C7  UNL     1      18.342   9.533  -8.734  1.00  0.00     0.011 C 
HETATM    6  C8  UNL     1      19.698   8.842  -8.685  1.00  0.00    -0.001 C 
HETATM    7  C14 UNL     1      20.022   9.349 -10.044  1.00  0.00    -0.036 C 
HETATM    8  C15 UNL     1      20.430   8.224 -10.996  1.00  0.00     0.016 C 
HETATM    9  C16 UNL     1      20.972  10.486 -10.160  1.00  0.00     0.010 C 
HETATM   10  C17 UNL     1      20.876  11.215 -11.472  1.00  0.00     0.007 C 
HETATM   11  C18 UNL     1      19.416  11.345 -11.853  1.00  0.00     0.003 C 
HETATM   12  C19 UNL     1      19.164  12.699 -12.544  1.00  0.00    -0.015 C 
HETATM   13  C20 UNL     1      19.338  13.727 -11.522  1.00  0.00     0.020 C 
HETATM   14  C21 UNL     1      20.250  12.763 -13.606  1.00  0.00     0.016 C 
HETATM   15  C22 UNL     1      19.643  13.307 -14.865  1.00  0.00     0.034 C 
HETATM   16  C23 UNL     1      18.596  14.336 -14.619  1.00  0.00     0.132 C 
HETATM   17  C24 UNL     1      17.342  13.758 -13.918  1.00  0.00     0.028 C 
HETATM   18  C25 UNL     1      16.436  13.338 -15.097  1.00  0.00     0.025 C 
HETATM   19  C27 UNL     1      17.773  12.571 -13.186  1.00  0.00    -0.053 C 
ENDROOT
BRANCH   6  20
HETATM   20  C9  UNL     1      20.512   9.303  -7.525  1.00  0.00     0.046 C 
BRANCH  20  21
HETATM   21  C10 UNL     1      21.092   8.096  -6.843  1.00  0.00    -0.034 A 
HETATM   22  C11 UNL     1      20.641   7.482  -5.702  1.00  0.00     0.033 A 
HETATM   23  C12 UNL     1      21.502   6.411  -5.469  1.00  0.00     0.142 A 
HETATM   24  O1  UNL     1      22.392   6.406  -6.416  1.00  0.00    -0.334 OA
HETATM   25  C13 UNL     1      22.205   7.379  -7.261  1.00  0.00     0.148 A 
ENDBRANCH  20  21
ENDBRANCH   6  20
BRANCH   1  26
HETATM   26  C2  UNL     1      15.500  11.473 -12.609  1.00  0.00     0.195 C 
HETATM   27  C1  UNL     1      15.039  10.155 -11.943  1.00  0.00     0.050 C 
HETATM   28  F1  UNL     1      14.678  12.416 -12.025  1.00  0.00    -0.245 F 
ENDBRANCH   1  26
BRANCH  17  29
HETATM   29  C26 UNL     1      16.737  14.935 -13.261  1.00  0.00     0.180 C 
BRANCH  29  30
HETATM   30  O3  UNL     1      15.843  15.612 -14.152  1.00  0.00    -0.400 OA
ATOM     31  H3  UNL     1      14.942  15.504 -13.872  1.00  0.00     0.209 HD
ENDBRANCH  29  30
ENDBRANCH  17  29
BRANCH  16  32
HETATM   32  O2  UNL     1      18.243  14.924 -15.824  1.00  0.00    -0.394 OA
ATOM     33  H2  UNL     1      19.031  15.132 -16.313  1.00  0.00     0.210 HD
ENDBRANCH  16  32
TORSDOF 6
ENDMDL
MODEL 3
REMARK VINA RESULT: -7.205512509      3.997      6.315
REMARK  6 active torsions:
REMARK  status: ('A' for Active; 'I' for Inactive)
REMARK    1  A    between atoms: C2_2  and  C3_4 
REMARK    2  A    between atoms: C8_9  and  C9_10 
REMARK    3  A    between atoms: C9_10  and  C10_11 
REMARK    4  A    between atoms: C23_25  and  O2_26 
REMARK    5  A    between atoms: C24_28  and  C26_30 
REMARK    6  A    between atoms: C26_30  and  O3_31 
ROOT
HETATM    1  C3  UNL     1      18.289  11.860 -12.083  1.00  0.00    -0.042 C 
HETATM    2  C4  UNL     1      17.166  12.113 -11.077  1.00  0.00     0.043 C 
HETATM    3  C5  UNL     1      16.678  10.783 -10.562  1.00  0.00    -0.001 C 
HETATM    4  C6  UNL     1      15.420  10.345 -11.311  1.00  0.00    -0.001 C 
HETATM    5  C7  UNL     1      14.147  10.912 -10.714  1.00  0.00     0.011 C 
HETATM    6  C8  UNL     1      13.690   9.478 -10.480  1.00  0.00    -0.001 C 
HETATM    7  C14 UNL     1      15.058   8.978 -10.781  1.00  0.00    -0.036 C 
HETATM    8  C15 UNL     1      15.051   7.907 -11.871  1.00  0.00     0.016 C 
HETATM    9  C16 UNL     1      15.912   8.545  -9.644  1.00  0.00     0.010 C 
HETATM   10  C17 UNL     1      17.378   8.511  -9.977  1.00  0.00     0.007 C 
HETATM   11  C18 UNL     1      17.716   9.722 -10.821  1.00  0.00     0.003 C 
HETATM   12  C19 UNL     1      19.119  10.250 -10.459  1.00  0.00    -0.015 C 
HETATM   13  C20 UNL     1      19.022  10.796  -9.108  1.00  0.00     0.020 C 
HETATM   14  C21 UNL     1      19.989   9.004 -10.508  1.00  0.00     0.016 C 
HETATM   15  C22 UNL     1      21.282   9.362 -11.178  1.00  0.00     0.034 C 
HETATM   16  C23 UNL     1      21.745  10.743 -10.869  1.00  0.00     0.132 C 
HETATM   17  C24 UNL     1      20.807  11.831 -11.448  1.00  0.00     0.028 C 
HETATM   18  C25 UNL     1      21.401  12.109 -12.847  1.00  0.00     0.025 C 
HETATM   19  C27 UNL     1      19.487  11.223 -11.590  1.00  0.00    -0.053 C 
ENDROOT
BRANCH   6  20
HETATM   20  C9  UNL     1      13.135   9.291  -9.110  1.00  0.00     0.046 C 
BRANCH  20  21
HETATM   21  C10 UNL     1      11.737   9.843  -9.086  1.00  0.00    -0.034 A 
HETATM   22  C11 UNL     1      11.041  10.405 -10.126  1.00  0.00     0.033 A 
HETATM   23  C12 UNL     1       9.794  10.760  -9.614  1.00  0.00     0.142 A 
HETATM   24  O1  UNL     1       9.772  10.424  -8.359  1.00  0.00    -0.334 OA
HETATM   25  C13 UNL     1      10.893   9.876  -7.985  1.00  0.00     0.148 A 
ENDBRANCH  20  21
ENDBRANCH   6  20
BRANCH   1  26
HETATM   26  C2  UNL     1      18.278  12.966 -13.074  1.00  0.00     0.195 C 
HETATM   27  C1  UNL     1      16.856  13.184 -13.644  1.00  0.00     0.050 C 
HETATM   28  F1  UNL     1      18.586  14.202 -12.539  1.00  0.00    -0.245 F 
ENDBRANCH   1  26
BRANCH  17  29
HETATM   29  C26 UNL     1      21.064  13.005 -10.590  1.00  0.00     0.180 C 
BRANCH  29  30
HETATM   30  O3  UNL     1      22.137  13.794 -11.117  1.00  0.00    -0.400 OA
ATOM     31  H3  UNL     1      22.832  13.890 -10.476  1.00  0.00     0.209 HD
ENDBRANCH  29  30
ENDBRANCH  17  29
BRANCH  16  32
HETATM   32  O2  UNL     1      23.031  10.912 -11.356  1.00  0.00    -0.394 OA
ATOM     33  H2  UNL     1      23.646  10.488 -10.769  1.00  0.00     0.210 HD
ENDBRANCH  16  32
TORSDOF 6
ENDMDL
MODEL 4
REMARK VINA RESULT: -7.034340326      1.821      2.211
REMARK  6 active torsions:
REMARK  status: ('A' for Active; 'I' for Inactive)
REMARK    1  A    between atoms: C2_2  and  C3_4 
REMARK    2  A    between atoms: C8_9  and  C9_10 
REMARK    3  A    between atoms: C9_10  and  C10_11 
REMARK    4  A    between atoms: C23_25  and  O2_26 
REMARK    5  A    between atoms: C24_28  and  C26_30 
REMARK    6  A    between atoms: C26_30  and  O3_31 
ROOT
HETATM    1  C3  UNL     1      20.192  12.714 -11.858  1.00  0.00    -0.042 C 
HETATM    2  C4  UNL     1      20.939  12.388 -10.566  1.00  0.00     0.043 C 
HETATM    3  C5  UNL     1      21.047  10.889 -10.442  1.00  0.00    -0.001 C 
HETATM    4  C6  UNL     1      19.953  10.346  -9.523  1.00  0.00    -0.001 C 
HETATM    5  C7  UNL     1      20.340  10.378  -8.057  1.00  0.00     0.011 C 
HETATM    6  C8  UNL     1      20.166   8.865  -8.040  1.00  0.00    -0.001 C 
HETATM    7  C14 UNL     1      20.096   8.843  -9.525  1.00  0.00    -0.036 C 
HETATM    8  C15 UNL     1      18.841   8.132 -10.031  1.00  0.00     0.016 C 
HETATM    9  C16 UNL     1      21.289   8.369 -10.276  1.00  0.00     0.010 C 
HETATM   10  C17 UNL     1      21.306   8.813 -11.713  1.00  0.00     0.007 C 
HETATM   11  C18 UNL     1      20.827  10.248 -11.787  1.00  0.00     0.003 C 
HETATM   12  C19 UNL     1      21.604  11.013 -12.876  1.00  0.00    -0.015 C 
HETATM   13  C20 UNL     1      22.977  11.141 -12.396  1.00  0.00     0.020 C 
HETATM   14  C21 UNL     1      21.507  10.101 -14.088  1.00  0.00     0.016 C 
HETATM   15  C22 UNL     1      21.243  10.951 -15.295  1.00  0.00     0.034 C 
HETATM   16  C23 UNL     1      21.923  12.275 -15.246  1.00  0.00     0.132 C 
HETATM   17  C24 UNL     1      21.375  13.187 -14.121  1.00  0.00     0.028 C 
HETATM   18  C25 UNL     1      20.239  13.969 -14.818  1.00  0.00     0.025 C 
HETATM   19  C27 UNL     1      20.810  12.311 -13.099  1.00  0.00    -0.053 C 
ENDROOT
BRANCH   6  20
HETATM   20  C9  UNL     1      21.303   8.186  -7.357  1.00  0.00     0.046 C 
BRANCH  20  21
HETATM   21  C10 UNL     1      20.749   7.330  -6.253  1.00  0.00    -0.034 A 
HETATM   22  C11 UNL     1      19.480   7.355  -5.730  1.00  0.00     0.033 A 
HETATM   23  C12 UNL     1      19.449   6.380  -4.735  1.00  0.00     0.142 A 
HETATM   24  O1  UNL     1      20.623   5.827  -4.687  1.00  0.00    -0.334 OA
HETATM   25  C13 UNL     1      21.439   6.345  -5.561  1.00  0.00     0.148 A 
ENDBRANCH  20  21
ENDBRANCH   6  20
BRANCH   1  26
HETATM   26  C2  UNL     1      19.470  13.997 -11.663  1.00  0.00     0.195 C 
HETATM   27  C1  UNL     1      18.863  14.079 -10.242  1.00  0.00     0.050 C 
HETATM   28  F1  UNL     1      20.284  15.112 -11.713  1.00  0.00    -0.245 F 
ENDBRANCH   1  26
BRANCH  17  29
HETATM   29  C26 UNL     1      22.489  14.120 -13.856  1.00  0.00     0.180 C 
BRANCH  29  30
HETATM   30  O3  UNL     1      23.662  13.732 -14.580  1.00  0.00    -0.400 OA
ATOM     31  H3  UNL     1      23.480  12.989 -15.143  1.00  0.00     0.209 HD
ENDBRANCH  29  30
ENDBRANCH  17  29
BRANCH  16  32
HETATM   32  O2  UNL     1      21.794  12.900 -16.476  1.00  0.00    -0.394 OA
ATOM     33  H2  UNL     1      22.207  13.755 -16.437  1.00  0.00     0.210 HD
ENDBRANCH  16  32
TORSDOF 6
ENDMDL
MODEL 5
REMARK VINA RESULT: -7.031787686      3.577      6.805
REMARK  6 active torsions:
REMARK  status: ('A' for Active; 'I' for Inactive)
REMARK    1  A    between atoms: C2_2  and  C3_4 
REMARK    2  A    between atoms: C8_9  and  C9_10 
REMARK    3  A    between atoms: C9_10  and  C10_11 
REMARK    4  A    between atoms: C23_25  and  O2_26 
REMARK    5  A    between atoms: C24_28  and  C26_30 
REMARK    6  A    between atoms: C26_30  and  O3_31 
ROOT
HETATM    1  C3  UNL     1      18.877  12.338 -13.275  1.00  0.00    -0.042 C 
HETATM    2  C4  UNL     1      17.681  13.091 -12.694  1.00  0.00     0.043 C 
HETATM    3  C5  UNL     1      16.905  12.147 -11.811  1.00  0.00    -0.001 C 
HETATM    4  C6  UNL     1      15.712  11.563 -12.566  1.00  0.00    -0.001 C 
HETATM    5  C7  UNL     1      14.482  12.446 -12.505  1.00  0.00     0.011 C 
HETATM    6  C8  UNL     1      13.759  11.289 -11.828  1.00  0.00    -0.001 C 
HETATM    7  C14 UNL     1      15.050  10.580 -11.631  1.00  0.00    -0.036 C 
HETATM    8  C15 UNL     1      15.018   9.160 -12.196  1.00  0.00     0.016 C 
HETATM    9  C16 UNL     1      15.646  10.575 -10.269  1.00  0.00     0.010 C 
HETATM   10  C17 UNL     1      17.118  10.264 -10.261  1.00  0.00     0.007 C 
HETATM   11  C18 UNL     1      17.774  10.979 -11.423  1.00  0.00     0.003 C 
HETATM   12  C19 UNL     1      19.179  11.470 -11.022  1.00  0.00    -0.015 C 
HETATM   13  C20 UNL     1      18.984  12.533 -10.039  1.00  0.00     0.020 C 
HETATM   14  C21 UNL     1      19.823  10.238 -10.407  1.00  0.00     0.016 C 
HETATM   15  C22 UNL     1      21.241  10.160 -10.890  1.00  0.00     0.034 C 
HETATM   16  C23 UNL     1      21.882  11.493 -11.057  1.00  0.00     0.132 C 
HETATM   17  C24 UNL     1      21.235  12.330 -12.188  1.00  0.00     0.028 C 
HETATM   18  C25 UNL     1      22.064  11.945 -13.435  1.00  0.00     0.025 C 
HETATM   19  C27 UNL     1      19.866  11.849 -12.344  1.00  0.00    -0.053 C 
ENDROOT
BRANCH   6  20
HETATM   20  C9  UNL     1      12.988  11.740 -10.635  1.00  0.00     0.046 C 
BRANCH  20  21
HETATM   21  C10 UNL     1      11.523  11.598 -10.935  1.00  0.00    -0.034 A 
HETATM   22  C11 UNL     1      10.666  10.625 -10.487  1.00  0.00     0.033 A 
HETATM   23  C12 UNL     1       9.419  10.922 -11.031  1.00  0.00     0.142 A 
HETATM   24  O1  UNL     1       9.546  11.998 -11.748  1.00  0.00    -0.334 OA
HETATM   25  C13 UNL     1      10.768  12.448 -11.732  1.00  0.00     0.148 A 
ENDBRANCH  20  21
ENDBRANCH   6  20
BRANCH   1  26
HETATM   26  C2  UNL     1      19.197  12.931 -14.599  1.00  0.00     0.195 C 
HETATM   27  C1  UNL     1      17.908  13.183 -15.418  1.00  0.00     0.050 C 
HETATM   28  F1  UNL     1      19.765  14.188 -14.528  1.00  0.00    -0.245 F 
ENDBRANCH   1  26
BRANCH  17  29
HETATM   29  C26 UNL     1      21.563  13.723 -11.822  1.00  0.00     0.180 C 
BRANCH  29  30
HETATM   30  O3  UNL     1      22.853  14.090 -12.323  1.00  0.00    -0.400 OA
ATOM     31  H3  UNL     1      23.045  13.631 -13.132  1.00  0.00     0.209 HD
ENDBRANCH  29  30
ENDBRANCH  17  29
BRANCH  16  32
HETATM   32  O2  UNL     1      23.235  11.321 -11.303  1.00  0.00    -0.394 OA
ATOM     33  H2  UNL     1      23.728  11.962 -10.803  1.00  0.00     0.210 HD
ENDBRANCH  16  32
TORSDOF 6
ENDMDL
