MODEL 1
REMARK VINA RESULT: -8.095673365      0.000      0.000
REMARK  6 active torsions:
REMARK  status: ('A' for Active; 'I' for Inactive)
REMARK    1  A    between atoms: C2_2  and  C3_3 
REMARK    2  A    between atoms: C2_2  and  C5_7 
REMARK    3  A    between atoms: C3_3  and  C4_4 
REMARK    4  A    between atoms: C4_4  and  O1_5 
REMARK    5  A    between atoms: C9_11  and  O2_12 
REMARK    6  A    between atoms: C11_15  and  C12_16 
ROOT
HETATM    1  C5  UNL     1      20.625   8.548  -7.523  1.00  0.00    -0.034 C 
HETATM    2  C6  UNL     1      21.509   9.428  -6.603  1.00  0.00     0.016 C 
HETATM    3  C7  UNL     1      19.385   9.448  -7.721  1.00  0.00     0.013 C 
HETATM    4  C8  UNL     1      19.752  10.216  -9.014  1.00  0.00     0.044 C 
HETATM    5  C9  UNL     1      20.191   9.062  -9.804  1.00  0.00     0.086 C 
HETATM    6  C10 UNL     1      21.071   9.207 -10.930  1.00  0.00    -0.046 C 
HETATM    7  C11 UNL     1      21.131  10.207 -11.772  1.00  0.00     0.006 C 
HETATM    8  C25 UNL     1      21.902   7.977 -10.932  1.00  0.00     0.038 C 
HETATM    9  C26 UNL     1      21.551   7.283  -9.583  1.00  0.00     0.013 C 
HETATM   10  C27 UNL     1      21.220   8.471  -8.804  1.00  0.00     0.033 C 
ENDROOT
BRANCH   5  11
HETATM   11  O2  UNL     1      19.209   8.140 -10.105  1.00  0.00    -0.385 OA
ATOM     12  H2  UNL     1      19.424   7.236  -9.908  1.00  0.00     0.211 HD
ENDBRANCH   5  11
BRANCH   7  13
HETATM   13  C12 UNL     1      22.063  10.260 -12.886  1.00  0.00     0.004 C 
HETATM   14  C13 UNL     1      22.640  11.382 -13.251  1.00  0.00    -0.068 C 
HETATM   15  C14 UNL     1      22.450  12.695 -12.627  1.00  0.00     0.036 C 
HETATM   16  C18 UNL     1      23.584  11.520 -14.372  1.00  0.00     0.095 C 
HETATM   17  C15 UNL     1      23.826  13.348 -12.829  1.00  0.00     0.017 C 
HETATM   18  C16 UNL     1      24.231  12.856 -14.226  1.00  0.00     0.002 C 
HETATM   19  C17 UNL     1      23.642  13.824 -15.230  1.00  0.00     0.019 C 
HETATM   20  C24 UNL     1      25.721  12.821 -14.260  1.00  0.00     0.187 C 
HETATM   21  C21 UNL     1      26.319  11.940 -15.315  1.00  0.00    -0.009 C 
HETATM   22  F1  UNL     1      26.153  14.130 -14.516  1.00  0.00    -0.248 F 
HETATM   23  C20 UNL     1      25.682  10.600 -15.445  1.00  0.00     0.090 C 
HETATM   24  C22 UNL     1      27.787  11.734 -14.928  1.00  0.00     0.018 C 
HETATM   25  C23 UNL     1      26.339  12.601 -16.675  1.00  0.00     0.018 C 
HETATM   26  C19 UNL     1      24.641  10.468 -14.384  1.00  0.00     0.136 C 
HETATM   27  O3  UNL     1      24.713   9.539 -13.616  1.00  0.00    -0.297 OA
ENDBRANCH   7  13
BRANCH   1  28
HETATM   28  C2  UNL     1      20.340   7.373  -6.689  1.00  0.00    -0.008 C 
HETATM   29  C1  UNL     1      21.390   6.891  -5.756  1.00  0.00     0.011 C 
BRANCH  28  30
HETATM   30  C3  UNL     1      19.058   7.567  -5.913  1.00  0.00     0.031 C 
BRANCH  30  31
HETATM   31  C4  UNL     1      18.875   6.473  -4.871  1.00  0.00     0.164 C 
BRANCH  31  32
HETATM   32  O1  UNL     1      17.589   6.487  -4.370  1.00  0.00    -0.401 OA
ATOM     33  H1  UNL     1      17.492   7.166  -3.713  1.00  0.00     0.209 HD
ENDBRANCH  31  32
ENDBRANCH  30  31
ENDBRANCH  28  30
ENDBRANCH   1  28
TORSDOF 6
ENDMDL
MODEL 2
REMARK VINA RESULT: -8.086615607      3.310      4.156
REMARK  6 active torsions:
REMARK  status: ('A' for Active; 'I' for Inactive)
REMARK    1  A    between atoms: C2_2  and  C3_3 
REMARK    2  A    between atoms: C2_2  and  C5_7 
REMARK    3  A    between atoms: C3_3  and  C4_4 
REMARK    4  A    between atoms: C4_4  and  O1_5 
REMARK    5  A    between atoms: C9_11  and  O2_12 
REMARK    6  A    between atoms: C11_15  and  C12_16 
ROOT
HETATM    1  C5  UNL     1      20.858   8.381  -7.207  1.00  0.00    -0.034 C 
HETATM    2  C6  UNL     1      21.278   9.204  -5.962  1.00  0.00     0.016 C 
HETATM    3  C7  UNL     1      19.317   8.441  -7.118  1.00  0.00     0.013 C 
HETATM    4  C8  UNL     1      18.997   9.683  -7.985  1.00  0.00     0.044 C 
HETATM    5  C9  UNL     1      19.843   9.340  -9.131  1.00  0.00     0.086 C 
HETATM    6  C10 UNL     1      20.309  10.337 -10.054  1.00  0.00    -0.046 C 
HETATM    7  C11 UNL     1      19.685  11.423 -10.436  1.00  0.00     0.006 C 
HETATM    8  C25 UNL     1      21.652   9.873 -10.481  1.00  0.00     0.038 C 
HETATM    9  C26 UNL     1      21.955   8.676  -9.532  1.00  0.00     0.013 C 
HETATM   10  C27 UNL     1      21.179   9.108  -8.376  1.00  0.00     0.033 C 
ENDROOT
BRANCH   5  11
HETATM   11  O2  UNL     1      19.468   8.209  -9.828  1.00  0.00    -0.385 OA
ATOM     12  H2  UNL     1      19.410   8.310 -10.770  1.00  0.00     0.211 HD
ENDBRANCH   5  11
BRANCH   7  13
HETATM   13  C12 UNL     1      20.245  12.376 -11.380  1.00  0.00     0.004 C 
HETATM   14  C13 UNL     1      20.105  13.672 -11.217  1.00  0.00    -0.068 C 
HETATM   15  C14 UNL     1      19.400  14.335 -10.116  1.00  0.00     0.036 C 
HETATM   16  C18 UNL     1      20.631  14.699 -12.132  1.00  0.00     0.095 C 
HETATM   17  C15 UNL     1      20.202  15.636  -9.960  1.00  0.00     0.017 C 
HETATM   18  C16 UNL     1      20.536  16.002 -11.414  1.00  0.00     0.002 C 
HETATM   19  C17 UNL     1      19.370  16.802 -11.954  1.00  0.00     0.019 C 
HETATM   20  C24 UNL     1      21.808  16.779 -11.386  1.00  0.00     0.187 C 
HETATM   21  C21 UNL     1      22.563  16.823 -12.679  1.00  0.00    -0.009 C 
HETATM   22  F1  UNL     1      21.472  18.099 -11.054  1.00  0.00    -0.248 F 
HETATM   23  C20 UNL     1      22.671  15.515 -13.385  1.00  0.00     0.090 C 
HETATM   24  C22 UNL     1      23.979  17.299 -12.340  1.00  0.00     0.018 C 
HETATM   25  C23 UNL     1      22.002  17.846 -13.641  1.00  0.00     0.018 C 
HETATM   26  C19 UNL     1      22.050  14.464 -12.528  1.00  0.00     0.136 C 
HETATM   27  O3  UNL     1      22.715  13.508 -12.211  1.00  0.00    -0.297 OA
ENDBRANCH   7  13
BRANCH   1  28
HETATM   28  C2  UNL     1      21.386   7.041  -6.914  1.00  0.00    -0.008 C 
HETATM   29  C1  UNL     1      22.779   6.721  -7.317  1.00  0.00     0.011 C 
BRANCH  28  30
HETATM   30  C3  UNL     1      21.220   6.709  -5.449  1.00  0.00     0.031 C 
BRANCH  30  31
HETATM   31  C4  UNL     1      20.356   5.471  -5.261  1.00  0.00     0.164 C 
BRANCH  31  32
HETATM   32  O1  UNL     1      20.473   4.986  -3.974  1.00  0.00    -0.401 OA
ATOM     33  H1  UNL     1      19.722   4.449  -3.748  1.00  0.00     0.209 HD
ENDBRANCH  31  32
ENDBRANCH  30  31
ENDBRANCH  28  30
ENDBRANCH   1  28
TORSDOF 6
ENDMDL
MODEL 3
REMARK VINA RESULT: -7.867842268      3.947      9.206
REMARK  6 active torsions:
REMARK  status: ('A' for Active; 'I' for Inactive)
REMARK    1  A    between atoms: C2_2  and  C3_3 
REMARK    2  A    between atoms: C2_2  and  C5_7 
REMARK    3  A    between atoms: C3_3  and  C4_4 
REMARK    4  A    between atoms: C4_4  and  O1_5 
REMARK    5  A    between atoms: C9_11  and  O2_12 
REMARK    6  A    between atoms: C11_15  and  C12_16 
ROOT
HETATM    1  C5  UNL     1      22.802  13.123 -13.690  1.00  0.00    -0.034 C 
HETATM    2  C6  UNL     1      21.955  14.251 -14.332  1.00  0.00     0.016 C 
HETATM    3  C7  UNL     1      23.398  13.839 -12.457  1.00  0.00     0.013 C 
HETATM    4  C8  UNL     1      22.354  13.510 -11.363  1.00  0.00     0.044 C 
HETATM    5  C9  UNL     1      22.242  12.074 -11.631  1.00  0.00     0.086 C 
HETATM    6  C10 UNL     1      21.088  11.318 -11.233  1.00  0.00    -0.046 C 
HETATM    7  C11 UNL     1      20.342  11.499 -10.172  1.00  0.00     0.006 C 
HETATM    8  C25 UNL     1      20.921  10.284 -12.284  1.00  0.00     0.038 C 
HETATM    9  C26 UNL     1      21.936  10.703 -13.388  1.00  0.00     0.013 C 
HETATM   10  C27 UNL     1      21.939  12.142 -13.151  1.00  0.00     0.033 C 
ENDROOT
BRANCH   5  11
HETATM   11  O2  UNL     1      23.382  11.334 -11.389  1.00  0.00    -0.385 OA
ATOM     12  H2  UNL     1      23.242  10.409 -11.228  1.00  0.00     0.211 HD
ENDBRANCH   5  11
BRANCH   7  13
HETATM   13  C12 UNL     1      19.188  10.675  -9.856  1.00  0.00     0.004 C 
HETATM   14  C13 UNL     1      17.992  10.955 -10.321  1.00  0.00    -0.068 C 
HETATM   15  C14 UNL     1      17.643  12.082 -11.191  1.00  0.00     0.036 C 
HETATM   16  C18 UNL     1      16.773  10.178 -10.038  1.00  0.00     0.095 C 
HETATM   17  C15 UNL     1      16.495  11.498 -12.028  1.00  0.00     0.017 C 
HETATM   18  C16 UNL     1      15.737  10.638 -11.006  1.00  0.00     0.002 C 
HETATM   19  C17 UNL     1      14.746  11.544 -10.306  1.00  0.00     0.019 C 
HETATM   20  C24 UNL     1      15.079   9.538 -11.767  1.00  0.00     0.187 C 
HETATM   21  C21 UNL     1      14.699   8.335 -10.958  1.00  0.00    -0.009 C 
HETATM   22  F1  UNL     1      13.898  10.066 -12.308  1.00  0.00    -0.248 F 
HETATM   23  C20 UNL     1      15.745   7.867 -10.005  1.00  0.00     0.090 C 
HETATM   24  C22 UNL     1      14.428   7.206 -11.958  1.00  0.00     0.018 C 
HETATM   25  C23 UNL     1      13.407   8.534 -10.199  1.00  0.00     0.018 C 
HETATM   26  C19 UNL     1      16.964   8.707 -10.193  1.00  0.00     0.136 C 
HETATM   27  O3  UNL     1      18.008   8.160 -10.454  1.00  0.00    -0.297 OA
ENDBRANCH   7  13
BRANCH   1  28
HETATM   28  C2  UNL     1      23.813  12.839 -14.718  1.00  0.00    -0.008 C 
HETATM   29  C1  UNL     1      23.865  13.704 -15.923  1.00  0.00     0.011 C 
BRANCH  28  30
HETATM   30  C3  UNL     1      25.194  12.777 -14.107  1.00  0.00     0.031 C 
BRANCH  30  31
HETATM   31  C4  UNL     1      25.726  11.352 -14.095  1.00  0.00     0.164 C 
BRANCH  31  32
HETATM   32  O1  UNL     1      25.806  10.873 -12.803  1.00  0.00    -0.401 OA
ATOM     33  H1  UNL     1      25.529   9.964 -12.764  1.00  0.00     0.209 HD
ENDBRANCH  31  32
ENDBRANCH  30  31
ENDBRANCH  28  30
ENDBRANCH   1  28
TORSDOF 6
ENDMDL
MODEL 4
REMARK VINA RESULT: -7.860196657      5.233      6.627
REMARK  6 active torsions:
REMARK  status: ('A' for Active; 'I' for Inactive)
REMARK    1  A    between atoms: C2_2  and  C3_3 
REMARK    2  A    between atoms: C2_2  and  C5_7 
REMARK    3  A    between atoms: C3_3  and  C4_4 
REMARK    4  A    between atoms: C4_4  and  O1_5 
REMARK    5  A    between atoms: C9_11  and  O2_12 
REMARK    6  A    between atoms: C11_15  and  C12_16 
ROOT
HETATM    1  C5  UNL     1      14.436   8.378 -11.601  1.00  0.00    -0.034 C 
HETATM    2  C6  UNL     1      14.708   7.469 -12.827  1.00  0.00     0.016 C 
HETATM    3  C7  UNL     1      15.461   7.840 -10.578  1.00  0.00     0.013 C 
HETATM    4  C8  UNL     1      16.679   8.760 -10.835  1.00  0.00     0.044 C 
HETATM    5  C9  UNL     1      15.959  10.036 -10.836  1.00  0.00     0.086 C 
HETATM    6  C10 UNL     1      16.491  11.205 -11.477  1.00  0.00    -0.046 C 
HETATM    7  C11 UNL     1      17.749  11.554 -11.584  1.00  0.00     0.006 C 
HETATM    8  C25 UNL     1      15.308  11.936 -11.996  1.00  0.00     0.038 C 
HETATM    9  C26 UNL     1      14.129  10.941 -11.782  1.00  0.00     0.013 C 
HETATM   10  C27 UNL     1      14.872   9.691 -11.890  1.00  0.00     0.033 C 
ENDROOT
BRANCH   5  11
HETATM   11  O2  UNL     1      15.383  10.394  -9.634  1.00  0.00    -0.385 OA
ATOM     12  H2  UNL     1      14.502  10.070  -9.490  1.00  0.00     0.211 HD
ENDBRANCH   5  11
BRANCH   7  13
HETATM   13  C12 UNL     1      18.189  12.764 -12.257  1.00  0.00     0.004 C 
HETATM   14  C13 UNL     1      18.838  13.711 -11.619  1.00  0.00    -0.068 C 
HETATM   15  C14 UNL     1      19.206  13.704 -10.200  1.00  0.00     0.036 C 
HETATM   16  C18 UNL     1      19.306  14.969 -12.226  1.00  0.00     0.095 C 
HETATM   17  C15 UNL     1      20.523  14.496 -10.207  1.00  0.00     0.017 C 
HETATM   18  C16 UNL     1      20.256  15.585 -11.256  1.00  0.00     0.002 C 
HETATM   19  C17 UNL     1      19.584  16.739 -10.542  1.00  0.00     0.019 C 
HETATM   20  C24 UNL     1      21.575  15.957 -11.843  1.00  0.00     0.187 C 
HETATM   21  C21 UNL     1      21.517  16.624 -13.183  1.00  0.00    -0.009 C 
HETATM   22  F1  UNL     1      22.177  16.858 -10.954  1.00  0.00    -0.248 F 
HETATM   23  C20 UNL     1      20.581  15.994 -14.156  1.00  0.00     0.090 C 
HETATM   24  C22 UNL     1      22.931  16.550 -13.768  1.00  0.00     0.018 C 
HETATM   25  C23 UNL     1      21.189  18.097 -13.080  1.00  0.00     0.018 C 
HETATM   26  C19 UNL     1      20.004  14.769 -13.529  1.00  0.00     0.136 C 
HETATM   27  O3  UNL     1      20.134  13.713 -14.099  1.00  0.00    -0.297 OA
ENDBRANCH   7  13
BRANCH   1  28
HETATM   28  C2  UNL     1      13.051   8.044 -11.239  1.00  0.00    -0.008 C 
HETATM   29  C1  UNL     1      12.353   6.980 -12.004  1.00  0.00     0.011 C 
BRANCH  28  30
HETATM   30  C3  UNL     1      12.946   7.727  -9.765  1.00  0.00     0.031 C 
BRANCH  30  31
HETATM   31  C4  UNL     1      12.570   8.965  -8.963  1.00  0.00     0.164 C 
BRANCH  31  32
HETATM   32  O1  UNL     1      13.207   8.965  -7.739  1.00  0.00    -0.401 OA
ATOM     33  H1  UNL     1      12.599   9.189  -7.044  1.00  0.00     0.209 HD
ENDBRANCH  31  32
ENDBRANCH  30  31
ENDBRANCH  28  30
ENDBRANCH   1  28
TORSDOF 6
ENDMDL
MODEL 5
REMARK VINA RESULT: -7.847786314      3.268      4.645
REMARK  6 active torsions:
REMARK  status: ('A' for Active; 'I' for Inactive)
REMARK    1  A    between atoms: C2_2  and  C3_3 
REMARK    2  A    between atoms: C2_2  and  C5_7 
REMARK    3  A    between atoms: C3_3  and  C4_4 
REMARK    4  A    between atoms: C4_4  and  O1_5 
REMARK    5  A    between atoms: C9_11  and  O2_12 
REMARK    6  A    between atoms: C11_15  and  C12_16 
ROOT
HETATM    1  C5  UNL     1      16.051   9.515 -10.644  1.00  0.00    -0.034 C 
HETATM    2  C6  UNL     1      15.627   9.068 -12.066  1.00  0.00     0.016 C 
HETATM    3  C7  UNL     1      16.494   8.176 -10.013  1.00  0.00     0.013 C 
HETATM    4  C8  UNL     1      18.009   8.163 -10.327  1.00  0.00     0.044 C 
HETATM    5  C9  UNL     1      18.307   9.531  -9.893  1.00  0.00     0.086 C 
HETATM    6  C10 UNL     1      19.461  10.240 -10.367  1.00  0.00    -0.046 C 
HETATM    7  C11 UNL     1      20.634   9.744 -10.670  1.00  0.00     0.006 C 
HETATM    8  C25 UNL     1      19.038  11.661 -10.441  1.00  0.00     0.038 C 
HETATM    9  C26 UNL     1      17.502  11.610 -10.194  1.00  0.00     0.013 C 
HETATM   10  C27 UNL     1      17.236  10.280 -10.730  1.00  0.00     0.033 C 
ENDROOT
BRANCH   5  11
HETATM   11  O2  UNL     1      18.139   9.776  -8.545  1.00  0.00    -0.385 OA
ATOM     12  H2  UNL     1      18.618   9.199  -7.962  1.00  0.00     0.211 HD
ENDBRANCH   5  11
BRANCH   7  13
HETATM   13  C12 UNL     1      21.745  10.551 -11.146  1.00  0.00     0.004 C 
HETATM   14  C13 UNL     1      21.960  10.743 -12.427  1.00  0.00    -0.068 C 
HETATM   15  C14 UNL     1      21.157  10.206 -13.529  1.00  0.00     0.036 C 
HETATM   16  C18 UNL     1      23.068  11.536 -12.987  1.00  0.00     0.095 C 
HETATM   17  C15 UNL     1      21.290  11.309 -14.590  1.00  0.00     0.017 C 
HETATM   18  C16 UNL     1      22.749  11.760 -14.426  1.00  0.00     0.002 C 
HETATM   19  C17 UNL     1      23.598  10.851 -15.289  1.00  0.00     0.019 C 
HETATM   20  C24 UNL     1      22.813  13.188 -14.852  1.00  0.00     0.187 C 
HETATM   21  C21 UNL     1      23.990  13.960 -14.337  1.00  0.00    -0.009 C 
HETATM   22  F1  UNL     1      22.892  13.193 -16.252  1.00  0.00    -0.248 F 
HETATM   23  C20 UNL     1      24.294  13.747 -12.893  1.00  0.00     0.090 C 
HETATM   24  C22 UNL     1      23.660  15.442 -14.539  1.00  0.00     0.018 C 
HETATM   25  C23 UNL     1      25.246  13.701 -15.139  1.00  0.00     0.018 C 
HETATM   26  C19 UNL     1      23.244  12.857 -12.317  1.00  0.00     0.136 C 
HETATM   27  O3  UNL     1      22.613  13.248 -11.365  1.00  0.00    -0.297 OA
ENDBRANCH   7  13
BRANCH   1  28
HETATM   28  C2  UNL     1      14.798  10.021 -10.067  1.00  0.00    -0.008 C 
HETATM   29  C1  UNL     1      14.077  11.110 -10.774  1.00  0.00     0.011 C 
BRANCH  28  30
HETATM   30  C3  UNL     1      13.831   8.888  -9.811  1.00  0.00     0.031 C 
BRANCH  30  31
HETATM   31  C4  UNL     1      12.743   9.305  -8.833  1.00  0.00     0.164 C 
BRANCH  31  32
HETATM   32  O1  UNL     1      13.084   8.951  -7.544  1.00  0.00    -0.401 OA
ATOM     33  H1  UNL     1      12.440   9.274  -6.925  1.00  0.00     0.209 HD
ENDBRANCH  31  32
ENDBRANCH  30  31
ENDBRANCH  28  30
ENDBRANCH   1  28
TORSDOF 6
ENDMDL
