MODEL 1
REMARK VINA RESULT: -9.093074404      0.000      0.000
REMARK  6 active torsions:
REMARK  status: ('A' for Active; 'I' for Inactive)
REMARK    1  A    between atoms: C5_5  and  C6_6 
REMARK    2  A    between atoms: N1_7  and  C7_9 
REMARK    3  A    between atoms: C7_9  and  C8_10 
REMARK    4  A    between atoms: C18_20  and  C19_21 
REMARK    5  A    between atoms: C19_21  and  O1_22 
REMARK    6  A    between atoms: C27_31  and  O2_32 
ROOT
HETATM    1  C8  UNL     1      18.785  10.530 -10.440  1.00  0.00    -0.021 C 
HETATM    2  C9  UNL     1      18.515   9.005 -10.293  1.00  0.00     0.018 C 
HETATM    3  C10 UNL     1      17.495  11.101 -10.906  1.00  0.00     0.011 C 
HETATM    4  C11 UNL     1      17.509  12.166 -11.928  1.00  0.00     0.002 C 
HETATM    5  C12 UNL     1      18.650  12.175 -12.895  1.00  0.00     0.010 C 
HETATM    6  C13 UNL     1      19.916  12.021 -12.137  1.00  0.00    -0.032 C 
HETATM    7  C14 UNL     1      20.030  13.160 -11.183  1.00  0.00     0.016 C 
HETATM    8  C15 UNL     1      21.185  11.981 -12.880  1.00  0.00    -0.001 C 
HETATM    9  C16 UNL     1      21.961  13.084 -13.406  1.00  0.00     0.007 C 
HETATM   10  C17 UNL     1      23.334  12.427 -13.654  1.00  0.00     0.012 C 
HETATM   11  C18 UNL     1      23.350  10.967 -13.881  1.00  0.00    -0.012 C 
HETATM   12  C20 UNL     1      23.035  10.898 -15.408  1.00  0.00     0.012 C 
HETATM   13  C21 UNL     1      21.558  11.264 -15.299  1.00  0.00     0.006 C 
HETATM   14  C22 UNL     1      21.107  10.926 -13.898  1.00  0.00    -0.001 C 
HETATM   15  C23 UNL     1      22.282  10.054 -13.435  1.00  0.00     0.023 C 
HETATM   16  C24 UNL     1      22.162   9.635 -12.032  1.00  0.00    -0.024 C 
HETATM   17  C25 UNL     1      21.107   9.997 -11.116  1.00  0.00    -0.024 C 
HETATM   18  C26 UNL     1      19.826  10.639 -11.500  1.00  0.00     0.026 C 
ENDROOT
BRANCH   1  19
HETATM   19  C7  UNL     1      19.185  10.917  -9.053  1.00  0.00     0.128 C 
BRANCH  19  20
HETATM   20  N1  UNL     1      19.473   9.704  -8.303  1.00  0.00    -0.397 N 
HETATM   21  C6  UNL     1      19.491   9.640  -7.012  1.00  0.00     0.097 C 
ATOM     22  H1  UNL     1      19.671   8.852  -8.827  1.00  0.00     0.158 HD
BRANCH  21  23
HETATM   23  C5  UNL     1      19.795   8.350  -6.415  1.00  0.00     0.015 A 
HETATM   24  C4  UNL     1      18.803   7.656  -5.734  1.00  0.00     0.016 A 
HETATM   25  C3  UNL     1      18.998   6.430  -5.136  1.00  0.00     0.011 A 
HETATM   26  C2  UNL     1      20.238   5.839  -5.206  1.00  0.00    -0.021 A 
HETATM   27  C1  UNL     1      20.487   4.506  -4.569  1.00  0.00     0.051 C 
HETATM   28  C28 UNL     1      21.226   6.510  -5.874  1.00  0.00     0.156 A 
HETATM   29  C27 UNL     1      21.032   7.757  -6.481  1.00  0.00     0.116 A 
HETATM   30  F1  UNL     1      22.454   5.955  -5.959  1.00  0.00    -0.203 F 
BRANCH  29  31
HETATM   31  O2  UNL     1      22.072   8.383  -7.141  1.00  0.00    -0.357 OA
ATOM     32  H2  UNL     1      22.910   7.947  -7.237  1.00  0.00     0.218 HD
ENDBRANCH  29  31
ENDBRANCH  21  23
ENDBRANCH  19  20
ENDBRANCH   1  19
BRANCH  11  33
HETATM   33  C19 UNL     1      24.741  10.467 -13.698  1.00  0.00     0.174 C 
BRANCH  33  34
HETATM   34  O1  UNL     1      25.540  11.195 -12.858  1.00  0.00    -0.400 OA
ATOM     35  H1  UNL     1      25.715  10.811 -12.007  1.00  0.00     0.209 HD
ENDBRANCH  33  34
ENDBRANCH  11  33
TORSDOF 6
ENDMDL
MODEL 2
REMARK VINA RESULT: -8.771300689      1.163      1.424
REMARK  6 active torsions:
REMARK  status: ('A' for Active; 'I' for Inactive)
REMARK    1  A    between atoms: C5_5  and  C6_6 
REMARK    2  A    between atoms: N1_7  and  C7_9 
REMARK    3  A    between atoms: C7_9  and  C8_10 
REMARK    4  A    between atoms: C18_20  and  C19_21 
REMARK    5  A    between atoms: C19_21  and  O1_22 
REMARK    6  A    between atoms: C27_31  and  O2_32 
ROOT
HETATM    1  C8  UNL     1      18.799  10.327 -10.149  1.00  0.00    -0.021 C 
HETATM    2  C9  UNL     1      18.575   8.795 -10.012  1.00  0.00     0.018 C 
HETATM    3  C10 UNL     1      17.477  10.870 -10.559  1.00  0.00     0.011 C 
HETATM    4  C11 UNL     1      17.426  11.948 -11.566  1.00  0.00     0.002 C 
HETATM    5  C12 UNL     1      18.529  11.999 -12.575  1.00  0.00     0.010 C 
HETATM    6  C13 UNL     1      19.825  11.869 -11.866  1.00  0.00    -0.032 C 
HETATM    7  C14 UNL     1      19.945  12.999 -10.901  1.00  0.00     0.016 C 
HETATM    8  C15 UNL     1      21.067  11.873 -12.656  1.00  0.00    -0.001 C 
HETATM    9  C16 UNL     1      21.793  13.003 -13.195  1.00  0.00     0.007 C 
HETATM   10  C17 UNL     1      23.172  12.386 -13.502  1.00  0.00     0.012 C 
HETATM   11  C18 UNL     1      23.219  10.930 -13.750  1.00  0.00    -0.012 C 
HETATM   12  C20 UNL     1      22.849  10.871 -15.265  1.00  0.00     0.012 C 
HETATM   13  C21 UNL     1      21.368  11.197 -15.097  1.00  0.00     0.006 C 
HETATM   14  C22 UNL     1      20.978  10.829 -13.685  1.00  0.00    -0.001 C 
HETATM   15  C23 UNL     1      22.193   9.983 -13.277  1.00  0.00     0.023 C 
HETATM   16  C24 UNL     1      22.136   9.544 -11.876  1.00  0.00    -0.024 C 
HETATM   17  C25 UNL     1      21.107   9.866 -10.918  1.00  0.00    -0.024 C 
HETATM   18  C26 UNL     1      19.796  10.478 -11.245  1.00  0.00     0.026 C 
ENDROOT
BRANCH   1  19
HETATM   19  C7  UNL     1      19.240  10.708  -8.773  1.00  0.00     0.128 C 
BRANCH  19  20
HETATM   20  N1  UNL     1      19.376   9.494  -7.982  1.00  0.00    -0.397 N 
HETATM   21  C6  UNL     1      20.288   9.314  -7.084  1.00  0.00     0.097 C 
ATOM     22  H1  UNL     1      18.711   8.738  -8.147  1.00  0.00     0.158 HD
BRANCH  21  23
HETATM   23  C5  UNL     1      20.287   8.042  -6.381  1.00  0.00     0.015 A 
HETATM   24  C4  UNL     1      21.487   7.379  -6.157  1.00  0.00     0.016 A 
HETATM   25  C3  UNL     1      21.584   6.170  -5.502  1.00  0.00     0.011 A 
HETATM   26  C2  UNL     1      20.441   5.569  -5.031  1.00  0.00    -0.021 A 
HETATM   27  C1  UNL     1      20.507   4.256  -4.312  1.00  0.00     0.051 C 
HETATM   28  C28 UNL     1      19.250   6.210  -5.242  1.00  0.00     0.156 A 
HETATM   29  C27 UNL     1      19.148   7.438  -5.910  1.00  0.00     0.116 A 
HETATM   30  F1  UNL     1      18.111   5.644  -4.792  1.00  0.00    -0.203 F 
BRANCH  29  31
HETATM   31  O2  UNL     1      17.915   8.034  -6.091  1.00  0.00    -0.357 OA
ATOM     32  H2  UNL     1      17.447   7.930  -6.911  1.00  0.00     0.218 HD
ENDBRANCH  29  31
ENDBRANCH  21  23
ENDBRANCH  19  20
ENDBRANCH   1  19
BRANCH  11  33
HETATM   33  C19 UNL     1      24.628  10.466 -13.626  1.00  0.00     0.174 C 
BRANCH  33  34
HETATM   34  O1  UNL     1      25.453  11.235 -12.849  1.00  0.00    -0.400 OA
ATOM     35  H1  UNL     1      26.363  10.963 -12.806  1.00  0.00     0.209 HD
ENDBRANCH  33  34
ENDBRANCH  11  33
TORSDOF 6
ENDMDL
MODEL 3
REMARK VINA RESULT: -8.707298921      0.993      1.128
REMARK  6 active torsions:
REMARK  status: ('A' for Active; 'I' for Inactive)
REMARK    1  A    between atoms: C5_5  and  C6_6 
REMARK    2  A    between atoms: N1_7  and  C7_9 
REMARK    3  A    between atoms: C7_9  and  C8_10 
REMARK    4  A    between atoms: C18_20  and  C19_21 
REMARK    5  A    between atoms: C19_21  and  O1_22 
REMARK    6  A    between atoms: C27_31  and  O2_32 
ROOT
HETATM    1  C8  UNL     1      18.479  10.405 -10.249  1.00  0.00    -0.021 C 
HETATM    2  C9  UNL     1      18.722   8.869 -10.248  1.00  0.00     0.018 C 
HETATM    3  C10 UNL     1      17.160  10.581 -10.910  1.00  0.00     0.011 C 
HETATM    4  C11 UNL     1      16.971  11.709 -11.844  1.00  0.00     0.002 C 
HETATM    5  C12 UNL     1      18.177  12.202 -12.579  1.00  0.00     0.010 C 
HETATM    6  C13 UNL     1      19.286  12.374 -11.610  1.00  0.00    -0.032 C 
HETATM    7  C14 UNL     1      18.858  13.365 -10.582  1.00  0.00     0.016 C 
HETATM    8  C15 UNL     1      20.593  12.835 -12.104  1.00  0.00    -0.001 C 
HETATM    9  C16 UNL     1      21.020  14.185 -12.407  1.00  0.00     0.007 C 
HETATM   10  C17 UNL     1      22.555  14.041 -12.434  1.00  0.00     0.012 C 
HETATM   11  C18 UNL     1      23.101  12.703 -12.744  1.00  0.00    -0.012 C 
HETATM   12  C20 UNL     1      23.069  12.720 -14.304  1.00  0.00     0.012 C 
HETATM   13  C21 UNL     1      21.557  12.575 -14.451  1.00  0.00     0.006 C 
HETATM   14  C22 UNL     1      21.036  11.943 -13.182  1.00  0.00    -0.001 C 
HETATM   15  C23 UNL     1      22.350  11.447 -12.562  1.00  0.00     0.023 C 
HETATM   16  C24 UNL     1      22.163  10.847 -11.235  1.00  0.00    -0.024 C 
HETATM   17  C25 UNL     1      20.919  10.736 -10.511  1.00  0.00    -0.024 C 
HETATM   18  C26 UNL     1      19.572  10.971 -11.086  1.00  0.00     0.026 C 
ENDROOT
BRANCH   1  19
HETATM   19  C7  UNL     1      18.504  10.730  -8.790  1.00  0.00     0.128 C 
BRANCH  19  20
HETATM   20  N1  UNL     1      18.872   9.529  -8.057  1.00  0.00    -0.397 N 
HETATM   21  C6  UNL     1      19.632   9.523  -7.013  1.00  0.00     0.097 C 
ATOM     22  H1  UNL     1      18.506   8.636  -8.388  1.00  0.00     0.158 HD
BRANCH  21  23
HETATM   23  C5  UNL     1      19.904   8.236  -6.395  1.00  0.00     0.015 A 
HETATM   24  C4  UNL     1      18.893   7.576  -5.706  1.00  0.00     0.016 A 
HETATM   25  C3  UNL     1      19.057   6.355  -5.088  1.00  0.00     0.011 A 
HETATM   26  C2  UNL     1      20.282   5.733  -5.146  1.00  0.00    -0.021 A 
HETATM   27  C1  UNL     1      20.498   4.405  -4.488  1.00  0.00     0.051 C 
HETATM   28  C28 UNL     1      21.288   6.369  -5.822  1.00  0.00     0.156 A 
HETATM   29  C27 UNL     1      21.125   7.612  -6.449  1.00  0.00     0.116 A 
HETATM   30  F1  UNL     1      22.502   5.784  -5.895  1.00  0.00    -0.203 F 
BRANCH  29  31
HETATM   31  O2  UNL     1      22.181   8.201  -7.116  1.00  0.00    -0.357 OA
ATOM     32  H2  UNL     1      22.955   7.694  -7.334  1.00  0.00     0.218 HD
ENDBRANCH  29  31
ENDBRANCH  21  23
ENDBRANCH  19  20
ENDBRANCH   1  19
BRANCH  11  33
HETATM   33  C19 UNL     1      24.532  12.661 -12.336  1.00  0.00     0.174 C 
BRANCH  33  34
HETATM   34  O1  UNL     1      25.231  11.540 -12.695  1.00  0.00    -0.400 OA
ATOM     35  H1  UNL     1      26.143  11.511 -12.431  1.00  0.00     0.209 HD
ENDBRANCH  33  34
ENDBRANCH  11  33
TORSDOF 6
ENDMDL
MODEL 4
REMARK VINA RESULT: -8.498572156      2.089      2.980
REMARK  6 active torsions:
REMARK  status: ('A' for Active; 'I' for Inactive)
REMARK    1  A    between atoms: C5_5  and  C6_6 
REMARK    2  A    between atoms: N1_7  and  C7_9 
REMARK    3  A    between atoms: C7_9  and  C8_10 
REMARK    4  A    between atoms: C18_20  and  C19_21 
REMARK    5  A    between atoms: C19_21  and  O1_22 
REMARK    6  A    between atoms: C27_31  and  O2_32 
ROOT
HETATM    1  C8  UNL     1      20.594  11.649 -11.234  1.00  0.00    -0.021 C 
HETATM    2  C9  UNL     1      19.499  10.551 -11.121  1.00  0.00     0.018 C 
HETATM    3  C10 UNL     1      20.053  12.804 -10.470  1.00  0.00     0.011 C 
HETATM    4  C11 UNL     1      20.254  14.169 -10.996  1.00  0.00     0.002 C 
HETATM    5  C12 UNL     1      20.371  14.324 -12.479  1.00  0.00     0.010 C 
HETATM    6  C13 UNL     1      21.329  13.312 -12.988  1.00  0.00    -0.032 C 
HETATM    7  C14 UNL     1      22.647  13.547 -12.332  1.00  0.00     0.016 C 
HETATM    8  C15 UNL     1      21.596  13.254 -14.433  1.00  0.00    -0.001 C 
HETATM    9  C16 UNL     1      22.482  14.083 -15.223  1.00  0.00     0.007 C 
HETATM   10  C17 UNL     1      22.643  13.250 -16.511  1.00  0.00     0.012 C 
HETATM   11  C18 UNL     1      21.552  12.312 -16.847  1.00  0.00    -0.012 C 
HETATM   12  C20 UNL     1      20.554  13.263 -17.579  1.00  0.00     0.012 C 
HETATM   13  C21 UNL     1      20.071  14.002 -16.335  1.00  0.00     0.006 C 
HETATM   14  C22 UNL     1      20.322  13.106 -15.147  1.00  0.00    -0.001 C 
HETATM   15  C23 UNL     1      20.597  11.775 -15.861  1.00  0.00     0.023 C 
HETATM   16  C24 UNL     1      20.972  10.698 -14.934  1.00  0.00    -0.024 C 
HETATM   17  C25 UNL     1      21.124  10.813 -13.503  1.00  0.00    -0.024 C 
HETATM   18  C26 UNL     1      20.678  11.967 -12.686  1.00  0.00     0.026 C 
ENDROOT
BRANCH   1  19
HETATM   19  C7  UNL     1      21.779  10.981 -10.616  1.00  0.00     0.128 C 
BRANCH  19  20
HETATM   20  N1  UNL     1      21.321  10.187  -9.486  1.00  0.00    -0.397 N 
HETATM   21  C6  UNL     1      21.908   9.114  -9.071  1.00  0.00     0.097 C 
ATOM     22  H1  UNL     1      20.485  10.497  -8.990  1.00  0.00     0.158 HD
BRANCH  21  23
HETATM   23  C5  UNL     1      21.324   8.436  -7.926  1.00  0.00     0.015 A 
HETATM   24  C4  UNL     1      20.056   8.796  -7.486  1.00  0.00     0.016 A 
HETATM   25  C3  UNL     1      19.422   8.211  -6.412  1.00  0.00     0.011 A 
HETATM   26  C2  UNL     1      20.061   7.209  -5.720  1.00  0.00    -0.021 A 
HETATM   27  C1  UNL     1      19.404   6.549  -4.548  1.00  0.00     0.051 C 
HETATM   28  C28 UNL     1      21.310   6.841  -6.141  1.00  0.00     0.156 A 
HETATM   29  C27 UNL     1      21.958   7.435  -7.233  1.00  0.00     0.116 A 
HETATM   30  F1  UNL     1      21.963   5.861  -5.482  1.00  0.00    -0.203 F 
BRANCH  29  31
HETATM   31  O2  UNL     1      23.221   7.018  -7.607  1.00  0.00    -0.357 OA
ATOM     32  H2  UNL     1      23.343   6.174  -8.024  1.00  0.00     0.218 HD
ENDBRANCH  29  31
ENDBRANCH  21  23
ENDBRANCH  19  20
ENDBRANCH   1  19
BRANCH  11  33
HETATM   33  C19 UNL     1      22.049  11.338 -17.858  1.00  0.00     0.174 C 
BRANCH  33  34
HETATM   34  O1  UNL     1      21.166  10.982 -18.841  1.00  0.00    -0.400 OA
ATOM     35  H1  UNL     1      21.523  10.483 -19.566  1.00  0.00     0.209 HD
ENDBRANCH  33  34
ENDBRANCH  11  33
TORSDOF 6
ENDMDL
MODEL 5
REMARK VINA RESULT: -8.434095538      3.793      6.235
REMARK  6 active torsions:
REMARK  status: ('A' for Active; 'I' for Inactive)
REMARK    1  A    between atoms: C5_5  and  C6_6 
REMARK    2  A    between atoms: N1_7  and  C7_9 
REMARK    3  A    between atoms: C7_9  and  C8_10 
REMARK    4  A    between atoms: C18_20  and  C19_21 
REMARK    5  A    between atoms: C19_21  and  O1_22 
REMARK    6  A    between atoms: C27_31  and  O2_32 
ROOT
HETATM    1  C8  UNL     1      19.626   9.399  -9.209  1.00  0.00    -0.021 C 
HETATM    2  C9  UNL     1      18.913   9.760  -7.875  1.00  0.00     0.018 C 
HETATM    3  C10 UNL     1      20.914   8.784  -8.797  1.00  0.00     0.011 C 
HETATM    4  C11 UNL     1      22.136   9.099  -9.564  1.00  0.00     0.002 C 
HETATM    5  C12 UNL     1      22.199  10.431 -10.240  1.00  0.00     0.010 C 
HETATM    6  C13 UNL     1      20.928  10.651 -10.974  1.00  0.00    -0.032 C 
HETATM    7  C14 UNL     1      20.775   9.560 -11.978  1.00  0.00     0.016 C 
HETATM    8  C15 UNL     1      20.744  11.912 -11.708  1.00  0.00    -0.001 C 
HETATM    9  C16 UNL     1      21.238  12.277 -13.019  1.00  0.00     0.007 C 
HETATM   10  C17 UNL     1      20.353  13.488 -13.374  1.00  0.00     0.012 C 
HETATM   11  C18 UNL     1      19.778  14.255 -12.251  1.00  0.00    -0.012 C 
HETATM   12  C20 UNL     1      20.961  15.213 -11.905  1.00  0.00     0.012 C 
HETATM   13  C21 UNL     1      21.853  14.163 -11.251  1.00  0.00     0.006 C 
HETATM   14  C22 UNL     1      20.963  13.035 -10.788  1.00  0.00    -0.001 C 
HETATM   15  C23 UNL     1      19.588  13.709 -10.895  1.00  0.00     0.023 C 
HETATM   16  C24 UNL     1      18.481  12.796 -10.580  1.00  0.00    -0.024 C 
HETATM   17  C25 UNL     1      18.592  11.398 -10.240  1.00  0.00    -0.024 C 
HETATM   18  C26 UNL     1      19.854  10.701  -9.894  1.00  0.00     0.026 C 
ENDROOT
BRANCH   1  19
HETATM   19  C7  UNL     1      18.652   8.459  -9.844  1.00  0.00     0.128 C 
BRANCH  19  20
HETATM   20  N1  UNL     1      17.327   9.057  -9.777  1.00  0.00    -0.397 N 
HETATM   21  C6  UNL     1      16.356   8.755 -10.574  1.00  0.00     0.097 C 
ATOM     22  H1  UNL     1      17.154   9.757  -9.055  1.00  0.00     0.158 HD
BRANCH  21  23
HETATM   23  C5  UNL     1      15.092   9.444 -10.373  1.00  0.00     0.015 A 
HETATM   24  C4  UNL     1      14.845  10.638 -11.041  1.00  0.00     0.016 A 
HETATM   25  C3  UNL     1      13.678  11.360 -10.912  1.00  0.00     0.011 A 
HETATM   26  C2  UNL     1      12.686  10.892 -10.083  1.00  0.00    -0.021 A 
HETATM   27  C1  UNL     1      11.405  11.648  -9.920  1.00  0.00     0.051 C 
HETATM   28  C28 UNL     1      12.914   9.716  -9.420  1.00  0.00     0.156 A 
HETATM   29  C27 UNL     1      14.100   8.980  -9.546  1.00  0.00     0.116 A 
HETATM   30  F1  UNL     1      11.959   9.231  -8.598  1.00  0.00    -0.203 F 
BRANCH  29  31
HETATM   31  O2  UNL     1      14.268   7.800  -8.848  1.00  0.00    -0.357 OA
ATOM     32  H2  UNL     1      13.845   7.003  -9.144  1.00  0.00     0.218 HD
ENDBRANCH  29  31
ENDBRANCH  21  23
ENDBRANCH  19  20
ENDBRANCH   1  19
BRANCH  11  33
HETATM   33  C19 UNL     1      18.666  15.101 -12.765  1.00  0.00     0.174 C 
BRANCH  33  34
HETATM   34  O1  UNL     1      17.780  14.488 -13.609  1.00  0.00    -0.400 OA
ATOM     35  H1  UNL     1      18.141  13.830 -14.192  1.00  0.00     0.209 HD
ENDBRANCH  33  34
ENDBRANCH  11  33
TORSDOF 6
ENDMDL
