MODEL 1
REMARK VINA RESULT: -8.072801402      0.000      0.000
REMARK  5 active torsions:
REMARK  status: ('A' for Active; 'I' for Inactive)
REMARK    1  A    between atoms: C2_2  and  C3_3 
REMARK    2  A    between atoms: C2_2  and  C4_8 
REMARK    3  A    between atoms: C3_3  and  N1_4 
REMARK    4  A    between atoms: C4_8  and  O1_10 
REMARK    5  A    between atoms: O1_10  and  C6_11 
ROOT
HETATM    1  C6  UNL     1     -19.181  -5.923  52.854  1.00  0.00     0.091 A 
HETATM    2  C7  UNL     1     -19.534  -5.319  51.670  1.00  0.00     0.039 A 
HETATM    3  C8  UNL     1     -20.554  -4.394  51.674  1.00  0.00     0.011 A 
HETATM    4  C9  UNL     1     -21.248  -4.036  52.806  1.00  0.00    -0.045 A 
HETATM    5  C10 UNL     1     -20.898  -4.636  53.986  1.00  0.00    -0.027 A 
HETATM    6  C11 UNL     1     -19.892  -5.557  54.024  1.00  0.00     0.074 A 
HETATM    7 CL1  UNL     1     -19.490  -6.293  55.566  1.00  0.00    -0.081 Cl
HETATM    8  C12 UNL     1     -21.632  -4.251  55.211  1.00  0.00     0.041 C 
HETATM    9  C13 UNL     1     -21.794  -2.746  55.130  1.00  0.00     0.010 C 
HETATM   10  C14 UNL     1     -22.683  -2.333  53.976  1.00  0.00    -0.001 C 
HETATM   11  C15 UNL     1     -22.344  -3.034  52.740  1.00  0.00     0.024 C 
HETATM   12  C16 UNL     1     -23.504  -3.748  52.069  1.00  0.00     0.011 C 
HETATM   13  C17 UNL     1     -24.601  -2.675  51.980  1.00  0.00     0.014 C 
HETATM   14  C18 UNL     1     -25.145  -2.623  53.404  1.00  0.00    -0.021 C 
HETATM   15  C19 UNL     1     -25.777  -4.005  53.633  1.00  0.00     0.020 C 
HETATM   16  C20 UNL     1     -26.263  -1.656  53.487  1.00  0.00     0.001 C 
HETATM   17  C21 UNL     1     -26.899  -1.279  54.573  1.00  0.00     0.019 C 
HETATM   18  C22 UNL     1     -27.963  -0.318  54.399  1.00  0.00     0.095 C 
HETATM   19  N2  UNL     1     -28.827   0.438  54.253  1.00  0.00    -0.192 NA
HETATM   20  C23 UNL     1     -26.687  -1.696  55.981  1.00  0.00     0.050 C 
HETATM   21  C24 UNL     1     -25.276  -1.302  56.372  1.00  0.00     0.006 C 
HETATM   22  C25 UNL     1     -24.424  -1.037  55.149  1.00  0.00     0.006 C 
HETATM   23  C26 UNL     1     -24.108  -2.337  54.413  1.00  0.00     0.002 C 
ENDROOT
BRANCH   1  24
HETATM   24  O1  UNL     1     -18.191  -6.858  53.004  1.00  0.00    -0.344 OA
BRANCH  24  25
HETATM   25  C4  UNL     1     -17.075  -6.999  52.194  1.00  0.00     0.130 C 
HETATM   26  C5  UNL     1     -15.839  -6.489  52.918  1.00  0.00     0.040 C 
BRANCH  25  27
HETATM   27  C2  UNL     1     -16.887  -8.439  51.750  1.00  0.00     0.036 C 
HETATM   28  C1  UNL     1     -15.761  -8.397  50.713  1.00  0.00     0.014 C 
BRANCH  27  29
HETATM   29  C3  UNL     1     -18.106  -9.032  51.110  1.00  0.00     0.236 C 
BRANCH  29  30
HETATM   30  N1  UNL     1     -17.861  -9.531  49.776  1.00  0.00    -0.079 N 
ATOM     31  H13 UNL     1     -17.524  -8.787  49.166  1.00  0.00     0.274 HD
ATOM     32  H12 UNL     1     -17.045 -10.142  49.761  1.00  0.00     0.274 HD
ATOM     33  H11 UNL     1     -18.671  -9.996  49.366  1.00  0.00     0.274 HD
ENDBRANCH  29  30
ENDBRANCH  27  29
ENDBRANCH  25  27
ENDBRANCH  24  25
ENDBRANCH   1  24
TORSDOF 5
ENDMDL
MODEL 2
REMARK VINA RESULT: -8.065300052      2.040      2.630
REMARK  5 active torsions:
REMARK  status: ('A' for Active; 'I' for Inactive)
REMARK    1  A    between atoms: C2_2  and  C3_3 
REMARK    2  A    between atoms: C2_2  and  C4_8 
REMARK    3  A    between atoms: C3_3  and  N1_4 
REMARK    4  A    between atoms: C4_8  and  O1_10 
REMARK    5  A    between atoms: O1_10  and  C6_11 
ROOT
HETATM    1  C6  UNL     1     -19.192  -5.682  53.476  1.00  0.00     0.091 A 
HETATM    2  C7  UNL     1     -19.092  -5.295  52.160  1.00  0.00     0.039 A 
HETATM    3  C8  UNL     1     -20.053  -4.458  51.640  1.00  0.00     0.011 A 
HETATM    4  C9  UNL     1     -21.119  -3.982  52.367  1.00  0.00    -0.045 A 
HETATM    5  C10 UNL     1     -21.220  -4.366  53.677  1.00  0.00    -0.027 A 
HETATM    6  C11 UNL     1     -20.287  -5.194  54.231  1.00  0.00     0.074 A 
HETATM    7 CL1  UNL     1     -20.471  -5.652  55.916  1.00  0.00    -0.081 Cl
HETATM    8  C12 UNL     1     -22.357  -3.853  54.471  1.00  0.00     0.041 C 
HETATM    9  C13 UNL     1     -22.496  -2.394  54.083  1.00  0.00     0.010 C 
HETATM   10  C14 UNL     1     -22.904  -2.229  52.633  1.00  0.00    -0.001 C 
HETATM   11  C15 UNL     1     -22.126  -3.086  51.742  1.00  0.00     0.024 C 
HETATM   12  C16 UNL     1     -22.950  -3.978  50.829  1.00  0.00     0.011 C 
HETATM   13  C17 UNL     1     -23.950  -3.015  50.170  1.00  0.00     0.014 C 
HETATM   14  C18 UNL     1     -24.979  -2.785  51.272  1.00  0.00    -0.021 C 
HETATM   15  C19 UNL     1     -25.635  -4.158  51.490  1.00  0.00     0.020 C 
HETATM   16  C20 UNL     1     -26.062  -1.901  50.780  1.00  0.00     0.001 C 
HETATM   17  C21 UNL     1     -27.057  -1.410  51.484  1.00  0.00     0.019 C 
HETATM   18  C22 UNL     1     -27.994  -0.568  50.778  1.00  0.00     0.095 C 
HETATM   19  N2  UNL     1     -28.753   0.092  50.204  1.00  0.00    -0.192 NA
HETATM   20  C23 UNL     1     -27.372  -1.589  52.923  1.00  0.00     0.050 C 
HETATM   21  C24 UNL     1     -26.208  -1.036  53.722  1.00  0.00     0.006 C 
HETATM   22  C25 UNL     1     -24.969  -0.900  52.863  1.00  0.00     0.006 C 
HETATM   23  C26 UNL     1     -24.390  -2.272  52.522  1.00  0.00     0.002 C 
ENDROOT
BRANCH   1  24
HETATM   24  O1  UNL     1     -18.315  -6.508  54.129  1.00  0.00    -0.344 OA
BRANCH  24  25
HETATM   25  C4  UNL     1     -17.055  -6.873  53.683  1.00  0.00     0.130 C 
HETATM   26  C5  UNL     1     -17.175  -7.789  52.476  1.00  0.00     0.040 C 
BRANCH  25  27
HETATM   27  C2  UNL     1     -16.203  -5.658  53.359  1.00  0.00     0.036 C 
HETATM   28  C1  UNL     1     -15.526  -5.986  52.025  1.00  0.00     0.014 C 
BRANCH  27  29
HETATM   29  C3  UNL     1     -15.141  -5.382  54.381  1.00  0.00     0.236 C 
BRANCH  29  30
HETATM   30  N1  UNL     1     -15.238  -6.233  55.545  1.00  0.00    -0.079 N 
ATOM     31  H13 UNL     1     -15.125  -7.214  55.289  1.00  0.00     0.274 HD
ATOM     32  H12 UNL     1     -14.422  -6.122  56.146  1.00  0.00     0.274 HD
ATOM     33  H11 UNL     1     -16.100  -6.094  56.073  1.00  0.00     0.274 HD
ENDBRANCH  29  30
ENDBRANCH  27  29
ENDBRANCH  25  27
ENDBRANCH  24  25
ENDBRANCH   1  24
TORSDOF 5
ENDMDL
MODEL 3
REMARK VINA RESULT: -7.895344321      1.448      1.901
REMARK  5 active torsions:
REMARK  status: ('A' for Active; 'I' for Inactive)
REMARK    1  A    between atoms: C2_2  and  C3_3 
REMARK    2  A    between atoms: C2_2  and  C4_8 
REMARK    3  A    between atoms: C3_3  and  N1_4 
REMARK    4  A    between atoms: C4_8  and  O1_10 
REMARK    5  A    between atoms: O1_10  and  C6_11 
ROOT
HETATM    1  C6  UNL     1     -19.147  -6.141  53.298  1.00  0.00     0.091 A 
HETATM    2  C7  UNL     1     -19.413  -5.699  52.023  1.00  0.00     0.039 A 
HETATM    3  C8  UNL     1     -20.382  -4.738  51.843  1.00  0.00     0.011 A 
HETATM    4  C9  UNL     1     -21.109  -4.190  52.875  1.00  0.00    -0.045 A 
HETATM    5  C10 UNL     1     -20.845  -4.629  54.144  1.00  0.00    -0.027 A 
HETATM    6  C11 UNL     1     -19.891  -5.580  54.365  1.00  0.00     0.074 A 
HETATM    7 CL1  UNL     1     -19.599  -6.103  56.015  1.00  0.00    -0.081 Cl
HETATM    8  C12 UNL     1     -21.614  -4.040  55.261  1.00  0.00     0.041 C 
HETATM    9  C13 UNL     1     -21.694  -2.557  54.960  1.00  0.00     0.010 C 
HETATM   10  C14 UNL     1     -22.506  -2.274  53.714  1.00  0.00    -0.001 C 
HETATM   11  C15 UNL     1     -22.147  -3.160  52.610  1.00  0.00     0.024 C 
HETATM   12  C16 UNL     1     -23.310  -3.911  51.985  1.00  0.00     0.011 C 
HETATM   13  C17 UNL     1     -24.345  -2.814  51.688  1.00  0.00     0.014 C 
HETATM   14  C18 UNL     1     -24.950  -2.533  53.059  1.00  0.00    -0.021 C 
HETATM   15  C19 UNL     1     -25.663  -3.839  53.448  1.00  0.00     0.020 C 
HETATM   16  C20 UNL     1     -26.020  -1.515  52.945  1.00  0.00     0.001 C 
HETATM   17  C21 UNL     1     -26.685  -0.958  53.932  1.00  0.00     0.019 C 
HETATM   18  C22 UNL     1     -27.688   0.014  53.567  1.00  0.00     0.095 C 
HETATM   19  N2  UNL     1     -28.504   0.779  53.270  1.00  0.00    -0.192 NA
HETATM   20  C23 UNL     1     -26.560  -1.178  55.394  1.00  0.00     0.050 C 
HETATM   21  C24 UNL     1     -25.150  -0.795  55.799  1.00  0.00     0.006 C 
HETATM   22  C25 UNL     1     -24.229  -0.747  54.599  1.00  0.00     0.006 C 
HETATM   23  C26 UNL     1     -23.948  -2.152  54.071  1.00  0.00     0.002 C 
ENDROOT
BRANCH   1  24
HETATM   24  O1  UNL     1     -18.215  -7.088  53.631  1.00  0.00    -0.344 OA
BRANCH  24  25
HETATM   25  C4  UNL     1     -16.889  -7.104  53.226  1.00  0.00     0.130 C 
HETATM   26  C5  UNL     1     -16.764  -7.796  51.878  1.00  0.00     0.040 C 
BRANCH  25  27
HETATM   27  C2  UNL     1     -16.306  -5.703  53.172  1.00  0.00     0.036 C 
HETATM   28  C1  UNL     1     -15.538  -5.637  51.848  1.00  0.00     0.014 C 
BRANCH  27  29
HETATM   29  C3  UNL     1     -15.356  -5.406  54.293  1.00  0.00     0.236 C 
BRANCH  29  30
HETATM   30  N1  UNL     1     -15.381  -6.405  55.338  1.00  0.00    -0.079 N 
ATOM     31  H13 UNL     1     -14.957  -6.048  56.193  1.00  0.00     0.274 HD
ATOM     32  H12 UNL     1     -16.332  -6.556  55.673  1.00  0.00     0.274 HD
ATOM     33  H11 UNL     1     -14.950  -7.287  55.059  1.00  0.00     0.274 HD
ENDBRANCH  29  30
ENDBRANCH  27  29
ENDBRANCH  25  27
ENDBRANCH  24  25
ENDBRANCH   1  24
TORSDOF 5
ENDMDL
MODEL 4
REMARK VINA RESULT: -7.770638551      5.689      7.455
REMARK  5 active torsions:
REMARK  status: ('A' for Active; 'I' for Inactive)
REMARK    1  A    between atoms: C2_2  and  C3_3 
REMARK    2  A    between atoms: C2_2  and  C4_8 
REMARK    3  A    between atoms: C3_3  and  N1_4 
REMARK    4  A    between atoms: C4_8  and  O1_10 
REMARK    5  A    between atoms: O1_10  and  C6_11 
ROOT
HETATM    1  C6  UNL     1     -17.291  -6.729  52.849  1.00  0.00     0.091 A 
HETATM    2  C7  UNL     1     -16.136  -7.055  53.521  1.00  0.00     0.039 A 
HETATM    3  C8  UNL     1     -15.847  -6.403  54.699  1.00  0.00     0.011 A 
HETATM    4  C9  UNL     1     -16.654  -5.433  55.247  1.00  0.00    -0.045 A 
HETATM    5  C10 UNL     1     -17.804  -5.108  54.579  1.00  0.00    -0.027 A 
HETATM    6  C11 UNL     1     -18.127  -5.732  53.409  1.00  0.00     0.074 A 
HETATM    7 CL1  UNL     1     -19.614  -5.270  52.599  1.00  0.00    -0.081 Cl
HETATM    8  C12 UNL     1     -18.683  -4.073  55.164  1.00  0.00     0.041 C 
HETATM    9  C13 UNL     1     -18.711  -4.360  56.653  1.00  0.00     0.010 C 
HETATM   10  C14 UNL     1     -17.356  -4.153  57.296  1.00  0.00    -0.001 C 
HETATM   11  C15 UNL     1     -16.279  -4.763  56.519  1.00  0.00     0.024 C 
HETATM   12  C16 UNL     1     -15.137  -3.827  56.162  1.00  0.00     0.011 C 
HETATM   13  C17 UNL     1     -14.749  -3.184  57.502  1.00  0.00     0.014 C 
HETATM   14  C18 UNL     1     -15.848  -2.148  57.716  1.00  0.00    -0.021 C 
HETATM   15  C19 UNL     1     -15.662  -1.138  56.573  1.00  0.00     0.020 C 
HETATM   16  C20 UNL     1     -15.596  -1.389  58.962  1.00  0.00     0.001 C 
HETATM   17  C21 UNL     1     -16.386  -0.493  59.511  1.00  0.00     0.019 C 
HETATM   18  C22 UNL     1     -15.920   0.116  60.734  1.00  0.00     0.095 C 
HETATM   19  N2  UNL     1     -15.535   0.616  61.705  1.00  0.00    -0.192 NA
HETATM   20  C23 UNL     1     -17.712  -0.003  59.059  1.00  0.00     0.050 C 
HETATM   21  C24 UNL     1     -18.659  -1.187  59.037  1.00  0.00     0.006 C 
HETATM   22  C25 UNL     1     -17.898  -2.496  59.041  1.00  0.00     0.006 C 
HETATM   23  C26 UNL     1     -17.204  -2.726  57.700  1.00  0.00     0.002 C 
ENDROOT
BRANCH   1  24
HETATM   24  O1  UNL     1     -17.709  -7.291  51.672  1.00  0.00    -0.344 OA
BRANCH  24  25
HETATM   25  C4  UNL     1     -18.298  -8.537  51.527  1.00  0.00     0.130 C 
HETATM   26  C5  UNL     1     -19.771  -8.379  51.186  1.00  0.00     0.040 C 
BRANCH  25  27
HETATM   27  C2  UNL     1     -17.585  -9.374  50.480  1.00  0.00     0.036 C 
HETATM   28  C1  UNL     1     -16.240  -8.677  50.255  1.00  0.00     0.014 C 
BRANCH  27  29
HETATM   29  C3  UNL     1     -18.314  -9.443  49.171  1.00  0.00     0.236 C 
BRANCH  29  30
HETATM   30  N1  UNL     1     -17.580 -10.154  48.150  1.00  0.00    -0.079 N 
ATOM     31  H13 UNL     1     -16.787 -10.653  48.553  1.00  0.00     0.274 HD
ATOM     32  H12 UNL     1     -18.117 -10.948  47.802  1.00  0.00     0.274 HD
ATOM     33  H11 UNL     1     -17.279  -9.555  47.381  1.00  0.00     0.274 HD
ENDBRANCH  29  30
ENDBRANCH  27  29
ENDBRANCH  25  27
ENDBRANCH  24  25
ENDBRANCH   1  24
TORSDOF 5
ENDMDL
MODEL 5
REMARK VINA RESULT: -7.763608901      1.567      1.987
REMARK  5 active torsions:
REMARK  status: ('A' for Active; 'I' for Inactive)
REMARK    1  A    between atoms: C2_2  and  C3_3 
REMARK    2  A    between atoms: C2_2  and  C4_8 
REMARK    3  A    between atoms: C3_3  and  N1_4 
REMARK    4  A    between atoms: C4_8  and  O1_10 
REMARK    5  A    between atoms: O1_10  and  C6_11 
ROOT
HETATM    1  C6  UNL     1     -19.299  -5.363  53.196  1.00  0.00     0.091 A 
HETATM    2  C7  UNL     1     -19.318  -4.951  51.884  1.00  0.00     0.039 A 
HETATM    3  C8  UNL     1     -20.362  -4.166  51.450  1.00  0.00     0.011 A 
HETATM    4  C9  UNL     1     -21.399  -3.765  52.260  1.00  0.00    -0.045 A 
HETATM    5  C10 UNL     1     -21.381  -4.174  53.567  1.00  0.00    -0.027 A 
HETATM    6  C11 UNL     1     -20.364  -4.952  54.036  1.00  0.00     0.074 A 
HETATM    7 CL1  UNL     1     -20.397  -5.445  55.721  1.00  0.00    -0.081 Cl
HETATM    8  C12 UNL     1     -22.487  -3.742  54.449  1.00  0.00     0.041 C 
HETATM    9  C13 UNL     1     -22.739  -2.288  54.099  1.00  0.00     0.010 C 
HETATM   10  C14 UNL     1     -23.260  -2.127  52.687  1.00  0.00    -0.001 C 
HETATM   11  C15 UNL     1     -22.500  -2.922  51.726  1.00  0.00     0.024 C 
HETATM   12  C16 UNL     1     -23.334  -3.849  50.858  1.00  0.00     0.011 C 
HETATM   13  C17 UNL     1     -24.434  -2.939  50.291  1.00  0.00     0.014 C 
HETATM   14  C18 UNL     1     -25.393  -2.787  51.467  1.00  0.00    -0.021 C 
HETATM   15  C19 UNL     1     -25.948  -4.200  51.705  1.00  0.00     0.020 C 
HETATM   16  C20 UNL     1     -26.558  -1.963  51.071  1.00  0.00     0.001 C 
HETATM   17  C21 UNL     1     -27.527  -1.542  51.853  1.00  0.00     0.019 C 
HETATM   18  C22 UNL     1     -28.560  -0.748  51.232  1.00  0.00     0.095 C 
HETATM   19  N2  UNL     1     -29.396  -0.127  50.726  1.00  0.00    -0.192 NA
HETATM   20  C23 UNL     1     -27.726  -1.761  53.307  1.00  0.00     0.050 C 
HETATM   21  C24 UNL     1     -26.541  -1.151  54.031  1.00  0.00     0.006 C 
HETATM   22  C25 UNL     1     -25.378  -0.929  53.088  1.00  0.00     0.006 C 
HETATM   23  C26 UNL     1     -24.745  -2.257  52.681  1.00  0.00     0.002 C 
ENDROOT
BRANCH   1  24
HETATM   24  O1  UNL     1     -18.330  -6.143  53.769  1.00  0.00    -0.344 OA
BRANCH  24  25
HETATM   25  C4  UNL     1     -16.984  -5.828  53.869  1.00  0.00     0.130 C 
HETATM   26  C5  UNL     1     -16.573  -5.759  55.330  1.00  0.00     0.040 C 
BRANCH  25  27
HETATM   27  C2  UNL     1     -16.121  -6.821  53.109  1.00  0.00     0.036 C 
HETATM   28  C1  UNL     1     -15.717  -6.099  51.820  1.00  0.00     0.014 C 
BRANCH  27  29
HETATM   29  C3  UNL     1     -16.841  -8.085  52.746  1.00  0.00     0.236 C 
BRANCH  29  30
HETATM   30  N1  UNL     1     -17.446  -8.036  51.434  1.00  0.00    -0.079 N 
ATOM     31  H13 UNL     1     -16.960  -7.370  50.834  1.00  0.00     0.274 HD
ATOM     32  H12 UNL     1     -17.259  -8.895  50.916  1.00  0.00     0.274 HD
ATOM     33  H11 UNL     1     -18.446  -7.838  51.461  1.00  0.00     0.274 HD
ENDBRANCH  29  30
ENDBRANCH  27  29
ENDBRANCH  25  27
ENDBRANCH  24  25
ENDBRANCH   1  24
TORSDOF 5
ENDMDL
