MODEL 1
REMARK VINA RESULT: -9.360372327      0.000      0.000
REMARK  4 active torsions:
REMARK  status: ('A' for Active; 'I' for Inactive)
REMARK    1  A    between atoms: N3_19  and  C15_20 
REMARK    2  A    between atoms: C15_20  and  C16_21 
REMARK    3  A    between atoms: N4_24  and  C19_25 
REMARK    4  A    between atoms: C19_25  and  C20_26 
ROOT
HETATM    1  C1  UNL     1     -21.720  -2.278  51.630  1.00  0.00     0.032 C 
HETATM    2  C2  UNL     1     -21.707  -3.702  52.145  1.00  0.00     0.083 C 
HETATM    3  N1  UNL     1     -22.957  -4.314  51.834  1.00  0.00    -0.371 N 
ATOM      4  H1  UNL     1     -22.931  -5.039  51.118  1.00  0.00     0.161 HD
HETATM    5  C3  UNL     1     -24.215  -4.044  52.388  1.00  0.00     0.109 A 
HETATM    6  N2  UNL     1     -25.379  -4.490  51.928  1.00  0.00    -0.342 N 
ATOM      7  H2  UNL     1     -25.502  -5.084  51.108  1.00  0.00     0.167 HD
HETATM    8  C4  UNL     1     -26.367  -4.031  52.715  1.00  0.00     0.044 A 
HETATM    9  C5  UNL     1     -27.718  -4.236  52.613  1.00  0.00     0.030 A 
HETATM   10  C6  UNL     1     -28.540  -3.653  53.549  1.00  0.00     0.002 A 
HETATM   11  C7  UNL     1     -28.028  -2.878  54.566  1.00  0.00     0.001 A 
HETATM   12  C8  UNL     1     -26.665  -2.695  54.630  1.00  0.00     0.014 A 
HETATM   13  C9  UNL     1     -25.831  -3.278  53.697  1.00  0.00     0.001 A 
HETATM   14  C10 UNL     1     -24.448  -3.267  53.512  1.00  0.00    -0.002 A 
HETATM   15  C11 UNL     1     -23.608  -2.510  54.439  1.00  0.00     0.048 C 
HETATM   16  C12 UNL     1     -22.164  -2.570  54.359  1.00  0.00    -0.002 C 
HETATM   17  C13 UNL     1     -21.631  -2.738  55.801  1.00  0.00     0.025 C 
HETATM   18  C14 UNL     1     -20.217  -3.112  55.883  1.00  0.00     0.122 C 
HETATM   19  N3  UNL     1     -19.886  -4.495  55.925  1.00  0.00    -0.393 N 
HETATM   20  C25 UNL     1     -20.702  -5.426  55.256  1.00  0.00     0.058 C 
HETATM   21  C26 UNL     1     -21.784  -4.951  54.359  1.00  0.00     0.051 C 
HETATM   22  C27 UNL     1     -21.506  -3.685  53.625  1.00  0.00     0.017 C 
ENDROOT
BRANCH  19  23
HETATM   23  C15 UNL     1     -18.472  -4.728  55.787  1.00  0.00     0.128 C 
BRANCH  23  24
HETATM   24  C16 UNL     1     -18.002  -4.958  54.393  1.00  0.00     0.023 C 
HETATM   25  C17 UNL     1     -16.518  -4.674  54.295  1.00  0.00     0.028 C 
HETATM   26  C18 UNL     1     -16.133  -5.507  53.069  1.00  0.00     0.122 C 
HETATM   27  N4  UNL     1     -17.083  -6.538  52.952  1.00  0.00    -0.392 N 
HETATM   28  C24 UNL     1     -18.020  -6.449  54.034  1.00  0.00     0.128 C 
BRANCH  27  29
HETATM   29  C19 UNL     1     -16.605  -7.794  52.579  1.00  0.00     0.065 C 
BRANCH  29  30
HETATM   30  C20 UNL     1     -17.479  -8.715  51.821  1.00  0.00     0.058 C 
HETATM   31  C21 UNL     1     -17.219  -9.077  50.419  1.00  0.00     0.015 C 
HETATM   32  C22 UNL     1     -18.715  -8.904  50.095  1.00  0.00     0.039 C 
HETATM   33  C23 UNL     1     -18.834  -8.174  51.418  1.00  0.00     0.179 C 
HETATM   34  F1  UNL     1     -19.841  -8.696  52.196  1.00  0.00    -0.249 F 
ENDBRANCH  29  30
ENDBRANCH  27  29
ENDBRANCH  23  24
ENDBRANCH  19  23
TORSDOF 4
ENDMDL
MODEL 2
REMARK VINA RESULT: -9.212969598      1.092      1.219
REMARK  4 active torsions:
REMARK  status: ('A' for Active; 'I' for Inactive)
REMARK    1  A    between atoms: N3_19  and  C15_20 
REMARK    2  A    between atoms: C15_20  and  C16_21 
REMARK    3  A    between atoms: N4_24  and  C19_25 
REMARK    4  A    between atoms: C19_25  and  C20_26 
ROOT
HETATM    1  C1  UNL     1     -21.231  -2.625  51.478  1.00  0.00     0.032 C 
HETATM    2  C2  UNL     1     -21.374  -3.966  52.167  1.00  0.00     0.083 C 
HETATM    3  N1  UNL     1     -22.588  -4.576  51.737  1.00  0.00    -0.371 N 
ATOM      4  H1  UNL     1     -22.488  -5.392  51.134  1.00  0.00     0.161 HD
HETATM    5  C3  UNL     1     -23.902  -4.196  52.039  1.00  0.00     0.109 A 
HETATM    6  N2  UNL     1     -25.000  -4.664  51.456  1.00  0.00    -0.342 N 
ATOM      7  H2  UNL     1     -25.023  -5.360  50.710  1.00  0.00     0.167 HD
HETATM    8  C4  UNL     1     -26.076  -4.074  52.005  1.00  0.00     0.044 A 
HETATM    9  C5  UNL     1     -27.403  -4.249  51.712  1.00  0.00     0.030 A 
HETATM   10  C6  UNL     1     -28.331  -3.520  52.418  1.00  0.00     0.002 A 
HETATM   11  C7  UNL     1     -27.946  -2.630  53.396  1.00  0.00     0.001 A 
HETATM   12  C8  UNL     1     -26.603  -2.482  53.658  1.00  0.00     0.014 A 
HETATM   13  C9  UNL     1     -25.663  -3.210  52.956  1.00  0.00     0.001 A 
HETATM   14  C10 UNL     1     -24.269  -3.267  53.000  1.00  0.00    -0.002 A 
HETATM   15  C11 UNL     1     -23.549  -2.417  53.946  1.00  0.00     0.048 C 
HETATM   16  C12 UNL     1     -22.115  -2.531  54.112  1.00  0.00    -0.002 C 
HETATM   17  C13 UNL     1     -21.826  -2.518  55.631  1.00  0.00     0.025 C 
HETATM   18  C14 UNL     1     -20.464  -2.920  55.991  1.00  0.00     0.122 C 
HETATM   19  N3  UNL     1     -20.215  -4.294  56.264  1.00  0.00    -0.393 N 
HETATM   20  C25 UNL     1     -20.963  -5.282  55.596  1.00  0.00     0.058 C 
HETATM   21  C26 UNL     1     -21.864  -4.901  54.481  1.00  0.00     0.051 C 
HETATM   22  C27 UNL     1     -21.408  -3.755  53.645  1.00  0.00     0.017 C 
ENDROOT
BRANCH  19  23
HETATM   23  C15 UNL     1     -18.811  -4.587  56.390  1.00  0.00     0.128 C 
BRANCH  23  24
HETATM   24  C16 UNL     1     -18.053  -4.615  55.109  1.00  0.00     0.023 C 
HETATM   25  C17 UNL     1     -16.566  -4.578  55.388  1.00  0.00     0.028 C 
HETATM   26  C18 UNL     1     -16.005  -5.206  54.109  1.00  0.00     0.122 C 
HETATM   27  N4  UNL     1     -17.019  -6.013  53.562  1.00  0.00    -0.392 N 
HETATM   28  C24 UNL     1     -18.170  -5.979  54.418  1.00  0.00     0.128 C 
BRANCH  27  29
HETATM   29  C19 UNL     1     -16.625  -7.234  53.015  1.00  0.00     0.065 C 
BRANCH  29  30
HETATM   30  C20 UNL     1     -17.142  -7.644  51.692  1.00  0.00     0.058 C 
HETATM   31  C21 UNL     1     -18.474  -8.242  51.515  1.00  0.00     0.015 C 
HETATM   32  C22 UNL     1     -17.880  -9.288  50.554  1.00  0.00     0.039 C 
HETATM   33  C23 UNL     1     -16.519  -8.882  51.082  1.00  0.00     0.179 C 
HETATM   34  F1  UNL     1     -15.653  -8.565  50.062  1.00  0.00    -0.249 F 
ENDBRANCH  29  30
ENDBRANCH  27  29
ENDBRANCH  23  24
ENDBRANCH  19  23
TORSDOF 4
ENDMDL
MODEL 3
REMARK VINA RESULT: -8.924549914      1.533      2.160
REMARK  4 active torsions:
REMARK  status: ('A' for Active; 'I' for Inactive)
REMARK    1  A    between atoms: N3_19  and  C15_20 
REMARK    2  A    between atoms: C15_20  and  C16_21 
REMARK    3  A    between atoms: N4_24  and  C19_25 
REMARK    4  A    between atoms: C19_25  and  C20_26 
ROOT
HETATM    1  C1  UNL     1     -22.133  -0.618  53.116  1.00  0.00     0.032 C 
HETATM    2  C2  UNL     1     -21.873  -1.661  52.050  1.00  0.00     0.083 C 
HETATM    3  N1  UNL     1     -23.055  -1.827  51.271  1.00  0.00    -0.371 N 
ATOM      4  H1  UNL     1     -23.012  -1.475  50.315  1.00  0.00     0.161 HD
HETATM    5  C3  UNL     1     -24.269  -2.412  51.654  1.00  0.00     0.109 A 
HETATM    6  N2  UNL     1     -25.406  -2.362  50.968  1.00  0.00    -0.342 N 
ATOM      7  H2  UNL     1     -25.538  -1.887  50.075  1.00  0.00     0.167 HD
HETATM    8  C4  UNL     1     -26.355  -3.037  51.641  1.00  0.00     0.044 A 
HETATM    9  C5  UNL     1     -27.669  -3.241  51.310  1.00  0.00     0.030 A 
HETATM   10  C6  UNL     1     -28.453  -3.972  52.171  1.00  0.00     0.002 A 
HETATM   11  C7  UNL     1     -27.941  -4.490  53.340  1.00  0.00     0.001 A 
HETATM   12  C8  UNL     1     -26.616  -4.260  53.636  1.00  0.00     0.014 A 
HETATM   13  C9  UNL     1     -25.820  -3.528  52.778  1.00  0.00     0.001 A 
HETATM   14  C10 UNL     1     -24.479  -3.141  52.814  1.00  0.00    -0.002 A 
HETATM   15  C11 UNL     1     -23.652  -3.533  53.954  1.00  0.00     0.048 C 
HETATM   16  C12 UNL     1     -22.230  -3.260  53.975  1.00  0.00    -0.002 C 
HETATM   17  C13 UNL     1     -21.524  -4.542  54.475  1.00  0.00     0.025 C 
HETATM   18  C14 UNL     1     -20.073  -4.548  54.279  1.00  0.00     0.122 C 
HETATM   19  N3  UNL     1     -19.556  -5.099  53.073  1.00  0.00    -0.393 N 
HETATM   20  C25 UNL     1     -20.308  -5.005  51.888  1.00  0.00     0.058 C 
HETATM   21  C26 UNL     1     -21.536  -4.174  51.854  1.00  0.00     0.051 C 
HETATM   22  C27 UNL     1     -21.513  -2.953  52.707  1.00  0.00     0.017 C 
ENDROOT
BRANCH  19  23
HETATM   23  C15 UNL     1     -18.147  -4.849  52.912  1.00  0.00     0.128 C 
BRANCH  23  24
HETATM   24  C16 UNL     1     -17.288  -6.065  52.891  1.00  0.00     0.023 C 
HETATM   25  C17 UNL     1     -18.110  -7.285  53.249  1.00  0.00     0.028 C 
HETATM   26  C18 UNL     1     -17.285  -8.403  52.605  1.00  0.00     0.122 C 
HETATM   27  N4  UNL     1     -16.544  -7.823  51.559  1.00  0.00    -0.392 N 
HETATM   28  C24 UNL     1     -16.865  -6.429  51.462  1.00  0.00     0.128 C 
BRANCH  27  29
HETATM   29  C19 UNL     1     -16.424  -8.568  50.386  1.00  0.00     0.065 C 
BRANCH  29  30
HETATM   30  C20 UNL     1     -17.561  -9.393  49.923  1.00  0.00     0.058 C 
HETATM   31  C21 UNL     1     -17.562 -10.077  48.621  1.00  0.00     0.015 C 
HETATM   32  C22 UNL     1     -19.017  -9.630  48.385  1.00  0.00     0.039 C 
HETATM   33  C23 UNL     1     -18.812  -8.643  49.517  1.00  0.00     0.179 C 
HETATM   34  F1  UNL     1     -19.800  -8.751  50.468  1.00  0.00    -0.249 F 
ENDBRANCH  29  30
ENDBRANCH  27  29
ENDBRANCH  23  24
ENDBRANCH  19  23
TORSDOF 4
ENDMDL
MODEL 4
REMARK VINA RESULT: -8.836327468      2.479      3.895
REMARK  4 active torsions:
REMARK  status: ('A' for Active; 'I' for Inactive)
REMARK    1  A    between atoms: N3_19  and  C15_20 
REMARK    2  A    between atoms: C15_20  and  C16_21 
REMARK    3  A    between atoms: N4_24  and  C19_25 
REMARK    4  A    between atoms: C19_25  and  C20_26 
ROOT
HETATM    1  C1  UNL     1     -22.624  -0.538  53.156  1.00  0.00     0.032 C 
HETATM    2  C2  UNL     1     -22.418  -1.450  51.965  1.00  0.00     0.083 C 
HETATM    3  N1  UNL     1     -23.637  -1.528  51.230  1.00  0.00    -0.371 N 
ATOM      4  H1  UNL     1     -23.640  -1.068  50.320  1.00  0.00     0.161 HD
HETATM    5  C3  UNL     1     -24.833  -2.157  51.602  1.00  0.00     0.109 A 
HETATM    6  N2  UNL     1     -26.002  -2.032  50.982  1.00  0.00    -0.342 N 
ATOM      7  H2  UNL     1     -26.175  -1.457  50.157  1.00  0.00     0.167 HD
HETATM    8  C4  UNL     1     -26.918  -2.783  51.617  1.00  0.00     0.044 A 
HETATM    9  C5  UNL     1     -28.247  -2.951  51.329  1.00  0.00     0.030 A 
HETATM   10  C6  UNL     1     -28.991  -3.780  52.137  1.00  0.00     0.002 A 
HETATM   11  C7  UNL     1     -28.424  -4.427  53.212  1.00  0.00     0.001 A 
HETATM   12  C8  UNL     1     -27.086  -4.229  53.467  1.00  0.00     0.014 A 
HETATM   13  C9  UNL     1     -26.330  -3.400  52.662  1.00  0.00     0.001 A 
HETATM   14  C10 UNL     1     -24.988  -3.016  52.678  1.00  0.00    -0.002 A 
HETATM   15  C11 UNL     1     -24.108  -3.535  53.723  1.00  0.00     0.048 C 
HETATM   16  C12 UNL     1     -22.686  -3.262  53.707  1.00  0.00    -0.002 C 
HETATM   17  C13 UNL     1     -21.960  -4.590  54.021  1.00  0.00     0.025 C 
HETATM   18  C14 UNL     1     -20.520  -4.569  53.756  1.00  0.00     0.122 C 
HETATM   19  N3  UNL     1     -20.063  -4.975  52.471  1.00  0.00    -0.393 N 
HETATM   20  C25 UNL     1     -20.872  -4.748  51.342  1.00  0.00     0.058 C 
HETATM   21  C26 UNL     1     -22.098  -3.922  51.464  1.00  0.00     0.051 C 
HETATM   22  C27 UNL     1     -22.031  -2.808  52.450  1.00  0.00     0.017 C 
ENDROOT
BRANCH  19  23
HETATM   23  C15 UNL     1     -18.663  -4.705  52.271  1.00  0.00     0.128 C 
BRANCH  23  24
HETATM   24  C16 UNL     1     -17.738  -5.757  52.773  1.00  0.00     0.023 C 
HETATM   25  C17 UNL     1     -16.372  -5.588  52.143  1.00  0.00     0.028 C 
HETATM   26  C18 UNL     1     -15.478  -6.290  53.169  1.00  0.00     0.122 C 
HETATM   27  N4  UNL     1     -16.151  -6.250  54.403  1.00  0.00    -0.392 N 
HETATM   28  C24 UNL     1     -17.388  -5.539  54.250  1.00  0.00     0.128 C 
BRANCH  27  29
HETATM   29  C19 UNL     1     -15.373  -6.008  55.536  1.00  0.00     0.065 C 
BRANCH  29  30
HETATM   30  C20 UNL     1     -14.621  -4.740  55.650  1.00  0.00     0.058 C 
HETATM   31  C21 UNL     1     -13.365  -4.631  56.409  1.00  0.00     0.015 C 
HETATM   32  C22 UNL     1     -13.846  -3.302  57.019  1.00  0.00     0.039 C 
HETATM   33  C23 UNL     1     -15.233  -3.674  56.534  1.00  0.00     0.179 C 
HETATM   34  F1  UNL     1     -15.799  -2.663  55.793  1.00  0.00    -0.249 F 
ENDBRANCH  29  30
ENDBRANCH  27  29
ENDBRANCH  23  24
ENDBRANCH  19  23
TORSDOF 4
ENDMDL
MODEL 5
REMARK VINA RESULT: -8.530375177      3.901      5.127
REMARK  4 active torsions:
REMARK  status: ('A' for Active; 'I' for Inactive)
REMARK    1  A    between atoms: N3_19  and  C15_20 
REMARK    2  A    between atoms: C15_20  and  C16_21 
REMARK    3  A    between atoms: N4_24  and  C19_25 
REMARK    4  A    between atoms: C19_25  and  C20_26 
ROOT
HETATM    1  C1  UNL     1     -24.602   0.488  53.083  1.00  0.00     0.032 C 
HETATM    2  C2  UNL     1     -23.282   0.237  52.384  1.00  0.00     0.083 C 
HETATM    3  N1  UNL     1     -23.175   1.122  51.272  1.00  0.00    -0.371 N 
ATOM      4  H1  UNL     1     -22.484   1.866  51.359  1.00  0.00     0.161 HD
HETATM    5  C3  UNL     1     -23.901   1.096  50.073  1.00  0.00     0.109 A 
HETATM    6  N2  UNL     1     -23.915   2.055  49.153  1.00  0.00    -0.342 N 
ATOM      7  H2  UNL     1     -23.399   2.934  49.207  1.00  0.00     0.167 HD
HETATM    8  C4  UNL     1     -24.717   1.682  48.142  1.00  0.00     0.044 A 
HETATM    9  C5  UNL     1     -25.029   2.357  46.991  1.00  0.00     0.030 A 
HETATM   10  C6  UNL     1     -25.888   1.762  46.096  1.00  0.00     0.002 A 
HETATM   11  C7  UNL     1     -26.428   0.520  46.342  1.00  0.00     0.001 A 
HETATM   12  C8  UNL     1     -26.091  -0.124  47.512  1.00  0.00     0.014 A 
HETATM   13  C9  UNL     1     -25.229   0.464  48.416  1.00  0.00     0.001 A 
HETATM   14  C10 UNL     1     -24.722   0.062  49.653  1.00  0.00    -0.002 A 
HETATM   15  C11 UNL     1     -25.123  -1.230  50.204  1.00  0.00     0.048 C 
HETATM   16  C12 UNL     1     -24.529  -1.741  51.422  1.00  0.00    -0.002 C 
HETATM   17  C13 UNL     1     -24.192  -3.230  51.179  1.00  0.00     0.025 C 
HETATM   18  C14 UNL     1     -23.320  -3.826  52.194  1.00  0.00     0.122 C 
HETATM   19  N3  UNL     1     -21.913  -3.788  51.982  1.00  0.00    -0.393 N 
HETATM   20  C25 UNL     1     -21.345  -2.710  51.278  1.00  0.00     0.058 C 
HETATM   21  C26 UNL     1     -22.177  -1.532  50.929  1.00  0.00     0.051 C 
HETATM   22  C27 UNL     1     -23.240  -1.180  51.912  1.00  0.00     0.017 C 
ENDROOT
BRANCH  19  23
HETATM   23  C15 UNL     1     -21.169  -4.207  53.141  1.00  0.00     0.128 C 
BRANCH  23  24
HETATM   24  C16 UNL     1     -19.908  -4.944  52.850  1.00  0.00     0.023 C 
HETATM   25  C17 UNL     1     -19.396  -5.611  54.109  1.00  0.00     0.028 C 
HETATM   26  C18 UNL     1     -18.538  -6.737  53.526  1.00  0.00     0.122 C 
HETATM   27  N4  UNL     1     -19.033  -7.012  52.238  1.00  0.00    -0.392 N 
HETATM   28  C24 UNL     1     -20.167  -6.175  51.973  1.00  0.00     0.128 C 
BRANCH  27  29
HETATM   29  C19 UNL     1     -19.085  -8.354  51.858  1.00  0.00     0.065 C 
BRANCH  29  30
HETATM   30  C20 UNL     1     -17.873  -9.010  51.324  1.00  0.00     0.058 C 
HETATM   31  C21 UNL     1     -16.567  -8.334  51.268  1.00  0.00     0.015 C 
HETATM   32  C22 UNL     1     -16.340  -8.884  49.848  1.00  0.00     0.039 C 
HETATM   33  C23 UNL     1     -17.821  -9.208  49.824  1.00  0.00     0.179 C 
HETATM   34  F1  UNL     1     -18.049 -10.519  49.476  1.00  0.00    -0.249 F 
ENDBRANCH  29  30
ENDBRANCH  27  29
ENDBRANCH  23  24
ENDBRANCH  19  23
TORSDOF 4
ENDMDL
