MODEL 1
REMARK VINA RESULT: -6.878385173      0.000      0.000
REMARK  7 active torsions:
REMARK  status: ('A' for Active; 'I' for Inactive)
REMARK    1  A    between atoms: S1_2  and  N1_5 
REMARK    2  A    between atoms: N1_5  and  C2_7 
REMARK    3  A    between atoms: C5_14  and  C6_15 
REMARK    4  A    between atoms: C6_15  and  C7_16 
REMARK    5  A    between atoms: C7_16  and  C8_17 
REMARK    6  A    between atoms: C10_19  and  O3_20 
REMARK    7  A    between atoms: C11_22  and  O4_23 
ROOT
HETATM    1  C2  UNL     1      86.861   3.717  22.739  1.00  0.00     0.133 A 
HETATM    2  N2  UNL     1      86.368   4.137  23.914  1.00  0.00    -0.334 N 
ATOM      3  H2  UNL     1      86.203   5.135  24.038  1.00  0.00     0.168 HD
HETATM    4  C3  UNL     1      86.078   3.309  24.941  1.00  0.00     0.099 A 
HETATM    5 BR1  UNL     1      85.374   3.984  26.597  1.00  0.00    -0.030 Br
HETATM    6  C4  UNL     1      86.275   1.942  24.843  1.00  0.00     0.052 A 
HETATM    7 BR2  UNL     1      85.853   0.780  26.306  1.00  0.00    -0.048 Br
HETATM    8  C5  UNL     1      86.781   1.481  23.645  1.00  0.00    -0.017 A 
HETATM    9  C13 UNL     1      87.069   2.355  22.611  1.00  0.00     0.063 A 
HETATM   10 BR3  UNL     1      87.771   1.614  20.978  1.00  0.00    -0.046 Br
ENDROOT
BRANCH   8  11
HETATM   11  C6  UNL     1      87.005   0.017  23.520  1.00  0.00     0.042 C 
BRANCH  11  12
HETATM   12  C7  UNL     1      85.804  -0.678  22.918  1.00  0.00     0.009 C 
BRANCH  12  13
HETATM   13  C8  UNL     1      86.140  -2.119  22.597  1.00  0.00    -0.009 C 
HETATM   14  C9  UNL     1      87.519  -2.452  23.095  1.00  0.00     0.039 C 
HETATM   15  C10 UNL     1      88.220  -3.231  22.021  1.00  0.00     0.147 C 
HETATM   16  C11 UNL     1      87.196  -3.424  20.937  1.00  0.00     0.147 C 
HETATM   17  C12 UNL     1      86.301  -2.230  21.092  1.00  0.00     0.039 C 
BRANCH  15  18
HETATM   18  O3  UNL     1      89.338  -2.513  21.553  1.00  0.00    -0.393 OA
ATOM     19  H3  UNL     1      89.987  -3.111  21.201  1.00  0.00     0.210 HD
ENDBRANCH  15  18
BRANCH  16  20
HETATM   20  O4  UNL     1      87.769  -3.485  19.662  1.00  0.00    -0.393 OA
ATOM     21  H4  UNL     1      88.398  -2.790  19.511  1.00  0.00     0.210 HD
ENDBRANCH  16  20
ENDBRANCH  12  13
ENDBRANCH  11  12
ENDBRANCH   8  11
BRANCH   1  22
HETATM   22  N1  UNL     1      87.144   4.485  21.748  1.00  0.00    -0.269 N 
ATOM     23  H1  UNL     1      87.771   4.113  21.035  1.00  0.00     0.180 HD
BRANCH  22  24
HETATM   24  S1  UNL     1      86.560   6.078  21.522  1.00  0.00     0.228 S 
HETATM   25  C1  UNL     1      87.580   7.190  22.453  1.00  0.00     0.186 C 
HETATM   26  O1  UNL     1      85.126   6.184  21.967  1.00  0.00    -0.206 OA
HETATM   27  O2  UNL     1      86.650   6.398  20.038  1.00  0.00    -0.206 OA
ENDBRANCH  22  24
ENDBRANCH   1  22
TORSDOF 7
ENDMDL
MODEL 2
REMARK VINA RESULT: -6.847011497     14.422     16.371
REMARK  7 active torsions:
REMARK  status: ('A' for Active; 'I' for Inactive)
REMARK    1  A    between atoms: S1_2  and  N1_5 
REMARK    2  A    between atoms: N1_5  and  C2_7 
REMARK    3  A    between atoms: C5_14  and  C6_15 
REMARK    4  A    between atoms: C6_15  and  C7_16 
REMARK    5  A    between atoms: C7_16  and  C8_17 
REMARK    6  A    between atoms: C10_19  and  O3_20 
REMARK    7  A    between atoms: C11_22  and  O4_23 
ROOT
HETATM    1  C2  UNL     1      83.931   1.018   6.558  1.00  0.00     0.133 A 
HETATM    2  N2  UNL     1      85.027   0.389   7.009  1.00  0.00    -0.334 N 
ATOM      3  H2  UNL     1      85.376  -0.410   6.481  1.00  0.00     0.168 HD
HETATM    4  C3  UNL     1      85.692   0.756   8.126  1.00  0.00     0.099 A 
HETATM    5 BR1  UNL     1      87.256  -0.196   8.712  1.00  0.00    -0.030 Br
HETATM    6  C4  UNL     1      85.277   1.830   8.892  1.00  0.00     0.052 A 
HETATM    7 BR2  UNL     1      86.236   2.343  10.470  1.00  0.00    -0.048 Br
HETATM    8  C5  UNL     1      84.153   2.498   8.452  1.00  0.00    -0.017 A 
HETATM    9  C13 UNL     1      83.492   2.097   7.304  1.00  0.00     0.063 A 
HETATM   10 BR3  UNL     1      81.932   3.094   6.771  1.00  0.00    -0.046 Br
ENDROOT
BRANCH   8  11
HETATM   11  C6  UNL     1      83.686   3.653   9.264  1.00  0.00     0.042 C 
BRANCH  11  12
HETATM   12  C7  UNL     1      82.641   3.233  10.273  1.00  0.00     0.009 C 
BRANCH  12  13
HETATM   13  C8  UNL     1      81.797   4.425  10.677  1.00  0.00    -0.009 C 
HETATM   14  C9  UNL     1      81.334   4.272  12.098  1.00  0.00     0.039 C 
HETATM   15  C10 UNL     1      79.885   4.658  12.154  1.00  0.00     0.147 C 
HETATM   16  C11 UNL     1      79.544   5.124  10.766  1.00  0.00     0.147 C 
HETATM   17  C12 UNL     1      80.496   4.352   9.900  1.00  0.00     0.039 C 
BRANCH  15  18
HETATM   18  O3  UNL     1      79.103   3.549  12.532  1.00  0.00    -0.393 OA
ATOM     19  H3  UNL     1      78.285   3.841  12.917  1.00  0.00     0.210 HD
ENDBRANCH  15  18
BRANCH  16  20
HETATM   20  O4  UNL     1      78.210   4.873  10.427  1.00  0.00    -0.393 OA
ATOM     21  H4  UNL     1      78.111   4.583   9.528  1.00  0.00     0.210 HD
ENDBRANCH  16  20
ENDBRANCH  12  13
ENDBRANCH  11  12
ENDBRANCH   8  11
BRANCH   1  22
HETATM   22  N1  UNL     1      83.281   0.688   5.499  1.00  0.00    -0.269 N 
ATOM     23  H1  UNL     1      82.321   0.367   5.623  1.00  0.00     0.180 HD
BRANCH  22  24
HETATM   24  S1  UNL     1      83.889   0.740   3.900  1.00  0.00     0.228 S 
HETATM   25  C1  UNL     1      82.704  -0.022   2.822  1.00  0.00     0.186 C 
HETATM   26  O1  UNL     1      85.212   0.028   3.813  1.00  0.00    -0.206 OA
HETATM   27  O2  UNL     1      84.079   2.201   3.524  1.00  0.00    -0.206 OA
ENDBRANCH  22  24
ENDBRANCH   1  22
TORSDOF 7
ENDMDL
MODEL 3
REMARK VINA RESULT: -6.674355164      3.450      4.480
REMARK  7 active torsions:
REMARK  status: ('A' for Active; 'I' for Inactive)
REMARK    1  A    between atoms: S1_2  and  N1_5 
REMARK    2  A    between atoms: N1_5  and  C2_7 
REMARK    3  A    between atoms: C5_14  and  C6_15 
REMARK    4  A    between atoms: C6_15  and  C7_16 
REMARK    5  A    between atoms: C7_16  and  C8_17 
REMARK    6  A    between atoms: C10_19  and  O3_20 
REMARK    7  A    between atoms: C11_22  and  O4_23 
ROOT
HETATM    1  C2  UNL     1      85.823   2.051  26.409  1.00  0.00     0.133 A 
HETATM    2  N2  UNL     1      85.987   3.262  25.855  1.00  0.00    -0.334 N 
ATOM      3  H2  UNL     1      85.739   4.082  26.407  1.00  0.00     0.168 HD
HETATM    4  C3  UNL     1      86.465   3.453  24.606  1.00  0.00     0.099 A 
HETATM    5 BR1  UNL     1      86.673   5.221  23.879  1.00  0.00    -0.030 Br
HETATM    6  C4  UNL     1      86.824   2.387  23.800  1.00  0.00     0.052 A 
HETATM    7 BR2  UNL     1      87.507   2.676  22.034  1.00  0.00    -0.048 Br
HETATM    8  C5  UNL     1      86.667   1.129  24.344  1.00  0.00    -0.017 A 
HETATM    9  C13 UNL     1      86.174   0.965  25.627  1.00  0.00     0.063 A 
HETATM   10 BR3  UNL     1      85.991  -0.832  26.295  1.00  0.00    -0.046 Br
ENDROOT
BRANCH   8  11
HETATM   11  C6  UNL     1      87.042  -0.031  23.493  1.00  0.00     0.042 C 
BRANCH  11  12
HETATM   12  C7  UNL     1      85.839  -0.606  22.780  1.00  0.00     0.009 C 
BRANCH  12  13
HETATM   13  C8  UNL     1      86.074  -2.067  22.454  1.00  0.00    -0.009 C 
HETATM   14  C9  UNL     1      87.365  -2.532  23.067  1.00  0.00     0.039 C 
HETATM   15  C10 UNL     1      88.091  -3.354  22.042  1.00  0.00     0.147 C 
HETATM   16  C11 UNL     1      87.159  -3.435  20.864  1.00  0.00     0.147 C 
HETATM   17  C12 UNL     1      86.364  -2.166  20.968  1.00  0.00     0.039 C 
BRANCH  15  18
HETATM   18  O3  UNL     1      89.307  -2.733  21.696  1.00  0.00    -0.393 OA
ATOM     19  H3  UNL     1      89.926  -2.803  22.413  1.00  0.00     0.210 HD
ENDBRANCH  15  18
BRANCH  16  20
HETATM   20  O4  UNL     1      87.840  -3.525  19.646  1.00  0.00    -0.393 OA
ATOM     21  H4  UNL     1      87.430  -4.134  19.043  1.00  0.00     0.210 HD
ENDBRANCH  16  20
ENDBRANCH  12  13
ENDBRANCH  11  12
ENDBRANCH   8  11
BRANCH   1  22
HETATM   22  N1  UNL     1      85.371   1.843  27.594  1.00  0.00    -0.269 N 
ATOM     23  H1  UNL     1      84.688   1.094  27.708  1.00  0.00     0.180 HD
BRANCH  22  24
HETATM   24  S1  UNL     1      85.815   2.716  28.998  1.00  0.00     0.228 S 
HETATM   25  C1  UNL     1      86.104   1.561  30.312  1.00  0.00     0.186 C 
HETATM   26  O1  UNL     1      84.733   3.689  29.381  1.00  0.00    -0.206 OA
HETATM   27  O2  UNL     1      87.091   3.482  28.681  1.00  0.00    -0.206 OA
ENDBRANCH  22  24
ENDBRANCH   1  22
TORSDOF 7
ENDMDL
MODEL 4
REMARK VINA RESULT: -6.639744487      3.424      4.434
REMARK  7 active torsions:
REMARK  status: ('A' for Active; 'I' for Inactive)
REMARK    1  A    between atoms: S1_2  and  N1_5 
REMARK    2  A    between atoms: N1_5  and  C2_7 
REMARK    3  A    between atoms: C5_14  and  C6_15 
REMARK    4  A    between atoms: C6_15  and  C7_16 
REMARK    5  A    between atoms: C7_16  and  C8_17 
REMARK    6  A    between atoms: C10_19  and  O3_20 
REMARK    7  A    between atoms: C11_22  and  O4_23 
ROOT
HETATM    1  C2  UNL     1      85.929   2.059  26.333  1.00  0.00     0.133 A 
HETATM    2  N2  UNL     1      86.138   3.252  25.756  1.00  0.00    -0.334 N 
ATOM      3  H2  UNL     1      85.925   4.092  26.293  1.00  0.00     0.168 HD
HETATM    4  C3  UNL     1      86.617   3.401  24.501  1.00  0.00     0.099 A 
HETATM    5 BR1  UNL     1      86.890   5.144  23.740  1.00  0.00    -0.030 Br
HETATM    6  C4  UNL     1      86.929   2.306  23.714  1.00  0.00     0.052 A 
HETATM    7 BR2  UNL     1      87.613   2.535  21.939  1.00  0.00    -0.048 Br
HETATM    8  C5  UNL     1      86.725   1.065  24.282  1.00  0.00    -0.017 A 
HETATM    9  C13 UNL     1      86.233   0.946  25.570  1.00  0.00     0.063 A 
HETATM   10 BR3  UNL     1      85.983  -0.830  26.274  1.00  0.00    -0.046 Br
ENDROOT
BRANCH   8  11
HETATM   11  C6  UNL     1      87.049  -0.124  23.452  1.00  0.00     0.042 C 
BRANCH  11  12
HETATM   12  C7  UNL     1      85.817  -0.676  22.771  1.00  0.00     0.009 C 
BRANCH  12  13
HETATM   13  C8  UNL     1      86.028  -2.132  22.410  1.00  0.00    -0.009 C 
HETATM   14  C9  UNL     1      87.276  -2.653  23.066  1.00  0.00     0.039 C 
HETATM   15  C10 UNL     1      88.027  -3.462  22.050  1.00  0.00     0.147 C 
HETATM   16  C11 UNL     1      87.150  -3.481  20.829  1.00  0.00     0.147 C 
HETATM   17  C12 UNL     1      86.384  -2.194  20.936  1.00  0.00     0.039 C 
BRANCH  15  18
HETATM   18  O3  UNL     1      89.274  -2.865  21.780  1.00  0.00    -0.393 OA
ATOM     19  H3  UNL     1      89.526  -3.028  20.879  1.00  0.00     0.210 HD
ENDBRANCH  15  18
BRANCH  16  20
HETATM   20  O4  UNL     1      87.884  -3.553  19.640  1.00  0.00    -0.393 OA
ATOM     21  H4  UNL     1      87.433  -4.041  18.962  1.00  0.00     0.210 HD
ENDBRANCH  16  20
ENDBRANCH  12  13
ENDBRANCH  11  12
ENDBRANCH   8  11
BRANCH   1  22
HETATM   22  N1  UNL     1      85.476   1.892  27.524  1.00  0.00    -0.269 N 
ATOM     23  H1  UNL     1      84.953   1.035  27.708  1.00  0.00     0.180 HD
BRANCH  22  24
HETATM   24  S1  UNL     1      85.673   2.983  28.828  1.00  0.00     0.228 S 
HETATM   25  C1  UNL     1      84.389   4.203  28.742  1.00  0.00     0.186 C 
HETATM   26  O1  UNL     1      87.026   3.639  28.769  1.00  0.00    -0.206 OA
HETATM   27  O2  UNL     1      85.557   2.186  30.119  1.00  0.00    -0.206 OA
ENDBRANCH  22  24
ENDBRANCH   1  22
TORSDOF 7
ENDMDL
MODEL 5
REMARK VINA RESULT: -6.551661809     13.731     15.195
REMARK  7 active torsions:
REMARK  status: ('A' for Active; 'I' for Inactive)
REMARK    1  A    between atoms: S1_2  and  N1_5 
REMARK    2  A    between atoms: N1_5  and  C2_7 
REMARK    3  A    between atoms: C5_14  and  C6_15 
REMARK    4  A    between atoms: C6_15  and  C7_16 
REMARK    5  A    between atoms: C7_16  and  C8_17 
REMARK    6  A    between atoms: C10_19  and  O3_20 
REMARK    7  A    between atoms: C11_22  and  O4_23 
ROOT
HETATM    1  C2  UNL     1      80.449   3.867   8.616  1.00  0.00     0.133 A 
HETATM    2  N2  UNL     1      80.444   3.983   7.280  1.00  0.00    -0.334 N 
ATOM      3  H2  UNL     1      79.673   4.488   6.842  1.00  0.00     0.168 HD
HETATM    4  C3  UNL     1      81.404   3.468   6.481  1.00  0.00     0.099 A 
HETATM    5 BR1  UNL     1      81.330   3.675   4.572  1.00  0.00    -0.030 Br
HETATM    6  C4  UNL     1      82.480   2.772   7.005  1.00  0.00     0.052 A 
HETATM    7 BR2  UNL     1      83.838   2.054   5.860  1.00  0.00    -0.048 Br
HETATM    8  C5  UNL     1      82.513   2.637   8.378  1.00  0.00    -0.017 A 
HETATM    9  C13 UNL     1      81.512   3.176   9.168  1.00  0.00     0.063 A 
HETATM   10 BR3  UNL     1      81.648   2.934  11.075  1.00  0.00    -0.046 Br
ENDROOT
BRANCH   8  11
HETATM   11  C6  UNL     1      83.657   1.889   8.960  1.00  0.00     0.042 C 
BRANCH  11  12
HETATM   12  C7  UNL     1      84.624   2.816   9.663  1.00  0.00     0.009 C 
BRANCH  12  13
HETATM   13  C8  UNL     1      86.050   2.373   9.410  1.00  0.00    -0.009 C 
HETATM   14  C9  UNL     1      86.073   1.252   8.409  1.00  0.00     0.039 C 
HETATM   15  C10 UNL     1      87.033   0.211   8.907  1.00  0.00     0.147 C 
HETATM   16  C11 UNL     1      87.634   0.790  10.158  1.00  0.00     0.147 C 
HETATM   17  C12 UNL     1      86.553   1.695  10.671  1.00  0.00     0.039 C 
BRANCH  15  18
HETATM   18  O3  UNL     1      86.350  -0.992   9.171  1.00  0.00    -0.393 OA
ATOM     19  H3  UNL     1      85.875  -0.925   9.991  1.00  0.00     0.210 HD
ENDBRANCH  15  18
BRANCH  16  20
HETATM   20  O4  UNL     1      87.978  -0.193  11.093  1.00  0.00    -0.393 OA
ATOM     21  H4  UNL     1      88.508  -0.885  10.716  1.00  0.00     0.210 HD
ENDBRANCH  16  20
ENDBRANCH  12  13
ENDBRANCH  11  12
ENDBRANCH   8  11
BRANCH   1  22
HETATM   22  N1  UNL     1      79.547   4.347   9.396  1.00  0.00    -0.269 N 
ATOM     23  H1  UNL     1      79.050   3.689   9.995  1.00  0.00     0.180 HD
BRANCH  22  24
HETATM   24  S1  UNL     1      79.109   5.998   9.515  1.00  0.00     0.228 S 
HETATM   25  C1  UNL     1      80.421   6.873  10.326  1.00  0.00     0.186 C 
HETATM   26  O1  UNL     1      77.824   6.150  10.283  1.00  0.00    -0.206 OA
HETATM   27  O2  UNL     1      78.916   6.529   8.103  1.00  0.00    -0.206 OA
ENDBRANCH  22  24
ENDBRANCH   1  22
TORSDOF 7
ENDMDL
