MODEL 1
REMARK VINA RESULT: -6.625660937      0.000      0.000
REMARK  5 active torsions:
REMARK  status: ('A' for Active; 'I' for Inactive)
REMARK    1  A    between atoms: O1_2  and  C2_3 
REMARK    2  A    between atoms: C3_4  and  C4_5 
REMARK    3  A    between atoms: C5_8  and  N1_9 
REMARK       I    between atoms: N1_9  and  C6_11 
REMARK    4  A    between atoms: C6_11  and  C7_13 
REMARK       I    between atoms: C7_13  and  N2_15 
REMARK    5  A    between atoms: N2_15  and  C8_17 
ROOT
HETATM    1  C2  UNL     1      80.185   7.965  12.413  1.00  0.00     0.159 C 
HETATM    2  C3  UNL     1      81.138   6.871  11.928  1.00  0.00     0.090 C 
HETATM    3  C5  UNL     1      80.367   5.627  11.802  1.00  0.00     0.025 C 
HETATM    4  C13 UNL     1      79.518   5.208  12.968  1.00  0.00     0.058 C 
HETATM    5  C14 UNL     1      78.096   4.800  12.523  1.00  0.00     0.044 C 
HETATM    6  C15 UNL     1      80.041   3.984  13.695  1.00  0.00     0.044 C 
HETATM    7  N3  UNL     1      79.313   6.224  13.949  1.00  0.00    -0.398 N 
ATOM      8  H3  UNL     1      79.199   5.994  14.936  1.00  0.00     0.155 HD
HETATM    9  C16 UNL     1      79.272   7.561  13.496  1.00  0.00     0.046 C 
HETATM   10  C17 UNL     1      79.564   8.462  14.707  1.00  0.00     0.040 C 
HETATM   11  C18 UNL     1      77.824   7.871  13.083  1.00  0.00     0.040 C 
ENDROOT
BRANCH   3  12
HETATM   12  N1  UNL     1      81.120   4.531  11.227  1.00  0.00    -0.323 N 
HETATM   13  C6  UNL     1      80.771   3.890  10.017  1.00  0.00     0.313 C 
HETATM   14  O2  UNL     1      79.758   4.278   9.394  1.00  0.00    -0.262 OA
ATOM     15  H1  UNL     1      81.948   4.204  11.723  1.00  0.00     0.169 HD
BRANCH  13  16
HETATM   16  C7  UNL     1      81.559   2.803   9.492  1.00  0.00     0.310 C 
HETATM   17  O3  UNL     1      80.977   1.723   9.139  1.00  0.00    -0.262 OA
HETATM   18  N2  UNL     1      82.967   2.857   9.341  1.00  0.00    -0.341 N 
ATOM     19  H2  UNL     1      83.476   3.699   9.610  1.00  0.00     0.163 HD
BRANCH  18  20
HETATM   20  C8  UNL     1      83.673   1.735   8.812  1.00  0.00     0.158 C 
HETATM   21  C9  UNL     1      84.988   1.608   9.571  1.00  0.00     0.036 C 
HETATM   22  C10 UNL     1      85.799   0.763   8.609  1.00  0.00     0.048 C 
HETATM   23  C11 UNL     1      85.343   1.164   7.221  1.00  0.00     0.241 C 
HETATM   24  F1  UNL     1      85.026   0.016   6.528  1.00  0.00    -0.241 F 
HETATM   25  C12 UNL     1      84.127   1.987   7.430  1.00  0.00     0.183 C 
HETATM   26  O4  UNL     1      83.619   2.725   6.598  1.00  0.00    -0.293 OA
ENDBRANCH  18  20
ENDBRANCH  13  16
ENDBRANCH   3  12
BRANCH   2  27
HETATM   27  C4  UNL     1      82.448   6.916  12.589  1.00  0.00     0.141 C 
HETATM   28 BR1  UNL     1      83.972   6.211  11.722  1.00  0.00    -0.078 Br
HETATM   29 BR2  UNL     1      82.915   8.613  13.387  1.00  0.00    -0.078 Br
ENDBRANCH   2  27
BRANCH   1  30
HETATM   30  O1  UNL     1      79.462   8.396  11.325  1.00  0.00    -0.387 OA
HETATM   31  C1  UNL     1      80.236   8.920  10.311  1.00  0.00     0.202 C 
ENDBRANCH   1  30
TORSDOF 5
ENDMDL
MODEL 2
REMARK VINA RESULT: -6.547630064     13.780     14.985
REMARK  5 active torsions:
REMARK  status: ('A' for Active; 'I' for Inactive)
REMARK    1  A    between atoms: O1_2  and  C2_3 
REMARK    2  A    between atoms: C3_4  and  C4_5 
REMARK    3  A    between atoms: C5_8  and  N1_9 
REMARK       I    between atoms: N1_9  and  C6_11 
REMARK    4  A    between atoms: C6_11  and  C7_13 
REMARK       I    between atoms: C7_13  and  N2_15 
REMARK    5  A    between atoms: N2_15  and  C8_17 
ROOT
HETATM    1  C2  UNL     1      88.186   5.684  26.343  1.00  0.00     0.159 C 
HETATM    2  C3  UNL     1      87.683   4.462  25.572  1.00  0.00     0.090 C 
HETATM    3  C5  UNL     1      87.694   4.797  24.142  1.00  0.00     0.025 C 
HETATM    4  C13 UNL     1      87.042   6.082  23.719  1.00  0.00     0.058 C 
HETATM    5  C14 UNL     1      87.939   6.890  22.755  1.00  0.00     0.044 C 
HETATM    6  C15 UNL     1      85.753   5.886  22.944  1.00  0.00     0.044 C 
HETATM    7  N3  UNL     1      86.757   6.984  24.787  1.00  0.00    -0.398 N 
ATOM      8  H3  UNL     1      85.953   7.610  24.754  1.00  0.00     0.155 HD
HETATM    9  C16 UNL     1      87.635   6.974  25.893  1.00  0.00     0.046 C 
HETATM   10  C17 UNL     1      86.881   7.594  27.080  1.00  0.00     0.040 C 
HETATM   11  C18 UNL     1      88.791   7.939  25.581  1.00  0.00     0.040 C 
ENDROOT
BRANCH   3  12
HETATM   12  N1  UNL     1      87.361   3.683  23.279  1.00  0.00    -0.323 N 
HETATM   13  C6  UNL     1      88.215   2.578  23.060  1.00  0.00     0.313 C 
HETATM   14  O2  UNL     1      89.325   2.545  23.636  1.00  0.00    -0.262 OA
ATOM     15  H1  UNL     1      86.460   3.695  22.803  1.00  0.00     0.169 HD
BRANCH  13  16
HETATM   16  C7  UNL     1      87.829   1.496  22.189  1.00  0.00     0.310 C 
HETATM   17  O3  UNL     1      87.623   1.733  20.952  1.00  0.00    -0.262 OA
HETATM   18  N2  UNL     1      87.661   0.159  22.628  1.00  0.00    -0.341 N 
ATOM     19  H2  UNL     1      87.814  -0.079  23.607  1.00  0.00     0.163 HD
BRANCH  18  20
HETATM   20  C8  UNL     1      87.277  -0.856  21.699  1.00  0.00     0.158 C 
HETATM   21  C9  UNL     1      86.006  -1.513  22.221  1.00  0.00     0.036 C 
HETATM   22  C10 UNL     1      86.021  -2.823  21.460  1.00  0.00     0.048 C 
HETATM   23  C11 UNL     1      87.482  -3.188  21.295  1.00  0.00     0.241 C 
HETATM   24  F1  UNL     1      87.706  -3.464  19.964  1.00  0.00    -0.241 F 
HETATM   25  C12 UNL     1      88.237  -1.977  21.699  1.00  0.00     0.183 C 
HETATM   26  O4  UNL     1      89.428  -1.943  21.973  1.00  0.00    -0.293 OA
ENDBRANCH  18  20
ENDBRANCH  13  16
ENDBRANCH   3  12
BRANCH   2  27
HETATM   27  C4  UNL     1      86.535   3.810  26.213  1.00  0.00     0.141 C 
HETATM   28 BR1  UNL     1      86.113   2.014  25.801  1.00  0.00    -0.078 Br
HETATM   29 BR2  UNL     1      86.405   4.057  28.126  1.00  0.00    -0.078 Br
ENDBRANCH   2  27
BRANCH   1  30
HETATM   30  O1  UNL     1      89.558   5.699  26.246  1.00  0.00    -0.387 OA
HETATM   31  C1  UNL     1      90.195   4.957  27.218  1.00  0.00     0.202 C 
ENDBRANCH   1  30
TORSDOF 5
ENDMDL
MODEL 3
REMARK VINA RESULT: -6.458113417     13.677     14.934
REMARK  5 active torsions:
REMARK  status: ('A' for Active; 'I' for Inactive)
REMARK    1  A    between atoms: O1_2  and  C2_3 
REMARK    2  A    between atoms: C3_4  and  C4_5 
REMARK    3  A    between atoms: C5_8  and  N1_9 
REMARK       I    between atoms: N1_9  and  C6_11 
REMARK    4  A    between atoms: C6_11  and  C7_13 
REMARK       I    between atoms: C7_13  and  N2_15 
REMARK    5  A    between atoms: N2_15  and  C8_17 
ROOT
HETATM    1  C2  UNL     1      85.743   6.285  25.064  1.00  0.00     0.159 C 
HETATM    2  C3  UNL     1      86.134   4.954  24.421  1.00  0.00     0.090 C 
HETATM    3  C5  UNL     1      86.829   4.152  25.437  1.00  0.00     0.025 C 
HETATM    4  C13 UNL     1      87.950   4.802  26.197  1.00  0.00     0.058 C 
HETATM    5  C14 UNL     1      87.830   4.554  27.717  1.00  0.00     0.044 C 
HETATM    6  C15 UNL     1      89.322   4.261  25.843  1.00  0.00     0.044 C 
HETATM    7  N3  UNL     1      88.010   6.222  26.066  1.00  0.00    -0.398 N 
ATOM      8  H3  UNL     1      88.900   6.720  26.097  1.00  0.00     0.155 HD
HETATM    9  C16 UNL     1      86.789   6.908  25.894  1.00  0.00     0.046 C 
HETATM   10  C17 UNL     1      87.117   8.276  25.274  1.00  0.00     0.040 C 
HETATM   11  C18 UNL     1      86.219   7.207  27.291  1.00  0.00     0.040 C 
ENDROOT
BRANCH   3  12
HETATM   12  N1  UNL     1      87.147   2.808  25.001  1.00  0.00    -0.323 N 
HETATM   13  C6  UNL     1      86.303   1.694  25.214  1.00  0.00     0.313 C 
HETATM   14  O2  UNL     1      85.217   1.861  25.812  1.00  0.00    -0.262 OA
ATOM     15  H1  UNL     1      88.029   2.656  24.513  1.00  0.00     0.169 HD
BRANCH  13  16
HETATM   16  C7  UNL     1      86.672   0.378  24.757  1.00  0.00     0.310 C 
HETATM   17  O3  UNL     1      86.889  -0.543  25.614  1.00  0.00    -0.262 OA
HETATM   18  N2  UNL     1      86.812   0.034  23.389  1.00  0.00    -0.341 N 
ATOM     19  H2  UNL     1      86.649   0.736  22.668  1.00  0.00     0.163 HD
BRANCH  18  20
HETATM   20  C8  UNL     1      87.181  -1.296  23.020  1.00  0.00     0.158 C 
HETATM   21  C9  UNL     1      88.477  -1.218  22.224  1.00  0.00     0.036 C 
HETATM   22  C10 UNL     1      88.457  -2.552  21.504  1.00  0.00     0.048 C 
HETATM   23  C11 UNL     1      86.996  -2.854  21.237  1.00  0.00     0.241 C 
HETATM   24  F1  UNL     1      86.735  -4.129  21.689  1.00  0.00    -0.241 F 
HETATM   25  C12 UNL     1      86.237  -1.863  22.036  1.00  0.00     0.183 C 
HETATM   26  O4  UNL     1      85.056  -1.587  21.888  1.00  0.00    -0.293 OA
ENDBRANCH  18  20
ENDBRANCH  13  16
ENDBRANCH   3  12
BRANCH   2  27
HETATM   27  C4  UNL     1      86.652   5.105  23.056  1.00  0.00     0.141 C 
HETATM   28 BR1  UNL     1      87.111   3.577  22.042  1.00  0.00    -0.078 Br
HETATM   29 BR2  UNL     1      85.667   6.328  21.929  1.00  0.00    -0.078 Br
ENDBRANCH   2  27
BRANCH   1  30
HETATM   30  O1  UNL     1      84.614   6.065  25.819  1.00  0.00    -0.387 OA
HETATM   31  C1  UNL     1      83.442   6.099  25.093  1.00  0.00     0.202 C 
ENDBRANCH   1  30
TORSDOF 5
ENDMDL
MODEL 4
REMARK VINA RESULT: -6.285735236     14.092     15.315
REMARK  5 active torsions:
REMARK  status: ('A' for Active; 'I' for Inactive)
REMARK    1  A    between atoms: O1_2  and  C2_3 
REMARK    2  A    between atoms: C3_4  and  C4_5 
REMARK    3  A    between atoms: C5_8  and  N1_9 
REMARK       I    between atoms: N1_9  and  C6_11 
REMARK    4  A    between atoms: C6_11  and  C7_13 
REMARK       I    between atoms: C7_13  and  N2_15 
REMARK    5  A    between atoms: N2_15  and  C8_17 
ROOT
HETATM    1  C2  UNL     1      86.188   5.592  26.776  1.00  0.00     0.159 C 
HETATM    2  C3  UNL     1      86.312   4.181  26.200  1.00  0.00     0.090 C 
HETATM    3  C5  UNL     1      87.181   4.253  25.017  1.00  0.00     0.025 C 
HETATM    4  C13 UNL     1      86.869   5.295  23.982  1.00  0.00     0.058 C 
HETATM    5  C14 UNL     1      88.134   6.073  23.555  1.00  0.00     0.044 C 
HETATM    6  C15 UNL     1      86.332   4.725  22.684  1.00  0.00     0.044 C 
HETATM    7  N3  UNL     1      85.954   6.303  24.411  1.00  0.00    -0.398 N 
ATOM      8  H3  UNL     1      85.312   6.750  23.757  1.00  0.00     0.155 HD
HETATM    9  C16 UNL     1      85.974   6.655  25.778  1.00  0.00     0.046 C 
HETATM   10  C17 UNL     1      84.626   7.323  26.097  1.00  0.00     0.040 C 
HETATM   11  C18 UNL     1      87.038   7.749  25.964  1.00  0.00     0.040 C 
ENDROOT
BRANCH   3  12
HETATM   12  N1  UNL     1      87.491   2.960  24.443  1.00  0.00    -0.323 N 
HETATM   13  C6  UNL     1      88.804   2.453  24.313  1.00  0.00     0.313 C 
HETATM   14  O2  UNL     1      89.765   3.147  24.712  1.00  0.00    -0.262 OA
ATOM     15  H1  UNL     1      86.718   2.382  24.112  1.00  0.00     0.169 HD
BRANCH  13  16
HETATM   16  C7  UNL     1      89.051   1.157  23.732  1.00  0.00     0.310 C 
HETATM   17  O3  UNL     1      90.169   0.580  23.947  1.00  0.00    -0.262 OA
HETATM   18  N2  UNL     1      88.114   0.470  22.921  1.00  0.00    -0.341 N 
ATOM     19  H2  UNL     1      87.208   0.892  22.721  1.00  0.00     0.163 HD
BRANCH  18  20
HETATM   20  C8  UNL     1      88.439  -0.813  22.384  1.00  0.00     0.158 C 
HETATM   21  C9  UNL     1      88.362  -0.718  20.865  1.00  0.00     0.036 C 
HETATM   22  C10 UNL     1      88.220  -2.179  20.489  1.00  0.00     0.048 C 
HETATM   23  C11 UNL     1      87.429  -2.820  21.611  1.00  0.00     0.241 C 
HETATM   24  F1  UNL     1      88.114  -3.938  22.032  1.00  0.00    -0.241 F 
HETATM   25  C12 UNL     1      87.391  -1.807  22.693  1.00  0.00     0.183 C 
HETATM   26  O4  UNL     1      86.629  -1.817  23.648  1.00  0.00    -0.293 OA
ENDBRANCH  18  20
ENDBRANCH  13  16
ENDBRANCH   3  12
BRANCH   2  27
HETATM   27  C4  UNL     1      85.041   3.449  26.193  1.00  0.00     0.141 C 
HETATM   28 BR1  UNL     1      85.026   1.576  25.934  1.00  0.00    -0.078 Br
HETATM   29 BR2  UNL     1      83.825   3.888  27.630  1.00  0.00    -0.078 Br
ENDBRANCH   2  27
BRANCH   1  30
HETATM   30  O1  UNL     1      87.332   5.848  27.497  1.00  0.00    -0.387 OA
HETATM   31  C1  UNL     1      87.394   5.180  28.701  1.00  0.00     0.202 C 
ENDBRANCH   1  30
TORSDOF 5
ENDMDL
MODEL 5
REMARK VINA RESULT: -6.212976701     14.412     15.572
REMARK  5 active torsions:
REMARK  status: ('A' for Active; 'I' for Inactive)
REMARK    1  A    between atoms: O1_2  and  C2_3 
REMARK    2  A    between atoms: C3_4  and  C4_5 
REMARK    3  A    between atoms: C5_8  and  N1_9 
REMARK       I    between atoms: N1_9  and  C6_11 
REMARK    4  A    between atoms: C6_11  and  C7_13 
REMARK       I    between atoms: C7_13  and  N2_15 
REMARK    5  A    between atoms: N2_15  and  C8_17 
ROOT
HETATM    1  C2  UNL     1      88.519   6.160  27.105  1.00  0.00     0.159 C 
HETATM    2  C3  UNL     1      87.927   4.803  26.720  1.00  0.00     0.090 C 
HETATM    3  C5  UNL     1      87.850   4.747  25.254  1.00  0.00     0.025 C 
HETATM    4  C13 UNL     1      87.210   5.903  24.540  1.00  0.00     0.058 C 
HETATM    5  C14 UNL     1      88.064   6.382  23.345  1.00  0.00     0.044 C 
HETATM    6  C15 UNL     1      85.865   5.570  23.923  1.00  0.00     0.044 C 
HETATM    7  N3  UNL     1      87.028   7.068  25.344  1.00  0.00    -0.398 N 
ATOM      8  H3  UNL     1      86.243   7.701  25.190  1.00  0.00     0.155 HD
HETATM    9  C16 UNL     1      87.979   7.310  26.359  1.00  0.00     0.046 C 
HETATM   10  C17 UNL     1      87.328   8.258  27.378  1.00  0.00     0.040 C 
HETATM   11  C18 UNL     1      89.140   8.101  25.733  1.00  0.00     0.040 C 
ENDROOT
BRANCH   3  12
HETATM   12  N1  UNL     1      87.425   3.460  24.742  1.00  0.00    -0.323 N 
HETATM   13  C6  UNL     1      88.313   2.482  24.240  1.00  0.00     0.313 C 
HETATM   14  O2  UNL     1      89.540   2.725  24.230  1.00  0.00    -0.262 OA
ATOM     15  H1  UNL     1      86.427   3.248  24.743  1.00  0.00     0.169 HD
BRANCH  13  16
HETATM   16  C7  UNL     1      87.830   1.218  23.743  1.00  0.00     0.310 C 
HETATM   17  O3  UNL     1      86.683   0.798  24.114  1.00  0.00    -0.262 OA
HETATM   18  N2  UNL     1      88.562   0.396  22.851  1.00  0.00    -0.341 N 
ATOM     19  H2  UNL     1      89.484   0.689  22.527  1.00  0.00     0.163 HD
BRANCH  18  20
HETATM   20  C8  UNL     1      88.011  -0.844  22.405  1.00  0.00     0.158 C 
HETATM   21  C9  UNL     1      89.166  -1.797  22.125  1.00  0.00     0.036 C 
HETATM   22  C10 UNL     1      88.495  -2.811  21.222  1.00  0.00     0.048 C 
HETATM   23  C11 UNL     1      87.465  -2.036  20.424  1.00  0.00     0.241 C 
HETATM   24  F1  UNL     1      86.259  -2.693  20.532  1.00  0.00    -0.241 F 
HETATM   25  C12 UNL     1      87.383  -0.707  21.076  1.00  0.00     0.183 C 
HETATM   26  O4  UNL     1      86.884   0.295  20.584  1.00  0.00    -0.293 OA
ENDBRANCH  18  20
ENDBRANCH  13  16
ENDBRANCH   3  12
BRANCH   2  27
HETATM   27  C4  UNL     1      86.807   4.401  27.577  1.00  0.00     0.141 C 
HETATM   28 BR1  UNL     1      86.134   2.636  27.491  1.00  0.00    -0.078 Br
HETATM   29 BR2  UNL     1      86.957   4.920  29.433  1.00  0.00    -0.078 Br
ENDBRANCH   2  27
BRANCH   1  30
HETATM   30  O1  UNL     1      89.881   6.083  26.928  1.00  0.00    -0.387 OA
HETATM   31  C1  UNL     1      90.529   5.339  27.892  1.00  0.00     0.202 C 
ENDBRANCH   1  30
TORSDOF 5
ENDMDL
