MODEL 1
REMARK VINA RESULT: -6.404256499      0.000      0.000
REMARK  6 active torsions:
REMARK  status: ('A' for Active; 'I' for Inactive)
REMARK    1  A    between atoms: C2_2  and  O1_3 
REMARK    2  A    between atoms: C2_2  and  C3_5 
REMARK    3  A    between atoms: C3_5  and  N1_6 
REMARK    4  A    between atoms: C3_5  and  C9_17 
REMARK       I    between atoms: N1_6  and  C4_8 
REMARK    5  A    between atoms: C4_8  and  C5_10 
REMARK       I    between atoms: C9_17  and  N2_19 
REMARK    6  A    between atoms: N2_19  and  C10_21 
ROOT
HETATM    1  C3  UNL     1      86.205   1.362   9.293  1.00  0.00     0.205 C 
ENDROOT
BRANCH   1   2
HETATM    2  C2  UNL     1      85.757   0.373   8.238  1.00  0.00     0.146 C 
HETATM    3  C1  UNL     1      85.035   1.022   7.107  1.00  0.00     0.042 C 
BRANCH   2   4
HETATM    4  O1  UNL     1      84.886  -0.578   8.799  1.00  0.00    -0.393 OA
ATOM      5  H1  UNL     1      85.200  -0.767   9.676  1.00  0.00     0.210 HD
ENDBRANCH   2   4
ENDBRANCH   1   2
BRANCH   1   6
HETATM    6  N1  UNL     1      85.099   1.791  10.108  1.00  0.00    -0.345 N 
HETATM    7  C4  UNL     1      84.653   3.124  10.071  1.00  0.00     0.225 C 
HETATM    8  O2  UNL     1      85.247   3.930   9.308  1.00  0.00    -0.273 OA
ATOM      9  H1  UNL     1      84.634   1.120  10.720  1.00  0.00     0.163 HD
BRANCH   7  10
HETATM   10  C5  UNL     1      83.510   3.523  10.927  1.00  0.00     0.122 C 
HETATM   11  C6  UNL     1      83.216   5.015  10.889  1.00  0.00     0.098 C 
HETATM   12  C7  UNL     1      82.224   4.707   9.796  1.00  0.00     0.158 C 
HETATM   13  O3  UNL     1      81.706   5.293   8.864  1.00  0.00    -0.295 OA
HETATM   14  C8  UNL     1      82.145   3.329  10.366  1.00  0.00     0.148 C 
HETATM   15 BR1  UNL     1      80.754   3.266  11.711  1.00  0.00    -0.063 Br
HETATM   16 BR2  UNL     1      81.909   1.946   9.072  1.00  0.00    -0.063 Br
ENDBRANCH   7  10
ENDBRANCH   1   6
BRANCH   1  17
HETATM   17  C9  UNL     1      87.269   0.844  10.150  1.00  0.00     0.249 C 
HETATM   18  O4  UNL     1      87.489  -0.392  10.193  1.00  0.00    -0.271 OA
HETATM   19  N2  UNL     1      88.054   1.707  10.926  1.00  0.00    -0.305 N 
ATOM     20  H2  UNL     1      88.574   2.453  10.464  1.00  0.00     0.171 HD
BRANCH  19  21
HETATM   21  C10 UNL     1      88.139   1.583  12.239  1.00  0.00     0.152 A 
HETATM   22  N3  UNL     1      87.658   0.588  12.984  1.00  0.00    -0.345 N 
HETATM   23  C11 UNL     1      87.844   0.641  14.286  1.00  0.00     0.116 A 
ATOM     24  H3  UNL     1      87.160  -0.194  12.558  1.00  0.00     0.167 HD
HETATM   25  C12 UNL     1      88.520   1.716  14.785  1.00  0.00     0.070 A 
HETATM   26 BR3  UNL     1      88.956   2.094  16.626  1.00  0.00    -0.042 Br
HETATM   27  S1  UNL     1      88.867   2.615  13.381  1.00  0.00    -0.045 SA
ENDBRANCH  19  21
ENDBRANCH   1  17
TORSDOF 6
ENDMDL
MODEL 2
REMARK VINA RESULT: -6.207072777      3.737      5.109
REMARK  6 active torsions:
REMARK  status: ('A' for Active; 'I' for Inactive)
REMARK    1  A    between atoms: C2_2  and  O1_3 
REMARK    2  A    between atoms: C2_2  and  C3_5 
REMARK    3  A    between atoms: C3_5  and  N1_6 
REMARK    4  A    between atoms: C3_5  and  C9_17 
REMARK       I    between atoms: N1_6  and  C4_8 
REMARK    5  A    between atoms: C4_8  and  C5_10 
REMARK       I    between atoms: C9_17  and  N2_19 
REMARK    6  A    between atoms: N2_19  and  C10_21 
ROOT
HETATM    1  C3  UNL     1      81.808   3.817   8.775  1.00  0.00     0.205 C 
ENDROOT
BRANCH   1   2
HETATM    2  C2  UNL     1      80.976   2.818   9.549  1.00  0.00     0.146 C 
HETATM    3  C1  UNL     1      81.597   2.432  10.849  1.00  0.00     0.042 C 
BRANCH   2   4
HETATM    4  O1  UNL     1      80.808   1.639   8.801  1.00  0.00    -0.393 OA
ATOM      5  H1  UNL     1      81.488   1.626   8.138  1.00  0.00     0.210 HD
ENDBRANCH   2   4
ENDBRANCH   1   2
BRANCH   1   6
HETATM    6  N1  UNL     1      82.293   4.866   9.631  1.00  0.00    -0.345 N 
HETATM    7  C4  UNL     1      81.561   6.056   9.797  1.00  0.00     0.225 C 
HETATM    8  O2  UNL     1      80.473   6.177   9.175  1.00  0.00    -0.273 OA
ATOM      9  H1  UNL     1      83.178   4.747  10.124  1.00  0.00     0.163 HD
BRANCH   7  10
HETATM   10  C5  UNL     1      82.097   7.111  10.689  1.00  0.00     0.122 C 
HETATM   11  C6  UNL     1      81.475   8.479  10.453  1.00  0.00     0.098 C 
HETATM   12  C7  UNL     1      80.493   8.129  11.541  1.00  0.00     0.158 C 
HETATM   13  O3  UNL     1      79.365   8.450  11.870  1.00  0.00    -0.295 OA
HETATM   14  C8  UNL     1      81.529   7.189  12.063  1.00  0.00     0.148 C 
HETATM   15 BR1  UNL     1      82.667   8.118  13.324  1.00  0.00    -0.063 Br
HETATM   16 BR2  UNL     1      80.834   5.582  12.823  1.00  0.00    -0.063 Br
ENDBRANCH   7  10
ENDBRANCH   1   6
BRANCH   1  17
HETATM   17  C9  UNL     1      82.933   3.204   8.071  1.00  0.00     0.249 C 
HETATM   18  O4  UNL     1      82.736   2.602   6.986  1.00  0.00    -0.271 OA
HETATM   19  N2  UNL     1      84.232   3.277   8.588  1.00  0.00    -0.305 N 
ATOM     20  H2  UNL     1      84.642   4.195   8.768  1.00  0.00     0.171 HD
BRANCH  19  21
HETATM   21  C10 UNL     1      84.944   2.194   8.850  1.00  0.00     0.152 A 
HETATM   22  N3  UNL     1      84.700   0.953   8.428  1.00  0.00    -0.345 N 
HETATM   23  C11 UNL     1      85.528  -0.001   8.796  1.00  0.00     0.116 A 
ATOM     24  H3  UNL     1      83.895   0.749   7.836  1.00  0.00     0.167 HD
HETATM   25  C12 UNL     1      86.584   0.347   9.588  1.00  0.00     0.070 A 
HETATM   26 BR3  UNL     1      87.966  -0.797  10.294  1.00  0.00    -0.042 Br
HETATM   27  S1  UNL     1      86.359   2.025   9.781  1.00  0.00    -0.045 SA
ENDBRANCH  19  21
ENDBRANCH   1  17
TORSDOF 6
ENDMDL
MODEL 3
REMARK VINA RESULT: -6.008316430     11.858     14.162
REMARK  6 active torsions:
REMARK  status: ('A' for Active; 'I' for Inactive)
REMARK    1  A    between atoms: C2_2  and  O1_3 
REMARK    2  A    between atoms: C2_2  and  C3_5 
REMARK    3  A    between atoms: C3_5  and  N1_6 
REMARK    4  A    between atoms: C3_5  and  C9_17 
REMARK       I    between atoms: N1_6  and  C4_8 
REMARK    5  A    between atoms: C4_8  and  C5_10 
REMARK       I    between atoms: C9_17  and  N2_19 
REMARK    6  A    between atoms: N2_19  and  C10_21 
ROOT
HETATM    1  C3  UNL     1      86.444   1.887  24.536  1.00  0.00     0.205 C 
ENDROOT
BRANCH   1   2
HETATM    2  C2  UNL     1      85.219   2.192  25.371  1.00  0.00     0.146 C 
HETATM    3  C1  UNL     1      85.413   1.883  26.817  1.00  0.00     0.042 C 
BRANCH   2   4
HETATM    4  O1  UNL     1      84.123   1.432  24.925  1.00  0.00    -0.393 OA
ATOM      5  H1  UNL     1      83.340   1.817  25.303  1.00  0.00     0.210 HD
ENDBRANCH   2   4
ENDBRANCH   1   2
BRANCH   1   6
HETATM    6  N1  UNL     1      86.217   0.762  23.669  1.00  0.00    -0.345 N 
HETATM    7  C4  UNL     1      86.666  -0.522  24.024  1.00  0.00     0.225 C 
HETATM    8  O2  UNL     1      87.273  -0.659  25.119  1.00  0.00    -0.273 OA
ATOM      9  H1  UNL     1      85.724   0.897  22.786  1.00  0.00     0.163 HD
BRANCH   7  10
HETATM   10  C5  UNL     1      86.411  -1.654  23.101  1.00  0.00     0.122 C 
HETATM   11  C6  UNL     1      85.429  -1.318  21.988  1.00  0.00     0.098 C 
HETATM   12  C7  UNL     1      86.629  -0.970  21.146  1.00  0.00     0.158 C 
HETATM   13  O3  UNL     1      86.877  -0.266  20.184  1.00  0.00    -0.295 OA
HETATM   14  C8  UNL     1      87.412  -1.889  22.025  1.00  0.00     0.148 C 
HETATM   15 BR1  UNL     1      87.361  -3.681  21.293  1.00  0.00    -0.063 Br
HETATM   16 BR2  UNL     1      89.209  -1.335  22.354  1.00  0.00    -0.063 Br
ENDBRANCH   7  10
ENDBRANCH   1   6
BRANCH   1  17
HETATM   17  C9  UNL     1      86.897   3.029  23.745  1.00  0.00     0.249 C 
HETATM   18  O4  UNL     1      87.833   2.883  22.919  1.00  0.00    -0.271 OA
HETATM   19  N2  UNL     1      86.302   4.288  23.891  1.00  0.00    -0.305 N 
ATOM     20  H2  UNL     1      85.297   4.382  23.739  1.00  0.00     0.171 HD
BRANCH  19  21
HETATM   21  C10 UNL     1      87.003   5.360  24.220  1.00  0.00     0.152 A 
HETATM   22  N3  UNL     1      87.799   6.074  23.423  1.00  0.00    -0.345 N 
HETATM   23  C11 UNL     1      88.418   7.115  23.937  1.00  0.00     0.116 A 
ATOM     24  H3  UNL     1      87.924   5.820  22.443  1.00  0.00     0.167 HD
HETATM   25  C12 UNL     1      88.202   7.393  25.255  1.00  0.00     0.070 A 
HETATM   26 BR3  UNL     1      88.948   8.832  26.302  1.00  0.00    -0.042 Br
HETATM   27  S1  UNL     1      87.123   6.160  25.718  1.00  0.00    -0.045 SA
ENDBRANCH  19  21
ENDBRANCH   1  17
TORSDOF 6
ENDMDL
MODEL 4
REMARK VINA RESULT: -5.982790934     11.310     13.775
REMARK  6 active torsions:
REMARK  status: ('A' for Active; 'I' for Inactive)
REMARK    1  A    between atoms: C2_2  and  O1_3 
REMARK    2  A    between atoms: C2_2  and  C3_5 
REMARK    3  A    between atoms: C3_5  and  N1_6 
REMARK    4  A    between atoms: C3_5  and  C9_17 
REMARK       I    between atoms: N1_6  and  C4_8 
REMARK    5  A    between atoms: C4_8  and  C5_10 
REMARK       I    between atoms: C9_17  and  N2_19 
REMARK    6  A    between atoms: N2_19  and  C10_21 
ROOT
HETATM    1  C3  UNL     1      86.741   1.906  24.743  1.00  0.00     0.205 C 
ENDROOT
BRANCH   1   2
HETATM    2  C2  UNL     1      85.499   2.408  25.449  1.00  0.00     0.146 C 
HETATM    3  C1  UNL     1      85.544   2.186  26.923  1.00  0.00     0.042 C 
BRANCH   2   4
HETATM    4  O1  UNL     1      84.359   1.744  24.961  1.00  0.00    -0.393 OA
ATOM      5  H1  UNL     1      84.661   1.006  24.445  1.00  0.00     0.210 HD
ENDBRANCH   2   4
ENDBRANCH   1   2
BRANCH   1   6
HETATM    6  N1  UNL     1      86.429   0.830  23.841  1.00  0.00    -0.345 N 
HETATM    7  C4  UNL     1      86.687  -0.506  24.198  1.00  0.00     0.225 C 
HETATM    8  O2  UNL     1      87.199  -0.733  25.326  1.00  0.00    -0.273 OA
ATOM      9  H1  UNL     1      86.016   1.037  22.931  1.00  0.00     0.163 HD
BRANCH   7  10
HETATM   10  C5  UNL     1      86.349  -1.584  23.238  1.00  0.00     0.122 C 
HETATM   11  C6  UNL     1      85.359  -1.154  22.166  1.00  0.00     0.098 C 
HETATM   12  C7  UNL     1      86.555  -0.834  21.307  1.00  0.00     0.158 C 
HETATM   13  O3  UNL     1      86.816  -0.106  20.367  1.00  0.00    -0.295 OA
HETATM   14  C8  UNL     1      87.310  -1.828  22.128  1.00  0.00     0.148 C 
HETATM   15 BR1  UNL     1      87.146  -3.583  21.328  1.00  0.00    -0.063 Br
HETATM   16 BR2  UNL     1      89.141  -1.382  22.431  1.00  0.00    -0.063 Br
ENDBRANCH   7  10
ENDBRANCH   1   6
BRANCH   1  17
HETATM   17  C9  UNL     1      87.453   2.957  24.019  1.00  0.00     0.249 C 
HETATM   18  O4  UNL     1      88.390   3.577  24.582  1.00  0.00    -0.271 OA
HETATM   19  N2  UNL     1      87.107   3.286  22.702  1.00  0.00    -0.305 N 
ATOM     20  H2  UNL     1      87.134   2.559  21.987  1.00  0.00     0.171 HD
BRANCH  19  21
HETATM   21  C10 UNL     1      86.747   4.511  22.358  1.00  0.00     0.152 A 
HETATM   22  N3  UNL     1      86.746   5.032  21.131  1.00  0.00    -0.345 N 
HETATM   23  C11 UNL     1      86.351   6.279  20.987  1.00  0.00     0.116 A 
ATOM     24  H3  UNL     1      87.043   4.480  20.326  1.00  0.00     0.167 HD
HETATM   25  C12 UNL     1      85.968   6.955  22.109  1.00  0.00     0.070 A 
HETATM   26 BR3  UNL     1      85.342   8.775  22.242  1.00  0.00    -0.042 Br
HETATM   27  S1  UNL     1      86.185   5.789  23.331  1.00  0.00    -0.045 SA
ENDBRANCH  19  21
ENDBRANCH   1  17
TORSDOF 6
ENDMDL
MODEL 5
REMARK VINA RESULT: -5.965703989      4.989      6.973
REMARK  6 active torsions:
REMARK  status: ('A' for Active; 'I' for Inactive)
REMARK    1  A    between atoms: C2_2  and  O1_3 
REMARK    2  A    between atoms: C2_2  and  C3_5 
REMARK    3  A    between atoms: C3_5  and  N1_6 
REMARK    4  A    between atoms: C3_5  and  C9_17 
REMARK       I    between atoms: N1_6  and  C4_8 
REMARK    5  A    between atoms: C4_8  and  C5_10 
REMARK       I    between atoms: C9_17  and  N2_19 
REMARK    6  A    between atoms: N2_19  and  C10_21 
ROOT
HETATM    1  C3  UNL     1      82.751   2.656  10.296  1.00  0.00     0.205 C 
ENDROOT
BRANCH   1   2
HETATM    2  C2  UNL     1      84.219   2.586   9.933  1.00  0.00     0.146 C 
HETATM    3  C1  UNL     1      84.893   3.914   9.992  1.00  0.00     0.042 C 
BRANCH   2   4
HETATM    4  O1  UNL     1      84.375   2.096   8.624  1.00  0.00    -0.393 OA
ATOM      5  H1  UNL     1      83.507   2.029   8.242  1.00  0.00     0.210 HD
ENDBRANCH   2   4
ENDBRANCH   1   2
BRANCH   1   6
HETATM    6  N1  UNL     1      82.439   3.888  10.970  1.00  0.00    -0.345 N 
HETATM    7  C4  UNL     1      81.313   3.986  11.806  1.00  0.00     0.225 C 
HETATM    8  O2  UNL     1      80.585   2.967  11.948  1.00  0.00    -0.273 OA
ATOM      9  H1  UNL     1      83.042   4.701  10.840  1.00  0.00     0.163 HD
BRANCH   7  10
HETATM   10  C5  UNL     1      81.029   5.275  12.482  1.00  0.00     0.122 C 
HETATM   11  C6  UNL     1      82.145   6.297  12.332  1.00  0.00     0.098 C 
HETATM   12  C7  UNL     1      81.394   6.818  11.133  1.00  0.00     0.158 C 
HETATM   13  O3  UNL     1      81.648   7.431  10.112  1.00  0.00    -0.295 OA
HETATM   14  C8  UNL     1      80.164   6.244  11.755  1.00  0.00     0.148 C 
HETATM   15 BR1  UNL     1      79.343   7.568  12.904  1.00  0.00    -0.063 Br
HETATM   16 BR2  UNL     1      78.899   5.539  10.511  1.00  0.00    -0.063 Br
ENDBRANCH   7  10
ENDBRANCH   1   6
BRANCH   1  17
HETATM   17  C9  UNL     1      81.867   2.494   9.144  1.00  0.00     0.249 C 
HETATM   18  O4  UNL     1      81.411   1.357   8.863  1.00  0.00    -0.271 OA
HETATM   19  N2  UNL     1      81.516   3.589   8.345  1.00  0.00    -0.305 N 
ATOM     20  H2  UNL     1      81.061   4.393   8.779  1.00  0.00     0.171 HD
BRANCH  19  21
HETATM   21  C10 UNL     1      81.758   3.613   7.046  1.00  0.00     0.152 A 
HETATM   22  N3  UNL     1      82.809   3.090   6.415  1.00  0.00    -0.345 N 
HETATM   23  C11 UNL     1      82.874   3.216   5.107  1.00  0.00     0.116 A 
ATOM     24  H3  UNL     1      83.543   2.604   6.932  1.00  0.00     0.167 HD
HETATM   25  C12 UNL     1      81.856   3.877   4.483  1.00  0.00     0.070 A 
HETATM   26 BR3  UNL     1      81.649   4.230   2.598  1.00  0.00    -0.042 Br
HETATM   27  S1  UNL     1      80.840   4.296   5.784  1.00  0.00    -0.045 SA
ENDBRANCH  19  21
ENDBRANCH   1  17
TORSDOF 6
ENDMDL
