MODEL 1
REMARK VINA RESULT: -7.377489401      0.000      0.000
REMARK  6 active torsions:
REMARK  status: ('A' for Active; 'I' for Inactive)
REMARK    1  A    between atoms: N2_8  and  C5_9 
REMARK    2  A    between atoms: C5_9  and  C6_10 
REMARK    3  A    between atoms: C7_11  and  C8_12 
REMARK    4  A    between atoms: C8_12  and  C9_13 
REMARK    5  A    between atoms: C12_18  and  O2_19 
REMARK    6  A    between atoms: C13_21  and  O3_22 
ROOT
HETATM    1  C8  UNL     1      83.769   3.435  10.404  1.00  0.00     0.038 C 
ENDROOT
BRANCH   1   2
HETATM    2  C7  UNL     1      83.857   4.880  10.614  1.00  0.00    -0.028 C 
HETATM    3  C6  UNL     1      82.861   5.715  10.611  1.00  0.00    -0.010 C 
BRANCH   3   4
HETATM    4  C5  UNL     1      81.473   5.311  10.390  1.00  0.00     0.164 C 
BRANCH   4   5
HETATM    5  N2  UNL     1      80.759   5.091  11.655  1.00  0.00    -0.265 N 
HETATM    6  C4  UNL     1      80.438   3.822  12.222  1.00  0.00     0.326 C 
HETATM    7  N1  UNL     1      79.737   4.044  13.464  1.00  0.00    -0.325 N 
HETATM    8  O1  UNL     1      80.723   2.707  11.711  1.00  0.00    -0.247 OA
HETATM    9  C2  UNL     1      79.202   5.377  13.352  1.00  0.00     0.108 C 
ATOM     10  H1  UNL     1      79.642   3.399  14.248  1.00  0.00     0.165 HD
HETATM   11  C1  UNL     1      77.945   5.342  12.538  1.00  0.00     0.049 C 
HETATM   12  C3  UNL     1      79.025   6.044  14.693  1.00  0.00     0.049 C 
HETATM   13  C15 UNL     1      80.253   6.068  12.556  1.00  0.00     0.255 C 
HETATM   14  O4  UNL     1      80.650   7.261  12.625  1.00  0.00    -0.270 OA
ENDBRANCH   4   5
ENDBRANCH   3   4
ENDBRANCH   1   2
BRANCH   1  15
HETATM   15  C9  UNL     1      84.501   3.167   9.072  1.00  0.00     0.047 C 
HETATM   16  C10 UNL     1      85.486   2.063   9.258  1.00  0.00     0.010 C 
HETATM   17 BR1  UNL     1      86.742   2.265  10.701  1.00  0.00    -0.054 Br
HETATM   18  C11 UNL     1      85.515   1.004   8.493  1.00  0.00     0.033 C 
HETATM   19 BR2  UNL     1      86.832  -0.346   8.838  1.00  0.00    -0.052 Br
HETATM   20  C12 UNL     1      84.574   0.778   7.356  1.00  0.00     0.189 C 
HETATM   21  C13 UNL     1      84.172   2.156   6.855  1.00  0.00     0.167 C 
HETATM   22  C14 UNL     1      83.476   2.844   8.033  1.00  0.00     0.098 C 
HETATM   23 BR3  UNL     1      82.155   1.585   8.686  1.00  0.00    -0.088 Br
BRANCH  20  24
HETATM   24  O2  UNL     1      85.277   0.171   6.306  1.00  0.00    -0.388 OA
ATOM     25  H2  UNL     1      85.311  -0.765   6.465  1.00  0.00     0.210 HD
ENDBRANCH  20  24
BRANCH  21  26
HETATM   26  O3  UNL     1      83.237   1.950   5.838  1.00  0.00    -0.391 OA
ATOM     27  H3  UNL     1      83.727   1.662   5.077  1.00  0.00     0.210 HD
ENDBRANCH  21  26
ENDBRANCH   1  15
TORSDOF 6
ENDMDL
MODEL 2
REMARK VINA RESULT: -6.972552400      3.550      7.639
REMARK  6 active torsions:
REMARK  status: ('A' for Active; 'I' for Inactive)
REMARK    1  A    between atoms: N2_8  and  C5_9 
REMARK    2  A    between atoms: C5_9  and  C6_10 
REMARK    3  A    between atoms: C7_11  and  C8_12 
REMARK    4  A    between atoms: C8_12  and  C9_13 
REMARK    5  A    between atoms: C12_18  and  O2_19 
REMARK    6  A    between atoms: C13_21  and  O3_22 
ROOT
HETATM    1  C8  UNL     1      82.871   5.786  10.606  1.00  0.00     0.038 C 
ENDROOT
BRANCH   1   2
HETATM    2  C7  UNL     1      84.276   5.397  10.724  1.00  0.00    -0.028 C 
HETATM    3  C6  UNL     1      84.802   4.292  10.284  1.00  0.00    -0.010 C 
BRANCH   3   4
HETATM    4  C5  UNL     1      84.037   3.256   9.590  1.00  0.00     0.164 C 
BRANCH   4   5
HETATM    5  N2  UNL     1      84.911   2.230   9.005  1.00  0.00    -0.265 N 
HETATM    6  C4  UNL     1      84.941   1.843   7.633  1.00  0.00     0.326 C 
HETATM    7  N1  UNL     1      85.934   0.808   7.475  1.00  0.00    -0.325 N 
HETATM    8  O1  UNL     1      84.217   2.331   6.726  1.00  0.00    -0.247 OA
HETATM    9  C2  UNL     1      86.090   0.242   8.791  1.00  0.00     0.108 C 
ATOM     10  H1  UNL     1      86.419   0.537   6.620  1.00  0.00     0.165 HD
HETATM   11  C1  UNL     1      84.980  -0.729   9.050  1.00  0.00     0.049 C 
HETATM   12  C3  UNL     1      87.461  -0.347   9.008  1.00  0.00     0.049 C 
HETATM   13  C15 UNL     1      85.884   1.429   9.665  1.00  0.00     0.255 C 
HETATM   14  O4  UNL     1      86.428   1.714  10.764  1.00  0.00    -0.270 OA
ENDBRANCH   4   5
ENDBRANCH   3   4
ENDBRANCH   1   2
BRANCH   1  15
HETATM   15  C9  UNL     1      82.202   5.316  11.917  1.00  0.00     0.047 C 
HETATM   16  C10 UNL     1      81.733   6.503  12.689  1.00  0.00     0.010 C 
HETATM   17 BR1  UNL     1      83.036   7.874  13.037  1.00  0.00    -0.054 Br
HETATM   18  C11 UNL     1      80.504   6.627  13.117  1.00  0.00     0.033 C 
HETATM   19 BR2  UNL     1      80.027   8.203  14.099  1.00  0.00    -0.052 Br
HETATM   20  C12 UNL     1      79.440   5.606  12.886  1.00  0.00     0.189 C 
HETATM   21  C13 UNL     1      80.150   4.267  12.772  1.00  0.00     0.167 C 
HETATM   22  C14 UNL     1      81.084   4.390  11.565  1.00  0.00     0.098 C 
HETATM   23 BR3  UNL     1      80.000   5.081  10.115  1.00  0.00    -0.088 Br
BRANCH  20  24
HETATM   24  O2  UNL     1      78.638   5.526  14.034  1.00  0.00    -0.388 OA
ATOM     25  H2  UNL     1      78.375   4.622  14.158  1.00  0.00     0.210 HD
ENDBRANCH  20  24
BRANCH  21  26
HETATM   26  O3  UNL     1      79.165   3.320  12.484  1.00  0.00    -0.391 OA
ATOM     27  H3  UNL     1      79.254   3.111  11.562  1.00  0.00     0.210 HD
ENDBRANCH  21  26
ENDBRANCH   1  15
TORSDOF 6
ENDMDL
MODEL 3
REMARK VINA RESULT: -6.930407040      1.788      3.072
REMARK  6 active torsions:
REMARK  status: ('A' for Active; 'I' for Inactive)
REMARK    1  A    between atoms: N2_8  and  C5_9 
REMARK    2  A    between atoms: C5_9  and  C6_10 
REMARK    3  A    between atoms: C7_11  and  C8_12 
REMARK    4  A    between atoms: C8_12  and  C9_13 
REMARK    5  A    between atoms: C12_18  and  O2_19 
REMARK    6  A    between atoms: C13_21  and  O3_22 
ROOT
HETATM    1  C8  UNL     1      82.865   3.105   9.988  1.00  0.00     0.038 C 
ENDROOT
BRANCH   1   2
HETATM    2  C7  UNL     1      81.984   2.696  11.081  1.00  0.00    -0.028 C 
HETATM    3  C6  UNL     1      81.005   3.395  11.576  1.00  0.00    -0.010 C 
BRANCH   3   4
HETATM    4  C5  UNL     1      80.641   4.726  11.091  1.00  0.00     0.164 C 
BRANCH   4   5
HETATM    5  N2  UNL     1      80.199   5.604  12.183  1.00  0.00    -0.265 N 
HETATM    6  C4  UNL     1      81.033   6.479  12.940  1.00  0.00     0.326 C 
HETATM    7  N1  UNL     1      80.213   7.161  13.912  1.00  0.00    -0.325 N 
HETATM    8  O1  UNL     1      82.273   6.620  12.775  1.00  0.00    -0.247 OA
HETATM    9  C2  UNL     1      79.054   6.319  14.071  1.00  0.00     0.108 C 
ATOM     10  H1  UNL     1      80.409   8.044  14.383  1.00  0.00     0.165 HD
HETATM   11  C1  UNL     1      79.382   5.190  14.998  1.00  0.00     0.049 C 
HETATM   12  C3  UNL     1      77.829   7.094  14.486  1.00  0.00     0.049 C 
HETATM   13  C15 UNL     1      78.883   5.763  12.701  1.00  0.00     0.255 C 
HETATM   14  O4  UNL     1      77.825   5.475  12.083  1.00  0.00    -0.270 OA
ENDBRANCH   4   5
ENDBRANCH   3   4
ENDBRANCH   1   2
BRANCH   1  15
HETATM   15  C9  UNL     1      82.992   1.866   9.076  1.00  0.00     0.047 C 
HETATM   16  C10 UNL     1      82.916   2.290   7.647  1.00  0.00     0.010 C 
HETATM   17 BR1  UNL     1      81.396   3.358   7.147  1.00  0.00    -0.054 Br
HETATM   18  C11 UNL     1      83.822   1.964   6.764  1.00  0.00     0.033 C 
HETATM   19 BR2  UNL     1      83.607   2.574   4.958  1.00  0.00    -0.052 Br
HETATM   20  C12 UNL     1      85.026   1.140   7.078  1.00  0.00     0.189 C 
HETATM   21  C13 UNL     1      84.637   0.241   8.240  1.00  0.00     0.167 C 
HETATM   22  C14 UNL     1      84.281   1.180   9.396  1.00  0.00     0.098 C 
HETATM   23 BR3  UNL     1      85.752   2.433   9.542  1.00  0.00    -0.088 Br
BRANCH  20  24
HETATM   24  O2  UNL     1      85.282   0.288   5.994  1.00  0.00    -0.388 OA
ATOM     25  H2  UNL     1      84.759  -0.498   6.096  1.00  0.00     0.210 HD
ENDBRANCH  20  24
BRANCH  21  26
HETATM   26  O3  UNL     1      85.782  -0.481   8.583  1.00  0.00    -0.391 OA
ATOM     27  H3  UNL     1      85.531  -1.063   9.290  1.00  0.00     0.210 HD
ENDBRANCH  21  26
ENDBRANCH   1  15
TORSDOF 6
ENDMDL
MODEL 4
REMARK VINA RESULT: -6.929001048      2.156      3.512
REMARK  6 active torsions:
REMARK  status: ('A' for Active; 'I' for Inactive)
REMARK    1  A    between atoms: N2_8  and  C5_9 
REMARK    2  A    between atoms: C5_9  and  C6_10 
REMARK    3  A    between atoms: C7_11  and  C8_12 
REMARK    4  A    between atoms: C8_12  and  C9_13 
REMARK    5  A    between atoms: C12_18  and  O2_19 
REMARK    6  A    between atoms: C13_21  and  O3_22 
ROOT
HETATM    1  C8  UNL     1      82.845   3.297  10.149  1.00  0.00     0.038 C 
ENDROOT
BRANCH   1   2
HETATM    2  C7  UNL     1      81.751   3.046  11.086  1.00  0.00    -0.028 C 
HETATM    3  C6  UNL     1      81.220   3.916  11.892  1.00  0.00    -0.010 C 
BRANCH   3   4
HETATM    4  C5  UNL     1      81.657   5.310  11.974  1.00  0.00     0.164 C 
BRANCH   4   5
HETATM    5  N2  UNL     1      80.674   6.227  11.382  1.00  0.00    -0.265 N 
HETATM    6  C4  UNL     1      79.592   6.849  12.072  1.00  0.00     0.326 C 
HETATM    7  N1  UNL     1      78.867   7.671  11.134  1.00  0.00    -0.325 N 
HETATM    8  O1  UNL     1      79.328   6.696  13.294  1.00  0.00    -0.247 OA
HETATM    9  C2  UNL     1      79.191   7.126   9.840  1.00  0.00     0.108 C 
ATOM     10  H1  UNL     1      78.260   8.464  11.340  1.00  0.00     0.165 HD
HETATM   11  C1  UNL     1      78.345   5.917   9.583  1.00  0.00     0.049 C 
HETATM   12  C3  UNL     1      79.109   8.155   8.742  1.00  0.00     0.049 C 
HETATM   13  C15 UNL     1      80.597   6.677  10.035  1.00  0.00     0.255 C 
HETATM   14  O4  UNL     1      81.554   6.674   9.217  1.00  0.00    -0.270 OA
ENDBRANCH   4   5
ENDBRANCH   3   4
ENDBRANCH   1   2
BRANCH   1  15
HETATM   15  C9  UNL     1      82.910   2.047   9.245  1.00  0.00     0.047 C 
HETATM   16  C10 UNL     1      82.827   2.462   7.815  1.00  0.00     0.010 C 
HETATM   17 BR1  UNL     1      81.342   3.583   7.328  1.00  0.00    -0.054 Br
HETATM   18  C11 UNL     1      83.706   2.094   6.920  1.00  0.00     0.033 C 
HETATM   19 BR2  UNL     1      83.487   2.696   5.113  1.00  0.00    -0.052 Br
HETATM   20  C12 UNL     1      84.883   1.226   7.223  1.00  0.00     0.189 C 
HETATM   21  C13 UNL     1      84.478   0.352   8.399  1.00  0.00     0.167 C 
HETATM   22  C14 UNL     1      84.176   1.315   9.551  1.00  0.00     0.098 C 
HETATM   23 BR3  UNL     1      85.696   2.511   9.664  1.00  0.00    -0.088 Br
BRANCH  20  24
HETATM   24  O2  UNL     1      85.088   0.357   6.143  1.00  0.00    -0.388 OA
ATOM     25  H2  UNL     1      85.820  -0.214   6.347  1.00  0.00     0.210 HD
ENDBRANCH  20  24
BRANCH  21  26
HETATM   26  O3  UNL     1      85.599  -0.410   8.730  1.00  0.00    -0.391 OA
ATOM     27  H3  UNL     1      85.743  -0.286   9.661  1.00  0.00     0.210 HD
ENDBRANCH  21  26
ENDBRANCH   1  15
TORSDOF 6
ENDMDL
MODEL 5
REMARK VINA RESULT: -6.874298676     14.025     16.419
REMARK  6 active torsions:
REMARK  status: ('A' for Active; 'I' for Inactive)
REMARK    1  A    between atoms: N2_8  and  C5_9 
REMARK    2  A    between atoms: C5_9  and  C6_10 
REMARK    3  A    between atoms: C7_11  and  C8_12 
REMARK    4  A    between atoms: C8_12  and  C9_13 
REMARK    5  A    between atoms: C12_18  and  O2_19 
REMARK    6  A    between atoms: C13_21  and  O3_22 
ROOT
HETATM    1  C8  UNL     1      86.324   3.602  25.201  1.00  0.00     0.038 C 
ENDROOT
BRANCH   1   2
HETATM    2  C7  UNL     1      86.423   2.276  25.809  1.00  0.00    -0.028 C 
HETATM    3  C6  UNL     1      86.348   1.140  25.180  1.00  0.00    -0.010 C 
BRANCH   3   4
HETATM    4  C5  UNL     1      86.149   1.031  23.735  1.00  0.00     0.164 C 
BRANCH   4   5
HETATM    5  N2  UNL     1      87.029   0.018  23.136  1.00  0.00    -0.265 N 
HETATM    6  C4  UNL     1      88.324   0.256  22.590  1.00  0.00     0.326 C 
HETATM    7  N1  UNL     1      88.850  -0.997  22.106  1.00  0.00    -0.325 N 
HETATM    8  O1  UNL     1      88.897   1.377  22.544  1.00  0.00    -0.247 OA
HETATM    9  C2  UNL     1      87.691  -1.826  21.892  1.00  0.00     0.108 C 
ATOM     10  H1  UNL     1      89.828  -1.243  21.950  1.00  0.00     0.165 HD
HETATM   11  C1  UNL     1      87.062  -1.473  20.580  1.00  0.00     0.049 C 
HETATM   12  C3  UNL     1      87.997  -3.295  22.031  1.00  0.00     0.049 C 
HETATM   13  C15 UNL     1      86.782  -1.374  22.981  1.00  0.00     0.255 C 
HETATM   14  O4  UNL     1      85.951  -2.040  23.654  1.00  0.00    -0.270 OA
ENDBRANCH   4   5
ENDBRANCH   3   4
ENDBRANCH   1   2
BRANCH   1  15
HETATM   15  C9  UNL     1      87.780   4.082  25.019  1.00  0.00     0.047 C 
HETATM   16  C10 UNL     1      87.808   5.245  24.086  1.00  0.00     0.010 C 
HETATM   17 BR1  UNL     1      86.948   5.002  22.383  1.00  0.00    -0.054 Br
HETATM   18  C11 UNL     1      88.381   6.380  24.387  1.00  0.00     0.033 C 
HETATM   19 BR2  UNL     1      88.347   7.799  23.098  1.00  0.00    -0.052 Br
HETATM   20  C12 UNL     1      89.067   6.642  25.687  1.00  0.00     0.189 C 
HETATM   21  C13 UNL     1      89.575   5.297  26.181  1.00  0.00     0.167 C 
HETATM   22  C14 UNL     1      88.331   4.422  26.366  1.00  0.00     0.098 C 
HETATM   23 BR3  UNL     1      87.087   5.474  27.414  1.00  0.00    -0.088 Br
BRANCH  20  24
HETATM   24  O2  UNL     1      90.206   7.424  25.444  1.00  0.00    -0.388 OA
ATOM     25  H2  UNL     1      90.781   7.365  26.198  1.00  0.00     0.210 HD
ENDBRANCH  20  24
BRANCH  21  26
HETATM   26  O3  UNL     1      90.154   5.527  27.430  1.00  0.00    -0.391 OA
ATOM     27  H3  UNL     1      91.093   5.450  27.309  1.00  0.00     0.210 HD
ENDBRANCH  21  26
ENDBRANCH   1  15
TORSDOF 6
ENDMDL
