MODEL 1
REMARK VINA RESULT: -9.183004830      0.000      0.000
REMARK  9 active torsions:
REMARK  status: ('A' for Active; 'I' for Inactive)
REMARK    1  A    between atoms: C2_2  and  C3_3 
REMARK    2  A    between atoms: C3_3  and  C4_4 
REMARK    3  A    between atoms: C7_7  and  C8_8 
REMARK    4  A    between atoms: C7_7  and  N3_24 
REMARK    5  A    between atoms: C8_8  and  N1_9 
REMARK       I    between atoms: N1_9  and  C9_11 
REMARK    6  A    between atoms: C9_11  and  C10_13 
REMARK    7  A    between atoms: C10_13  and  N2_14 
REMARK       I    between atoms: N2_14  and  C12_16 
REMARK    8  A    between atoms: C12_16  and  C13_18 
REMARK    9  A    between atoms: C21_27  and  C22_28 
ROOT
HETATM    1  C4  UNL     1     -26.350  10.543 -19.110  1.00  0.00    -0.011 C 
HETATM    2  C5  UNL     1     -27.666  10.612 -18.438  1.00  0.00     0.007 C 
HETATM    3  C6  UNL     1     -27.801  11.676 -17.378  1.00  0.00     0.037 C 
HETATM    4  C7  UNL     1     -26.641  11.628 -16.373  1.00  0.00     0.060 C 
HETATM    5  C25 UNL     1     -25.382  11.789 -17.166  1.00  0.00     0.037 C 
HETATM    6  C26 UNL     1     -25.174  10.698 -18.176  1.00  0.00     0.007 C 
ENDROOT
BRANCH   4   7
HETATM    7  C8  UNL     1     -26.640  10.402 -15.535  1.00  0.00     0.094 C 
BRANCH   7   8
HETATM    8  N1  UNL     1     -25.425   9.847 -15.109  1.00  0.00    -0.337 N 
HETATM    9  C9  UNL     1     -24.698   8.718 -15.455  1.00  0.00     0.239 C 
HETATM   10  O1  UNL     1     -24.952   7.831 -16.297  1.00  0.00    -0.271 OA
ATOM     11  H1  UNL     1     -24.972  10.399 -14.381  1.00  0.00     0.168 HD
BRANCH   9  12
HETATM   12  C10 UNL     1     -23.361   8.410 -14.759  1.00  0.00     0.228 C 
BRANCH  12  13
HETATM   13  N2  UNL     1     -23.520   7.382 -13.769  1.00  0.00    -0.347 N 
HETATM   14  C11 UNL     1     -23.146   6.025 -14.161  1.00  0.00     0.153 C 
HETATM   15  C12 UNL     1     -24.014   7.669 -12.467  1.00  0.00     0.224 C 
HETATM   16  O2  UNL     1     -24.305   8.881 -12.213  1.00  0.00    -0.273 OA
BRANCH  15  17
HETATM   17  C13 UNL     1     -24.208   6.669 -11.413  1.00  0.00     0.078 C 
HETATM   18  C14 UNL     1     -22.933   6.515 -10.595  1.00  0.00     0.014 C 
HETATM   19  C15 UNL     1     -23.150   5.360  -9.622  1.00  0.00     0.001 C 
HETATM   20  C16 UNL     1     -24.328   5.593  -8.720  1.00  0.00     0.000 C 
HETATM   21  C17 UNL     1     -25.576   5.817  -9.582  1.00  0.00     0.001 C 
HETATM   22  C18 UNL     1     -25.285   7.060 -10.405  1.00  0.00     0.014 C 
ENDBRANCH  15  17
ENDBRANCH  12  13
ENDBRANCH   9  12
ENDBRANCH   7   8
ENDBRANCH   4   7
BRANCH   4  23
HETATM   23  N3  UNL     1     -26.828  12.806 -15.554  1.00  0.00    -0.399 N 
HETATM   24  C19 UNL     1     -27.431  12.563 -14.269  1.00  0.00     0.119 C 
HETATM   25  C20 UNL     1     -28.810  13.185 -14.160  1.00  0.00     0.033 C 
HETATM   26  C21 UNL     1     -28.766  14.669 -14.402  1.00  0.00     0.078 C 
HETATM   27  C23 UNL     1     -27.538  15.038 -15.189  1.00  0.00     0.033 C 
HETATM   28  C24 UNL     1     -27.338  13.936 -16.237  1.00  0.00     0.119 C 
BRANCH  26  29
HETATM   29  C22 UNL     1     -28.814  15.341 -13.089  1.00  0.00     0.235 C 
HETATM   30  N4  UNL     1     -28.904  14.550 -11.922  1.00  0.00    -0.062 NA
HETATM   31  O3  UNL     1     -28.776  16.589 -13.015  1.00  0.00    -0.277 OA
ENDBRANCH  26  29
ENDBRANCH   4  23
BRANCH   1  32
HETATM   32  C3  UNL     1     -26.211  11.461 -20.302  1.00  0.00     0.031 C 
BRANCH  32  33
HETATM   33  C2  UNL     1     -25.378  10.891 -21.388  1.00  0.00    -0.037 C 
HETATM   34  C1  UNL     1     -24.049  10.984 -21.361  1.00  0.00     0.007 C 
ENDBRANCH  32  33
ENDBRANCH   1  32
TORSDOF 9
ENDMDL
MODEL 2
REMARK VINA RESULT: -8.703607947      0.769      1.282
REMARK  9 active torsions:
REMARK  status: ('A' for Active; 'I' for Inactive)
REMARK    1  A    between atoms: C2_2  and  C3_3 
REMARK    2  A    between atoms: C3_3  and  C4_4 
REMARK    3  A    between atoms: C7_7  and  C8_8 
REMARK    4  A    between atoms: C7_7  and  N3_24 
REMARK    5  A    between atoms: C8_8  and  N1_9 
REMARK       I    between atoms: N1_9  and  C9_11 
REMARK    6  A    between atoms: C9_11  and  C10_13 
REMARK    7  A    between atoms: C10_13  and  N2_14 
REMARK       I    between atoms: N2_14  and  C12_16 
REMARK    8  A    between atoms: C12_16  and  C13_18 
REMARK    9  A    between atoms: C21_27  and  C22_28 
ROOT
HETATM    1  C4  UNL     1     -26.345  10.519 -19.241  1.00  0.00    -0.011 C 
HETATM    2  C5  UNL     1     -27.670  10.614 -18.590  1.00  0.00     0.007 C 
HETATM    3  C6  UNL     1     -27.793  11.661 -17.512  1.00  0.00     0.037 C 
HETATM    4  C7  UNL     1     -26.652  11.559 -16.488  1.00  0.00     0.060 C 
HETATM    5  C25 UNL     1     -25.375  11.699 -17.257  1.00  0.00     0.037 C 
HETATM    6  C26 UNL     1     -25.182  10.621 -18.285  1.00  0.00     0.007 C 
ENDROOT
BRANCH   4   7
HETATM    7  C8  UNL     1     -26.701  10.318 -15.675  1.00  0.00     0.094 C 
BRANCH   7   8
HETATM    8  N1  UNL     1     -25.515   9.764 -15.172  1.00  0.00    -0.337 N 
HETATM    9  C9  UNL     1     -24.824   8.583 -15.393  1.00  0.00     0.239 C 
HETATM   10  O1  UNL     1     -25.094   7.629 -16.153  1.00  0.00    -0.271 OA
ATOM     11  H1  UNL     1     -25.057  10.368 -14.489  1.00  0.00     0.168 HD
BRANCH   9  12
HETATM   12  C10 UNL     1     -23.512   8.297 -14.641  1.00  0.00     0.228 C 
BRANCH  12  13
HETATM   13  N2  UNL     1     -23.746   8.161 -13.231  1.00  0.00    -0.347 N 
HETATM   14  C11 UNL     1     -23.962   9.394 -12.477  1.00  0.00     0.153 C 
HETATM   15  C12 UNL     1     -23.768   6.889 -12.596  1.00  0.00     0.224 C 
HETATM   16  O2  UNL     1     -23.580   5.871 -13.335  1.00  0.00    -0.273 OA
BRANCH  15  17
HETATM   17  C13 UNL     1     -23.993   6.680 -11.163  1.00  0.00     0.078 C 
HETATM   18  C14 UNL     1     -25.441   6.282 -10.912  1.00  0.00     0.014 C 
HETATM   19  C15 UNL     1     -25.646   6.229  -9.401  1.00  0.00     0.001 C 
HETATM   20  C16 UNL     1     -24.712   5.259  -8.736  1.00  0.00     0.000 C 
HETATM   21  C17 UNL     1     -23.268   5.650  -9.074  1.00  0.00     0.001 C 
HETATM   22  C18 UNL     1     -23.160   5.540 -10.585  1.00  0.00     0.014 C 
ENDBRANCH  15  17
ENDBRANCH  12  13
ENDBRANCH   9  12
ENDBRANCH   7   8
ENDBRANCH   4   7
BRANCH   4  23
HETATM   23  N3  UNL     1     -26.820  12.726 -15.650  1.00  0.00    -0.399 N 
HETATM   24  C19 UNL     1     -27.495  12.484 -14.401  1.00  0.00     0.119 C 
HETATM   25  C20 UNL     1     -28.845  13.173 -14.340  1.00  0.00     0.033 C 
HETATM   26  C21 UNL     1     -28.715  14.658 -14.542  1.00  0.00     0.078 C 
HETATM   27  C23 UNL     1     -27.435  14.982 -15.262  1.00  0.00     0.033 C 
HETATM   28  C24 UNL     1     -27.240  13.896 -16.327  1.00  0.00     0.119 C 
BRANCH  26  29
HETATM   29  C22 UNL     1     -28.792  15.301 -13.217  1.00  0.00     0.235 C 
HETATM   30  N4  UNL     1     -28.890  14.485 -12.067  1.00  0.00    -0.062 NA
HETATM   31  O3  UNL     1     -28.771  16.548 -13.115  1.00  0.00    -0.277 OA
ENDBRANCH  26  29
ENDBRANCH   4  23
BRANCH   1  32
HETATM   32  C3  UNL     1     -26.159  11.456 -20.413  1.00  0.00     0.031 C 
BRANCH  32  33
HETATM   33  C2  UNL     1     -25.250  10.919 -21.454  1.00  0.00    -0.037 C 
HETATM   34  C1  UNL     1     -23.927  10.998 -21.325  1.00  0.00     0.007 C 
ENDBRANCH  32  33
ENDBRANCH   1  32
TORSDOF 9
ENDMDL
MODEL 3
REMARK VINA RESULT: -8.575277939      0.930      1.318
REMARK  9 active torsions:
REMARK  status: ('A' for Active; 'I' for Inactive)
REMARK    1  A    between atoms: C2_2  and  C3_3 
REMARK    2  A    between atoms: C3_3  and  C4_4 
REMARK    3  A    between atoms: C7_7  and  C8_8 
REMARK    4  A    between atoms: C7_7  and  N3_24 
REMARK    5  A    between atoms: C8_8  and  N1_9 
REMARK       I    between atoms: N1_9  and  C9_11 
REMARK    6  A    between atoms: C9_11  and  C10_13 
REMARK    7  A    between atoms: C10_13  and  N2_14 
REMARK       I    between atoms: N2_14  and  C12_16 
REMARK    8  A    between atoms: C12_16  and  C13_18 
REMARK    9  A    between atoms: C21_27  and  C22_28 
ROOT
HETATM    1  C4  UNL     1     -26.504  10.222 -18.633  1.00  0.00    -0.011 C 
HETATM    2  C5  UNL     1     -27.212   9.883 -17.379  1.00  0.00     0.007 C 
HETATM    3  C6  UNL     1     -27.407  11.023 -16.412  1.00  0.00     0.037 C 
HETATM    4  C7  UNL     1     -26.094  11.775 -16.148  1.00  0.00     0.060 C 
HETATM    5  C25 UNL     1     -25.601  12.252 -17.479  1.00  0.00     0.037 C 
HETATM    6  C26 UNL     1     -25.316  11.134 -18.440  1.00  0.00     0.007 C 
ENDROOT
BRANCH   4   7
HETATM    7  C8  UNL     1     -25.087  10.963 -15.418  1.00  0.00     0.094 C 
BRANCH   7   8
HETATM    8  N1  UNL     1     -25.347   9.614 -15.139  1.00  0.00    -0.337 N 
HETATM    9  C9  UNL     1     -24.570   8.468 -15.071  1.00  0.00     0.239 C 
HETATM   10  O1  UNL     1     -23.342   8.323 -15.254  1.00  0.00    -0.271 OA
ATOM     11  H1  UNL     1     -26.332   9.435 -14.940  1.00  0.00     0.168 HD
BRANCH   9  12
HETATM   12  C10 UNL     1     -25.210   7.113 -14.726  1.00  0.00     0.228 C 
BRANCH  12  13
HETATM   13  N2  UNL     1     -24.746   6.632 -13.455  1.00  0.00    -0.347 N 
HETATM   14  C11 UNL     1     -24.075   5.334 -13.446  1.00  0.00     0.153 C 
HETATM   15  C12 UNL     1     -24.926   7.383 -12.261  1.00  0.00     0.224 C 
HETATM   16  O2  UNL     1     -25.512   8.506 -12.368  1.00  0.00    -0.273 OA
BRANCH  15  17
HETATM   17  C13 UNL     1     -24.484   6.949 -10.932  1.00  0.00     0.078 C 
HETATM   18  C14 UNL     1     -25.625   6.253 -10.202  1.00  0.00     0.014 C 
HETATM   19  C15 UNL     1     -25.150   5.966  -8.780  1.00  0.00     0.001 C 
HETATM   20  C16 UNL     1     -23.914   5.113  -8.758  1.00  0.00     0.000 C 
HETATM   21  C17 UNL     1     -22.814   5.812  -9.565  1.00  0.00     0.001 C 
HETATM   22  C18 UNL     1     -23.356   5.924 -10.980  1.00  0.00     0.014 C 
ENDBRANCH  15  17
ENDBRANCH  12  13
ENDBRANCH   9  12
ENDBRANCH   7   8
ENDBRANCH   4   7
BRANCH   4  23
HETATM   23  N3  UNL     1     -26.492  12.923 -15.362  1.00  0.00    -0.399 N 
HETATM   24  C19 UNL     1     -27.022  12.612 -14.059  1.00  0.00     0.119 C 
HETATM   25  C20 UNL     1     -28.492  12.965 -13.944  1.00  0.00     0.033 C 
HETATM   26  C21 UNL     1     -28.733  14.422 -14.231  1.00  0.00     0.078 C 
HETATM   27  C23 UNL     1     -27.608  14.991 -15.051  1.00  0.00     0.033 C 
HETATM   28  C24 UNL     1     -27.215  13.913 -16.069  1.00  0.00     0.119 C 
BRANCH  26  29
HETATM   29  C22 UNL     1     -28.892  15.116 -12.938  1.00  0.00     0.235 C 
HETATM   30  N4  UNL     1     -29.030  14.344 -11.763  1.00  0.00    -0.062 NA
HETATM   31  O3  UNL     1     -28.903  16.365 -12.887  1.00  0.00    -0.277 OA
ENDBRANCH  26  29
ENDBRANCH   4  23
BRANCH   1  32
HETATM   32  C3  UNL     1     -27.401  10.736 -19.735  1.00  0.00     0.031 C 
BRANCH  32  33
HETATM   33  C2  UNL     1     -26.808  10.595 -21.087  1.00  0.00    -0.037 C 
HETATM   34  C1  UNL     1     -25.503  10.768 -21.291  1.00  0.00     0.007 C 
ENDBRANCH  32  33
ENDBRANCH   1  32
TORSDOF 9
ENDMDL
MODEL 4
REMARK VINA RESULT: -8.512979178      1.203      1.661
REMARK  9 active torsions:
REMARK  status: ('A' for Active; 'I' for Inactive)
REMARK    1  A    between atoms: C2_2  and  C3_3 
REMARK    2  A    between atoms: C3_3  and  C4_4 
REMARK    3  A    between atoms: C7_7  and  C8_8 
REMARK    4  A    between atoms: C7_7  and  N3_24 
REMARK    5  A    between atoms: C8_8  and  N1_9 
REMARK       I    between atoms: N1_9  and  C9_11 
REMARK    6  A    between atoms: C9_11  and  C10_13 
REMARK    7  A    between atoms: C10_13  and  N2_14 
REMARK       I    between atoms: N2_14  and  C12_16 
REMARK    8  A    between atoms: C12_16  and  C13_18 
REMARK    9  A    between atoms: C21_27  and  C22_28 
ROOT
HETATM    1  C4  UNL     1     -26.606  10.244 -18.618  1.00  0.00    -0.011 C 
HETATM    2  C5  UNL     1     -27.187   9.948 -17.290  1.00  0.00     0.007 C 
HETATM    3  C6  UNL     1     -27.364  11.134 -16.377  1.00  0.00     0.037 C 
HETATM    4  C7  UNL     1     -26.079  11.968 -16.271  1.00  0.00     0.060 C 
HETATM    5  C25 UNL     1     -25.726  12.386 -17.664  1.00  0.00     0.037 C 
HETATM    6  C26 UNL     1     -25.460  11.227 -18.581  1.00  0.00     0.007 C 
ENDROOT
BRANCH   4   7
HETATM    7  C8  UNL     1     -24.970  11.255 -15.586  1.00  0.00     0.094 C 
BRANCH   7   8
HETATM    8  N1  UNL     1     -25.190   9.983 -15.039  1.00  0.00    -0.337 N 
HETATM    9  C9  UNL     1     -24.480   8.792 -15.032  1.00  0.00     0.239 C 
HETATM   10  O1  UNL     1     -23.377   8.516 -15.549  1.00  0.00    -0.271 OA
ATOM     11  H1  UNL     1     -26.071   9.920 -14.529  1.00  0.00     0.168 HD
BRANCH   9  12
HETATM   12  C10 UNL     1     -25.041   7.556 -14.308  1.00  0.00     0.228 C 
BRANCH  12  13
HETATM   13  N2  UNL     1     -24.719   7.589 -12.909  1.00  0.00    -0.347 N 
HETATM   14  C11 UNL     1     -24.419   8.897 -12.331  1.00  0.00     0.153 C 
HETATM   15  C12 UNL     1     -24.696   6.406 -12.120  1.00  0.00     0.224 C 
HETATM   16  O2  UNL     1     -24.981   5.315 -12.706  1.00  0.00    -0.273 OA
BRANCH  15  17
HETATM   17  C13 UNL     1     -24.368   6.367 -10.691  1.00  0.00     0.078 C 
HETATM   18  C14 UNL     1     -25.609   6.023  -9.879  1.00  0.00     0.014 C 
HETATM   19  C15 UNL     1     -25.240   6.149  -8.403  1.00  0.00     0.001 C 
HETATM   20  C16 UNL     1     -24.098   5.247  -8.027  1.00  0.00     0.000 C 
HETATM   21  C17 UNL     1     -22.894   5.573  -8.918  1.00  0.00     0.001 C 
HETATM   22  C18 UNL     1     -23.349   5.289 -10.339  1.00  0.00     0.014 C 
ENDBRANCH  15  17
ENDBRANCH  12  13
ENDBRANCH   9  12
ENDBRANCH   7   8
ENDBRANCH   4   7
BRANCH   4  23
HETATM   23  N3  UNL     1     -26.474  13.140 -15.520  1.00  0.00    -0.399 N 
HETATM   24  C19 UNL     1     -27.392  12.888 -14.440  1.00  0.00     0.119 C 
HETATM   25  C20 UNL     1     -28.751  13.512 -14.691  1.00  0.00     0.033 C 
HETATM   26  C21 UNL     1     -28.644  14.999 -14.901  1.00  0.00     0.078 C 
HETATM   27  C23 UNL     1     -27.253  15.371 -15.336  1.00  0.00     0.033 C 
HETATM   28  C24 UNL     1     -26.786  14.277 -16.304  1.00  0.00     0.119 C 
BRANCH  26  29
HETATM   29  C22 UNL     1     -29.034  15.660 -13.641  1.00  0.00     0.235 C 
HETATM   30  N4  UNL     1     -29.041  14.904 -12.447  1.00  0.00    -0.062 NA
HETATM   31  O3  UNL     1     -29.353  16.869 -13.633  1.00  0.00    -0.277 OA
ENDBRANCH  26  29
ENDBRANCH   4  23
BRANCH   1  32
HETATM   32  C3  UNL     1     -27.619  10.642 -19.666  1.00  0.00     0.031 C 
BRANCH  32  33
HETATM   33  C2  UNL     1     -27.114  10.500 -21.053  1.00  0.00    -0.037 C 
HETATM   34  C1  UNL     1     -25.834  10.716 -21.348  1.00  0.00     0.007 C 
ENDBRANCH  32  33
ENDBRANCH   1  32
TORSDOF 9
ENDMDL
MODEL 5
REMARK VINA RESULT: -7.837619373      1.286      1.831
REMARK  9 active torsions:
REMARK  status: ('A' for Active; 'I' for Inactive)
REMARK    1  A    between atoms: C2_2  and  C3_3 
REMARK    2  A    between atoms: C3_3  and  C4_4 
REMARK    3  A    between atoms: C7_7  and  C8_8 
REMARK    4  A    between atoms: C7_7  and  N3_24 
REMARK    5  A    between atoms: C8_8  and  N1_9 
REMARK       I    between atoms: N1_9  and  C9_11 
REMARK    6  A    between atoms: C9_11  and  C10_13 
REMARK    7  A    between atoms: C10_13  and  N2_14 
REMARK       I    between atoms: N2_14  and  C12_16 
REMARK    8  A    between atoms: C12_16  and  C13_18 
REMARK    9  A    between atoms: C21_27  and  C22_28 
ROOT
HETATM    1  C4  UNL     1     -26.040  10.514 -18.783  1.00  0.00    -0.011 C 
HETATM    2  C5  UNL     1     -26.732   9.754 -17.719  1.00  0.00     0.007 C 
HETATM    3  C6  UNL     1     -27.492  10.583 -16.715  1.00  0.00     0.037 C 
HETATM    4  C7  UNL     1     -26.628  11.718 -16.145  1.00  0.00     0.060 C 
HETATM    5  C25 UNL     1     -26.174  12.536 -17.313  1.00  0.00     0.037 C 
HETATM    6  C26 UNL     1     -25.343  11.760 -18.293  1.00  0.00     0.007 C 
ENDROOT
BRANCH   4   7
HETATM    7  C8  UNL     1     -25.500  11.235 -15.308  1.00  0.00     0.094 C 
BRANCH   7   8
HETATM    8  N1  UNL     1     -25.472   9.902 -14.875  1.00  0.00    -0.337 N 
HETATM    9  C9  UNL     1     -24.723   8.786 -15.214  1.00  0.00     0.239 C 
HETATM   10  O1  UNL     1     -23.808   8.663 -16.056  1.00  0.00    -0.271 OA
ATOM     11  H1  UNL     1     -26.157   9.710 -14.144  1.00  0.00     0.168 HD
BRANCH   9  12
HETATM   12  C10 UNL     1     -24.970   7.440 -14.510  1.00  0.00     0.228 C 
BRANCH  12  13
HETATM   13  N2  UNL     1     -24.640   7.520 -13.115  1.00  0.00    -0.347 N 
HETATM   14  C11 UNL     1     -24.271   8.837 -12.599  1.00  0.00     0.153 C 
HETATM   15  C12 UNL     1     -24.674   6.376 -12.272  1.00  0.00     0.224 C 
HETATM   16  O2  UNL     1     -25.017   5.275 -12.806  1.00  0.00    -0.273 OA
BRANCH  15  17
HETATM   17  C13 UNL     1     -24.343   6.386 -10.844  1.00  0.00     0.078 C 
HETATM   18  C14 UNL     1     -25.594   6.130 -10.014  1.00  0.00     0.014 C 
HETATM   19  C15 UNL     1     -25.214   6.304  -8.547  1.00  0.00     0.001 C 
HETATM   20  C16 UNL     1     -24.109   5.374  -8.134  1.00  0.00     0.000 C 
HETATM   21  C17 UNL     1     -22.896   5.611  -9.040  1.00  0.00     0.001 C 
HETATM   22  C18 UNL     1     -23.367   5.283 -10.446  1.00  0.00     0.014 C 
ENDBRANCH  15  17
ENDBRANCH  12  13
ENDBRANCH   9  12
ENDBRANCH   7   8
ENDBRANCH   4   7
BRANCH   4  23
HETATM   23  N3  UNL     1     -27.549  12.506 -15.355  1.00  0.00    -0.399 N 
HETATM   24  C19 UNL     1     -27.805  13.829 -15.861  1.00  0.00     0.119 C 
HETATM   25  C20 UNL     1     -27.266  14.906 -14.940  1.00  0.00     0.033 C 
HETATM   26  C21 UNL     1     -27.853  14.793 -13.558  1.00  0.00     0.078 C 
HETATM   27  C23 UNL     1     -28.358  13.398 -13.312  1.00  0.00     0.033 C 
HETATM   28  C24 UNL     1     -27.345  12.443 -13.955  1.00  0.00     0.119 C 
BRANCH  26  29
HETATM   29  C22 UNL     1     -28.919  15.806 -13.438  1.00  0.00     0.235 C 
HETATM   30  N4  UNL     1     -30.027  15.738 -14.312  1.00  0.00    -0.062 NA
HETATM   31  O3  UNL     1     -28.841  16.708 -12.575  1.00  0.00    -0.277 OA
ENDBRANCH  26  29
ENDBRANCH   4  23
BRANCH   1  32
HETATM   32  C3  UNL     1     -26.899  10.819 -19.988  1.00  0.00     0.031 C 
BRANCH  32  33
HETATM   33  C2  UNL     1     -26.147  10.793 -21.266  1.00  0.00    -0.037 C 
HETATM   34  C1  UNL     1     -24.815  10.757 -21.283  1.00  0.00     0.007 C 
ENDBRANCH  32  33
ENDBRANCH   1  32
TORSDOF 9
ENDMDL
