MODEL 1
REMARK VINA RESULT: -10.979454761      0.000      0.000
REMARK  9 active torsions:
REMARK  status: ('A' for Active; 'I' for Inactive)
REMARK    1  A    between atoms: C2_2  and  C4_4 
REMARK    2  A    between atoms: C4_4  and  C5_5 
REMARK    3  A    between atoms: C5_5  and  N1_6 
REMARK    4  A    between atoms: C5_5  and  C19_25 
REMARK       I    between atoms: N1_6  and  C6_8 
REMARK    5  A    between atoms: C6_8  and  C7_10 
REMARK    6  A    between atoms: C7_10  and  C8_11 
REMARK    7  A    between atoms: C8_11  and  C9_12 
REMARK       I    between atoms: C9_12  and  N2_14 
REMARK    8  A    between atoms: N3_17  and  C12_18 
REMARK       I    between atoms: C19_25  and  N4_27 
REMARK    9  A    between atoms: N4_27  and  C20_29 
ROOT
HETATM    1  N1  UNL     1     -25.323  11.420 -17.502  1.00  0.00    -0.348 N 
ATOM      2  H1  UNL     1     -24.331  11.334 -17.726  1.00  0.00     0.163 HD
HETATM    3  C6  UNL     1     -25.891  10.375 -16.747  1.00  0.00     0.218 C 
HETATM    4  O1  UNL     1     -27.090  10.423 -16.427  1.00  0.00    -0.274 OA
ENDROOT
BRANCH   1   5
HETATM    5  C5  UNL     1     -25.988  12.585 -17.987  1.00  0.00     0.177 C 
BRANCH   5   6
HETATM    6  C4  UNL     1     -26.878  12.302 -19.163  1.00  0.00     0.038 C 
BRANCH   6   7
HETATM    7  C2  UNL     1     -26.685  10.946 -19.775  1.00  0.00    -0.020 C 
HETATM    8  C1  UNL     1     -25.767  10.920 -20.955  1.00  0.00     0.009 C 
HETATM    9  C3  UNL     1     -28.053  10.406 -20.154  1.00  0.00     0.009 C 
ENDBRANCH   6   7
ENDBRANCH   5   6
BRANCH   5  10
HETATM   10  C19 UNL     1     -26.881  13.101 -16.888  1.00  0.00     0.241 C 
HETATM   11  O3  UNL     1     -26.310  13.525 -15.847  1.00  0.00    -0.271 OA
HETATM   12  N4  UNL     1     -28.306  13.110 -17.022  1.00  0.00    -0.351 N 
ATOM     13  H4  UNL     1     -28.765  12.768 -17.866  1.00  0.00     0.163 HD
BRANCH  12  14
HETATM   14  C20 UNL     1     -29.056  13.616 -15.923  1.00  0.00     0.117 C 
HETATM   15  C21 UNL     1     -28.372  14.886 -15.430  1.00  0.00    -0.005 C 
HETATM   16  C22 UNL     1     -28.977  15.754 -14.452  1.00  0.00    -0.028 C 
HETATM   17  C23 UNL     1     -28.757  15.599 -12.955  1.00  0.00     0.038 C 
HETATM   18  C24 UNL     1     -29.161  14.172 -12.450  1.00  0.00     0.083 C 
HETATM   19  C25 UNL     1     -29.211  13.347 -13.574  1.00  0.00    -0.180 C 
HETATM   20  C26 UNL     1     -29.241  12.597 -14.770  1.00  0.00     0.109 C 
ENDBRANCH  12  14
ENDBRANCH   5  10
ENDBRANCH   1   5
BRANCH   3  21
HETATM   21  C7  UNL     1     -25.064   9.212 -16.341  1.00  0.00     0.112 C 
BRANCH  21  22
HETATM   22  C8  UNL     1     -24.537   9.427 -14.956  1.00  0.00     0.112 C 
BRANCH  22  23
HETATM   23  C9  UNL     1     -23.674   8.292 -14.553  1.00  0.00     0.220 C 
HETATM   24  O2  UNL     1     -22.741   7.831 -15.243  1.00  0.00    -0.273 OA
HETATM   25  N2  UNL     1     -23.907   7.647 -13.271  1.00  0.00    -0.343 N 
HETATM   26  C10 UNL     1     -24.951   8.188 -12.446  1.00  0.00     0.170 C 
HETATM   27  C18 UNL     1     -23.120   6.528 -12.878  1.00  0.00     0.170 C 
HETATM   28  C11 UNL     1     -25.696   7.082 -11.770  1.00  0.00     0.083 C 
HETATM   29  N3  UNL     1     -24.828   6.156 -11.159  1.00  0.00    -0.366 N 
HETATM   30  C17 UNL     1     -23.836   5.575 -11.953  1.00  0.00     0.083 C 
BRANCH  29  31
HETATM   31  C12 UNL     1     -24.603   6.377  -9.780  1.00  0.00     0.088 C 
HETATM   32  C13 UNL     1     -23.621   5.532  -9.078  1.00  0.00     0.026 C 
HETATM   33  C14 UNL     1     -23.881   5.790  -7.614  1.00  0.00     0.002 C 
HETATM   34  C15 UNL     1     -25.179   6.562  -7.523  1.00  0.00     0.002 C 
HETATM   35  C16 UNL     1     -25.824   6.351  -8.905  1.00  0.00     0.026 C 
ENDBRANCH  29  31
ENDBRANCH  22  23
ENDBRANCH  21  22
ENDBRANCH   3  21
TORSDOF 9
ENDMDL
MODEL 2
REMARK VINA RESULT: -10.912858699      0.938      1.316
REMARK  9 active torsions:
REMARK  status: ('A' for Active; 'I' for Inactive)
REMARK    1  A    between atoms: C2_2  and  C4_4 
REMARK    2  A    between atoms: C4_4  and  C5_5 
REMARK    3  A    between atoms: C5_5  and  N1_6 
REMARK    4  A    between atoms: C5_5  and  C19_25 
REMARK       I    between atoms: N1_6  and  C6_8 
REMARK    5  A    between atoms: C6_8  and  C7_10 
REMARK    6  A    between atoms: C7_10  and  C8_11 
REMARK    7  A    between atoms: C8_11  and  C9_12 
REMARK       I    between atoms: C9_12  and  N2_14 
REMARK    8  A    between atoms: N3_17  and  C12_18 
REMARK       I    between atoms: C19_25  and  N4_27 
REMARK    9  A    between atoms: N4_27  and  C20_29 
ROOT
HETATM    1  N1  UNL     1     -25.295  11.300 -17.659  1.00  0.00    -0.348 N 
ATOM      2  H1  UNL     1     -24.287  11.285 -17.820  1.00  0.00     0.163 HD
HETATM    3  C6  UNL     1     -25.852  10.160 -17.046  1.00  0.00     0.218 C 
HETATM    4  O1  UNL     1     -27.070  10.118 -16.807  1.00  0.00    -0.274 OA
ENDROOT
BRANCH   1   5
HETATM    5  C5  UNL     1     -25.990  12.473 -18.076  1.00  0.00     0.177 C 
BRANCH   5   6
HETATM    6  C4  UNL     1     -26.903  12.227 -19.243  1.00  0.00     0.038 C 
BRANCH   6   7
HETATM    7  C2  UNL     1     -26.709  10.898 -19.912  1.00  0.00    -0.020 C 
HETATM    8  C1  UNL     1     -25.777  10.919 -21.081  1.00  0.00     0.009 C 
HETATM    9  C3  UNL     1     -28.075  10.383 -20.330  1.00  0.00     0.009 C 
ENDBRANCH   6   7
ENDBRANCH   5   6
BRANCH   5  10
HETATM   10  C19 UNL     1     -26.866  12.925 -16.936  1.00  0.00     0.241 C 
HETATM   11  O3  UNL     1     -26.287  13.185 -15.846  1.00  0.00    -0.271 OA
HETATM   12  N4  UNL     1     -28.284  13.053 -17.084  1.00  0.00    -0.351 N 
ATOM     13  H4  UNL     1     -28.748  12.844 -17.967  1.00  0.00     0.163 HD
BRANCH  12  14
HETATM   14  C20 UNL     1     -29.018  13.484 -15.943  1.00  0.00     0.117 C 
HETATM   15  C21 UNL     1     -28.424  14.807 -15.472  1.00  0.00    -0.005 C 
HETATM   16  C22 UNL     1     -29.051  15.612 -14.455  1.00  0.00    -0.028 C 
HETATM   17  C23 UNL     1     -28.741  15.468 -12.973  1.00  0.00     0.038 C 
HETATM   18  C24 UNL     1     -28.991  14.008 -12.463  1.00  0.00     0.083 C 
HETATM   19  C25 UNL     1     -29.026  13.189 -13.592  1.00  0.00    -0.180 C 
HETATM   20  C26 UNL     1     -29.051  12.446 -14.793  1.00  0.00     0.109 C 
ENDBRANCH  12  14
ENDBRANCH   5  10
ENDBRANCH   1   5
BRANCH   3  21
HETATM   21  C7  UNL     1     -24.990   9.005 -16.696  1.00  0.00     0.112 C 
BRANCH  21  22
HETATM   22  C8  UNL     1     -25.496   8.360 -15.442  1.00  0.00     0.112 C 
BRANCH  22  23
HETATM   23  C9  UNL     1     -24.764   8.883 -14.265  1.00  0.00     0.220 C 
HETATM   24  O2  UNL     1     -24.378  10.064 -14.136  1.00  0.00    -0.273 OA
HETATM   25  N2  UNL     1     -24.456   7.982 -13.166  1.00  0.00    -0.343 N 
HETATM   26  C10 UNL     1     -24.924   6.628 -13.278  1.00  0.00     0.170 C 
HETATM   27  C18 UNL     1     -23.717   8.448 -12.042  1.00  0.00     0.170 C 
HETATM   28  C11 UNL     1     -23.894   5.684 -12.746  1.00  0.00     0.083 C 
HETATM   29  N3  UNL     1     -23.415   6.081 -11.482  1.00  0.00    -0.366 N 
HETATM   30  C17 UNL     1     -22.905   7.376 -11.360  1.00  0.00     0.083 C 
BRANCH  29  31
HETATM   31  C12 UNL     1     -24.052   5.454 -10.385  1.00  0.00     0.088 C 
HETATM   32  C13 UNL     1     -25.329   6.005  -9.899  1.00  0.00     0.026 C 
HETATM   33  C14 UNL     1     -25.538   5.344  -8.558  1.00  0.00     0.002 C 
HETATM   34  C15 UNL     1     -24.243   4.645  -8.202  1.00  0.00     0.002 C 
HETATM   35  C16 UNL     1     -23.213   5.285  -9.150  1.00  0.00     0.026 C 
ENDBRANCH  29  31
ENDBRANCH  22  23
ENDBRANCH  21  22
ENDBRANCH   3  21
TORSDOF 9
ENDMDL
MODEL 3
REMARK VINA RESULT: -10.756360669      1.233      1.621
REMARK  9 active torsions:
REMARK  status: ('A' for Active; 'I' for Inactive)
REMARK    1  A    between atoms: C2_2  and  C4_4 
REMARK    2  A    between atoms: C4_4  and  C5_5 
REMARK    3  A    between atoms: C5_5  and  N1_6 
REMARK    4  A    between atoms: C5_5  and  C19_25 
REMARK       I    between atoms: N1_6  and  C6_8 
REMARK    5  A    between atoms: C6_8  and  C7_10 
REMARK    6  A    between atoms: C7_10  and  C8_11 
REMARK    7  A    between atoms: C8_11  and  C9_12 
REMARK       I    between atoms: C9_12  and  N2_14 
REMARK    8  A    between atoms: N3_17  and  C12_18 
REMARK       I    between atoms: C19_25  and  N4_27 
REMARK    9  A    between atoms: N4_27  and  C20_29 
ROOT
HETATM    1  N1  UNL     1     -26.626  10.046 -16.768  1.00  0.00    -0.348 N 
ATOM      2  H1  UNL     1     -27.415   9.669 -16.241  1.00  0.00     0.163 HD
HETATM    3  C6  UNL     1     -25.521   9.191 -16.946  1.00  0.00     0.218 C 
HETATM    4  O1  UNL     1     -24.533   9.581 -17.590  1.00  0.00    -0.274 OA
ENDROOT
BRANCH   1   5
HETATM    5  C5  UNL     1     -26.760  11.383 -17.246  1.00  0.00     0.177 C 
BRANCH   5   6
HETATM    6  C4  UNL     1     -27.615  11.481 -18.477  1.00  0.00     0.038 C 
BRANCH   6   7
HETATM    7  C2  UNL     1     -27.196  10.575 -19.596  1.00  0.00    -0.020 C 
HETATM    8  C1  UNL     1     -26.075  11.100 -20.436  1.00  0.00     0.009 C 
HETATM    9  C3  UNL     1     -28.418  10.298 -20.455  1.00  0.00     0.009 C 
ENDBRANCH   6   7
ENDBRANCH   5   6
BRANCH   5  10
HETATM   10  C19 UNL     1     -27.452  12.191 -16.178  1.00  0.00     0.241 C 
HETATM   11  O3  UNL     1     -26.823  12.357 -15.098  1.00  0.00    -0.271 OA
HETATM   12  N4  UNL     1     -28.756  12.744 -16.383  1.00  0.00    -0.351 N 
ATOM     13  H4  UNL     1     -29.260  12.610 -17.259  1.00  0.00     0.163 HD
BRANCH  12  14
HETATM   14  C20 UNL     1     -29.320  13.488 -15.309  1.00  0.00     0.117 C 
HETATM   15  C21 UNL     1     -28.409  14.679 -15.031  1.00  0.00    -0.005 C 
HETATM   16  C22 UNL     1     -28.785  15.741 -14.133  1.00  0.00    -0.028 C 
HETATM   17  C23 UNL     1     -28.459  15.726 -12.647  1.00  0.00     0.038 C 
HETATM   18  C24 UNL     1     -29.029  14.452 -11.937  1.00  0.00     0.083 C 
HETATM   19  C25 UNL     1     -29.303  13.522 -12.939  1.00  0.00    -0.180 C 
HETATM   20  C26 UNL     1     -29.553  12.653 -14.024  1.00  0.00     0.109 C 
ENDBRANCH  12  14
ENDBRANCH   5  10
ENDBRANCH   1   5
BRANCH   3  21
HETATM   21  C7  UNL     1     -25.528   7.829 -16.358  1.00  0.00     0.112 C 
BRANCH  21  22
HETATM   22  C8  UNL     1     -24.213   7.558 -15.694  1.00  0.00     0.112 C 
BRANCH  22  23
HETATM   23  C9  UNL     1     -24.097   8.348 -14.446  1.00  0.00     0.220 C 
HETATM   24  O2  UNL     1     -23.855   9.573 -14.401  1.00  0.00    -0.273 OA
HETATM   25  N2  UNL     1     -24.269   7.679 -13.167  1.00  0.00    -0.343 N 
HETATM   26  C10 UNL     1     -24.585   6.278 -13.198  1.00  0.00     0.170 C 
HETATM   27  C18 UNL     1     -24.121   8.405 -11.951  1.00  0.00     0.170 C 
HETATM   28  C11 UNL     1     -23.859   5.563 -12.104  1.00  0.00     0.083 C 
HETATM   29  N3  UNL     1     -24.002   6.213 -10.862  1.00  0.00    -0.366 N 
HETATM   30  C17 UNL     1     -23.651   7.563 -10.792  1.00  0.00     0.083 C 
BRANCH  29  31
HETATM   31  C12 UNL     1     -25.032   5.696 -10.040  1.00  0.00     0.088 C 
HETATM   32  C13 UNL     1     -26.346   6.363 -10.048  1.00  0.00     0.026 C 
HETATM   33  C14 UNL     1     -27.063   5.796  -8.848  1.00  0.00     0.002 C 
HETATM   34  C15 UNL     1     -26.038   5.028  -8.040  1.00  0.00     0.002 C 
HETATM   35  C16 UNL     1     -24.692   5.538  -8.585  1.00  0.00     0.026 C 
ENDBRANCH  29  31
ENDBRANCH  22  23
ENDBRANCH  21  22
ENDBRANCH   3  21
TORSDOF 9
ENDMDL
MODEL 4
REMARK VINA RESULT: -10.740954410      1.132      1.696
REMARK  9 active torsions:
REMARK  status: ('A' for Active; 'I' for Inactive)
REMARK    1  A    between atoms: C2_2  and  C4_4 
REMARK    2  A    between atoms: C4_4  and  C5_5 
REMARK    3  A    between atoms: C5_5  and  N1_6 
REMARK    4  A    between atoms: C5_5  and  C19_25 
REMARK       I    between atoms: N1_6  and  C6_8 
REMARK    5  A    between atoms: C6_8  and  C7_10 
REMARK    6  A    between atoms: C7_10  and  C8_11 
REMARK    7  A    between atoms: C8_11  and  C9_12 
REMARK       I    between atoms: C9_12  and  N2_14 
REMARK    8  A    between atoms: N3_17  and  C12_18 
REMARK       I    between atoms: C19_25  and  N4_27 
REMARK    9  A    between atoms: N4_27  and  C20_29 
ROOT
HETATM    1  N1  UNL     1     -25.148  10.769 -17.983  1.00  0.00    -0.348 N 
ATOM      2  H1  UNL     1     -24.218  10.613 -18.371  1.00  0.00     0.163 HD
HETATM    3  C6  UNL     1     -25.602   9.827 -17.037  1.00  0.00     0.218 C 
HETATM    4  O1  UNL     1     -26.719   9.965 -16.513  1.00  0.00    -0.274 OA
ENDROOT
BRANCH   1   5
HETATM    5  C5  UNL     1     -25.853  11.916 -18.453  1.00  0.00     0.177 C 
BRANCH   5   6
HETATM    6  C4  UNL     1     -27.236  11.592 -18.942  1.00  0.00     0.038 C 
BRANCH   6   7
HETATM    7  C2  UNL     1     -27.290  10.497 -19.966  1.00  0.00    -0.020 C 
HETATM    8  C1  UNL     1     -26.405  10.709 -21.153  1.00  0.00     0.009 C 
HETATM    9  C3  UNL     1     -28.736  10.339 -20.403  1.00  0.00     0.009 C 
ENDBRANCH   6   7
ENDBRANCH   5   6
BRANCH   5  10
HETATM   10  C19 UNL     1     -26.020  12.866 -17.295  1.00  0.00     0.241 C 
HETATM   11  O3  UNL     1     -25.061  13.651 -17.065  1.00  0.00    -0.271 OA
HETATM   12  N4  UNL     1     -27.209  12.875 -16.498  1.00  0.00    -0.351 N 
ATOM     13  H4  UNL     1     -27.983  12.240 -16.688  1.00  0.00     0.163 HD
BRANCH  12  14
HETATM   14  C20 UNL     1     -27.262  13.811 -15.427  1.00  0.00     0.117 C 
HETATM   15  C21 UNL     1     -27.918  13.125 -14.233  1.00  0.00    -0.005 C 
HETATM   16  C22 UNL     1     -27.956  13.728 -12.926  1.00  0.00    -0.028 C 
HETATM   17  C23 UNL     1     -29.093  14.622 -12.456  1.00  0.00     0.038 C 
HETATM   18  C24 UNL     1     -29.304  15.848 -13.409  1.00  0.00     0.083 C 
HETATM   19  C25 UNL     1     -28.670  15.534 -14.612  1.00  0.00    -0.180 C 
HETATM   20  C26 UNL     1     -27.994  15.129 -15.784  1.00  0.00     0.109 C 
ENDBRANCH  12  14
ENDBRANCH   5  10
ENDBRANCH   1   5
BRANCH   3  21
HETATM   21  C7  UNL     1     -24.752   8.667 -16.673  1.00  0.00     0.112 C 
BRANCH  21  22
HETATM   22  C8  UNL     1     -25.227   8.079 -15.380  1.00  0.00     0.112 C 
BRANCH  22  23
HETATM   23  C9  UNL     1     -24.431   8.614 -14.250  1.00  0.00     0.220 C 
HETATM   24  O2  UNL     1     -23.908   9.748 -14.225  1.00  0.00    -0.273 OA
HETATM   25  N2  UNL     1     -24.225   7.783 -13.075  1.00  0.00    -0.343 N 
HETATM   26  C10 UNL     1     -24.851   6.490 -13.069  1.00  0.00     0.170 C 
HETATM   27  C18 UNL     1     -23.429   8.256 -11.993  1.00  0.00     0.170 C 
HETATM   28  C11 UNL     1     -23.938   5.481 -12.451  1.00  0.00     0.083 C 
HETATM   29  N3  UNL     1     -23.407   5.928 -11.225  1.00  0.00    -0.366 N 
HETATM   30  C17 UNL     1     -22.746   7.159 -11.215  1.00  0.00     0.083 C 
BRANCH  29  31
HETATM   31  C12 UNL     1     -24.106   5.481 -10.080  1.00  0.00     0.088 C 
HETATM   32  C13 UNL     1     -25.172   6.332  -9.524  1.00  0.00     0.026 C 
HETATM   33  C14 UNL     1     -25.451   5.745  -8.162  1.00  0.00     0.002 C 
HETATM   34  C15 UNL     1     -24.350   4.747  -7.875  1.00  0.00     0.002 C 
HETATM   35  C16 UNL     1     -23.258   5.109  -8.897  1.00  0.00     0.026 C 
ENDBRANCH  29  31
ENDBRANCH  22  23
ENDBRANCH  21  22
ENDBRANCH   3  21
TORSDOF 9
ENDMDL
MODEL 5
REMARK VINA RESULT: -10.633477187      2.648     11.006
REMARK  9 active torsions:
REMARK  status: ('A' for Active; 'I' for Inactive)
REMARK    1  A    between atoms: C2_2  and  C4_4 
REMARK    2  A    between atoms: C4_4  and  C5_5 
REMARK    3  A    between atoms: C5_5  and  N1_6 
REMARK    4  A    between atoms: C5_5  and  C19_25 
REMARK       I    between atoms: N1_6  and  C6_8 
REMARK    5  A    between atoms: C6_8  and  C7_10 
REMARK    6  A    between atoms: C7_10  and  C8_11 
REMARK    7  A    between atoms: C8_11  and  C9_12 
REMARK       I    between atoms: C9_12  and  N2_14 
REMARK    8  A    between atoms: N3_17  and  C12_18 
REMARK       I    between atoms: C19_25  and  N4_27 
REMARK    9  A    between atoms: N4_27  and  C20_29 
ROOT
HETATM    1  N1  UNL     1     -25.076   6.796 -10.732  1.00  0.00    -0.348 N 
ATOM      2  H1  UNL     1     -25.777   6.141 -11.079  1.00  0.00     0.163 HD
HETATM    3  C6  UNL     1     -24.459   7.625 -11.691  1.00  0.00     0.218 C 
HETATM    4  O1  UNL     1     -23.608   8.456 -11.336  1.00  0.00    -0.274 OA
ENDROOT
BRANCH   1   5
HETATM    5  C5  UNL     1     -24.823   6.777  -9.329  1.00  0.00     0.177 C 
BRANCH   5   6
HETATM    6  C4  UNL     1     -25.998   6.290  -8.530  1.00  0.00     0.038 C 
BRANCH   6   7
HETATM    7  C2  UNL     1     -27.174   5.862  -9.357  1.00  0.00    -0.020 C 
HETATM    8  C1  UNL     1     -28.264   6.881  -9.464  1.00  0.00     0.009 C 
HETATM    9  C3  UNL     1     -27.711   4.569  -8.768  1.00  0.00     0.009 C 
ENDBRANCH   6   7
ENDBRANCH   5   6
BRANCH   5  10
HETATM   10  C19 UNL     1     -23.699   5.806  -9.073  1.00  0.00     0.241 C 
HETATM   11  O3  UNL     1     -23.258   5.175 -10.071  1.00  0.00    -0.271 OA
HETATM   12  N4  UNL     1     -23.160   5.612  -7.761  1.00  0.00    -0.351 N 
ATOM     13  H4  UNL     1     -23.517   6.126  -6.956  1.00  0.00     0.163 HD
BRANCH  12  14
HETATM   14  C20 UNL     1     -22.102   4.669  -7.629  1.00  0.00     0.117 C 
HETATM   15  C21 UNL     1     -22.601   3.519  -6.761  1.00  0.00    -0.005 C 
HETATM   16  C22 UNL     1     -21.845   2.304  -6.586  1.00  0.00    -0.028 C 
HETATM   17  C23 UNL     1     -20.834   2.109  -5.466  1.00  0.00     0.038 C 
HETATM   18  C24 UNL     1     -19.721   3.211  -5.486  1.00  0.00     0.083 C 
HETATM   19  C25 UNL     1     -20.212   4.265  -6.257  1.00  0.00    -0.180 C 
HETATM   20  C26 UNL     1     -20.794   5.272  -7.058  1.00  0.00     0.109 C 
ENDBRANCH  12  14
ENDBRANCH   5  10
ENDBRANCH   1   5
BRANCH   3  21
HETATM   21  C7  UNL     1     -24.818   7.500 -13.126  1.00  0.00     0.112 C 
BRANCH  21  22
HETATM   22  C8  UNL     1     -24.834   8.856 -13.761  1.00  0.00     0.112 C 
BRANCH  22  23
HETATM   23  C9  UNL     1     -25.018   8.734 -15.226  1.00  0.00     0.220 C 
HETATM   24  O2  UNL     1     -24.681   7.740 -15.903  1.00  0.00    -0.273 OA
HETATM   25  N2  UNL     1     -25.629   9.833 -15.956  1.00  0.00    -0.343 N 
HETATM   26  C10 UNL     1     -26.058  10.970 -15.190  1.00  0.00     0.170 C 
HETATM   27  C18 UNL     1     -25.780   9.759 -17.370  1.00  0.00     0.170 C 
HETATM   28  C11 UNL     1     -25.766  12.232 -15.936  1.00  0.00     0.083 C 
HETATM   29  N3  UNL     1     -26.209  12.171 -17.272  1.00  0.00    -0.366 N 
HETATM   30  C17 UNL     1     -25.763  11.103 -18.055  1.00  0.00     0.083 C 
BRANCH  29  31
HETATM   31  C12 UNL     1     -27.482  12.743 -17.500  1.00  0.00     0.088 C 
HETATM   32  C13 UNL     1     -27.614  13.791 -18.528  1.00  0.00     0.026 C 
HETATM   33  C14 UNL     1     -28.970  14.402 -18.270  1.00  0.00     0.002 C 
HETATM   34  C15 UNL     1     -29.452  13.868 -16.939  1.00  0.00     0.002 C 
HETATM   35  C16 UNL     1     -28.174  13.305 -16.290  1.00  0.00     0.026 C 
ENDBRANCH  29  31
ENDBRANCH  22  23
ENDBRANCH  21  22
ENDBRANCH   3  21
TORSDOF 9
ENDMDL
