MODEL 1
REMARK VINA RESULT: -9.803430347      0.000      0.000
REMARK  10 active torsions:
REMARK  status: ('A' for Active; 'I' for Inactive)
REMARK    1  A    between atoms: C2_2  and  C5_5 
REMARK    2  A    between atoms: C5_5  and  N1_6 
REMARK    3  A    between atoms: C8_10  and  N2_11 
REMARK       I    between atoms: N2_11  and  C9_13 
REMARK    4  A    between atoms: C9_13  and  C10_15 
REMARK    5  A    between atoms: C10_15  and  C11_16 
REMARK    6  A    between atoms: C11_16  and  C12_17 
REMARK    7  A    between atoms: C12_17  and  C13_18 
REMARK    8  A    between atoms: C13_18  and  C14_19 
REMARK    9  A    between atoms: C14_19  and  N3_20 
REMARK       I    between atoms: N3_20  and  C15_22 
REMARK   10  A    between atoms: C15_22  and  C16_24 
ROOT
HETATM    1  C11 UNL     1     -25.172  10.373 -19.549  1.00  0.00     0.009 C 
ENDROOT
BRANCH   1   2
HETATM    2  C10 UNL     1     -25.097  10.835 -18.139  1.00  0.00     0.103 C 
BRANCH   2   3
HETATM    3  C9  UNL     1     -25.480   9.846 -17.115  1.00  0.00     0.219 C 
HETATM    4  N2  UNL     1     -24.521   9.090 -16.376  1.00  0.00    -0.327 N 
ATOM      5  H2  UNL     1     -23.523   9.222 -16.545  1.00  0.00     0.165 HD
HETATM    6  O2  UNL     1     -26.691   9.649 -16.871  1.00  0.00    -0.274 OA
BRANCH   4   7
HETATM    7  C8  UNL     1     -24.962   8.152 -15.403  1.00  0.00     0.317 C 
HETATM    8  O1  UNL     1     -24.348   6.914 -15.445  1.00  0.00    -0.356 OA
HETATM    9  C7  UNL     1     -23.044   6.915 -15.044  1.00  0.00     0.191 C 
HETATM   10  C6  UNL     1     -22.751   7.649 -13.789  1.00  0.00     0.152 C 
HETATM   11  N1  UNL     1     -23.980   8.117 -13.117  1.00  0.00    -0.346 N 
HETATM   12  C26 UNL     1     -24.952   8.670 -13.995  1.00  0.00     0.269 C 
HETATM   13  O4  UNL     1     -25.743   9.535 -13.598  1.00  0.00    -0.268 OA
BRANCH  11  14
HETATM   14  C5  UNL     1     -24.108   8.008 -11.697  1.00  0.00     0.134 C 
BRANCH  14  15
HETATM   15  C2  UNL     1     -24.176   6.666 -11.095  1.00  0.00    -0.035 C 
HETATM   16  C1  UNL     1     -25.158   6.751  -9.904  1.00  0.00     0.016 C 
HETATM   17  C3  UNL     1     -24.776   5.615 -12.008  1.00  0.00     0.016 C 
HETATM   18  C4  UNL     1     -22.883   6.188 -10.498  1.00  0.00     0.016 C 
ENDBRANCH  14  15
ENDBRANCH  11  14
ENDBRANCH   4   7
ENDBRANCH   2   3
ENDBRANCH   1   2
BRANCH   1  19
HETATM   19  C12 UNL     1     -26.011  11.244 -20.419  1.00  0.00     0.002 C 
BRANCH  19  20
HETATM   20  C13 UNL     1     -27.250  11.695 -19.647  1.00  0.00     0.020 C 
BRANCH  20  21
HETATM   21  C14 UNL     1     -27.066  13.095 -19.137  1.00  0.00     0.122 C 
BRANCH  21  22
HETATM   22  N3  UNL     1     -27.748  13.280 -17.894  1.00  0.00    -0.360 N 
HETATM   23  C15 UNL     1     -27.108  13.604 -16.694  1.00  0.00     0.226 C 
HETATM   24  O3  UNL     1     -25.869  13.765 -16.613  1.00  0.00    -0.273 OA
ATOM     25  H3  UNL     1     -28.762  13.169 -17.882  1.00  0.00     0.162 HD
BRANCH  23  26
HETATM   26  C16 UNL     1     -27.902  13.774 -15.435  1.00  0.00     0.042 C 
HETATM   27  C17 UNL     1     -29.357  13.903 -15.841  1.00  0.00     0.024 C 
HETATM   28  C18 UNL     1     -30.186  14.062 -14.592  1.00  0.00    -0.013 C 
HETATM   29  C19 UNL     1     -29.972  12.954 -13.595  1.00  0.00     0.009 C 
HETATM   30  C23 UNL     1     -29.801  15.374 -13.940  1.00  0.00     0.009 C 
HETATM   31  C20 UNL     1     -28.490  12.881 -13.234  1.00  0.00    -0.013 C 
HETATM   32  C21 UNL     1     -28.088  14.168 -12.592  1.00  0.00     0.009 C 
HETATM   33  C25 UNL     1     -27.717  12.622 -14.502  1.00  0.00     0.024 C 
HETATM   34  C22 UNL     1     -28.346  15.309 -13.551  1.00  0.00    -0.013 C 
HETATM   35  C24 UNL     1     -27.518  15.111 -14.808  1.00  0.00     0.024 C 
ENDBRANCH  23  26
ENDBRANCH  21  22
ENDBRANCH  20  21
ENDBRANCH  19  20
ENDBRANCH   1  19
TORSDOF 10
ENDMDL
MODEL 2
REMARK VINA RESULT: -9.787828086      0.079      1.298
REMARK  10 active torsions:
REMARK  status: ('A' for Active; 'I' for Inactive)
REMARK    1  A    between atoms: C2_2  and  C5_5 
REMARK    2  A    between atoms: C5_5  and  N1_6 
REMARK    3  A    between atoms: C8_10  and  N2_11 
REMARK       I    between atoms: N2_11  and  C9_13 
REMARK    4  A    between atoms: C9_13  and  C10_15 
REMARK    5  A    between atoms: C10_15  and  C11_16 
REMARK    6  A    between atoms: C11_16  and  C12_17 
REMARK    7  A    between atoms: C12_17  and  C13_18 
REMARK    8  A    between atoms: C13_18  and  C14_19 
REMARK    9  A    between atoms: C14_19  and  N3_20 
REMARK       I    between atoms: N3_20  and  C15_22 
REMARK   10  A    between atoms: C15_22  and  C16_24 
ROOT
HETATM    1  C11 UNL     1     -25.233  10.336 -19.565  1.00  0.00     0.009 C 
ENDROOT
BRANCH   1   2
HETATM    2  C10 UNL     1     -25.084  10.788 -18.157  1.00  0.00     0.103 C 
BRANCH   2   3
HETATM    3  C9  UNL     1     -25.473   9.811 -17.123  1.00  0.00     0.219 C 
HETATM    4  N2  UNL     1     -24.519   9.034 -16.400  1.00  0.00    -0.327 N 
ATOM      5  H2  UNL     1     -23.522   9.140 -16.588  1.00  0.00     0.165 HD
HETATM    6  O2  UNL     1     -26.683   9.646 -16.855  1.00  0.00    -0.274 OA
BRANCH   4   7
HETATM    7  C8  UNL     1     -24.966   8.110 -15.415  1.00  0.00     0.317 C 
HETATM    8  O1  UNL     1     -24.352   6.871 -15.437  1.00  0.00    -0.356 OA
HETATM    9  C7  UNL     1     -23.050   6.877 -15.030  1.00  0.00     0.191 C 
HETATM   10  C6  UNL     1     -22.763   7.629 -13.784  1.00  0.00     0.152 C 
HETATM   11  N1  UNL     1     -23.994   8.107 -13.124  1.00  0.00    -0.346 N 
HETATM   12  C26 UNL     1     -24.961   8.647 -14.014  1.00  0.00     0.269 C 
HETATM   13  O4  UNL     1     -25.754   9.519 -13.634  1.00  0.00    -0.268 OA
BRANCH  11  14
HETATM   14  C5  UNL     1     -24.128   8.019 -11.704  1.00  0.00     0.134 C 
BRANCH  14  15
HETATM   15  C2  UNL     1     -24.167   6.685 -11.080  1.00  0.00    -0.035 C 
HETATM   16  C1  UNL     1     -25.173   6.760  -9.908  1.00  0.00     0.016 C 
HETATM   17  C3  UNL     1     -24.718   5.601 -11.985  1.00  0.00     0.016 C 
HETATM   18  C4  UNL     1     -22.871   6.258 -10.451  1.00  0.00     0.016 C 
ENDBRANCH  14  15
ENDBRANCH  11  14
ENDBRANCH   4   7
ENDBRANCH   2   3
ENDBRANCH   1   2
BRANCH   1  19
HETATM   19  C12 UNL     1     -25.990  11.292 -20.422  1.00  0.00     0.002 C 
BRANCH  19  20
HETATM   20  C13 UNL     1     -27.212  11.801 -19.660  1.00  0.00     0.020 C 
BRANCH  20  21
HETATM   21  C14 UNL     1     -26.963  13.189 -19.142  1.00  0.00     0.122 C 
BRANCH  21  22
HETATM   22  N3  UNL     1     -27.663  13.410 -17.915  1.00  0.00    -0.360 N 
HETATM   23  C15 UNL     1     -27.032  13.634 -16.687  1.00  0.00     0.226 C 
HETATM   24  O3  UNL     1     -25.786  13.664 -16.565  1.00  0.00    -0.273 OA
ATOM     25  H3  UNL     1     -28.682  13.404 -17.936  1.00  0.00     0.162 HD
BRANCH  23  26
HETATM   26  C16 UNL     1     -27.845  13.852 -15.448  1.00  0.00     0.042 C 
HETATM   27  C17 UNL     1     -27.613  12.655 -14.548  1.00  0.00     0.024 C 
HETATM   28  C18 UNL     1     -28.409  12.851 -13.282  1.00  0.00    -0.013 C 
HETATM   29  C19 UNL     1     -28.104  14.151 -12.587  1.00  0.00     0.009 C 
HETATM   30  C23 UNL     1     -29.878  12.838 -13.649  1.00  0.00     0.009 C 
HETATM   31  C20 UNL     1     -28.356  15.309 -13.550  1.00  0.00    -0.013 C 
HETATM   32  C21 UNL     1     -29.802  15.312 -13.927  1.00  0.00     0.009 C 
HETATM   33  C25 UNL     1     -27.464  15.117 -14.749  1.00  0.00     0.024 C 
HETATM   34  C22 UNL     1     -30.152  13.993 -14.578  1.00  0.00    -0.013 C 
HETATM   35  C24 UNL     1     -29.321  13.811 -15.835  1.00  0.00     0.024 C 
ENDBRANCH  23  26
ENDBRANCH  21  22
ENDBRANCH  20  21
ENDBRANCH  19  20
ENDBRANCH   1  19
TORSDOF 10
ENDMDL
MODEL 3
REMARK VINA RESULT: -9.680453704      2.926      4.860
REMARK  10 active torsions:
REMARK  status: ('A' for Active; 'I' for Inactive)
REMARK    1  A    between atoms: C2_2  and  C5_5 
REMARK    2  A    between atoms: C5_5  and  N1_6 
REMARK    3  A    between atoms: C8_10  and  N2_11 
REMARK       I    between atoms: N2_11  and  C9_13 
REMARK    4  A    between atoms: C9_13  and  C10_15 
REMARK    5  A    between atoms: C10_15  and  C11_16 
REMARK    6  A    between atoms: C11_16  and  C12_17 
REMARK    7  A    between atoms: C12_17  and  C13_18 
REMARK    8  A    between atoms: C13_18  and  C14_19 
REMARK    9  A    between atoms: C14_19  and  N3_20 
REMARK       I    between atoms: N3_20  and  C15_22 
REMARK   10  A    between atoms: C15_22  and  C16_24 
ROOT
HETATM    1  C11 UNL     1     -24.054   7.241 -14.844  1.00  0.00     0.009 C 
ENDROOT
BRANCH   1   2
HETATM    2  C10 UNL     1     -24.652   6.351 -13.816  1.00  0.00     0.103 C 
BRANCH   2   3
HETATM    3  C9  UNL     1     -24.487   6.781 -12.416  1.00  0.00     0.219 C 
HETATM    4  N2  UNL     1     -24.930   5.995 -11.310  1.00  0.00    -0.327 N 
ATOM      5  H2  UNL     1     -25.382   5.094 -11.469  1.00  0.00     0.165 HD
HETATM    6  O2  UNL     1     -23.938   7.877 -12.169  1.00  0.00    -0.274 OA
BRANCH   4   7
HETATM    7  C8  UNL     1     -24.737   6.473  -9.984  1.00  0.00     0.317 C 
HETATM    8  O1  UNL     1     -25.893   6.747  -9.275  1.00  0.00    -0.356 OA
HETATM    9  C7  UNL     1     -26.610   5.644  -8.914  1.00  0.00     0.191 C 
HETATM   10  C6  UNL     1     -25.832   4.530  -8.320  1.00  0.00     0.152 C 
HETATM   11  N1  UNL     1     -24.422   4.897  -8.085  1.00  0.00    -0.346 N 
HETATM   12  C26 UNL     1     -23.824   5.627  -9.147  1.00  0.00     0.269 C 
HETATM   13  O4  UNL     1     -22.606   5.557  -9.356  1.00  0.00    -0.268 OA
BRANCH  11  14
HETATM   14  C5  UNL     1     -23.769   4.503  -6.876  1.00  0.00     0.134 C 
BRANCH  14  15
HETATM   15  C2  UNL     1     -22.925   3.297  -6.889  1.00  0.00    -0.035 C 
HETATM   16  C1  UNL     1     -23.257   2.495  -5.611  1.00  0.00     0.016 C 
HETATM   17  C3  UNL     1     -23.236   2.345  -8.027  1.00  0.00     0.016 C 
HETATM   18  C4  UNL     1     -21.450   3.571  -6.803  1.00  0.00     0.016 C 
ENDBRANCH  14  15
ENDBRANCH  11  14
ENDBRANCH   4   7
ENDBRANCH   2   3
ENDBRANCH   1   2
BRANCH   1  19
HETATM   19  C12 UNL     1     -25.053   8.085 -15.558  1.00  0.00     0.002 C 
BRANCH  19  20
HETATM   20  C13 UNL     1     -24.806   9.556 -15.229  1.00  0.00     0.020 C 
BRANCH  20  21
HETATM   21  C14 UNL     1     -25.571  10.438 -16.173  1.00  0.00     0.122 C 
BRANCH  21  22
HETATM   22  N3  UNL     1     -26.546  11.214 -15.472  1.00  0.00    -0.360 N 
HETATM   23  C15 UNL     1     -26.711  12.593 -15.638  1.00  0.00     0.226 C 
HETATM   24  O3  UNL     1     -26.010  13.265 -16.428  1.00  0.00    -0.273 OA
ATOM     25  H3  UNL     1     -27.158  10.734 -14.813  1.00  0.00     0.162 HD
BRANCH  23  26
HETATM   26  C16 UNL     1     -27.756  13.328 -14.857  1.00  0.00     0.042 C 
HETATM   27  C17 UNL     1     -27.760  12.744 -13.459  1.00  0.00     0.024 C 
HETATM   28  C18 UNL     1     -28.795  13.475 -12.641  1.00  0.00    -0.013 C 
HETATM   29  C19 UNL     1     -28.596  14.967 -12.631  1.00  0.00     0.009 C 
HETATM   30  C23 UNL     1     -30.155  13.178 -13.238  1.00  0.00     0.009 C 
HETATM   31  C20 UNL     1     -28.600  15.485 -14.068  1.00  0.00    -0.013 C 
HETATM   32  C21 UNL     1     -29.934  15.199 -14.676  1.00  0.00     0.009 C 
HETATM   33  C25 UNL     1     -27.485  14.797 -14.812  1.00  0.00     0.024 C 
HETATM   34  C22 UNL     1     -30.188  13.708 -14.648  1.00  0.00    -0.013 C 
HETATM   35  C24 UNL     1     -29.119  12.996 -15.458  1.00  0.00     0.024 C 
ENDBRANCH  23  26
ENDBRANCH  21  22
ENDBRANCH  20  21
ENDBRANCH  19  20
ENDBRANCH   1  19
TORSDOF 10
ENDMDL
MODEL 4
REMARK VINA RESULT: -9.646146441      3.003      4.848
REMARK  10 active torsions:
REMARK  status: ('A' for Active; 'I' for Inactive)
REMARK    1  A    between atoms: C2_2  and  C5_5 
REMARK    2  A    between atoms: C5_5  and  N1_6 
REMARK    3  A    between atoms: C8_10  and  N2_11 
REMARK       I    between atoms: N2_11  and  C9_13 
REMARK    4  A    between atoms: C9_13  and  C10_15 
REMARK    5  A    between atoms: C10_15  and  C11_16 
REMARK    6  A    between atoms: C11_16  and  C12_17 
REMARK    7  A    between atoms: C12_17  and  C13_18 
REMARK    8  A    between atoms: C13_18  and  C14_19 
REMARK    9  A    between atoms: C14_19  and  N3_20 
REMARK       I    between atoms: N3_20  and  C15_22 
REMARK   10  A    between atoms: C15_22  and  C16_24 
ROOT
HETATM    1  C11 UNL     1     -24.338   7.377 -14.843  1.00  0.00     0.009 C 
ENDROOT
BRANCH   1   2
HETATM    2  C10 UNL     1     -24.599   6.335 -13.816  1.00  0.00     0.103 C 
BRANCH   2   3
HETATM    3  C9  UNL     1     -24.458   6.764 -12.412  1.00  0.00     0.219 C 
HETATM    4  N2  UNL     1     -24.880   5.956 -11.313  1.00  0.00    -0.327 N 
ATOM      5  H2  UNL     1     -25.298   5.041 -11.480  1.00  0.00     0.165 HD
HETATM    6  O2  UNL     1     -23.950   7.877 -12.156  1.00  0.00    -0.274 OA
BRANCH   4   7
HETATM    7  C8  UNL     1     -24.713   6.434  -9.984  1.00  0.00     0.317 C 
HETATM    8  O1  UNL     1     -25.882   6.692  -9.292  1.00  0.00    -0.356 OA
HETATM    9  C7  UNL     1     -26.590   5.580  -8.943  1.00  0.00     0.191 C 
HETATM   10  C6  UNL     1     -25.808   4.474  -8.340  1.00  0.00     0.152 C 
HETATM   11  N1  UNL     1     -24.405   4.857  -8.083  1.00  0.00    -0.346 N 
HETATM   12  C26 UNL     1     -23.801   5.598  -9.136  1.00  0.00     0.269 C 
HETATM   13  O4  UNL     1     -22.579   5.543  -9.327  1.00  0.00    -0.268 OA
BRANCH  11  14
HETATM   14  C5  UNL     1     -23.765   4.470  -6.866  1.00  0.00     0.134 C 
BRANCH  14  15
HETATM   15  C2  UNL     1     -22.908   3.272  -6.869  1.00  0.00    -0.035 C 
HETATM   16  C1  UNL     1     -23.259   2.458  -5.603  1.00  0.00     0.016 C 
HETATM   17  C3  UNL     1     -23.183   2.325  -8.020  1.00  0.00     0.016 C 
HETATM   18  C4  UNL     1     -21.439   3.563  -6.748  1.00  0.00     0.016 C 
ENDBRANCH  14  15
ENDBRANCH  11  14
ENDBRANCH   4   7
ENDBRANCH   2   3
ENDBRANCH   1   2
BRANCH   1  19
HETATM   19  C12 UNL     1     -25.372   7.433 -15.913  1.00  0.00     0.002 C 
BRANCH  19  20
HETATM   20  C13 UNL     1     -25.395   8.832 -16.527  1.00  0.00     0.020 C 
BRANCH  20  21
HETATM   21  C14 UNL     1     -24.980   9.855 -15.509  1.00  0.00     0.122 C 
BRANCH  21  22
HETATM   22  N3  UNL     1     -25.971  10.877 -15.377  1.00  0.00    -0.360 N 
HETATM   23  C15 UNL     1     -26.156  11.909 -16.303  1.00  0.00     0.226 C 
HETATM   24  O3  UNL     1     -25.460  12.017 -17.338  1.00  0.00    -0.273 OA
ATOM     25  H3  UNL     1     -26.579  10.852 -14.559  1.00  0.00     0.162 HD
BRANCH  23  26
HETATM   26  C16 UNL     1     -27.217  12.942 -16.082  1.00  0.00     0.042 C 
HETATM   27  C17 UNL     1     -28.181  12.846 -17.247  1.00  0.00     0.024 C 
HETATM   28  C18 UNL     1     -29.272  13.868 -17.047  1.00  0.00    -0.013 C 
HETATM   29  C19 UNL     1     -29.971  13.733 -15.721  1.00  0.00     0.009 C 
HETATM   30  C23 UNL     1     -28.642  15.243 -17.118  1.00  0.00     0.009 C 
HETATM   31  C20 UNL     1     -28.944  13.836 -14.596  1.00  0.00    -0.013 C 
HETATM   32  C21 UNL     1     -28.307  15.187 -14.650  1.00  0.00     0.009 C 
HETATM   33  C25 UNL     1     -27.935  12.733 -14.788  1.00  0.00     0.024 C 
HETATM   34  C22 UNL     1     -27.643  15.373 -15.996  1.00  0.00    -0.013 C 
HETATM   35  C24 UNL     1     -26.567  14.319 -16.182  1.00  0.00     0.024 C 
ENDBRANCH  23  26
ENDBRANCH  21  22
ENDBRANCH  20  21
ENDBRANCH  19  20
ENDBRANCH   1  19
TORSDOF 10
ENDMDL
MODEL 5
REMARK VINA RESULT: -9.617216518      2.993      4.980
REMARK  10 active torsions:
REMARK  status: ('A' for Active; 'I' for Inactive)
REMARK    1  A    between atoms: C2_2  and  C5_5 
REMARK    2  A    between atoms: C5_5  and  N1_6 
REMARK    3  A    between atoms: C8_10  and  N2_11 
REMARK       I    between atoms: N2_11  and  C9_13 
REMARK    4  A    between atoms: C9_13  and  C10_15 
REMARK    5  A    between atoms: C10_15  and  C11_16 
REMARK    6  A    between atoms: C11_16  and  C12_17 
REMARK    7  A    between atoms: C12_17  and  C13_18 
REMARK    8  A    between atoms: C13_18  and  C14_19 
REMARK    9  A    between atoms: C14_19  and  N3_20 
REMARK       I    between atoms: N3_20  and  C15_22 
REMARK   10  A    between atoms: C15_22  and  C16_24 
ROOT
HETATM    1  C11 UNL     1     -24.334   7.399 -14.874  1.00  0.00     0.009 C 
ENDROOT
BRANCH   1   2
HETATM    2  C10 UNL     1     -24.606   6.360 -13.847  1.00  0.00     0.103 C 
BRANCH   2   3
HETATM    3  C9  UNL     1     -24.475   6.792 -12.444  1.00  0.00     0.219 C 
HETATM    4  N2  UNL     1     -24.876   5.973 -11.345  1.00  0.00    -0.327 N 
ATOM      5  H2  UNL     1     -25.271   5.048 -11.512  1.00  0.00     0.165 HD
HETATM    6  O2  UNL     1     -23.995   7.917 -12.187  1.00  0.00    -0.274 OA
BRANCH   4   7
HETATM    7  C8  UNL     1     -24.720   6.454 -10.016  1.00  0.00     0.317 C 
HETATM    8  O1  UNL     1     -25.896   6.710  -9.333  1.00  0.00    -0.356 OA
HETATM    9  C7  UNL     1     -26.604   5.597  -8.987  1.00  0.00     0.191 C 
HETATM   10  C6  UNL     1     -25.822   4.494  -8.376  1.00  0.00     0.152 C 
HETATM   11  N1  UNL     1     -24.423   4.883  -8.109  1.00  0.00    -0.346 N 
HETATM   12  C26 UNL     1     -23.813   5.623  -9.158  1.00  0.00     0.269 C 
HETATM   13  O4  UNL     1     -22.590   5.571  -9.340  1.00  0.00    -0.268 OA
BRANCH  11  14
HETATM   14  C5  UNL     1     -23.792   4.499  -6.886  1.00  0.00     0.134 C 
BRANCH  14  15
HETATM   15  C2  UNL     1     -22.921   3.312  -6.882  1.00  0.00    -0.035 C 
HETATM   16  C1  UNL     1     -23.266   2.497  -5.616  1.00  0.00     0.016 C 
HETATM   17  C3  UNL     1     -23.182   2.358  -8.031  1.00  0.00     0.016 C 
HETATM   18  C4  UNL     1     -21.455   3.619  -6.758  1.00  0.00     0.016 C 
ENDBRANCH  14  15
ENDBRANCH  11  14
ENDBRANCH   4   7
ENDBRANCH   2   3
ENDBRANCH   1   2
BRANCH   1  19
HETATM   19  C12 UNL     1     -25.388   7.492 -15.923  1.00  0.00     0.002 C 
BRANCH  19  20
HETATM   20  C13 UNL     1     -25.390   8.897 -16.522  1.00  0.00     0.020 C 
BRANCH  20  21
HETATM   21  C14 UNL     1     -24.982   9.906 -15.486  1.00  0.00     0.122 C 
BRANCH  21  22
HETATM   22  N3  UNL     1     -25.923  10.980 -15.419  1.00  0.00    -0.360 N 
HETATM   23  C15 UNL     1     -26.091  11.934 -16.427  1.00  0.00     0.226 C 
HETATM   24  O3  UNL     1     -25.423  11.920 -17.486  1.00  0.00    -0.273 OA
ATOM     25  H3  UNL     1     -26.507  11.054 -14.586  1.00  0.00     0.162 HD
BRANCH  23  26
HETATM   26  C16 UNL     1     -27.099  13.030 -16.270  1.00  0.00     0.042 C 
HETATM   27  C17 UNL     1     -27.819  12.788 -14.959  1.00  0.00     0.024 C 
HETATM   28  C18 UNL     1     -28.835  13.886 -14.764  1.00  0.00    -0.013 C 
HETATM   29  C19 UNL     1     -28.236  15.265 -14.835  1.00  0.00     0.009 C 
HETATM   30  C23 UNL     1     -29.874  13.759 -15.859  1.00  0.00     0.009 C 
HETATM   31  C20 UNL     1     -27.527  15.438 -16.177  1.00  0.00    -0.013 C 
HETATM   32  C21 UNL     1     -28.536  15.313 -17.271  1.00  0.00     0.009 C 
HETATM   33  C25 UNL     1     -26.458  14.380 -16.275  1.00  0.00     0.024 C 
HETATM   34  C22 UNL     1     -29.196  13.955 -17.191  1.00  0.00    -0.013 C 
HETATM   35  C24 UNL     1     -28.150  12.870 -17.366  1.00  0.00     0.024 C 
ENDBRANCH  23  26
ENDBRANCH  21  22
ENDBRANCH  20  21
ENDBRANCH  19  20
ENDBRANCH   1  19
TORSDOF 10
ENDMDL
