MODEL 1
REMARK VINA RESULT: -6.254940698      0.000      0.000
REMARK  6 active torsions:
REMARK  status: ('A' for Active; 'I' for Inactive)
REMARK    1  A    between atoms: N2_4  and  O1_5 
REMARK    2  A    between atoms: N2_4  and  N3_7 
REMARK       I    between atoms: N3_7  and  C1_9 
REMARK    3  A    between atoms: N5_11  and  C2_13 
REMARK    4  A    between atoms: C2_13  and  C3_14 
REMARK    5  A    between atoms: C2_13  and  C4_17 
REMARK    6  A    between atoms: C2_13  and  C5_20 
ROOT
HETATM    1  C2  UNL     1      21.332   3.191  -4.559  1.00  0.00     0.221 C 
ENDROOT
BRANCH   1   2
HETATM    2  N5  UNL     1      21.371   3.704  -5.832  1.00  0.00    -0.336 N 
HETATM    3  C1  UNL     1      21.891   3.684  -6.932  1.00  0.00     0.207 C 
HETATM    4  N3  UNL     1      21.353   4.616  -7.906  1.00  0.00    -0.232 N 
HETATM    5  N4  UNL     1      22.954   2.905  -7.467  1.00  0.00    -0.062 NA
ATOM      6  H3  UNL     1      20.416   4.446  -8.271  1.00  0.00     0.194 HD
ATOM      7  H5  UNL     1      20.642   4.415  -5.874  1.00  0.00     0.164 HD
BRANCH   4   8
HETATM    8  N2  UNL     1      22.043   5.719  -8.361  1.00  0.00    -0.099 N 
HETATM    9  N1  UNL     1      22.079   6.841  -7.796  1.00  0.00    -0.303 N 
ATOM     10  H12 UNL     1      22.589   7.657  -8.132  1.00  0.00     0.181 HD
ATOM     11  H11 UNL     1      21.550   6.937  -6.929  1.00  0.00     0.181 HD
BRANCH   8  12
HETATM   12  O1  UNL     1      22.759   5.588  -9.537  1.00  0.00    -0.254 OA
ATOM     13  H1  UNL     1      22.294   5.232 -10.286  1.00  0.00     0.248 HD
ENDBRANCH   8  12
ENDBRANCH   4   8
ENDBRANCH   1   2
BRANCH   1  14
HETATM   14  C3  UNL     1      20.464   4.155  -3.749  1.00  0.00     0.272 C 
HETATM   15  N6  UNL     1      20.824   4.595  -2.463  1.00  0.00    -0.059 NA
HETATM   16  O2  UNL     1      19.413   4.537  -4.294  1.00  0.00    -0.273 OA
ENDBRANCH   1  14
BRANCH   1  17
HETATM   17  C4  UNL     1      20.622   1.910  -4.366  1.00  0.00     0.213 C 
HETATM   18  O3  UNL     1      20.292   1.544  -3.241  1.00  0.00    -0.646 OA
HETATM   19  O4  UNL     1      20.336   1.132  -5.453  1.00  0.00    -0.646 OA
ENDBRANCH   1  17
BRANCH   1  20
HETATM   20  C5  UNL     1      22.632   3.166  -3.798  1.00  0.00     0.218 C 
HETATM   21  C6  UNL     1      23.424   4.378  -3.992  1.00  0.00     0.242 C 
HETATM   22  O5  UNL     1      23.135   5.373  -4.696  1.00  0.00    -0.272 OA
HETATM   23  N7  UNL     1      24.682   4.450  -3.298  1.00  0.00    -0.278 N 
HETATM   24  C7  UNL     1      25.357   3.258  -2.916  1.00  0.00     0.329 C 
ATOM     25  H7  UNL     1      25.091   5.358  -3.080  1.00  0.00     0.173 HD
HETATM   26  O6  UNL     1      26.466   3.290  -2.306  1.00  0.00    -0.247 OA
HETATM   27  N8  UNL     1      24.730   2.029  -3.251  1.00  0.00    -0.278 N 
HETATM   28  C8  UNL     1      23.465   1.989  -3.947  1.00  0.00     0.242 C 
ATOM     29  H8  UNL     1      25.184   1.152  -2.995  1.00  0.00     0.173 HD
HETATM   30  O7  UNL     1      23.257   0.946  -4.584  1.00  0.00    -0.272 OA
ENDBRANCH   1  20
TORSDOF 6
ENDMDL
MODEL 2
REMARK VINA RESULT: -6.125016410      3.834      7.309
REMARK  6 active torsions:
REMARK  status: ('A' for Active; 'I' for Inactive)
REMARK    1  A    between atoms: N2_4  and  O1_5 
REMARK    2  A    between atoms: N2_4  and  N3_7 
REMARK       I    between atoms: N3_7  and  C1_9 
REMARK    3  A    between atoms: N5_11  and  C2_13 
REMARK    4  A    between atoms: C2_13  and  C3_14 
REMARK    5  A    between atoms: C2_13  and  C4_17 
REMARK    6  A    between atoms: C2_13  and  C5_20 
ROOT
HETATM    1  C2  UNL     1      18.569   3.558  -3.200  1.00  0.00     0.221 C 
ENDROOT
BRANCH   1   2
HETATM    2  N5  UNL     1      18.544   2.808  -2.051  1.00  0.00    -0.336 N 
HETATM    3  C1  UNL     1      17.894   2.111  -1.293  1.00  0.00     0.207 C 
HETATM    4  N3  UNL     1      18.606   1.593  -0.139  1.00  0.00    -0.232 N 
HETATM    5  N4  UNL     1      16.535   1.693  -1.315  1.00  0.00    -0.062 NA
ATOM      6  H3  UNL     1      19.319   0.880  -0.291  1.00  0.00     0.194 HD
ATOM      7  H5  UNL     1      19.484   2.855  -1.660  1.00  0.00     0.164 HD
BRANCH   4   8
HETATM    8  N2  UNL     1      18.369   2.016   1.151  1.00  0.00    -0.099 N 
HETATM    9  N1  UNL     1      18.773   1.442   2.193  1.00  0.00    -0.303 N 
ATOM     10  H12 UNL     1      18.598   1.755   3.147  1.00  0.00     0.181 HD
ATOM     11  H11 UNL     1      19.322   0.592   2.066  1.00  0.00     0.181 HD
BRANCH   8  12
HETATM   12  O1  UNL     1      17.624   3.169   1.322  1.00  0.00    -0.254 OA
ATOM     13  H1  UNL     1      16.714   3.059   1.575  1.00  0.00     0.248 HD
ENDBRANCH   8  12
ENDBRANCH   4   8
ENDBRANCH   1   2
BRANCH   1  14
HETATM   14  C3  UNL     1      20.037   3.612  -3.629  1.00  0.00     0.272 C 
HETATM   15  N6  UNL     1      20.505   4.508  -4.605  1.00  0.00    -0.059 NA
HETATM   16  O2  UNL     1      20.803   2.813  -3.060  1.00  0.00    -0.273 OA
ENDBRANCH   1  14
BRANCH   1  17
HETATM   17  C4  UNL     1      17.925   2.983  -4.399  1.00  0.00     0.213 C 
HETATM   18  O3  UNL     1      17.684   1.781  -4.462  1.00  0.00    -0.646 OA
HETATM   19  O4  UNL     1      17.599   3.805  -5.442  1.00  0.00    -0.646 OA
ENDBRANCH   1  17
BRANCH   1  20
HETATM   20  C5  UNL     1      18.189   5.010  -3.071  1.00  0.00     0.218 C 
HETATM   21  C6  UNL     1      18.950   5.703  -2.035  1.00  0.00     0.242 C 
HETATM   22  O5  UNL     1      19.834   5.224  -1.288  1.00  0.00    -0.272 OA
HETATM   23  N7  UNL     1      18.661   7.099  -1.841  1.00  0.00    -0.278 N 
HETATM   24  C7  UNL     1      17.393   7.625  -2.211  1.00  0.00     0.329 C 
ATOM     25  H7  UNL     1      19.368   7.713  -1.438  1.00  0.00     0.173 HD
HETATM   26  O6  UNL     1      17.110   8.849  -2.052  1.00  0.00    -0.247 OA
HETATM   27  N8  UNL     1      16.457   6.714  -2.768  1.00  0.00    -0.278 N 
HETATM   28  C8  UNL     1      16.777   5.318  -2.952  1.00  0.00     0.242 C 
ATOM     29  H8  UNL     1      15.536   7.053  -3.045  1.00  0.00     0.173 HD
HETATM   30  O7  UNL     1      15.796   4.561  -2.984  1.00  0.00    -0.272 OA
ENDBRANCH   1  20
TORSDOF 6
ENDMDL
MODEL 3
REMARK VINA RESULT: -6.097080553      1.638      4.823
REMARK  6 active torsions:
REMARK  status: ('A' for Active; 'I' for Inactive)
REMARK    1  A    between atoms: N2_4  and  O1_5 
REMARK    2  A    between atoms: N2_4  and  N3_7 
REMARK       I    between atoms: N3_7  and  C1_9 
REMARK    3  A    between atoms: N5_11  and  C2_13 
REMARK    4  A    between atoms: C2_13  and  C3_14 
REMARK    5  A    between atoms: C2_13  and  C4_17 
REMARK    6  A    between atoms: C2_13  and  C5_20 
ROOT
HETATM    1  C2  UNL     1      22.016   2.725  -4.345  1.00  0.00     0.221 C 
ENDROOT
BRANCH   1   2
HETATM    2  N5  UNL     1      21.441   3.588  -3.446  1.00  0.00    -0.336 N 
HETATM    3  C1  UNL     1      20.476   4.268  -3.147  1.00  0.00     0.207 C 
HETATM    4  N3  UNL     1      20.580   5.004  -1.900  1.00  0.00    -0.232 N 
HETATM    5  N4  UNL     1      19.231   4.490  -3.797  1.00  0.00    -0.062 NA
ATOM      6  H3  UNL     1      20.566   4.479  -1.026  1.00  0.00     0.194 HD
ATOM      7  H5  UNL     1      22.122   3.715  -2.698  1.00  0.00     0.164 HD
BRANCH   4   8
HETATM    8  N2  UNL     1      20.698   6.375  -1.838  1.00  0.00    -0.099 N 
HETATM    9  N1  UNL     1      21.647   7.003  -1.303  1.00  0.00    -0.303 N 
ATOM     10  H12 UNL     1      21.734   8.018  -1.257  1.00  0.00     0.181 HD
ATOM     11  H11 UNL     1      22.388   6.444  -0.881  1.00  0.00     0.181 HD
BRANCH   8  12
HETATM   12  O1  UNL     1      19.692   7.133  -2.410  1.00  0.00    -0.254 OA
ATOM     13  H1  UNL     1      18.972   6.659  -2.810  1.00  0.00     0.248 HD
ENDBRANCH   8  12
ENDBRANCH   4   8
ENDBRANCH   1   2
BRANCH   1  14
HETATM   14  C3  UNL     1      23.504   2.687  -3.991  1.00  0.00     0.272 C 
HETATM   15  N6  UNL     1      24.486   2.266  -4.904  1.00  0.00    -0.059 NA
HETATM   16  O2  UNL     1      23.802   3.053  -2.839  1.00  0.00    -0.273 OA
ENDBRANCH   1  14
BRANCH   1  17
HETATM   17  C4  UNL     1      21.645   1.299  -4.250  1.00  0.00     0.213 C 
HETATM   18  O3  UNL     1      22.358   0.435  -4.752  1.00  0.00    -0.646 OA
HETATM   19  O4  UNL     1      20.496   0.949  -3.598  1.00  0.00    -0.646 OA
ENDBRANCH   1  17
BRANCH   1  20
HETATM   20  C5  UNL     1      22.012   3.152  -5.791  1.00  0.00     0.218 C 
HETATM   21  C6  UNL     1      22.582   4.482  -5.989  1.00  0.00     0.242 C 
HETATM   22  O5  UNL     1      23.041   5.253  -5.116  1.00  0.00    -0.272 OA
HETATM   23  N7  UNL     1      22.627   4.973  -7.341  1.00  0.00    -0.278 N 
HETATM   24  C7  UNL     1      21.715   4.479  -8.313  1.00  0.00     0.329 C 
ATOM     25  H7  UNL     1      23.316   5.678  -7.602  1.00  0.00     0.173 HD
HETATM   26  O6  UNL     1      21.730   4.894  -9.509  1.00  0.00    -0.247 OA
HETATM   27  N8  UNL     1      20.784   3.498  -7.880  1.00  0.00    -0.278 N 
HETATM   28  C8  UNL     1      20.764   3.023  -6.517  1.00  0.00     0.242 C 
ATOM     29  H8  UNL     1      20.112   3.120  -8.548  1.00  0.00     0.173 HD
HETATM   30  O7  UNL     1      19.675   2.564  -6.144  1.00  0.00    -0.272 OA
ENDBRANCH   1  20
TORSDOF 6
ENDMDL
MODEL 4
REMARK VINA RESULT: -6.036740227      1.807      3.405
REMARK  6 active torsions:
REMARK  status: ('A' for Active; 'I' for Inactive)
REMARK    1  A    between atoms: N2_4  and  O1_5 
REMARK    2  A    between atoms: N2_4  and  N3_7 
REMARK       I    between atoms: N3_7  and  C1_9 
REMARK    3  A    between atoms: N5_11  and  C2_13 
REMARK    4  A    between atoms: C2_13  and  C3_14 
REMARK    5  A    between atoms: C2_13  and  C4_17 
REMARK    6  A    between atoms: C2_13  and  C5_20 
ROOT
HETATM    1  C2  UNL     1      21.985   2.757  -5.173  1.00  0.00     0.221 C 
ENDROOT
BRANCH   1   2
HETATM    2  N5  UNL     1      21.801   3.403  -6.369  1.00  0.00    -0.336 N 
HETATM    3  C1  UNL     1      22.082   3.475  -7.552  1.00  0.00     0.207 C 
HETATM    4  N3  UNL     1      21.430   4.538  -8.296  1.00  0.00    -0.232 N 
HETATM    5  N4  UNL     1      22.948   2.701  -8.373  1.00  0.00    -0.062 NA
ATOM      6  H3  UNL     1      20.427   4.462  -8.468  1.00  0.00     0.194 HD
ATOM      7  H5  UNL     1      21.138   4.155  -6.187  1.00  0.00     0.164 HD
BRANCH   4   8
HETATM    8  N2  UNL     1      22.095   5.643  -8.779  1.00  0.00    -0.099 N 
HETATM    9  N1  UNL     1      22.071   6.791  -8.267  1.00  0.00    -0.303 N 
ATOM     10  H12 UNL     1      22.564   7.609  -8.625  1.00  0.00     0.181 HD
ATOM     11  H11 UNL     1      21.509   6.907  -7.424  1.00  0.00     0.181 HD
BRANCH   8  12
HETATM   12  O1  UNL     1      22.856   5.485  -9.923  1.00  0.00    -0.254 OA
ATOM     13  H1  UNL     1      23.780   5.298  -9.802  1.00  0.00     0.248 HD
ENDBRANCH   8  12
ENDBRANCH   4   8
ENDBRANCH   1   2
BRANCH   1  14
HETATM   14  C3  UNL     1      21.110   1.504  -5.239  1.00  0.00     0.272 C 
HETATM   15  N6  UNL     1      20.605   0.874  -4.088  1.00  0.00    -0.059 NA
HETATM   16  O2  UNL     1      20.863   1.067  -6.378  1.00  0.00    -0.273 OA
ENDBRANCH   1  14
BRANCH   1  17
HETATM   17  C4  UNL     1      23.320   2.180  -4.911  1.00  0.00     0.213 C 
HETATM   18  O3  UNL     1      23.443   1.198  -4.184  1.00  0.00    -0.646 OA
HETATM   19  O4  UNL     1      24.420   2.752  -5.486  1.00  0.00    -0.646 OA
ENDBRANCH   1  17
BRANCH   1  20
HETATM   20  C5  UNL     1      21.490   3.463  -3.937  1.00  0.00     0.218 C 
HETATM   21  C6  UNL     1      20.114   3.935  -4.068  1.00  0.00     0.242 C 
HETATM   22  O5  UNL     1      19.358   3.813  -5.059  1.00  0.00    -0.272 OA
HETATM   23  N7  UNL     1      19.551   4.618  -2.934  1.00  0.00    -0.278 N 
HETATM   24  C7  UNL     1      20.400   5.269  -1.997  1.00  0.00     0.329 C 
ATOM     25  H7  UNL     1      18.540   4.635  -2.802  1.00  0.00     0.173 HD
HETATM   26  O6  UNL     1      19.933   5.879  -0.991  1.00  0.00    -0.247 OA
HETATM   27  N8  UNL     1      21.797   5.204  -2.243  1.00  0.00    -0.278 N 
HETATM   28  C8  UNL     1      22.333   4.509  -3.389  1.00  0.00     0.242 C 
ATOM     29  H8  UNL     1      22.438   5.660  -1.594  1.00  0.00     0.173 HD
HETATM   30  O7  UNL     1      23.450   4.900  -3.757  1.00  0.00    -0.272 OA
ENDBRANCH   1  20
TORSDOF 6
ENDMDL
MODEL 5
REMARK VINA RESULT: -5.982423744      2.223      5.063
REMARK  6 active torsions:
REMARK  status: ('A' for Active; 'I' for Inactive)
REMARK    1  A    between atoms: N2_4  and  O1_5 
REMARK    2  A    between atoms: N2_4  and  N3_7 
REMARK       I    between atoms: N3_7  and  C1_9 
REMARK    3  A    between atoms: N5_11  and  C2_13 
REMARK    4  A    between atoms: C2_13  and  C3_14 
REMARK    5  A    between atoms: C2_13  and  C4_17 
REMARK    6  A    between atoms: C2_13  and  C5_20 
ROOT
HETATM    1  C2  UNL     1      21.393   2.516  -5.923  1.00  0.00     0.221 C 
ENDROOT
BRANCH   1   2
HETATM    2  N5  UNL     1      20.855   3.032  -4.770  1.00  0.00    -0.336 N 
HETATM    3  C1  UNL     1      19.876   3.487  -4.206  1.00  0.00     0.207 C 
HETATM    4  N3  UNL     1      20.064   3.870  -2.819  1.00  0.00    -0.232 N 
HETATM    5  N4  UNL     1      18.547   3.724  -4.653  1.00  0.00    -0.062 NA
ATOM      6  H3  UNL     1      20.203   3.133  -2.128  1.00  0.00     0.194 HD
ATOM      7  H5  UNL     1      21.608   3.036  -4.083  1.00  0.00     0.164 HD
BRANCH   4   8
HETATM    8  N2  UNL     1      20.065   5.179  -2.388  1.00  0.00    -0.099 N 
HETATM    9  N1  UNL     1      20.576   5.594  -1.318  1.00  0.00    -0.303 N 
ATOM     10  H12 UNL     1      20.576   6.562  -0.999  1.00  0.00     0.181 HD
ATOM     11  H11 UNL     1      21.025   4.899  -0.722  1.00  0.00     0.181 HD
BRANCH   8  12
HETATM   12  O1  UNL     1      19.454   6.121  -3.196  1.00  0.00    -0.254 OA
ATOM     13  H1  UNL     1      19.537   7.031  -2.933  1.00  0.00     0.248 HD
ENDBRANCH   8  12
ENDBRANCH   4   8
ENDBRANCH   1   2
BRANCH   1  14
HETATM   14  C3  UNL     1      22.810   2.072  -5.558  1.00  0.00     0.272 C 
HETATM   15  N6  UNL     1      23.103   1.392  -4.363  1.00  0.00    -0.059 NA
HETATM   16  O2  UNL     1      23.700   2.344  -6.385  1.00  0.00    -0.273 OA
ENDBRANCH   1  14
BRANCH   1  17
HETATM   17  C4  UNL     1      20.807   1.264  -6.444  1.00  0.00     0.213 C 
HETATM   18  O3  UNL     1      19.927   0.681  -5.818  1.00  0.00    -0.646 OA
HETATM   19  O4  UNL     1      21.258   0.758  -7.631  1.00  0.00    -0.646 OA
ENDBRANCH   1  17
BRANCH   1  20
HETATM   20  C5  UNL     1      21.611   3.481  -7.060  1.00  0.00     0.218 C 
HETATM   21  C6  UNL     1      22.295   4.703  -6.642  1.00  0.00     0.242 C 
HETATM   22  O5  UNL     1      22.687   5.000  -5.490  1.00  0.00    -0.272 OA
HETATM   23  N7  UNL     1      22.553   5.684  -7.662  1.00  0.00    -0.278 N 
HETATM   24  C7  UNL     1      21.745   5.731  -8.831  1.00  0.00     0.329 C 
ATOM     25  H7  UNL     1      23.319   6.347  -7.546  1.00  0.00     0.173 HD
HETATM   26  O6  UNL     1      21.949   6.583  -9.745  1.00  0.00    -0.247 OA
HETATM   27  N8  UNL     1      20.698   4.776  -8.926  1.00  0.00    -0.278 N 
HETATM   28  C8  UNL     1      20.464   3.802  -7.887  1.00  0.00     0.242 C 
ATOM     29  H8  UNL     1      20.096   4.779  -9.750  1.00  0.00     0.173 HD
HETATM   30  O7  UNL     1      19.305   3.365  -7.838  1.00  0.00    -0.272 OA
ENDBRANCH   1  20
TORSDOF 6
ENDMDL
