MODEL 1
REMARK VINA RESULT: -6.664692815      0.000      0.000
REMARK  9 active torsions:
REMARK  status: ('A' for Active; 'I' for Inactive)
REMARK    1  A    between atoms: N1_1  and  C1_4 
REMARK    2  A    between atoms: C2_9  and  C3_10 
REMARK       I    between atoms: C3_10  and  N4_12 
REMARK    3  A    between atoms: N4_12  and  C4_14 
REMARK    4  A    between atoms: C5_21  and  N9_22 
REMARK    5  A    between atoms: N9_22  and  C6_24 
REMARK    6  A    between atoms: C6_24  and  C7_25 
REMARK    7  A    between atoms: C7_25  and  C8_26 
REMARK    8  A    between atoms: C8_26  and  N10_27 
REMARK    9  A    between atoms: N11_31  and  O2_32 
ROOT
HETATM    1  C1  UNL     1      25.088   3.024  -2.769  1.00  0.00     0.707 C 
HETATM    2  N2  UNL     1      24.896   2.306  -3.869  1.00  0.00    -0.130 N 
ATOM      3  H2  UNL     1      25.615   1.611  -4.067  1.00  0.00     0.205 HD
HETATM    4  N3  UNL     1      23.909   2.362  -4.742  1.00  0.00    -0.278 N 
ATOM      5  H3  UNL     1      23.857   1.614  -5.433  1.00  0.00     0.188 HD
HETATM    6  C2  UNL     1      22.951   3.331  -4.803  1.00  0.00     0.165 C 
HETATM    7  C5  UNL     1      22.457   4.151  -3.803  1.00  0.00     0.182 C 
HETATM    8  N11 UNL     1      23.061   4.317  -2.619  1.00  0.00    -0.130 N 
HETATM    9  N12 UNL     1      24.304   3.991  -2.226  1.00  0.00    -0.103 N 
ATOM     10  H12 UNL     1      24.696   4.520  -1.448  1.00  0.00     0.208 HD
ENDROOT
BRANCH   6  11
HETATM   11  C3  UNL     1      22.350   3.545  -6.104  1.00  0.00     0.291 C 
HETATM   12  O1  UNL     1      21.226   3.044  -6.336  1.00  0.00    -0.265 OA
HETATM   13  N4  UNL     1      22.977   4.299  -7.132  1.00  0.00    -0.152 N 
ATOM     14  H4  UNL     1      23.995   4.301  -7.208  1.00  0.00     0.188 HD
BRANCH  13  15
HETATM   15  C4  UNL     1      22.270   4.984  -7.975  1.00  0.00     0.710 A 
HETATM   16  N5  UNL     1      22.601   6.184  -8.484  1.00  0.00    -0.117 N 
HETATM   17  N6  UNL     1      21.614   6.554  -9.311  1.00  0.00     0.006 NA
ATOM     18  H5  UNL     1      23.447   6.714  -8.278  1.00  0.00     0.202 HD
HETATM   19  N7  UNL     1      20.674   5.625  -9.337  1.00  0.00     0.006 NA
HETATM   20  N8  UNL     1      21.082   4.671  -8.519  1.00  0.00    -0.117 N 
ATOM     21  H8  UNL     1      20.565   3.813  -8.327  1.00  0.00     0.202 HD
ENDBRANCH  13  15
ENDBRANCH   6  11
BRANCH   7  22
HETATM   22  N9  UNL     1      21.397   4.726  -4.100  1.00  0.00    -0.371 N 
ATOM     23  H9  UNL     1      21.496   5.277  -4.953  1.00  0.00     0.161 HD
BRANCH  22  24
HETATM   24  C6  UNL     1      20.104   4.819  -3.576  1.00  0.00     0.123 C 
BRANCH  24  25
HETATM   25  C7  UNL     1      19.567   3.413  -3.292  1.00  0.00     0.047 C 
BRANCH  25  26
HETATM   26  C8  UNL     1      18.754   3.434  -1.990  1.00  0.00     0.231 C 
BRANCH  26  27
HETATM   27  N10 UNL     1      19.284   4.420  -1.083  1.00  0.00    -0.079 N 
ATOM     28 3H10 UNL     1      19.856   5.113  -1.567  1.00  0.00     0.274 HD
ATOM     29 2H10 UNL     1      18.558   5.043  -0.731  1.00  0.00     0.274 HD
ATOM     30 1H10 UNL     1      19.795   3.967  -0.326  1.00  0.00     0.274 HD
ENDBRANCH  26  27
ENDBRANCH  25  26
ENDBRANCH  24  25
ENDBRANCH  22  24
ENDBRANCH   7  22
BRANCH   8  31
HETATM   31  O2  UNL     1      22.408   4.847  -1.725  1.00  0.00    -0.266 OA
ATOM     32  H2  UNL     1      22.818   4.920  -0.872  1.00  0.00     0.247 HD
ENDBRANCH   8  31
BRANCH   1  33
HETATM   33  N1  UNL     1      26.192   2.731  -2.153  1.00  0.00    -0.232 N 
ATOM     34  H12 UNL     1      26.972   3.381  -2.250  1.00  0.00     0.174 HD
ATOM     35  H11 UNL     1      26.141   1.856  -1.631  1.00  0.00     0.174 HD
ENDBRANCH   1  33
TORSDOF 9
ENDMDL
MODEL 2
REMARK VINA RESULT: -6.632378969      3.544      5.911
REMARK  9 active torsions:
REMARK  status: ('A' for Active; 'I' for Inactive)
REMARK    1  A    between atoms: N1_1  and  C1_4 
REMARK    2  A    between atoms: C2_9  and  C3_10 
REMARK       I    between atoms: C3_10  and  N4_12 
REMARK    3  A    between atoms: N4_12  and  C4_14 
REMARK    4  A    between atoms: C5_21  and  N9_22 
REMARK    5  A    between atoms: N9_22  and  C6_24 
REMARK    6  A    between atoms: C6_24  and  C7_25 
REMARK    7  A    between atoms: C7_25  and  C8_26 
REMARK    8  A    between atoms: C8_26  and  N10_27 
REMARK    9  A    between atoms: N11_31  and  O2_32 
ROOT
HETATM    1  C1  UNL     1      18.631   7.966  -0.485  1.00  0.00     0.707 C 
HETATM    2  N2  UNL     1      19.954   7.971  -0.588  1.00  0.00    -0.130 N 
ATOM      3  H2  UNL     1      20.405   8.859  -0.368  1.00  0.00     0.205 HD
HETATM    4  N3  UNL     1      20.771   6.994  -0.934  1.00  0.00    -0.278 N 
ATOM      5  H3  UNL     1      21.768   7.151  -0.794  1.00  0.00     0.188 HD
HETATM    6  C2  UNL     1      20.398   5.793  -1.462  1.00  0.00     0.165 C 
HETATM    7  C5  UNL     1      19.207   5.100  -1.333  1.00  0.00     0.182 C 
HETATM    8  N11 UNL     1      18.079   5.652  -0.866  1.00  0.00    -0.130 N 
HETATM    9  N12 UNL     1      17.758   6.944  -0.680  1.00  0.00    -0.103 N 
ATOM     10  H12 UNL     1      16.766   7.178  -0.685  1.00  0.00     0.208 HD
ENDROOT
BRANCH   6  11
HETATM   11  C3  UNL     1      21.390   5.131  -2.285  1.00  0.00     0.291 C 
HETATM   12  O1  UNL     1      21.144   4.958  -3.501  1.00  0.00    -0.265 OA
HETATM   13  N4  UNL     1      22.633   4.666  -1.777  1.00  0.00    -0.152 N 
ATOM     14  H4  UNL     1      22.692   4.332  -0.815  1.00  0.00     0.188 HD
BRANCH  13  15
HETATM   15  C4  UNL     1      23.693   4.661  -2.525  1.00  0.00     0.710 A 
HETATM   16  N5  UNL     1      24.644   3.711  -2.531  1.00  0.00    -0.117 N 
HETATM   17  N6  UNL     1      25.564   4.071  -3.435  1.00  0.00     0.006 NA
ATOM     18  H5  UNL     1      24.662   2.871  -1.953  1.00  0.00     0.202 HD
HETATM   19  N7  UNL     1      25.221   5.219  -3.996  1.00  0.00     0.006 NA
HETATM   20  N8  UNL     1      24.078   5.571  -3.435  1.00  0.00    -0.117 N 
ATOM     21  H8  UNL     1      23.559   6.419  -3.662  1.00  0.00     0.202 HD
ENDBRANCH  13  15
ENDBRANCH   6  11
BRANCH   7  22
HETATM   22  N9  UNL     1      19.273   3.912  -1.690  1.00  0.00    -0.371 N 
ATOM     23  H9  UNL     1      20.129   3.468  -1.357  1.00  0.00     0.161 HD
BRANCH  22  24
HETATM   24  C6  UNL     1      18.486   3.021  -2.425  1.00  0.00     0.123 C 
BRANCH  24  25
HETATM   25  C7  UNL     1      18.611   1.617  -1.826  1.00  0.00     0.047 C 
BRANCH  25  26
HETATM   26  C8  UNL     1      17.743   1.524  -0.563  1.00  0.00     0.231 C 
BRANCH  26  27
HETATM   27  N10 UNL     1      18.574   1.458   0.613  1.00  0.00    -0.079 N 
ATOM     28 3H10 UNL     1      19.005   0.540   0.721  1.00  0.00     0.274 HD
ATOM     29 2H10 UNL     1      19.423   2.013   0.511  1.00  0.00     0.274 HD
ATOM     30 1H10 UNL     1      18.041   1.727   1.439  1.00  0.00     0.274 HD
ENDBRANCH  26  27
ENDBRANCH  25  26
ENDBRANCH  24  25
ENDBRANCH  22  24
ENDBRANCH   7  22
BRANCH   8  31
HETATM   31  O2  UNL     1      17.172   4.890  -0.548  1.00  0.00    -0.266 OA
ATOM     32  H2  UNL     1      16.390   4.895  -1.087  1.00  0.00     0.247 HD
ENDBRANCH   8  31
BRANCH   1  33
HETATM   33  N1  UNL     1      18.139   9.119  -0.152  1.00  0.00    -0.232 N 
ATOM     34  H12 UNL     1      18.780   9.811   0.235  1.00  0.00     0.174 HD
ATOM     35  H11 UNL     1      17.136   9.192  -0.322  1.00  0.00     0.174 HD
ENDBRANCH   1  33
TORSDOF 9
ENDMDL
MODEL 3
REMARK VINA RESULT: -6.509627176      3.215      4.956
REMARK  9 active torsions:
REMARK  status: ('A' for Active; 'I' for Inactive)
REMARK    1  A    between atoms: N1_1  and  C1_4 
REMARK    2  A    between atoms: C2_9  and  C3_10 
REMARK       I    between atoms: C3_10  and  N4_12 
REMARK    3  A    between atoms: N4_12  and  C4_14 
REMARK    4  A    between atoms: C5_21  and  N9_22 
REMARK    5  A    between atoms: N9_22  and  C6_24 
REMARK    6  A    between atoms: C6_24  and  C7_25 
REMARK    7  A    between atoms: C7_25  and  C8_26 
REMARK    8  A    between atoms: C8_26  and  N10_27 
REMARK    9  A    between atoms: N11_31  and  O2_32 
ROOT
HETATM    1  C1  UNL     1      24.406   3.762  -3.170  1.00  0.00     0.707 C 
HETATM    2  N2  UNL     1      23.968   4.962  -2.810  1.00  0.00    -0.130 N 
ATOM      3  H2  UNL     1      24.690   5.625  -2.532  1.00  0.00     0.205 HD
HETATM    4  N3  UNL     1      22.731   5.420  -2.760  1.00  0.00    -0.278 N 
ATOM      5  H3  UNL     1      22.613   6.422  -2.615  1.00  0.00     0.188 HD
HETATM    6  C2  UNL     1      21.598   4.672  -2.886  1.00  0.00     0.165 C 
HETATM    7  C5  UNL     1      21.400   3.467  -3.538  1.00  0.00     0.182 C 
HETATM    8  N11 UNL     1      22.400   2.672  -3.939  1.00  0.00    -0.130 N 
HETATM    9  N12 UNL     1      23.704   2.688  -3.614  1.00  0.00    -0.103 N 
ATOM     10  H12 UNL     1      24.214   1.810  -3.709  1.00  0.00     0.208 HD
ENDROOT
BRANCH   6  11
HETATM   11  C3  UNL     1      20.414   5.208  -2.246  1.00  0.00     0.291 C 
HETATM   12  O1  UNL     1      19.987   4.650  -1.208  1.00  0.00    -0.265 OA
HETATM   13  N4  UNL     1      19.711   6.340  -2.739  1.00  0.00    -0.152 N 
ATOM     14  H4  UNL     1      19.680   6.516  -3.744  1.00  0.00     0.188 HD
BRANCH  13  15
HETATM   15  C4  UNL     1      19.108   7.151  -1.926  1.00  0.00     0.710 A 
HETATM   16  N5  UNL     1      19.639   7.685  -0.813  1.00  0.00    -0.117 N 
HETATM   17  N6  UNL     1      18.703   8.463  -0.255  1.00  0.00     0.006 NA
ATOM     18  H5  UNL     1      20.582   7.526  -0.459  1.00  0.00     0.202 HD
HETATM   19  N7  UNL     1      17.599   8.434  -0.983  1.00  0.00     0.006 NA
HETATM   20  N8  UNL     1      17.855   7.630  -2.001  1.00  0.00    -0.117 N 
ATOM     21  H8  UNL     1      17.192   7.406  -2.742  1.00  0.00     0.202 HD
ENDBRANCH  13  15
ENDBRANCH   6  11
BRANCH   7  22
HETATM   22  N9  UNL     1      20.205   3.183  -3.721  1.00  0.00    -0.371 N 
ATOM     23  H9  UNL     1      19.679   3.983  -4.073  1.00  0.00     0.161 HD
BRANCH  22  24
HETATM   24  C6  UNL     1      19.388   2.058  -3.572  1.00  0.00     0.123 C 
BRANCH  24  25
HETATM   25  C7  UNL     1      18.014   2.492  -3.050  1.00  0.00     0.047 C 
BRANCH  25  26
HETATM   26  C8  UNL     1      17.697   1.728  -1.758  1.00  0.00     0.231 C 
BRANCH  26  27
HETATM   27  N10 UNL     1      18.854   1.694  -0.898  1.00  0.00    -0.079 N 
ATOM     28 3H10 UNL     1      19.635   1.203  -1.332  1.00  0.00     0.274 HD
ATOM     29 2H10 UNL     1      19.285   2.613  -0.806  1.00  0.00     0.274 HD
ATOM     30 1H10 UNL     1      18.610   1.296   0.008  1.00  0.00     0.274 HD
ENDBRANCH  26  27
ENDBRANCH  25  26
ENDBRANCH  24  25
ENDBRANCH  22  24
ENDBRANCH   7  22
BRANCH   8  31
HETATM   31  O2  UNL     1      22.122   1.776  -4.730  1.00  0.00    -0.266 OA
ATOM     32  H2  UNL     1      21.354   1.251  -4.540  1.00  0.00     0.247 HD
ENDBRANCH   8  31
BRANCH   1  33
HETATM   33  N1  UNL     1      25.694   3.636  -3.068  1.00  0.00    -0.232 N 
ATOM     34  H12 UNL     1      26.252   3.812  -3.904  1.00  0.00     0.174 HD
ATOM     35  H11 UNL     1      25.998   3.367  -2.133  1.00  0.00     0.174 HD
ENDBRANCH   1  33
TORSDOF 9
ENDMDL
MODEL 4
REMARK VINA RESULT: -6.503315037      3.333      5.858
REMARK  9 active torsions:
REMARK  status: ('A' for Active; 'I' for Inactive)
REMARK    1  A    between atoms: N1_1  and  C1_4 
REMARK    2  A    between atoms: C2_9  and  C3_10 
REMARK       I    between atoms: C3_10  and  N4_12 
REMARK    3  A    between atoms: N4_12  and  C4_14 
REMARK    4  A    between atoms: C5_21  and  N9_22 
REMARK    5  A    between atoms: N9_22  and  C6_24 
REMARK    6  A    between atoms: C6_24  and  C7_25 
REMARK    7  A    between atoms: C7_25  and  C8_26 
REMARK    8  A    between atoms: C8_26  and  N10_27 
REMARK    9  A    between atoms: N11_31  and  O2_32 
ROOT
HETATM    1  C1  UNL     1      17.959   7.223  -2.218  1.00  0.00     0.707 C 
HETATM    2  N2  UNL     1      19.265   7.423  -2.099  1.00  0.00    -0.130 N 
ATOM      3  H2  UNL     1      19.548   8.395  -1.973  1.00  0.00     0.205 HD
HETATM    4  N3  UNL     1      20.251   6.547  -2.120  1.00  0.00    -0.278 N 
ATOM      5  H3  UNL     1      21.175   6.880  -1.847  1.00  0.00     0.188 HD
HETATM    6  C2  UNL     1      20.144   5.234  -2.474  1.00  0.00     0.165 C 
HETATM    7  C5  UNL     1      19.049   4.389  -2.420  1.00  0.00     0.182 C 
HETATM    8  N11 UNL     1      17.792   4.820  -2.256  1.00  0.00    -0.130 N 
HETATM    9  N12 UNL     1      17.278   6.057  -2.365  1.00  0.00    -0.103 N 
ATOM     10  H12 UNL     1      16.283   6.127  -2.578  1.00  0.00     0.208 HD
ENDROOT
BRANCH   6  11
HETATM   11  C3  UNL     1      21.351   4.617  -2.986  1.00  0.00     0.291 C 
HETATM   12  O1  UNL     1      21.390   4.282  -4.192  1.00  0.00    -0.265 OA
HETATM   13  N4  UNL     1      22.498   4.375  -2.183  1.00  0.00    -0.152 N 
ATOM     14  H4  UNL     1      22.384   4.160  -1.192  1.00  0.00     0.188 HD
BRANCH  13  15
HETATM   15  C4  UNL     1      23.688   4.424  -2.696  1.00  0.00     0.710 A 
HETATM   16  N5  UNL     1      24.158   5.398  -3.494  1.00  0.00    -0.117 N 
HETATM   17  N6  UNL     1      25.421   5.082  -3.810  1.00  0.00     0.006 NA
ATOM     18  H5  UNL     1      23.648   6.225  -3.803  1.00  0.00     0.202 HD
HETATM   19  N7  UNL     1      25.758   3.940  -3.235  1.00  0.00     0.006 NA
HETATM   20  N8  UNL     1      24.695   3.545  -2.557  1.00  0.00    -0.117 N 
ATOM     21  H8  UNL     1      24.645   2.690  -2.004  1.00  0.00     0.202 HD
ENDBRANCH  13  15
ENDBRANCH   6  11
BRANCH   7  22
HETATM   22  N9  UNL     1      19.334   3.186  -2.537  1.00  0.00    -0.371 N 
ATOM     23  H9  UNL     1      20.052   2.904  -1.870  1.00  0.00     0.161 HD
BRANCH  22  24
HETATM   24  C6  UNL     1      18.933   2.114  -3.341  1.00  0.00     0.123 C 
BRANCH  24  25
HETATM   25  C7  UNL     1      19.993   1.010  -3.284  1.00  0.00     0.047 C 
BRANCH  25  26
HETATM   26  C8  UNL     1      20.700   0.914  -4.642  1.00  0.00     0.231 C 
BRANCH  26  27
HETATM   27  N10 UNL     1      22.062   1.373  -4.532  1.00  0.00    -0.079 N 
ATOM     28 3H10 UNL     1      22.132   2.222  -3.972  1.00  0.00     0.274 HD
ATOM     29 2H10 UNL     1      22.625   0.758  -3.945  1.00  0.00     0.274 HD
ATOM     30 1H10 UNL     1      22.472   1.492  -5.458  1.00  0.00     0.274 HD
ENDBRANCH  26  27
ENDBRANCH  25  26
ENDBRANCH  24  25
ENDBRANCH  22  24
ENDBRANCH   7  22
BRANCH   8  31
HETATM   31  O2  UNL     1      16.945   3.983  -1.959  1.00  0.00    -0.266 OA
ATOM     32  H2  UNL     1      16.590   3.454  -2.663  1.00  0.00     0.247 HD
ENDBRANCH   8  31
BRANCH   1  33
HETATM   33  N1  UNL     1      17.268   8.321  -2.187  1.00  0.00    -0.232 N 
ATOM     34  H12 UNL     1      16.362   8.294  -1.720  1.00  0.00     0.174 HD
ATOM     35  H11 UNL     1      17.733   9.102  -2.651  1.00  0.00     0.174 HD
ENDBRANCH   1  33
TORSDOF 9
ENDMDL
MODEL 5
REMARK VINA RESULT: -6.501259765      2.999      5.852
REMARK  9 active torsions:
REMARK  status: ('A' for Active; 'I' for Inactive)
REMARK    1  A    between atoms: N1_1  and  C1_4 
REMARK    2  A    between atoms: C2_9  and  C3_10 
REMARK       I    between atoms: C3_10  and  N4_12 
REMARK    3  A    between atoms: N4_12  and  C4_14 
REMARK    4  A    between atoms: C5_21  and  N9_22 
REMARK    5  A    between atoms: N9_22  and  C6_24 
REMARK    6  A    between atoms: C6_24  and  C7_25 
REMARK    7  A    between atoms: C7_25  and  C8_26 
REMARK    8  A    between atoms: C8_26  and  N10_27 
REMARK    9  A    between atoms: N11_31  and  O2_32 
ROOT
HETATM    1  C1  UNL     1      20.203   0.272  -3.650  1.00  0.00     0.707 C 
HETATM    2  N2  UNL     1      19.564   0.998  -2.741  1.00  0.00    -0.130 N 
ATOM      3  H2  UNL     1      18.828   0.510  -2.231  1.00  0.00     0.205 HD
HETATM    4  N3  UNL     1      19.744   2.260  -2.401  1.00  0.00    -0.278 N 
ATOM      5  H3  UNL     1      19.263   2.589  -1.564  1.00  0.00     0.188 HD
HETATM    6  C2  UNL     1      20.516   3.164  -3.069  1.00  0.00     0.165 C 
HETATM    7  C5  UNL     1      21.616   2.957  -3.885  1.00  0.00     0.182 C 
HETATM    8  N11 UNL     1      21.948   1.761  -4.387  1.00  0.00    -0.130 N 
HETATM    9  N12 UNL     1      21.236   0.623  -4.458  1.00  0.00    -0.103 N 
ATOM     10  H12 UNL     1      21.497  -0.040  -5.188  1.00  0.00     0.208 HD
ENDROOT
BRANCH   6  11
HETATM   11  C3  UNL     1      20.142   4.555  -2.911  1.00  0.00     0.291 C 
HETATM   12  O1  UNL     1      19.371   5.069  -3.754  1.00  0.00    -0.265 OA
HETATM   13  N4  UNL     1      20.608   5.366  -1.842  1.00  0.00    -0.152 N 
ATOM     14  H4  UNL     1      21.537   5.203  -1.453  1.00  0.00     0.188 HD
BRANCH  13  15
HETATM   15  C4  UNL     1      19.864   6.310  -1.354  1.00  0.00     0.710 A 
HETATM   16  N5  UNL     1      20.269   7.561  -1.073  1.00  0.00    -0.117 N 
HETATM   17  N6  UNL     1      19.211   8.225  -0.590  1.00  0.00     0.006 NA
ATOM     18  H5  UNL     1      21.208   7.935  -1.203  1.00  0.00     0.202 HD
HETATM   19  N7  UNL     1      18.154   7.430  -0.558  1.00  0.00     0.006 NA
HETATM   20  N8  UNL     1      18.562   6.264  -1.027  1.00  0.00    -0.117 N 
ATOM     21  H8  UNL     1      17.969   5.440  -1.126  1.00  0.00     0.202 HD
ENDBRANCH  13  15
ENDBRANCH   6  11
BRANCH   7  22
HETATM   22  N9  UNL     1      22.275   3.985  -4.113  1.00  0.00    -0.371 N 
ATOM     23  H9  UNL     1      21.718   4.686  -4.602  1.00  0.00     0.161 HD
BRANCH  22  24
HETATM   24  C6  UNL     1      23.577   4.437  -3.879  1.00  0.00     0.123 C 
BRANCH  24  25
HETATM   25  C7  UNL     1      23.977   4.111  -2.437  1.00  0.00     0.047 C 
BRANCH  25  26
HETATM   26  C8  UNL     1      25.155   3.127  -2.447  1.00  0.00     0.231 C 
BRANCH  26  27
HETATM   27  N10 UNL     1      25.721   3.036  -3.769  1.00  0.00    -0.079 N 
ATOM     28 3H10 UNL     1      26.599   3.550  -3.842  1.00  0.00     0.274 HD
ATOM     29 2H10 UNL     1      26.077   2.101  -3.967  1.00  0.00     0.274 HD
ATOM     30 1H10 UNL     1      25.043   3.339  -4.467  1.00  0.00     0.274 HD
ENDBRANCH  26  27
ENDBRANCH  25  26
ENDBRANCH  24  25
ENDBRANCH  22  24
ENDBRANCH   7  22
BRANCH   8  31
HETATM   31  O2  UNL     1      23.071   1.646  -4.867  1.00  0.00    -0.266 OA
ATOM     32  H2  UNL     1      23.130   1.500  -5.804  1.00  0.00     0.247 HD
ENDBRANCH   8  31
BRANCH   1  33
HETATM   33  N1  UNL     1      19.745  -0.937  -3.753  1.00  0.00    -0.232 N 
ATOM     34  H12 UNL     1      19.365  -1.370  -2.912  1.00  0.00     0.174 HD
ATOM     35  H11 UNL     1      19.826  -1.319  -4.696  1.00  0.00     0.174 HD
ENDBRANCH   1  33
TORSDOF 9
ENDMDL
