MODEL 1
REMARK VINA RESULT: -7.064383748      0.000      0.000
REMARK  4 active torsions:
REMARK  status: ('A' for Active; 'I' for Inactive)
REMARK    1  A    between atoms: N1_1  and  N2_4 
REMARK       I    between atoms: N2_4  and  C1_6 
REMARK       I    between atoms: C1_6  and  N3_8 
REMARK    2  A    between atoms: N3_8  and  C2_10 
REMARK    3  A    between atoms: C2_10  and  C3_11 
REMARK    4  A    between atoms: C3_11  and  N4_12 
ROOT
HETATM    1  C2  UNL     1      22.344   3.996  -4.715  1.00  0.00     0.210 C 
HETATM    2  N6  UNL     1      23.368   2.951  -4.938  1.00  0.00    -0.307 N 
ATOM      3  H6  UNL     1      23.261   2.089  -5.470  1.00  0.00     0.167 HD
HETATM    4  C8  UNL     1      24.533   3.399  -4.256  1.00  0.00     0.312 C 
HETATM    5  O4  UNL     1      25.476   2.736  -3.768  1.00  0.00    -0.262 OA
HETATM    6  C9  UNL     1      24.410   4.861  -4.235  1.00  0.00     0.312 C 
HETATM    7  O5  UNL     1      25.196   5.700  -3.742  1.00  0.00    -0.262 OA
HETATM    8  N7  UNL     1      23.192   5.169  -4.901  1.00  0.00    -0.307 N 
ATOM      9  H7  UNL     1      22.961   6.027  -5.402  1.00  0.00     0.167 HD
ENDROOT
BRANCH   1  10
HETATM   10  N3  UNL     1      21.403   3.824  -5.761  1.00  0.00    -0.296 N 
HETATM   11  C1  UNL     1      21.769   3.960  -7.153  1.00  0.00     0.337 C 
HETATM   12  N2  UNL     1      20.835   3.788  -8.199  1.00  0.00    -0.258 N 
HETATM   13  O1  UNL     1      22.966   4.240  -7.387  1.00  0.00    -0.245 OA
ATOM     14  H2  UNL     1      19.874   3.561  -7.940  1.00  0.00     0.191 HD
ATOM     15  H3  UNL     1      20.438   3.596  -5.525  1.00  0.00     0.168 HD
BRANCH  12  16
HETATM   16  N1  UNL     1      21.119   3.905  -9.537  1.00  0.00    -0.341 N 
ATOM     17  H12 UNL     1      21.932   4.472  -9.780  1.00  0.00     0.177 HD
ATOM     18  H11 UNL     1      20.585   3.471 -10.290  1.00  0.00     0.177 HD
ENDBRANCH  12  16
ENDBRANCH   1  10
BRANCH   1  19
HETATM   19  C3  UNL     1      21.840   3.835  -3.359  1.00  0.00     0.211 C 
BRANCH  19  20
HETATM   20  N4  UNL     1      21.261   4.917  -2.654  1.00  0.00    -0.304 N 
HETATM   21  C4  UNL     1      21.936   5.627  -1.711  1.00  0.00     0.101 A 
HETATM   22  C5  UNL     1      21.371   6.684  -1.077  1.00  0.00     0.092 A 
HETATM   23  C6  UNL     1      20.083   7.092  -1.359  1.00  0.00     0.250 A 
HETATM   24  O2  UNL     1      19.576   8.076  -0.761  1.00  0.00    -0.268 OA
HETATM   25  N5  UNL     1      19.440   6.379  -2.290  1.00  0.00    -0.275 N 
HETATM   26  C7  UNL     1      20.014   5.314  -2.926  1.00  0.00     0.329 A 
ATOM     27  H5  UNL     1      18.484   6.641  -2.535  1.00  0.00     0.173 HD
HETATM   28  O3  UNL     1      19.253   4.761  -3.768  1.00  0.00    -0.246 OA
ENDBRANCH  19  20
ENDBRANCH   1  19
TORSDOF 4
ENDMDL
MODEL 2
REMARK VINA RESULT: -6.812401517      3.315      5.687
REMARK  4 active torsions:
REMARK  status: ('A' for Active; 'I' for Inactive)
REMARK    1  A    between atoms: N1_1  and  N2_4 
REMARK       I    between atoms: N2_4  and  C1_6 
REMARK       I    between atoms: C1_6  and  N3_8 
REMARK    2  A    between atoms: N3_8  and  C2_10 
REMARK    3  A    between atoms: C2_10  and  C3_11 
REMARK    4  A    between atoms: C3_11  and  N4_12 
ROOT
HETATM    1  C2  UNL     1      22.322   3.004  -5.379  1.00  0.00     0.210 C 
HETATM    2  N6  UNL     1      22.432   4.475  -5.496  1.00  0.00    -0.307 N 
ATOM      3  H6  UNL     1      22.634   5.138  -4.748  1.00  0.00     0.167 HD
HETATM    4  C8  UNL     1      22.200   4.774  -6.866  1.00  0.00     0.312 C 
HETATM    5  O4  UNL     1      21.753   5.819  -7.390  1.00  0.00    -0.262 OA
HETATM    6  C9  UNL     1      22.606   3.559  -7.583  1.00  0.00     0.312 C 
HETATM    7  O5  UNL     1      22.584   3.340  -8.814  1.00  0.00    -0.262 OA
HETATM    8  N7  UNL     1      23.045   2.639  -6.592  1.00  0.00    -0.307 N 
ATOM      9  H7  UNL     1      23.723   1.884  -6.706  1.00  0.00     0.167 HD
ENDROOT
BRANCH   1  10
HETATM   10  N3  UNL     1      23.026   2.671  -4.195  1.00  0.00    -0.296 N 
HETATM   11  C1  UNL     1      24.436   2.946  -4.038  1.00  0.00     0.337 C 
HETATM   12  N2  UNL     1      25.142   2.616  -2.859  1.00  0.00    -0.258 N 
HETATM   13  O1  UNL     1      25.006   3.495  -5.006  1.00  0.00    -0.245 OA
ATOM     14  H2  UNL     1      24.619   2.169  -2.106  1.00  0.00     0.191 HD
ATOM     15  H3  UNL     1      22.522   2.223  -3.430  1.00  0.00     0.168 HD
BRANCH  12  16
HETATM   16  N1  UNL     1      26.479   2.850  -2.649  1.00  0.00    -0.341 N 
ATOM     17  H12 UNL     1      26.952   3.430  -3.342  1.00  0.00     0.177 HD
ATOM     18  H11 UNL     1      27.021   2.490  -1.864  1.00  0.00     0.177 HD
ENDBRANCH  12  16
ENDBRANCH   1  10
BRANCH   1  19
HETATM   19  C3  UNL     1      20.906   2.666  -5.406  1.00  0.00     0.211 C 
BRANCH  19  20
HETATM   20  N4  UNL     1      20.438   1.414  -4.943  1.00  0.00    -0.304 N 
HETATM   21  C4  UNL     1      20.410   0.302  -5.726  1.00  0.00     0.101 A 
HETATM   22  C5  UNL     1      19.993  -0.894  -5.247  1.00  0.00     0.092 A 
HETATM   23  C6  UNL     1      19.576  -1.045  -3.940  1.00  0.00     0.250 A 
HETATM   24  O2  UNL     1      19.193  -2.165  -3.512  1.00  0.00    -0.268 OA
HETATM   25  N5  UNL     1      19.614   0.061  -3.188  1.00  0.00    -0.275 N 
HETATM   26  C7  UNL     1      20.035   1.266  -3.677  1.00  0.00     0.329 A 
ATOM     27  H5  UNL     1      19.316   0.003  -2.214  1.00  0.00     0.173 HD
HETATM   28  O3  UNL     1      19.994   2.196  -2.824  1.00  0.00    -0.246 OA
ENDBRANCH  19  20
ENDBRANCH   1  19
TORSDOF 4
ENDMDL
MODEL 3
REMARK VINA RESULT: -6.673260310      3.282      5.881
REMARK  4 active torsions:
REMARK  status: ('A' for Active; 'I' for Inactive)
REMARK    1  A    between atoms: N1_1  and  N2_4 
REMARK       I    between atoms: N2_4  and  C1_6 
REMARK       I    between atoms: C1_6  and  N3_8 
REMARK    2  A    between atoms: N3_8  and  C2_10 
REMARK    3  A    between atoms: C2_10  and  C3_11 
REMARK    4  A    between atoms: C3_11  and  N4_12 
ROOT
HETATM    1  C2  UNL     1      20.041   2.776  -4.120  1.00  0.00     0.210 C 
HETATM    2  N6  UNL     1      20.119   1.416  -4.698  1.00  0.00    -0.307 N 
ATOM      3  H6  UNL     1      20.421   0.564  -4.226  1.00  0.00     0.167 HD
HETATM    4  C8  UNL     1      19.687   1.542  -6.047  1.00  0.00     0.312 C 
HETATM    5  O4  UNL     1      19.973   0.843  -7.045  1.00  0.00    -0.262 OA
HETATM    6  C9  UNL     1      18.795   2.708  -6.041  1.00  0.00     0.312 C 
HETATM    7  O5  UNL     1      18.170   3.212  -7.000  1.00  0.00    -0.262 OA
HETATM    8  N7  UNL     1      18.765   3.181  -4.701  1.00  0.00    -0.307 N 
ATOM      9  H7  UNL     1      18.012   3.695  -4.242  1.00  0.00     0.167 HD
ENDROOT
BRANCH   1  10
HETATM   10  N3  UNL     1      19.973   2.581  -2.718  1.00  0.00    -0.296 N 
HETATM   11  C1  UNL     1      18.899   1.838  -2.098  1.00  0.00     0.337 C 
HETATM   12  N2  UNL     1      18.827   1.641  -0.700  1.00  0.00    -0.258 N 
HETATM   13  O1  UNL     1      18.029   1.374  -2.867  1.00  0.00    -0.245 OA
ATOM     14  H2  UNL     1      19.569   2.046  -0.129  1.00  0.00     0.191 HD
ATOM     15  H3  UNL     1      20.704   2.978  -2.127  1.00  0.00     0.168 HD
BRANCH  12  16
HETATM   16  N1  UNL     1      17.835   0.947  -0.052  1.00  0.00    -0.341 N 
ATOM     17  H12 UNL     1      17.853   0.976   0.967  1.00  0.00     0.177 HD
ATOM     18  H11 UNL     1      17.096   0.415  -0.511  1.00  0.00     0.177 HD
ENDBRANCH  12  16
ENDBRANCH   1  10
BRANCH   1  19
HETATM   19  C3  UNL     1      21.186   3.529  -4.613  1.00  0.00     0.211 C 
BRANCH  19  20
HETATM   20  N4  UNL     1      22.443   3.466  -3.966  1.00  0.00    -0.304 N 
HETATM   21  C4  UNL     1      22.853   4.394  -3.060  1.00  0.00     0.101 A 
HETATM   22  C5  UNL     1      24.046   4.290  -2.427  1.00  0.00     0.092 A 
HETATM   23  C6  UNL     1      24.904   3.237  -2.670  1.00  0.00     0.250 A 
HETATM   24  O2  UNL     1      26.009   3.157  -2.071  1.00  0.00    -0.268 OA
HETATM   25  N5  UNL     1      24.480   2.337  -3.565  1.00  0.00    -0.275 N 
HETATM   26  C7  UNL     1      23.276   2.447  -4.201  1.00  0.00     0.329 A 
ATOM     27  H5  UNL     1      25.078   1.539  -3.780  1.00  0.00     0.173 HD
HETATM   28  O3  UNL     1      23.050   1.509  -5.015  1.00  0.00    -0.246 OA
ENDBRANCH  19  20
ENDBRANCH   1  19
TORSDOF 4
ENDMDL
MODEL 4
REMARK VINA RESULT: -6.614610608      1.812      3.822
REMARK  4 active torsions:
REMARK  status: ('A' for Active; 'I' for Inactive)
REMARK    1  A    between atoms: N1_1  and  N2_4 
REMARK       I    between atoms: N2_4  and  C1_6 
REMARK       I    between atoms: C1_6  and  N3_8 
REMARK    2  A    between atoms: N3_8  and  C2_10 
REMARK    3  A    between atoms: C2_10  and  C3_11 
REMARK    4  A    between atoms: C3_11  and  N4_12 
ROOT
HETATM    1  C2  UNL     1      22.007   3.706  -3.925  1.00  0.00     0.210 C 
HETATM    2  N6  UNL     1      22.520   4.659  -4.934  1.00  0.00    -0.307 N 
ATOM      3  H6  UNL     1      23.221   5.385  -4.794  1.00  0.00     0.167 HD
HETATM    4  C8  UNL     1      21.833   4.352  -6.141  1.00  0.00     0.312 C 
HETATM    5  O4  UNL     1      21.565   5.089  -7.116  1.00  0.00    -0.262 OA
HETATM    6  C9  UNL     1      21.484   2.931  -6.016  1.00  0.00     0.312 C 
HETATM    7  O5  UNL     1      20.870   2.208  -6.831  1.00  0.00    -0.262 OA
HETATM    8  N7  UNL     1      21.985   2.507  -4.755  1.00  0.00    -0.307 N 
ATOM      9  H7  UNL     1      22.270   1.564  -4.488  1.00  0.00     0.167 HD
ENDROOT
BRANCH   1  10
HETATM   10  N3  UNL     1      23.003   3.661  -2.917  1.00  0.00    -0.296 N 
HETATM   11  C1  UNL     1      24.350   3.212  -3.187  1.00  0.00     0.337 C 
HETATM   12  N2  UNL     1      25.345   3.166  -2.185  1.00  0.00    -0.258 N 
HETATM   13  O1  UNL     1      24.593   2.862  -4.364  1.00  0.00    -0.245 OA
ATOM     14  H2  UNL     1      25.082   3.465  -1.246  1.00  0.00     0.191 HD
ATOM     15  H3  UNL     1      22.761   3.955  -1.970  1.00  0.00     0.168 HD
BRANCH  12  16
HETATM   16  N1  UNL     1      26.640   2.750  -2.378  1.00  0.00    -0.341 N 
ATOM     17  H12 UNL     1      27.371   3.425  -2.156  1.00  0.00     0.177 HD
ATOM     18  H11 UNL     1      26.914   1.829  -2.722  1.00  0.00     0.177 HD
ENDBRANCH  12  16
ENDBRANCH   1  10
BRANCH   1  19
HETATM   19  C3  UNL     1      20.690   4.169  -3.513  1.00  0.00     0.211 C 
BRANCH  19  20
HETATM   20  N4  UNL     1      20.538   5.259  -2.622  1.00  0.00    -0.304 N 
HETATM   21  C4  UNL     1      21.518   5.653  -1.766  1.00  0.00     0.101 A 
HETATM   22  C5  UNL     1      21.360   6.724  -0.950  1.00  0.00     0.092 A 
HETATM   23  C6  UNL     1      20.197   7.466  -0.948  1.00  0.00     0.250 A 
HETATM   24  O2  UNL     1      20.069   8.458  -0.184  1.00  0.00    -0.268 OA
HETATM   25  N5  UNL     1      19.248   7.060  -1.798  1.00  0.00    -0.275 N 
HETATM   26  C7  UNL     1      19.412   5.979  -2.619  1.00  0.00     0.329 A 
ATOM     27  H5  UNL     1      18.368   7.576  -1.835  1.00  0.00     0.173 HD
HETATM   28  O3  UNL     1      18.407   5.742  -3.346  1.00  0.00    -0.246 OA
ENDBRANCH  19  20
ENDBRANCH   1  19
TORSDOF 4
ENDMDL
MODEL 5
REMARK VINA RESULT: -6.580099283      2.198      5.990
REMARK  4 active torsions:
REMARK  status: ('A' for Active; 'I' for Inactive)
REMARK    1  A    between atoms: N1_1  and  N2_4 
REMARK       I    between atoms: N2_4  and  C1_6 
REMARK       I    between atoms: C1_6  and  N3_8 
REMARK    2  A    between atoms: N3_8  and  C2_10 
REMARK    3  A    between atoms: C2_10  and  C3_11 
REMARK    4  A    between atoms: C3_11  and  N4_12 
ROOT
HETATM    1  C2  UNL     1      22.015   3.337  -4.680  1.00  0.00     0.210 C 
HETATM    2  N6  UNL     1      21.442   2.386  -3.702  1.00  0.00    -0.307 N 
ATOM      3  H6  UNL     1      21.860   1.518  -3.371  1.00  0.00     0.167 HD
HETATM    4  C8  UNL     1      20.187   2.935  -3.319  1.00  0.00     0.312 C 
HETATM    5  O4  UNL     1      19.159   2.357  -2.899  1.00  0.00    -0.262 OA
HETATM    6  C9  UNL     1      20.339   4.381  -3.520  1.00  0.00     0.312 C 
HETATM    7  O5  UNL     1      19.498   5.285  -3.319  1.00  0.00    -0.262 OA
HETATM    8  N7  UNL     1      21.661   4.580  -4.003  1.00  0.00    -0.307 N 
ATOM      9  H7  UNL     1      22.239   5.414  -3.898  1.00  0.00     0.167 HD
ENDROOT
BRANCH   1  10
HETATM   10  N3  UNL     1      23.410   3.083  -4.672  1.00  0.00    -0.296 N 
HETATM   11  C1  UNL     1      24.215   3.254  -3.485  1.00  0.00     0.337 C 
HETATM   12  N2  UNL     1      25.605   3.001  -3.472  1.00  0.00    -0.258 N 
HETATM   13  O1  UNL     1      23.614   3.642  -2.458  1.00  0.00    -0.245 OA
ATOM     14  H2  UNL     1      26.035   2.687  -4.343  1.00  0.00     0.191 HD
ATOM     15  H3  UNL     1      23.860   2.769  -5.532  1.00  0.00     0.168 HD
BRANCH  12  16
HETATM   16  N1  UNL     1      26.423   3.146  -2.378  1.00  0.00    -0.341 N 
ATOM     17  H12 UNL     1      26.474   2.350  -1.742  1.00  0.00     0.177 HD
ATOM     18  H11 UNL     1      26.972   3.978  -2.163  1.00  0.00     0.177 HD
ENDBRANCH  12  16
ENDBRANCH   1  10
BRANCH   1  19
HETATM   19  C3  UNL     1      21.328   3.132  -5.947  1.00  0.00     0.211 C 
BRANCH  19  20
HETATM   20  N4  UNL     1      21.796   3.726  -7.143  1.00  0.00    -0.304 N 
HETATM   21  C4  UNL     1      21.888   5.073  -7.310  1.00  0.00     0.101 A 
HETATM   22  C5  UNL     1      22.375   5.616  -8.452  1.00  0.00     0.092 A 
HETATM   23  C6  UNL     1      22.801   4.829  -9.503  1.00  0.00     0.250 A 
HETATM   24  O2  UNL     1      23.251   5.351 -10.556  1.00  0.00    -0.268 OA
HETATM   25  N5  UNL     1      22.700   3.508  -9.316  1.00  0.00    -0.275 N 
HETATM   26  C7  UNL     1      22.208   2.966  -8.163  1.00  0.00     0.329 A 
ATOM     27  H5  UNL     1      23.002   2.882 -10.063  1.00  0.00     0.173 HD
HETATM   28  O3  UNL     1      22.183   1.703  -8.171  1.00  0.00    -0.246 OA
ENDBRANCH  19  20
ENDBRANCH   1  19
TORSDOF 4
ENDMDL
