MODEL 1
REMARK VINA RESULT: -6.550634771      0.000      0.000
REMARK  6 active torsions:
REMARK  status: ('A' for Active; 'I' for Inactive)
REMARK    1  A    between atoms: N1_1  and  N2_4 
REMARK       I    between atoms: N2_4  and  C1_6 
REMARK    2  A    between atoms: N4_8  and  N5_10 
REMARK       I    between atoms: C2_12  and  N6_13 
REMARK       I    between atoms: C2_12  and  N8_19 
REMARK    3  A    between atoms: N6_13  and  N7_15 
REMARK    4  A    between atoms: N7_15  and  C3_17 
REMARK    5  A    between atoms: C4_20  and  O2_21 
REMARK    6  A    between atoms: C8_27  and  C9_28 
ROOT
HETATM    1  N5  UNL     1      21.840   4.310  -2.770  1.00  0.00    -0.128 N 
ATOM      2  H5  UNL     1      21.432   3.601  -2.162  1.00  0.00     0.205 HD
HETATM    3  C2  UNL     1      22.122   3.977  -3.985  1.00  0.00     0.720 C 
HETATM    4  N6  UNL     1      22.695   4.921  -4.890  1.00  0.00    -0.128 N 
ATOM      5  H6  UNL     1      22.278   5.850  -4.952  1.00  0.00     0.205 HD
HETATM    6  N8  UNL     1      21.838   2.632  -4.350  1.00  0.00    -0.119 N 
HETATM    7  C4  UNL     1      22.757   1.655  -4.105  1.00  0.00     0.167 A 
HETATM    8  C5  UNL     1      22.581   0.343  -4.420  1.00  0.00     0.111 A 
HETATM    9  C6  UNL     1      21.399  -0.030  -5.025  1.00  0.00     0.178 A 
HETATM   10  O3  UNL     1      21.165  -1.239  -5.348  1.00  0.00    -0.288 OA
HETATM   11  C7  UNL     1      20.479   0.956  -5.268  1.00  0.00     0.090 A 
HETATM   12  C8  UNL     1      20.677   2.300  -4.939  1.00  0.00     0.128 A 
ENDROOT
BRANCH   1  13
HETATM   13  N4  UNL     1      22.058   5.572  -2.243  1.00  0.00    -0.258 N 
HETATM   14  C1  UNL     1      21.165   6.045  -1.442  1.00  0.00     0.222 C 
HETATM   15  N2  UNL     1      19.995   5.329  -1.090  1.00  0.00    -0.279 N 
HETATM   16  N3  UNL     1      21.391   7.334  -0.903  1.00  0.00    -0.061 NA
ATOM     17  H2  UNL     1      20.061   4.669  -0.315  1.00  0.00     0.189 HD
ATOM     18  H4  UNL     1      22.894   6.108  -2.480  1.00  0.00     0.190 HD
BRANCH  15  19
HETATM   19  N1  UNL     1      18.761   5.456  -1.721  1.00  0.00    -0.343 N 
ATOM     20  H12 UNL     1      18.744   5.274  -2.725  1.00  0.00     0.176 HD
ATOM     21  H11 UNL     1      17.891   5.715  -1.257  1.00  0.00     0.176 HD
ENDBRANCH  15  19
ENDBRANCH   1  13
BRANCH   4  22
HETATM   22  N7  UNL     1      23.792   4.633  -5.690  1.00  0.00    -0.263 N 
ATOM     23  H7  UNL     1      23.666   4.518  -6.696  1.00  0.00     0.190 HD
BRANCH  22  24
HETATM   24  C3  UNL     1      25.092   4.495  -5.126  1.00  0.00     0.369 C 
HETATM   25  O1  UNL     1      25.353   4.895  -3.962  1.00  0.00    -0.282 OA
ENDBRANCH  22  24
ENDBRANCH   4  22
BRANCH   7  26
HETATM   26  O2  UNL     1      23.932   2.039  -3.501  1.00  0.00    -0.345 OA
ATOM     27  H2  UNL     1      24.407   1.374  -3.015  1.00  0.00     0.219 HD
ENDBRANCH   7  26
BRANCH  12  28
HETATM   28  C9  UNL     1      19.631   3.253  -5.236  1.00  0.00     0.282 C 
HETATM   29  N9  UNL     1      19.014   3.978  -4.191  1.00  0.00    -0.056 NA
HETATM   30  O4  UNL     1      19.254   3.453  -6.407  1.00  0.00    -0.269 OA
ENDBRANCH  12  28
TORSDOF 6
ENDMDL
MODEL 2
REMARK VINA RESULT: -6.495699994      1.221      1.542
REMARK  6 active torsions:
REMARK  status: ('A' for Active; 'I' for Inactive)
REMARK    1  A    between atoms: N1_1  and  N2_4 
REMARK       I    between atoms: N2_4  and  C1_6 
REMARK    2  A    between atoms: N4_8  and  N5_10 
REMARK       I    between atoms: C2_12  and  N6_13 
REMARK       I    between atoms: C2_12  and  N8_19 
REMARK    3  A    between atoms: N6_13  and  N7_15 
REMARK    4  A    between atoms: N7_15  and  C3_17 
REMARK    5  A    between atoms: C4_20  and  O2_21 
REMARK    6  A    between atoms: C8_27  and  C9_28 
ROOT
HETATM    1  N5  UNL     1      22.074   4.126  -2.524  1.00  0.00    -0.128 N 
ATOM      2  H5  UNL     1      21.961   3.351  -1.871  1.00  0.00     0.205 HD
HETATM    3  C2  UNL     1      21.933   3.882  -3.783  1.00  0.00     0.720 C 
HETATM    4  N6  UNL     1      22.077   4.922  -4.752  1.00  0.00    -0.128 N 
ATOM      5  H6  UNL     1      21.597   5.808  -4.589  1.00  0.00     0.205 HD
HETATM    6  N8  UNL     1      21.639   2.536  -4.135  1.00  0.00    -0.119 N 
HETATM    7  C4  UNL     1      22.655   1.644  -4.304  1.00  0.00     0.167 A 
HETATM    8  C5  UNL     1      22.478   0.338  -4.643  1.00  0.00     0.111 A 
HETATM    9  C6  UNL     1      21.190  -0.119  -4.828  1.00  0.00     0.178 A 
HETATM   10  O3  UNL     1      20.947  -1.328  -5.145  1.00  0.00    -0.288 OA
HETATM   11  C7  UNL     1      20.172   0.782  -4.656  1.00  0.00     0.090 A 
HETATM   12  C8  UNL     1      20.373   2.121  -4.308  1.00  0.00     0.128 A 
ENDROOT
BRANCH   1  13
HETATM   13  N4  UNL     1      22.369   5.376  -2.005  1.00  0.00    -0.258 N 
HETATM   14  C1  UNL     1      21.407   6.034  -1.454  1.00  0.00     0.222 C 
HETATM   15  N2  UNL     1      20.087   5.529  -1.362  1.00  0.00    -0.279 N 
HETATM   16  N3  UNL     1      21.711   7.310  -0.923  1.00  0.00    -0.061 NA
ATOM     17  H2  UNL     1      19.868   4.924  -0.570  1.00  0.00     0.189 HD
ATOM     18  H4  UNL     1      23.312   5.761  -2.058  1.00  0.00     0.190 HD
BRANCH  15  19
HETATM   19  N1  UNL     1      19.066   5.794  -2.270  1.00  0.00    -0.343 N 
ATOM     20  H12 UNL     1      18.896   5.084  -2.982  1.00  0.00     0.176 HD
ATOM     21  H11 UNL     1      18.488   6.635  -2.271  1.00  0.00     0.176 HD
ENDBRANCH  15  19
ENDBRANCH   1  13
BRANCH   4  22
HETATM   22  N7  UNL     1      22.839   4.783  -5.904  1.00  0.00    -0.263 N 
ATOM     23  H7  UNL     1      23.855   4.850  -5.846  1.00  0.00     0.190 HD
BRANCH  22  24
HETATM   24  C3  UNL     1      22.222   4.547  -7.165  1.00  0.00     0.369 C 
HETATM   25  O1  UNL     1      21.574   5.446  -7.762  1.00  0.00    -0.282 OA
ENDBRANCH  22  24
ENDBRANCH   4  22
BRANCH   7  26
HETATM   26  O2  UNL     1      23.936   2.111  -4.116  1.00  0.00    -0.345 OA
ATOM     27  H2  UNL     1      24.639   1.623  -4.529  1.00  0.00     0.219 HD
ENDBRANCH   7  26
BRANCH  12  28
HETATM   28  C9  UNL     1      19.221   2.981  -4.145  1.00  0.00     0.282 C 
HETATM   29  N9  UNL     1      18.457   2.925  -2.958  1.00  0.00    -0.056 NA
HETATM   30  O4  UNL     1      18.882   3.780  -5.040  1.00  0.00    -0.269 OA
ENDBRANCH  12  28
TORSDOF 6
ENDMDL
MODEL 3
REMARK VINA RESULT: -6.450876637      2.558      4.481
REMARK  6 active torsions:
REMARK  status: ('A' for Active; 'I' for Inactive)
REMARK    1  A    between atoms: N1_1  and  N2_4 
REMARK       I    between atoms: N2_4  and  C1_6 
REMARK    2  A    between atoms: N4_8  and  N5_10 
REMARK       I    between atoms: C2_12  and  N6_13 
REMARK       I    between atoms: C2_12  and  N8_19 
REMARK    3  A    between atoms: N6_13  and  N7_15 
REMARK    4  A    between atoms: N7_15  and  C3_17 
REMARK    5  A    between atoms: C4_20  and  O2_21 
REMARK    6  A    between atoms: C8_27  and  C9_28 
ROOT
HETATM    1  N5  UNL     1      19.666   5.648  -3.242  1.00  0.00    -0.128 N 
ATOM      2  H5  UNL     1      19.949   6.205  -4.047  1.00  0.00     0.205 HD
HETATM    3  C2  UNL     1      20.098   4.434  -3.162  1.00  0.00     0.720 C 
HETATM    4  N6  UNL     1      19.739   3.600  -2.060  1.00  0.00    -0.128 N 
ATOM      5  H6  UNL     1      19.816   3.980  -1.117  1.00  0.00     0.205 HD
HETATM    6  N8  UNL     1      20.931   3.992  -4.227  1.00  0.00    -0.119 N 
HETATM    7  C4  UNL     1      20.368   3.481  -5.358  1.00  0.00     0.167 A 
HETATM    8  C5  UNL     1      21.077   3.029  -6.428  1.00  0.00     0.111 A 
HETATM    9  C6  UNL     1      22.454   3.089  -6.370  1.00  0.00     0.178 A 
HETATM   10  O3  UNL     1      23.182   2.685  -7.333  1.00  0.00    -0.288 OA
HETATM   11  C7  UNL     1      23.013   3.604  -5.231  1.00  0.00     0.090 A 
HETATM   12  C8  UNL     1      22.269   4.064  -4.141  1.00  0.00     0.128 A 
ENDROOT
BRANCH   1  13
HETATM   13  N4  UNL     1      18.839   6.239  -2.300  1.00  0.00    -0.258 N 
HETATM   14  C1  UNL     1      19.327   7.213  -1.609  1.00  0.00     0.222 C 
HETATM   15  N2  UNL     1      20.650   7.687  -1.780  1.00  0.00    -0.279 N 
HETATM   16  N3  UNL     1      18.480   7.817  -0.649  1.00  0.00    -0.061 NA
ATOM     17  H2  UNL     1      20.811   8.382  -2.509  1.00  0.00     0.189 HD
ATOM     18  H4  UNL     1      17.882   5.916  -2.159  1.00  0.00     0.190 HD
BRANCH  15  19
HETATM   19  N1  UNL     1      21.748   7.278  -1.028  1.00  0.00    -0.343 N 
ATOM     20  H12 UNL     1      21.572   7.070  -0.045  1.00  0.00     0.176 HD
ATOM     21  H11 UNL     1      22.697   7.175  -1.386  1.00  0.00     0.176 HD
ENDBRANCH  15  19
ENDBRANCH   1  13
BRANCH   4  22
HETATM   22  N7  UNL     1      19.290   2.295  -2.215  1.00  0.00    -0.263 N 
ATOM     23  H7  UNL     1      19.579   1.756  -3.032  1.00  0.00     0.190 HD
BRANCH  22  24
HETATM   24  C3  UNL     1      18.432   1.698  -1.248  1.00  0.00     0.369 C 
HETATM   25  O1  UNL     1      18.603   1.875  -0.014  1.00  0.00    -0.282 OA
ENDBRANCH  22  24
ENDBRANCH   4  22
BRANCH   7  26
HETATM   26  O2  UNL     1      18.994   3.426  -5.404  1.00  0.00    -0.345 OA
ATOM     27  H2  UNL     1      18.592   3.341  -6.261  1.00  0.00     0.219 HD
ENDBRANCH   7  26
BRANCH  12  28
HETATM   28  C9  UNL     1      22.968   4.596  -2.992  1.00  0.00     0.282 C 
HETATM   29  N9  UNL     1      24.318   4.999  -3.106  1.00  0.00    -0.056 NA
HETATM   30  O4  UNL     1      22.401   4.708  -1.888  1.00  0.00    -0.269 OA
ENDBRANCH  12  28
TORSDOF 6
ENDMDL
MODEL 4
REMARK VINA RESULT: -6.364948262      2.768      4.649
REMARK  6 active torsions:
REMARK  status: ('A' for Active; 'I' for Inactive)
REMARK    1  A    between atoms: N1_1  and  N2_4 
REMARK       I    between atoms: N2_4  and  C1_6 
REMARK    2  A    between atoms: N4_8  and  N5_10 
REMARK       I    between atoms: C2_12  and  N6_13 
REMARK       I    between atoms: C2_12  and  N8_19 
REMARK    3  A    between atoms: N6_13  and  N7_15 
REMARK    4  A    between atoms: N7_15  and  C3_17 
REMARK    5  A    between atoms: C4_20  and  O2_21 
REMARK    6  A    between atoms: C8_27  and  C9_28 
ROOT
HETATM    1  N5  UNL     1      22.052   5.132  -6.594  1.00  0.00    -0.128 N 
ATOM      2  H5  UNL     1      21.328   5.801  -6.333  1.00  0.00     0.205 HD
HETATM    3  C2  UNL     1      22.192   4.075  -5.867  1.00  0.00     0.720 C 
HETATM    4  N6  UNL     1      23.186   3.098  -6.178  1.00  0.00    -0.128 N 
ATOM      5  H6  UNL     1      23.268   2.778  -7.143  1.00  0.00     0.205 HD
HETATM    6  N8  UNL     1      21.314   3.956  -4.755  1.00  0.00    -0.119 N 
HETATM    7  C4  UNL     1      21.641   4.544  -3.569  1.00  0.00     0.167 A 
HETATM    8  C5  UNL     1      20.871   4.485  -2.449  1.00  0.00     0.111 A 
HETATM    9  C6  UNL     1      19.682   3.788  -2.509  1.00  0.00     0.178 A 
HETATM   10  O3  UNL     1      18.911   3.690  -1.501  1.00  0.00    -0.288 OA
HETATM   11  C7  UNL     1      19.359   3.200  -3.704  1.00  0.00     0.090 A 
HETATM   12  C8  UNL     1      20.162   3.270  -4.846  1.00  0.00     0.128 A 
ENDROOT
BRANCH   1  13
HETATM   13  N4  UNL     1      22.826   5.414  -7.709  1.00  0.00    -0.258 N 
HETATM   14  C1  UNL     1      22.307   5.184  -8.867  1.00  0.00     0.222 C 
HETATM   15  N2  UNL     1      20.999   4.666  -9.032  1.00  0.00    -0.279 N 
HETATM   16  N3  UNL     1      23.098   5.474 -10.004  1.00  0.00    -0.061 NA
ATOM     17  H2  UNL     1      20.225   5.331  -9.033  1.00  0.00     0.189 HD
ATOM     18  H4  UNL     1      23.770   5.788  -7.616  1.00  0.00     0.190 HD
BRANCH  15  19
HETATM   19  N1  UNL     1      20.689   3.319  -9.192  1.00  0.00    -0.343 N 
ATOM     20  H12 UNL     1      20.030   3.090  -9.937  1.00  0.00     0.176 HD
ATOM     21  H11 UNL     1      21.068   2.560  -8.626  1.00  0.00     0.176 HD
ENDBRANCH  15  19
ENDBRANCH   1  13
BRANCH   4  22
HETATM   22  N7  UNL     1      24.044   2.563  -5.227  1.00  0.00    -0.263 N 
ATOM     23  H7  UNL     1      23.775   1.716  -4.726  1.00  0.00     0.190 HD
BRANCH  22  24
HETATM   24  C3  UNL     1      25.294   3.181  -4.941  1.00  0.00     0.369 C 
HETATM   25  O1  UNL     1      25.402   4.083  -4.070  1.00  0.00    -0.282 OA
ENDBRANCH  22  24
ENDBRANCH   4  22
BRANCH   7  26
HETATM   26  O2  UNL     1      22.828   5.237  -3.520  1.00  0.00    -0.345 OA
ATOM     27  H2  UNL     1      23.120   5.537  -2.667  1.00  0.00     0.219 HD
ENDBRANCH   7  26
BRANCH  12  28
HETATM   28  C9  UNL     1      19.715   2.617  -6.057  1.00  0.00     0.282 C 
HETATM   29  N9  UNL     1      18.714   3.213  -6.856  1.00  0.00    -0.056 NA
HETATM   30  O4  UNL     1      20.198   1.525  -6.415  1.00  0.00    -0.269 OA
ENDBRANCH  12  28
TORSDOF 6
ENDMDL
MODEL 5
REMARK VINA RESULT: -6.336270821      2.496      4.267
REMARK  6 active torsions:
REMARK  status: ('A' for Active; 'I' for Inactive)
REMARK    1  A    between atoms: N1_1  and  N2_4 
REMARK       I    between atoms: N2_4  and  C1_6 
REMARK    2  A    between atoms: N4_8  and  N5_10 
REMARK       I    between atoms: C2_12  and  N6_13 
REMARK       I    between atoms: C2_12  and  N8_19 
REMARK    3  A    between atoms: N6_13  and  N7_15 
REMARK    4  A    between atoms: N7_15  and  C3_17 
REMARK    5  A    between atoms: C4_20  and  O2_21 
REMARK    6  A    between atoms: C8_27  and  C9_28 
ROOT
HETATM    1  N5  UNL     1      23.529   2.549  -4.617  1.00  0.00    -0.128 N 
ATOM      2  H5  UNL     1      23.942   2.285  -5.511  1.00  0.00     0.205 HD
HETATM    3  C2  UNL     1      22.340   3.050  -4.624  1.00  0.00     0.720 C 
HETATM    4  N6  UNL     1      21.702   3.440  -3.407  1.00  0.00    -0.128 N 
ATOM      5  H6  UNL     1      21.720   2.791  -2.619  1.00  0.00     0.205 HD
HETATM    6  N8  UNL     1      21.725   3.194  -5.898  1.00  0.00    -0.119 N 
HETATM    7  C4  UNL     1      21.960   4.313  -6.640  1.00  0.00     0.167 A 
HETATM    8  C5  UNL     1      21.417   4.545  -7.866  1.00  0.00     0.111 A 
HETATM    9  C6  UNL     1      20.575   3.592  -8.398  1.00  0.00     0.178 A 
HETATM   10  O3  UNL     1      20.032   3.741  -9.540  1.00  0.00    -0.288 OA
HETATM   11  C7  UNL     1      20.343   2.469  -7.648  1.00  0.00     0.090 A 
HETATM   12  C8  UNL     1      20.909   2.247  -6.390  1.00  0.00     0.128 A 
ENDROOT
BRANCH   1  13
HETATM   13  N4  UNL     1      24.277   2.346  -3.469  1.00  0.00    -0.258 N 
HETATM   14  C1  UNL     1      24.778   3.385  -2.894  1.00  0.00     0.222 C 
HETATM   15  N2  UNL     1      24.590   4.700  -3.387  1.00  0.00    -0.279 N 
HETATM   16  N3  UNL     1      25.541   3.176  -1.720  1.00  0.00    -0.061 NA
ATOM     17  H2  UNL     1      23.743   5.193  -3.105  1.00  0.00     0.189 HD
ATOM     18  H4  UNL     1      24.427   1.409  -3.093  1.00  0.00     0.190 HD
BRANCH  15  19
HETATM   19  N1  UNL     1      25.473   5.371  -4.228  1.00  0.00    -0.343 N 
ATOM     20  H12 UNL     1      25.103   6.184  -4.720  1.00  0.00     0.176 HD
ATOM     21  H11 UNL     1      26.447   5.108  -4.383  1.00  0.00     0.176 HD
ENDBRANCH  15  19
ENDBRANCH   1  13
BRANCH   4  22
HETATM   22  N7  UNL     1      21.057   4.659  -3.247  1.00  0.00    -0.263 N 
ATOM     23  H7  UNL     1      20.484   5.029  -4.005  1.00  0.00     0.190 HD
BRANCH  22  24
HETATM   24  C3  UNL     1      21.186   5.400  -2.038  1.00  0.00     0.369 C 
HETATM   25  O1  UNL     1      22.242   5.373  -1.356  1.00  0.00    -0.282 OA
ENDBRANCH  22  24
ENDBRANCH   4  22
BRANCH   7  26
HETATM   26  O2  UNL     1      22.802   5.258  -6.099  1.00  0.00    -0.345 OA
ATOM     27  H2  UNL     1      23.472   5.617  -6.669  1.00  0.00     0.219 HD
ENDBRANCH   7  26
BRANCH  12  28
HETATM   28  C9  UNL     1      20.599   1.019  -5.691  1.00  0.00     0.282 C 
HETATM   29  N9  UNL     1      19.738   1.039  -4.570  1.00  0.00    -0.056 NA
HETATM   30  O4  UNL     1      21.081  -0.070  -6.057  1.00  0.00    -0.269 OA
ENDBRANCH  12  28
TORSDOF 6
ENDMDL
