MODEL 1
REMARK VINA RESULT: -5.315069675      0.000      0.000
REMARK  8 active torsions:
REMARK  status: ('A' for Active; 'I' for Inactive)
REMARK    1  A    between atoms: C8_8  and  C9_9 
REMARK    2  A    between atoms: C9_9  and  C10_10 
REMARK    3  A    between atoms: C10_10  and  C11_11 
REMARK    4  A    between atoms: C11_11  and  C12_12 
REMARK    5  A    between atoms: C12_12  and  C13_13 
REMARK    6  A    between atoms: C13_13  and  C14_14 
REMARK    7  A    between atoms: C14_14  and  N1_15 
REMARK    8  A    between atoms: C16_17  and  C17_18 
ROOT
HETATM    1  C12 UNL     1      34.664  70.634 103.721  1.00  0.00     0.002 C 
ENDROOT
BRANCH   1   2
HETATM    2  C11 UNL     1      36.154  70.636 103.615  1.00  0.00     0.000 C 
BRANCH   2   3
HETATM    3  C10 UNL     1      36.716  69.259 103.772  1.00  0.00     0.000 C 
BRANCH   3   4
HETATM    4  C9  UNL     1      35.657  68.192 103.628  1.00  0.00     0.005 C 
BRANCH   4   5
HETATM    5  C8  UNL     1      35.902  67.243 102.506  1.00  0.00    -0.011 C 
HETATM    6  C2  UNL     1      34.828  66.157 102.600  1.00  0.00    -0.015 C 
HETATM    7  C1  UNL     1      35.005  65.311 103.830  1.00  0.00     0.010 C 
HETATM    8  C3  UNL     1      34.761  65.357 101.340  1.00  0.00     0.004 C 
HETATM    9  C4  UNL     1      36.028  64.610 101.037  1.00  0.00     0.000 C 
HETATM   10  C5  UNL     1      37.037  65.418 100.275  1.00  0.00     0.000 C 
HETATM   11  C6  UNL     1      37.712  66.483 101.055  1.00  0.00     0.000 C 
HETATM   12  C7  UNL     1      37.248  66.612 102.482  1.00  0.00     0.005 C 
ENDBRANCH   4   5
ENDBRANCH   3   4
ENDBRANCH   2   3
ENDBRANCH   1   2
BRANCH   1  13
HETATM   13  C13 UNL     1      34.211  71.050 105.091  1.00  0.00     0.022 C 
BRANCH  13  14
HETATM   14  C14 UNL     1      32.689  70.999 105.205  1.00  0.00     0.148 C 
BRANCH  14  15
HETATM   15  N1  UNL     1      32.206  69.634 105.216  1.00  0.00    -0.303 N 
HETATM   16  C15 UNL     1      32.688  68.682 106.038  1.00  0.00     0.130 A 
HETATM   17  C16 UNL     1      32.019  67.502 105.799  1.00  0.00     0.074 A 
HETATM   18  C18 UNL     1      31.117  67.788 104.798  1.00  0.00     0.127 A 
HETATM   19  N2  UNL     1      31.263  69.084 104.477  1.00  0.00    -0.309 N 
ATOM     20  H2  UNL     1      30.722  69.573 103.764  1.00  0.00     0.186 HD
BRANCH  17  21
HETATM   21  C17 UNL     1      32.213  66.231 106.449  1.00  0.00     0.212 C 
HETATM   22  O1  UNL     1      33.358  65.930 106.874  1.00  0.00    -0.644 OA
HETATM   23  O2  UNL     1      31.187  65.329 106.623  1.00  0.00    -0.644 OA
ENDBRANCH  17  21
ENDBRANCH  14  15
ENDBRANCH  13  14
ENDBRANCH   1  13
TORSDOF 8
ENDMDL
MODEL 2
REMARK VINA RESULT: -5.182929219      4.164      5.577
REMARK  8 active torsions:
REMARK  status: ('A' for Active; 'I' for Inactive)
REMARK    1  A    between atoms: C8_8  and  C9_9 
REMARK    2  A    between atoms: C9_9  and  C10_10 
REMARK    3  A    between atoms: C10_10  and  C11_11 
REMARK    4  A    between atoms: C11_11  and  C12_12 
REMARK    5  A    between atoms: C12_12  and  C13_13 
REMARK    6  A    between atoms: C13_13  and  C14_14 
REMARK    7  A    between atoms: C14_14  and  N1_15 
REMARK    8  A    between atoms: C16_17  and  C17_18 
ROOT
HETATM    1  C12 UNL     1      35.553  70.680 103.596  1.00  0.00     0.002 C 
ENDROOT
BRANCH   1   2
HETATM    2  C11 UNL     1      35.956  69.243 103.548  1.00  0.00     0.000 C 
BRANCH   2   3
HETATM    3  C10 UNL     1      34.909  68.359 104.147  1.00  0.00     0.000 C 
BRANCH   3   4
HETATM    4  C9  UNL     1      34.937  66.966 103.564  1.00  0.00     0.005 C 
BRANCH   4   5
HETATM    5  C8  UNL     1      36.065  66.728 102.622  1.00  0.00    -0.011 C 
HETATM    6  C2  UNL     1      35.458  66.152 101.339  1.00  0.00    -0.015 C 
HETATM    7  C1  UNL     1      34.884  64.781 101.567  1.00  0.00     0.010 C 
HETATM    8  C3  UNL     1      36.438  66.200 100.212  1.00  0.00     0.004 C 
HETATM    9  C4  UNL     1      37.667  65.373 100.453  1.00  0.00     0.000 C 
HETATM   10  C5  UNL     1      38.746  66.099 101.202  1.00  0.00     0.000 C 
HETATM   11  C6  UNL     1      38.472  66.323 102.642  1.00  0.00     0.000 C 
HETATM   12  C7  UNL     1      37.133  65.821 103.117  1.00  0.00     0.005 C 
ENDBRANCH   4   5
ENDBRANCH   3   4
ENDBRANCH   2   3
ENDBRANCH   1   2
BRANCH   1  13
HETATM   13  C13 UNL     1      35.190  71.102 104.991  1.00  0.00     0.022 C 
BRANCH  13  14
HETATM   14  C14 UNL     1      36.101  72.224 105.481  1.00  0.00     0.148 C 
BRANCH  14  15
HETATM   15  N1  UNL     1      37.417  71.725 105.821  1.00  0.00    -0.303 N 
HETATM   16  C15 UNL     1      38.534  72.047 105.141  1.00  0.00     0.130 A 
HETATM   17  C16 UNL     1      39.610  71.410 105.717  1.00  0.00     0.074 A 
HETATM   18  C18 UNL     1      39.091  70.692 106.771  1.00  0.00     0.127 A 
HETATM   19  N2  UNL     1      37.766  70.911 106.798  1.00  0.00    -0.309 N 
ATOM     20  H2  UNL     1      37.122  70.506 107.478  1.00  0.00     0.186 HD
BRANCH  17  21
HETATM   21  C17 UNL     1      40.992  71.472 105.312  1.00  0.00     0.212 C 
HETATM   22  O1  UNL     1      41.635  72.538 105.491  1.00  0.00    -0.644 OA
HETATM   23  O2  UNL     1      41.637  70.402 104.732  1.00  0.00    -0.644 OA
ENDBRANCH  17  21
ENDBRANCH  14  15
ENDBRANCH  13  14
ENDBRANCH   1  13
TORSDOF 8
ENDMDL
MODEL 3
REMARK VINA RESULT: -5.143123717      2.608      5.479
REMARK  8 active torsions:
REMARK  status: ('A' for Active; 'I' for Inactive)
REMARK    1  A    between atoms: C8_8  and  C9_9 
REMARK    2  A    between atoms: C9_9  and  C10_10 
REMARK    3  A    between atoms: C10_10  and  C11_11 
REMARK    4  A    between atoms: C11_11  and  C12_12 
REMARK    5  A    between atoms: C12_12  and  C13_13 
REMARK    6  A    between atoms: C13_13  and  C14_14 
REMARK    7  A    between atoms: C14_14  and  N1_15 
REMARK    8  A    between atoms: C16_17  and  C17_18 
ROOT
HETATM    1  C12 UNL     1      31.430  67.287 106.421  1.00  0.00     0.002 C 
ENDROOT
BRANCH   1   2
HETATM    2  C11 UNL     1      30.787  67.709 105.140  1.00  0.00     0.000 C 
BRANCH   2   3
HETATM    3  C10 UNL     1      31.416  68.951 104.595  1.00  0.00     0.000 C 
BRANCH   3   4
HETATM    4  C9  UNL     1      32.390  69.571 105.568  1.00  0.00     0.005 C 
BRANCH   4   5
HETATM    5  C8  UNL     1      33.791  69.628 105.068  1.00  0.00    -0.011 C 
HETATM    6  C2  UNL     1      34.705  69.416 106.278  1.00  0.00    -0.015 C 
HETATM    7  C1  UNL     1      34.620  70.566 107.242  1.00  0.00     0.010 C 
HETATM    8  C3  UNL     1      36.102  69.108 105.849  1.00  0.00     0.004 C 
HETATM    9  C4  UNL     1      36.751  70.222 105.079  1.00  0.00     0.000 C 
HETATM   10  C5  UNL     1      36.467  70.181 103.606  1.00  0.00     0.000 C 
HETATM   11  C6  UNL     1      35.086  70.559 103.218  1.00  0.00     0.000 C 
HETATM   12  C7  UNL     1      34.173  70.885 104.372  1.00  0.00     0.005 C 
ENDBRANCH   4   5
ENDBRANCH   3   4
ENDBRANCH   2   3
ENDBRANCH   1   2
BRANCH   1  13
HETATM   13  C13 UNL     1      32.071  65.935 106.293  1.00  0.00     0.022 C 
BRANCH  13  14
HETATM   14  C14 UNL     1      33.528  65.973 106.750  1.00  0.00     0.148 C 
BRANCH  14  15
HETATM   15  N1  UNL     1      34.436  65.842 105.629  1.00  0.00    -0.303 N 
HETATM   16  C15 UNL     1      34.115  66.187 104.368  1.00  0.00     0.130 A 
HETATM   17  C16 UNL     1      35.192  65.941 103.546  1.00  0.00     0.074 A 
HETATM   18  C18 UNL     1      36.173  65.433 104.369  1.00  0.00     0.127 A 
HETATM   19  N2  UNL     1      35.675  65.392 105.616  1.00  0.00    -0.309 N 
ATOM     20  H2  UNL     1      36.183  65.059 106.436  1.00  0.00     0.186 HD
BRANCH  17  21
HETATM   21  C17 UNL     1      35.287  66.162 102.125  1.00  0.00     0.212 C 
HETATM   22  O1  UNL     1      34.459  65.600 101.363  1.00  0.00    -0.644 OA
HETATM   23  O2  UNL     1      36.255  66.968 101.569  1.00  0.00    -0.644 OA
ENDBRANCH  17  21
ENDBRANCH  14  15
ENDBRANCH  13  14
ENDBRANCH   1  13
TORSDOF 8
ENDMDL
MODEL 4
REMARK VINA RESULT: -5.109991886      3.151      5.709
REMARK  8 active torsions:
REMARK  status: ('A' for Active; 'I' for Inactive)
REMARK    1  A    between atoms: C8_8  and  C9_9 
REMARK    2  A    between atoms: C9_9  and  C10_10 
REMARK    3  A    between atoms: C10_10  and  C11_11 
REMARK    4  A    between atoms: C11_11  and  C12_12 
REMARK    5  A    between atoms: C12_12  and  C13_13 
REMARK    6  A    between atoms: C13_13  and  C14_14 
REMARK    7  A    between atoms: C14_14  and  N1_15 
REMARK    8  A    between atoms: C16_17  and  C17_18 
ROOT
HETATM    1  C12 UNL     1      37.637  67.237 103.674  1.00  0.00     0.002 C 
ENDROOT
BRANCH   1   2
HETATM    2  C11 UNL     1      37.650  68.576 104.336  1.00  0.00     0.000 C 
BRANCH   2   3
HETATM    3  C10 UNL     1      36.686  69.517 103.687  1.00  0.00     0.000 C 
BRANCH   3   4
HETATM    4  C9  UNL     1      36.617  70.845 104.404  1.00  0.00     0.005 C 
BRANCH   4   5
HETATM    5  C8  UNL     1      37.842  71.176 105.184  1.00  0.00    -0.011 C 
HETATM    6  C2  UNL     1      37.408  71.345 106.642  1.00  0.00    -0.015 C 
HETATM    7  C1  UNL     1      36.531  72.552 106.821  1.00  0.00     0.010 C 
HETATM    8  C3  UNL     1      38.588  71.333 107.559  1.00  0.00     0.004 C 
HETATM    9  C4  UNL     1      39.545  72.463 107.317  1.00  0.00     0.000 C 
HETATM   10  C5  UNL     1      40.571  72.170 106.262  1.00  0.00     0.000 C 
HETATM   11  C6  UNL     1      40.058  72.151 104.871  1.00  0.00     0.000 C 
HETATM   12  C7  UNL     1      38.576  72.389 104.740  1.00  0.00     0.005 C 
ENDBRANCH   4   5
ENDBRANCH   3   4
ENDBRANCH   2   3
ENDBRANCH   1   2
BRANCH   1  13
HETATM   13  C13 UNL     1      36.254  66.860 103.226  1.00  0.00     0.022 C 
BRANCH  13  14
HETATM   14  C14 UNL     1      35.622  65.851 104.183  1.00  0.00     0.148 C 
BRANCH  14  15
HETATM   15  N1  UNL     1      34.363  66.339 104.707  1.00  0.00    -0.303 N 
HETATM   16  C15 UNL     1      33.706  67.397 104.197  1.00  0.00     0.130 A 
HETATM   17  C16 UNL     1      32.549  67.598 104.918  1.00  0.00     0.074 A 
HETATM   18  C18 UNL     1      32.543  66.615 105.882  1.00  0.00     0.127 A 
HETATM   19  N2  UNL     1      33.654  65.877 105.718  1.00  0.00    -0.309 N 
ATOM     20  H2  UNL     1      33.911  65.075 106.293  1.00  0.00     0.186 HD
BRANCH  17  21
HETATM   21  C17 UNL     1      31.551  68.617 104.718  1.00  0.00     0.212 C 
HETATM   22  O1  UNL     1      31.805  69.799 105.065  1.00  0.00    -0.644 OA
HETATM   23  O2  UNL     1      30.322  68.344 104.158  1.00  0.00    -0.644 OA
ENDBRANCH  17  21
ENDBRANCH  14  15
ENDBRANCH  13  14
ENDBRANCH   1  13
TORSDOF 8
ENDMDL
MODEL 5
REMARK VINA RESULT: -5.105516593      3.070      6.109
REMARK  8 active torsions:
REMARK  status: ('A' for Active; 'I' for Inactive)
REMARK    1  A    between atoms: C8_8  and  C9_9 
REMARK    2  A    between atoms: C9_9  and  C10_10 
REMARK    3  A    between atoms: C10_10  and  C11_11 
REMARK    4  A    between atoms: C11_11  and  C12_12 
REMARK    5  A    between atoms: C12_12  and  C13_13 
REMARK    6  A    between atoms: C13_13  and  C14_14 
REMARK    7  A    between atoms: C14_14  and  N1_15 
REMARK    8  A    between atoms: C16_17  and  C17_18 
ROOT
HETATM    1  C12 UNL     1      35.693  65.413 102.921  1.00  0.00     0.002 C 
ENDROOT
BRANCH   1   2
HETATM    2  C11 UNL     1      34.787  65.123 104.073  1.00  0.00     0.000 C 
BRANCH   2   3
HETATM    3  C10 UNL     1      35.378  65.589 105.365  1.00  0.00     0.000 C 
BRANCH   3   4
HETATM    4  C9  UNL     1      34.334  66.167 106.292  1.00  0.00     0.005 C 
BRANCH   4   5
HETATM    5  C8  UNL     1      33.369  67.081 105.621  1.00  0.00    -0.011 C 
HETATM    6  C2  UNL     1      34.044  68.452 105.532  1.00  0.00    -0.015 C 
HETATM    7  C1  UNL     1      34.233  69.064 106.892  1.00  0.00     0.010 C 
HETATM    8  C3  UNL     1      33.321  69.347 104.579  1.00  0.00     0.004 C 
HETATM    9  C4  UNL     1      31.910  69.648 104.995  1.00  0.00     0.000 C 
HETATM   10  C5  UNL     1      30.914  68.626 104.533  1.00  0.00     0.000 C 
HETATM   11  C6  UNL     1      30.969  67.324 105.241  1.00  0.00     0.000 C 
HETATM   12  C7  UNL     1      32.048  67.221 106.288  1.00  0.00     0.005 C 
ENDBRANCH   4   5
ENDBRANCH   3   4
ENDBRANCH   2   3
ENDBRANCH   1   2
BRANCH   1  13
HETATM   13  C13 UNL     1      35.707  66.878 102.590  1.00  0.00     0.022 C 
BRANCH  13  14
HETATM   14  C14 UNL     1      37.107  67.465 102.756  1.00  0.00     0.148 C 
BRANCH  14  15
HETATM   15  N1  UNL     1      37.072  68.714 103.487  1.00  0.00    -0.303 N 
HETATM   16  C15 UNL     1      37.659  68.891 104.686  1.00  0.00     0.130 A 
HETATM   17  C16 UNL     1      37.442  70.184 105.107  1.00  0.00     0.074 A 
HETATM   18  C18 UNL     1      36.699  70.775 104.108  1.00  0.00     0.127 A 
HETATM   19  N2  UNL     1      36.500  69.854 103.151  1.00  0.00    -0.309 N 
ATOM     20  H2  UNL     1      35.980  70.013 102.288  1.00  0.00     0.186 HD
BRANCH  17  21
HETATM   21  C17 UNL     1      37.890  70.801 106.330  1.00  0.00     0.212 C 
HETATM   22  O1  UNL     1      37.036  71.269 107.126  1.00  0.00    -0.644 OA
HETATM   23  O2  UNL     1      39.224  70.898 106.659  1.00  0.00    -0.644 OA
ENDBRANCH  17  21
ENDBRANCH  14  15
ENDBRANCH  13  14
ENDBRANCH   1  13
TORSDOF 8
ENDMDL
