MODEL 1
REMARK VINA RESULT: -4.782573176      0.000      0.000
REMARK  10 active torsions:
REMARK  status: ('A' for Active; 'I' for Inactive)
REMARK    1  A    between atoms: C5_5  and  C6_6 
REMARK    2  A    between atoms: C6_6  and  C7_7 
REMARK    3  A    between atoms: C7_7  and  C8_8 
REMARK    4  A    between atoms: C8_8  and  N1_9 
REMARK    5  A    between atoms: N1_9  and  C9_12 
REMARK    6  A    between atoms: C9_12  and  C10_13 
REMARK    7  A    between atoms: C10_13  and  C11_14 
REMARK    8  A    between atoms: C11_14  and  C12_15 
REMARK    9  A    between atoms: C12_15  and  O2_17 
REMARK   10  A    between atoms: O2_17  and  C13_18 
ROOT
HETATM    1  N1  UNL     1      34.565  70.824 103.594  1.00  0.00    -0.075 N 
ATOM      2  H11 UNL     1      34.385  71.506 102.858  1.00  0.00     0.277 HD
ATOM      3  H12 UNL     1      33.935  70.079 103.298  1.00  0.00     0.277 HD
ENDROOT
BRANCH   1   4
HETATM    4  C8  UNL     1      34.167  71.340 104.860  1.00  0.00     0.232 C 
BRANCH   4   5
HETATM    5  C7  UNL     1      33.248  70.438 105.653  1.00  0.00     0.028 C 
BRANCH   5   6
HETATM    6  C6  UNL     1      32.419  69.651 104.682  1.00  0.00     0.006 C 
BRANCH   6   7
HETATM    7  C5  UNL     1      32.359  68.182 105.016  1.00  0.00    -0.012 C 
HETATM    8  C4  UNL     1      30.960  67.694 105.253  1.00  0.00     0.005 C 
HETATM    9  C3  UNL     1      30.746  67.093 106.624  1.00  0.00     0.007 C 
HETATM   10  C2  UNL     1      31.796  66.098 107.001  1.00  0.00     0.015 C 
HETATM   11  C1  UNL     1      31.409  64.680 106.582  1.00  0.00     0.012 C 
HETATM   12  C18 UNL     1      33.169  66.418 106.477  1.00  0.00     0.174 C 
HETATM   13  C17 UNL     1      33.235  67.910 106.219  1.00  0.00     0.042 C 
HETATM   14  F1  UNL     1      33.339  65.716 105.284  1.00  0.00    -0.249 F 
ENDBRANCH   6   7
ENDBRANCH   5   6
ENDBRANCH   4   5
ENDBRANCH   1   4
BRANCH   1  15
HETATM   15  C9  UNL     1      35.938  70.375 103.543  1.00  0.00     0.232 C 
BRANCH  15  16
HETATM   16  C10 UNL     1      35.855  68.864 103.260  1.00  0.00     0.037 C 
BRANCH  16  17
HETATM   17  C11 UNL     1      37.229  68.294 103.620  1.00  0.00     0.113 C 
BRANCH  17  18
HETATM   18  C12 UNL     1      37.569  67.358 102.528  1.00  0.00     0.259 C 
HETATM   19  O1  UNL     1      38.749  67.005 102.270  1.00  0.00    -0.265 OA
BRANCH  18  20
HETATM   20  O2  UNL     1      36.551  66.839 101.752  1.00  0.00    -0.311 OA
BRANCH  20  21
HETATM   21  C13 UNL     1      36.036  65.554 101.914  1.00  0.00     0.060 C 
HETATM   22  C14 UNL     1      36.029  65.092 103.362  1.00  0.00     0.045 C 
HETATM   23  C15 UNL     1      36.795  64.610 101.032  1.00  0.00     0.045 C 
HETATM   24  C16 UNL     1      34.553  65.618 101.518  1.00  0.00     0.045 C 
ENDBRANCH  20  21
ENDBRANCH  18  20
ENDBRANCH  17  18
ENDBRANCH  16  17
ENDBRANCH  15  16
ENDBRANCH   1  15
TORSDOF 10
ENDMDL
MODEL 2
REMARK VINA RESULT: -4.657696126      1.379      2.233
REMARK  10 active torsions:
REMARK  status: ('A' for Active; 'I' for Inactive)
REMARK    1  A    between atoms: C5_5  and  C6_6 
REMARK    2  A    between atoms: C6_6  and  C7_7 
REMARK    3  A    between atoms: C7_7  and  C8_8 
REMARK    4  A    between atoms: C8_8  and  N1_9 
REMARK    5  A    between atoms: N1_9  and  C9_12 
REMARK    6  A    between atoms: C9_12  and  C10_13 
REMARK    7  A    between atoms: C10_13  and  C11_14 
REMARK    8  A    between atoms: C11_14  and  C12_15 
REMARK    9  A    between atoms: C12_15  and  O2_17 
REMARK   10  A    between atoms: O2_17  and  C13_18 
ROOT
HETATM    1  N1  UNL     1      35.662  68.893 102.931  1.00  0.00    -0.075 N 
ATOM      2  H11 UNL     1      35.814  69.148 101.956  1.00  0.00     0.277 HD
ATOM      3  H12 UNL     1      34.850  68.285 102.827  1.00  0.00     0.277 HD
ENDROOT
BRANCH   1   4
HETATM    4  C8  UNL     1      35.327  70.044 103.701  1.00  0.00     0.232 C 
BRANCH   4   5
HETATM    5  C7  UNL     1      34.565  69.757 104.975  1.00  0.00     0.028 C 
BRANCH   5   6
HETATM    6  C6  UNL     1      33.164  69.375 104.602  1.00  0.00     0.006 C 
BRANCH   6   7
HETATM    7  C5  UNL     1      32.822  67.955 104.976  1.00  0.00    -0.012 C 
HETATM    8  C4  UNL     1      31.344  67.719 105.082  1.00  0.00     0.005 C 
HETATM    9  C3  UNL     1      30.898  67.232 106.442  1.00  0.00     0.007 C 
HETATM   10  C2  UNL     1      31.721  66.097 106.959  1.00  0.00     0.015 C 
HETATM   11  C1  UNL     1      31.140  64.744 106.550  1.00  0.00     0.012 C 
HETATM   12  C18 UNL     1      33.173  66.157 106.571  1.00  0.00     0.174 C 
HETATM   13  C17 UNL     1      33.517  67.602 106.272  1.00  0.00     0.042 C 
HETATM   14  F1  UNL     1      33.336  65.377 105.426  1.00  0.00    -0.249 F 
ENDBRANCH   6   7
ENDBRANCH   5   6
ENDBRANCH   4   5
ENDBRANCH   1   4
BRANCH   1  15
HETATM   15  C9  UNL     1      36.790  68.148 103.441  1.00  0.00     0.232 C 
BRANCH  15  16
HETATM   16  C10 UNL     1      36.232  66.751 103.767  1.00  0.00     0.037 C 
BRANCH  16  17
HETATM   17  C11 UNL     1      35.103  66.505 102.763  1.00  0.00     0.113 C 
BRANCH  17  18
HETATM   18  C12 UNL     1      35.431  65.223 102.103  1.00  0.00     0.259 C 
HETATM   19  O1  UNL     1      34.554  64.436 101.662  1.00  0.00    -0.265 OA
BRANCH  18  20
HETATM   20  O2  UNL     1      36.758  64.868 101.958  1.00  0.00    -0.311 OA
BRANCH  20  21
HETATM   21  C13 UNL     1      37.469  65.015 100.768  1.00  0.00     0.060 C 
HETATM   22  C14 UNL     1      36.937  66.133  99.888  1.00  0.00     0.045 C 
HETATM   23  C15 UNL     1      37.492  63.701 100.048  1.00  0.00     0.045 C 
HETATM   24  C16 UNL     1      38.887  65.465 101.154  1.00  0.00     0.045 C 
ENDBRANCH  20  21
ENDBRANCH  18  20
ENDBRANCH  17  18
ENDBRANCH  16  17
ENDBRANCH  15  16
ENDBRANCH   1  15
TORSDOF 10
ENDMDL
MODEL 3
REMARK VINA RESULT: -4.476740501      2.997      6.599
REMARK  10 active torsions:
REMARK  status: ('A' for Active; 'I' for Inactive)
REMARK    1  A    between atoms: C5_5  and  C6_6 
REMARK    2  A    between atoms: C6_6  and  C7_7 
REMARK    3  A    between atoms: C7_7  and  C8_8 
REMARK    4  A    between atoms: C8_8  and  N1_9 
REMARK    5  A    between atoms: N1_9  and  C9_12 
REMARK    6  A    between atoms: C9_12  and  C10_13 
REMARK    7  A    between atoms: C10_13  and  C11_14 
REMARK    8  A    between atoms: C11_14  and  C12_15 
REMARK    9  A    between atoms: C12_15  and  O2_17 
REMARK   10  A    between atoms: O2_17  and  C13_18 
ROOT
HETATM    1  N1  UNL     1      36.160  68.297 104.897  1.00  0.00    -0.075 N 
ATOM      2  H11 UNL     1      36.982  68.061 105.453  1.00  0.00     0.277 HD
ATOM      3  H12 UNL     1      35.724  68.981 105.515  1.00  0.00     0.277 HD
ENDROOT
BRANCH   1   4
HETATM    4  C8  UNL     1      35.319  67.157 104.744  1.00  0.00     0.232 C 
BRANCH   4   5
HETATM    5  C7  UNL     1      34.884  66.876 103.324  1.00  0.00     0.028 C 
BRANCH   5   6
HETATM    6  C6  UNL     1      35.173  65.435 103.026  1.00  0.00     0.006 C 
BRANCH   6   7
HETATM    7  C5  UNL     1      36.246  65.254 101.983  1.00  0.00    -0.012 C 
HETATM    8  C4  UNL     1      37.632  65.328 102.552  1.00  0.00     0.005 C 
HETATM    9  C3  UNL     1      38.486  66.417 101.944  1.00  0.00     0.007 C 
HETATM   10  C2  UNL     1      38.455  66.426 100.450  1.00  0.00     0.015 C 
HETATM   11  C1  UNL     1      39.563  65.557  99.855  1.00  0.00     0.012 C 
HETATM   12  C18 UNL     1      37.132  66.026  99.856  1.00  0.00     0.174 C 
HETATM   13  C17 UNL     1      36.057  66.286 100.892  1.00  0.00     0.042 C 
HETATM   14  F1  UNL     1      37.197  64.664  99.561  1.00  0.00    -0.249 F 
ENDBRANCH   6   7
ENDBRANCH   5   6
ENDBRANCH   4   5
ENDBRANCH   1   4
BRANCH   1  15
HETATM   15  C9  UNL     1      36.551  68.916 103.652  1.00  0.00     0.232 C 
BRANCH  15  16
HETATM   16  C10 UNL     1      36.270  70.417 103.845  1.00  0.00     0.037 C 
BRANCH  16  17
HETATM   17  C11 UNL     1      34.850  70.649 103.321  1.00  0.00     0.113 C 
BRANCH  17  18
HETATM   18  C12 UNL     1      34.095  71.221 104.456  1.00  0.00     0.259 C 
HETATM   19  O1  UNL     1      33.611  72.382 104.442  1.00  0.00    -0.265 OA
BRANCH  18  20
HETATM   20  O2  UNL     1      33.906  70.450 105.588  1.00  0.00    -0.311 OA
BRANCH  20  21
HETATM   21  C13 UNL     1      32.684  69.875 105.932  1.00  0.00     0.060 C 
HETATM   22  C14 UNL     1      31.985  69.211 104.758  1.00  0.00     0.045 C 
HETATM   23  C15 UNL     1      31.821  70.914 106.580  1.00  0.00     0.045 C 
HETATM   24  C16 UNL     1      32.995  68.724 106.901  1.00  0.00     0.045 C 
ENDBRANCH  20  21
ENDBRANCH  18  20
ENDBRANCH  17  18
ENDBRANCH  16  17
ENDBRANCH  15  16
ENDBRANCH   1  15
TORSDOF 10
ENDMDL
MODEL 4
REMARK VINA RESULT: -4.472517842      3.387      5.654
REMARK  10 active torsions:
REMARK  status: ('A' for Active; 'I' for Inactive)
REMARK    1  A    between atoms: C5_5  and  C6_6 
REMARK    2  A    between atoms: C6_6  and  C7_7 
REMARK    3  A    between atoms: C7_7  and  C8_8 
REMARK    4  A    between atoms: C8_8  and  N1_9 
REMARK    5  A    between atoms: N1_9  and  C9_12 
REMARK    6  A    between atoms: C9_12  and  C10_13 
REMARK    7  A    between atoms: C10_13  and  C11_14 
REMARK    8  A    between atoms: C11_14  and  C12_15 
REMARK    9  A    between atoms: C12_15  and  O2_17 
REMARK   10  A    between atoms: O2_17  and  C13_18 
ROOT
HETATM    1  N1  UNL     1      35.077  68.940 104.279  1.00  0.00    -0.075 N 
ATOM      2  H11 UNL     1      34.291  68.795 103.645  1.00  0.00     0.277 HD
ATOM      3  H12 UNL     1      35.186  67.992 104.638  1.00  0.00     0.277 HD
ENDROOT
BRANCH   1   4
HETATM    4  C8  UNL     1      34.711  69.830 105.330  1.00  0.00     0.232 C 
BRANCH   4   5
HETATM    5  C7  UNL     1      35.347  71.200 105.250  1.00  0.00     0.028 C 
BRANCH   5   6
HETATM    6  C6  UNL     1      35.815  71.574 106.625  1.00  0.00     0.006 C 
BRANCH   6   7
HETATM    7  C5  UNL     1      37.288  71.890 106.679  1.00  0.00    -0.012 C 
HETATM    8  C4  UNL     1      37.789  72.554 105.430  1.00  0.00     0.005 C 
HETATM    9  C3  UNL     1      38.896  71.794 104.735  1.00  0.00     0.007 C 
HETATM   10  C2  UNL     1      39.989  71.367 105.662  1.00  0.00     0.015 C 
HETATM   11  C1  UNL     1      41.094  72.418 105.755  1.00  0.00     0.012 C 
HETATM   12  C18 UNL     1      39.522  71.007 107.045  1.00  0.00     0.174 C 
HETATM   13  C17 UNL     1      38.059  70.619 106.958  1.00  0.00     0.042 C 
HETATM   14  F1  UNL     1      39.673  72.137 107.849  1.00  0.00    -0.249 F 
ENDBRANCH   6   7
ENDBRANCH   5   6
ENDBRANCH   4   5
ENDBRANCH   1   4
BRANCH   1  15
HETATM   15  C9  UNL     1      36.254  69.342 103.545  1.00  0.00     0.232 C 
BRANCH  15  16
HETATM   16  C10 UNL     1      37.368  68.392 104.022  1.00  0.00     0.037 C 
BRANCH  16  17
HETATM   17  C11 UNL     1      36.805  66.976 103.871  1.00  0.00     0.113 C 
BRANCH  17  18
HETATM   18  C12 UNL     1      37.633  66.329 102.831  1.00  0.00     0.259 C 
HETATM   19  O1  UNL     1      38.712  66.821 102.409  1.00  0.00    -0.265 OA
BRANCH  18  20
HETATM   20  O2  UNL     1      37.212  65.127 102.295  1.00  0.00    -0.311 OA
BRANCH  20  21
HETATM   21  C13 UNL     1      36.408  65.029 101.161  1.00  0.00     0.060 C 
HETATM   22  C14 UNL     1      36.479  66.257 100.269  1.00  0.00     0.045 C 
HETATM   23  C15 UNL     1      35.002  64.729 101.585  1.00  0.00     0.045 C 
HETATM   24  C16 UNL     1      36.986  63.892 100.305  1.00  0.00     0.045 C 
ENDBRANCH  20  21
ENDBRANCH  18  20
ENDBRANCH  17  18
ENDBRANCH  16  17
ENDBRANCH  15  16
ENDBRANCH   1  15
TORSDOF 10
ENDMDL
MODEL 5
REMARK VINA RESULT: -4.444557424      3.498      6.558
REMARK  10 active torsions:
REMARK  status: ('A' for Active; 'I' for Inactive)
REMARK    1  A    between atoms: C5_5  and  C6_6 
REMARK    2  A    between atoms: C6_6  and  C7_7 
REMARK    3  A    between atoms: C7_7  and  C8_8 
REMARK    4  A    between atoms: C8_8  and  N1_9 
REMARK    5  A    between atoms: N1_9  and  C9_12 
REMARK    6  A    between atoms: C9_12  and  C10_13 
REMARK    7  A    between atoms: C10_13  and  C11_14 
REMARK    8  A    between atoms: C11_14  and  C12_15 
REMARK    9  A    between atoms: C12_15  and  O2_17 
REMARK   10  A    between atoms: O2_17  and  C13_18 
ROOT
HETATM    1  N1  UNL     1      34.948  69.326 103.812  1.00  0.00    -0.075 N 
ATOM      2  H11 UNL     1      33.986  69.205 103.494  1.00  0.00     0.277 HD
ATOM      3  H12 UNL     1      34.832  69.111 104.801  1.00  0.00     0.277 HD
ENDROOT
BRANCH   1   4
HETATM    4  C8  UNL     1      35.363  70.678 103.641  1.00  0.00     0.232 C 
BRANCH   4   5
HETATM    5  C7  UNL     1      35.329  71.516 104.899  1.00  0.00     0.028 C 
BRANCH   5   6
HETATM    6  C6  UNL     1      35.971  70.727 106.000  1.00  0.00     0.006 C 
BRANCH   6   7
HETATM    7  C5  UNL     1      37.418  71.091 106.217  1.00  0.00    -0.012 C 
HETATM    8  C4  UNL     1      37.743  72.485 105.767  1.00  0.00     0.005 C 
HETATM    9  C3  UNL     1      38.820  72.551 104.709  1.00  0.00     0.007 C 
HETATM   10  C2  UNL     1      40.028  71.737 105.045  1.00  0.00     0.015 C 
HETATM   11  C1  UNL     1      41.067  72.555 105.812  1.00  0.00     0.012 C 
HETATM   12  C18 UNL     1      39.730  70.471 105.800  1.00  0.00     0.174 C 
HETATM   13  C17 UNL     1      38.295  70.080 105.510  1.00  0.00     0.042 C 
HETATM   14  F1  UNL     1      39.889  70.743 107.159  1.00  0.00    -0.249 F 
ENDBRANCH   6   7
ENDBRANCH   5   6
ENDBRANCH   4   5
ENDBRANCH   1   4
BRANCH   1  15
HETATM   15  C9  UNL     1      35.815  68.357 103.182  1.00  0.00     0.232 C 
BRANCH  15  16
HETATM   16  C10 UNL     1      35.704  67.094 104.054  1.00  0.00     0.037 C 
BRANCH  16  17
HETATM   17  C11 UNL     1      34.296  66.540 103.814  1.00  0.00     0.113 C 
BRANCH  17  18
HETATM   18  C12 UNL     1      33.624  66.579 105.130  1.00  0.00     0.259 C 
HETATM   19  O1  UNL     1      33.310  65.542 105.770  1.00  0.00    -0.265 OA
BRANCH  18  20
HETATM   20  O2  UNL     1      33.327  67.806 105.692  1.00  0.00    -0.311 OA
BRANCH  20  21
HETATM   21  C13 UNL     1      32.032  68.306 105.809  1.00  0.00     0.060 C 
HETATM   22  C14 UNL     1      31.299  67.787 107.035  1.00  0.00     0.045 C 
HETATM   23  C15 UNL     1      31.280  68.013 104.546  1.00  0.00     0.045 C 
HETATM   24  C16 UNL     1      32.160  69.819 106.043  1.00  0.00     0.045 C 
ENDBRANCH  20  21
ENDBRANCH  18  20
ENDBRANCH  17  18
ENDBRANCH  16  17
ENDBRANCH  15  16
ENDBRANCH   1  15
TORSDOF 10
ENDMDL
