MODEL 1
REMARK VINA RESULT: -5.561007992      0.000      0.000
REMARK  8 active torsions:
REMARK  status: ('A' for Active; 'I' for Inactive)
REMARK    1  A    between atoms: C2_2  and  C3_3 
REMARK    2  A    between atoms: C3_3  and  C4_4 
REMARK    3  A    between atoms: C4_4  and  C5_5 
REMARK    4  A    between atoms: C5_5  and  C6_6 
REMARK    5  A    between atoms: C6_6  and  C7_7 
REMARK    6  A    between atoms: C7_7  and  C8_8 
REMARK    7  A    between atoms: C9_11  and  C10_12 
REMARK    8  A    between atoms: C10_12  and  C11_13 
ROOT
HETATM    1  C8  UNL     1      36.836  71.423 104.705  1.00  0.00     0.080 A 
HETATM    2  N1  UNL     1      36.749  70.615 103.719  1.00  0.00    -0.366 N 
ATOM      3  H1  UNL     1      37.521  70.379 103.096  1.00  0.00     0.161 HD
HETATM    4  C9  UNL     1      35.432  70.089 103.605  1.00  0.00     0.177 A 
HETATM    5  C18 UNL     1      34.666  70.780 104.655  1.00  0.00     0.245 A 
HETATM    6  O2  UNL     1      33.431  70.732 104.953  1.00  0.00    -0.271 OA
HETATM    7  N2  UNL     1      35.593  71.595 105.362  1.00  0.00    -0.315 N 
ATOM      8  H2  UNL     1      35.402  72.182 106.175  1.00  0.00     0.170 HD
ENDROOT
BRANCH   4   9
HETATM    9  C10 UNL     1      35.503  68.610 103.950  1.00  0.00     0.066 C 
BRANCH   9  10
HETATM   10  C11 UNL     1      35.861  67.835 102.731  1.00  0.00     0.123 C 
HETATM   11  C12 UNL     1      35.042  66.605 102.730  1.00  0.00     0.032 C 
HETATM   12  C13 UNL     1      34.877  65.763 101.482  1.00  0.00     0.002 C 
HETATM   13  C14 UNL     1      35.921  64.680 101.361  1.00  0.00     0.000 C 
HETATM   14  C15 UNL     1      37.158  64.868 100.596  1.00  0.00     0.002 C 
HETATM   15  C16 UNL     1      38.270  65.723 101.287  1.00  0.00     0.026 C 
HETATM   16  C17 UNL     1      37.538  66.699 101.982  1.00  0.00     0.168 C 
HETATM   17  O1  UNL     1      37.285  67.696 102.765  1.00  0.00    -0.386 OA
ENDBRANCH   9  10
ENDBRANCH   4   9
BRANCH   1  18
HETATM   18  C7  UNL     1      38.119  72.126 105.069  1.00  0.00     0.076 C 
BRANCH  18  19
HETATM   19  C6  UNL     1      38.295  72.183 106.530  1.00  0.00     0.007 C 
BRANCH  19  20
HETATM   20  C5  UNL     1      39.744  72.055 106.979  1.00  0.00     0.000 C 
BRANCH  20  21
HETATM   21  C4  UNL     1      40.601  72.555 105.858  1.00  0.00     0.000 C 
BRANCH  21  22
HETATM   22  C3  UNL     1      41.805  71.796 105.494  1.00  0.00    -0.000 C 
BRANCH  22  23
HETATM   23  C2  UNL     1      41.892  70.359 105.836  1.00  0.00    -0.005 C 
HETATM   24  C1  UNL     1      41.624  69.384 104.746  1.00  0.00     0.005 C 
ENDBRANCH  22  23
ENDBRANCH  21  22
ENDBRANCH  20  21
ENDBRANCH  19  20
ENDBRANCH  18  19
ENDBRANCH   1  18
TORSDOF 8
ENDMDL
MODEL 2
REMARK VINA RESULT: -5.400369799      3.096      6.102
REMARK  8 active torsions:
REMARK  status: ('A' for Active; 'I' for Inactive)
REMARK    1  A    between atoms: C2_2  and  C3_3 
REMARK    2  A    between atoms: C3_3  and  C4_4 
REMARK    3  A    between atoms: C4_4  and  C5_5 
REMARK    4  A    between atoms: C5_5  and  C6_6 
REMARK    5  A    between atoms: C6_6  and  C7_7 
REMARK    6  A    between atoms: C7_7  and  C8_8 
REMARK    7  A    between atoms: C9_11  and  C10_12 
REMARK    8  A    between atoms: C10_12  and  C11_13 
ROOT
HETATM    1  C8  UNL     1      36.060  69.667 103.822  1.00  0.00     0.080 A 
HETATM    2  N1  UNL     1      34.926  70.154 103.492  1.00  0.00    -0.366 N 
ATOM      3  H1  UNL     1      34.301  69.745 102.797  1.00  0.00     0.161 HD
HETATM    4  C9  UNL     1      34.649  71.342 104.222  1.00  0.00     0.177 A 
HETATM    5  C18 UNL     1      35.861  71.575 105.024  1.00  0.00     0.245 A 
HETATM    6  O2  UNL     1      36.174  72.528 105.805  1.00  0.00    -0.271 OA
HETATM    7  N2  UNL     1      36.727  70.474 104.776  1.00  0.00    -0.315 N 
ATOM      8  H2  UNL     1      37.640  70.300 105.198  1.00  0.00     0.170 HD
ENDROOT
BRANCH   4   9
HETATM    9  C10 UNL     1      33.496  71.037 105.165  1.00  0.00     0.066 C 
BRANCH   9  10
HETATM   10  C11 UNL     1      33.206  69.578 105.135  1.00  0.00     0.123 C 
HETATM   11  C12 UNL     1      31.745  69.419 104.976  1.00  0.00     0.032 C 
HETATM   12  C13 UNL     1      31.133  68.100 104.552  1.00  0.00     0.002 C 
HETATM   13  C14 UNL     1      30.776  67.214 105.721  1.00  0.00     0.000 C 
HETATM   14  C15 UNL     1      31.686  66.180 106.225  1.00  0.00     0.002 C 
HETATM   15  C16 UNL     1      32.879  66.683 107.100  1.00  0.00     0.026 C 
HETATM   16  C17 UNL     1      33.224  67.905 106.501  1.00  0.00     0.168 C 
HETATM   17  O1  UNL     1      33.819  69.037 106.310  1.00  0.00    -0.386 OA
ENDBRANCH   9  10
ENDBRANCH   4   9
BRANCH   1  18
HETATM   18  C7  UNL     1      36.611  68.403 103.212  1.00  0.00     0.076 C 
BRANCH  18  19
HETATM   19  C6  UNL     1      36.091  67.212 103.905  1.00  0.00     0.007 C 
BRANCH  19  20
HETATM   20  C5  UNL     1      34.756  66.720 103.361  1.00  0.00     0.000 C 
BRANCH  20  21
HETATM   21  C4  UNL     1      34.924  65.273 103.016  1.00  0.00     0.000 C 
BRANCH  21  22
HETATM   22  C3  UNL     1      35.003  64.887 101.601  1.00  0.00    -0.000 C 
BRANCH  22  23
HETATM   23  C2  UNL     1      36.310  64.921 100.907  1.00  0.00    -0.005 C 
HETATM   24  C1  UNL     1      36.647  66.160 100.158  1.00  0.00     0.005 C 
ENDBRANCH  22  23
ENDBRANCH  21  22
ENDBRANCH  20  21
ENDBRANCH  19  20
ENDBRANCH  18  19
ENDBRANCH   1  18
TORSDOF 8
ENDMDL
MODEL 3
REMARK VINA RESULT: -5.380698748      2.799      6.054
REMARK  8 active torsions:
REMARK  status: ('A' for Active; 'I' for Inactive)
REMARK    1  A    between atoms: C2_2  and  C3_3 
REMARK    2  A    between atoms: C3_3  and  C4_4 
REMARK    3  A    between atoms: C4_4  and  C5_5 
REMARK    4  A    between atoms: C5_5  and  C6_6 
REMARK    5  A    between atoms: C6_6  and  C7_7 
REMARK    6  A    between atoms: C7_7  and  C8_8 
REMARK    7  A    between atoms: C9_11  and  C10_12 
REMARK    8  A    between atoms: C10_12  and  C11_13 
ROOT
HETATM    1  C8  UNL     1      37.047  68.669 103.652  1.00  0.00     0.080 A 
HETATM    2  N1  UNL     1      35.928  69.084 103.194  1.00  0.00    -0.366 N 
ATOM      3  H1  UNL     1      35.280  68.514 102.649  1.00  0.00     0.161 HD
HETATM    4  C9  UNL     1      35.706  70.444 103.544  1.00  0.00     0.177 A 
HETATM    5  C18 UNL     1      36.936  70.852 104.242  1.00  0.00     0.245 A 
HETATM    6  O2  UNL     1      37.293  71.979 104.709  1.00  0.00    -0.271 OA
HETATM    7  N2  UNL     1      37.756  69.693 104.328  1.00  0.00    -0.315 N 
ATOM      8  H2  UNL     1      38.666  69.614 104.782  1.00  0.00     0.170 HD
ENDROOT
BRANCH   4   9
HETATM    9  C10 UNL     1      34.553  70.475 104.535  1.00  0.00     0.066 C 
BRANCH   9  10
HETATM   10  C11 UNL     1      33.976  69.109 104.664  1.00  0.00     0.123 C 
HETATM   11  C12 UNL     1      32.504  69.246 104.653  1.00  0.00     0.032 C 
HETATM   12  C13 UNL     1      31.600  68.056 104.409  1.00  0.00     0.002 C 
HETATM   13  C14 UNL     1      31.201  67.350 105.680  1.00  0.00     0.000 C 
HETATM   14  C15 UNL     1      31.934  66.187 106.193  1.00  0.00     0.002 C 
HETATM   15  C16 UNL     1      33.290  66.492 106.907  1.00  0.00     0.026 C 
HETATM   16  C17 UNL     1      33.806  67.571 106.171  1.00  0.00     0.168 C 
HETATM   17  O1  UNL     1      34.591  68.538 105.824  1.00  0.00    -0.386 OA
ENDBRANCH   9  10
ENDBRANCH   4   9
BRANCH   1  18
HETATM   18  C7  UNL     1      37.541  67.261 103.440  1.00  0.00     0.076 C 
BRANCH  18  19
HETATM   19  C6  UNL     1      37.984  67.060 102.050  1.00  0.00     0.007 C 
BRANCH  19  20
HETATM   20  C5  UNL     1      37.388  65.824 101.389  1.00  0.00     0.000 C 
BRANCH  20  21
HETATM   21  C4  UNL     1      36.051  66.215 100.842  1.00  0.00     0.000 C 
BRANCH  21  22
HETATM   22  C3  UNL     1      34.849  65.558 101.372  1.00  0.00    -0.000 C 
BRANCH  22  23
HETATM   23  C2  UNL     1      34.377  65.890 102.735  1.00  0.00    -0.005 C 
HETATM   24  C1  UNL     1      34.756  64.959 103.830  1.00  0.00     0.005 C 
ENDBRANCH  22  23
ENDBRANCH  21  22
ENDBRANCH  20  21
ENDBRANCH  19  20
ENDBRANCH  18  19
ENDBRANCH   1  18
TORSDOF 8
ENDMDL
MODEL 4
REMARK VINA RESULT: -5.288859885      1.293      1.772
REMARK  8 active torsions:
REMARK  status: ('A' for Active; 'I' for Inactive)
REMARK    1  A    between atoms: C2_2  and  C3_3 
REMARK    2  A    between atoms: C3_3  and  C4_4 
REMARK    3  A    between atoms: C4_4  and  C5_5 
REMARK    4  A    between atoms: C5_5  and  C6_6 
REMARK    5  A    between atoms: C6_6  and  C7_7 
REMARK    6  A    between atoms: C7_7  and  C8_8 
REMARK    7  A    between atoms: C9_11  and  C10_12 
REMARK    8  A    between atoms: C10_12  and  C11_13 
ROOT
HETATM    1  C8  UNL     1      38.102  71.193 105.717  1.00  0.00     0.080 A 
HETATM    2  N1  UNL     1      37.980  70.399 104.723  1.00  0.00    -0.366 N 
ATOM      3  H1  UNL     1      38.739  69.841 104.333  1.00  0.00     0.161 HD
HETATM    4  C9  UNL     1      36.645  70.397 104.233  1.00  0.00     0.177 A 
HETATM    5  C18 UNL     1      35.951  71.408 105.047  1.00  0.00     0.245 A 
HETATM    6  O2  UNL     1      34.760  71.851 104.988  1.00  0.00    -0.271 OA
HETATM    7  N2  UNL     1      36.893  71.872 106.007  1.00  0.00    -0.315 N 
ATOM      8  H2  UNL     1      36.731  72.552 106.750  1.00  0.00     0.170 HD
ENDROOT
BRANCH   4   9
HETATM    9  C10 UNL     1      36.050  69.033 104.543  1.00  0.00     0.066 C 
BRANCH   9  10
HETATM   10  C11 UNL     1      35.998  68.222 103.296  1.00  0.00     0.123 C 
HETATM   11  C12 UNL     1      35.151  67.042 103.568  1.00  0.00     0.032 C 
HETATM   12  C13 UNL     1      34.588  66.194 102.446  1.00  0.00     0.002 C 
HETATM   13  C14 UNL     1      35.494  65.051 102.062  1.00  0.00     0.000 C 
HETATM   14  C15 UNL     1      36.464  65.156 100.966  1.00  0.00     0.002 C 
HETATM   15  C16 UNL     1      37.771  65.953 101.282  1.00  0.00     0.026 C 
HETATM   16  C17 UNL     1      37.325  66.980 102.129  1.00  0.00     0.168 C 
HETATM   17  O1  UNL     1      37.362  68.000 102.922  1.00  0.00    -0.386 OA
ENDBRANCH   9  10
ENDBRANCH   4   9
BRANCH   1  18
HETATM   18  C7  UNL     1      39.408  71.393 106.443  1.00  0.00     0.076 C 
BRANCH  18  19
HETATM   19  C6  UNL     1      40.350  72.180 105.630  1.00  0.00     0.007 C 
BRANCH  19  20
HETATM   20  C5  UNL     1      41.753  71.588 105.571  1.00  0.00     0.000 C 
BRANCH  20  21
HETATM   21  C4  UNL     1      41.611  70.150 105.182  1.00  0.00     0.000 C 
BRANCH  21  22
HETATM   22  C3  UNL     1      42.684  69.212 105.536  1.00  0.00    -0.000 C 
BRANCH  22  23
HETATM   23  C2  UNL     1      43.904  69.718 106.204  1.00  0.00    -0.005 C 
HETATM   24  C1  UNL     1      45.141  68.905 106.062  1.00  0.00     0.005 C 
ENDBRANCH  22  23
ENDBRANCH  21  22
ENDBRANCH  20  21
ENDBRANCH  19  20
ENDBRANCH  18  19
ENDBRANCH   1  18
TORSDOF 8
ENDMDL
MODEL 5
REMARK VINA RESULT: -5.240963620      2.436      6.712
REMARK  8 active torsions:
REMARK  status: ('A' for Active; 'I' for Inactive)
REMARK    1  A    between atoms: C2_2  and  C3_3 
REMARK    2  A    between atoms: C3_3  and  C4_4 
REMARK    3  A    between atoms: C4_4  and  C5_5 
REMARK    4  A    between atoms: C5_5  and  C6_6 
REMARK    5  A    between atoms: C6_6  and  C7_7 
REMARK    6  A    between atoms: C7_7  and  C8_8 
REMARK    7  A    between atoms: C9_11  and  C10_12 
REMARK    8  A    between atoms: C10_12  and  C11_13 
ROOT
HETATM    1  C8  UNL     1      35.785  69.075 103.600  1.00  0.00     0.080 A 
HETATM    2  N1  UNL     1      37.024  68.870 103.365  1.00  0.00    -0.366 N 
ATOM      3  H1  UNL     1      37.655  69.557 102.952  1.00  0.00     0.161 HD
HETATM    4  C9  UNL     1      37.407  67.557 103.755  1.00  0.00     0.177 A 
HETATM    5  C18 UNL     1      36.157  66.926 104.207  1.00  0.00     0.245 A 
HETATM    6  O2  UNL     1      35.917  65.741 104.600  1.00  0.00    -0.271 OA
HETATM    7  N2  UNL     1      35.148  67.926 104.131  1.00  0.00    -0.315 N 
ATOM      8  H2  UNL     1      34.169  67.836 104.403  1.00  0.00     0.170 HD
ENDROOT
BRANCH   4   9
HETATM    9  C10 UNL     1      38.340  67.692 104.948  1.00  0.00     0.066 C 
BRANCH   9  10
HETATM   10  C11 UNL     1      39.257  68.844 104.730  1.00  0.00     0.123 C 
HETATM   11  C12 UNL     1      40.614  68.414 105.127  1.00  0.00     0.032 C 
HETATM   12  C13 UNL     1      41.845  69.192 104.712  1.00  0.00     0.002 C 
HETATM   13  C14 UNL     1      42.239  70.248 105.714  1.00  0.00     0.000 C 
HETATM   14  C15 UNL     1      41.799  71.643 105.595  1.00  0.00     0.002 C 
HETATM   15  C16 UNL     1      40.323  71.936 106.017  1.00  0.00     0.026 C 
HETATM   16  C17 UNL     1      39.636  70.785 105.601  1.00  0.00     0.168 C 
HETATM   17  O1  UNL     1      38.667  69.945 105.431  1.00  0.00    -0.386 OA
ENDBRANCH   9  10
ENDBRANCH   4   9
BRANCH   1  18
HETATM   18  C7  UNL     1      35.104  70.385 103.293  1.00  0.00     0.076 C 
BRANCH  18  19
HETATM   19  C6  UNL     1      34.892  71.170 104.520  1.00  0.00     0.007 C 
BRANCH  19  20
HETATM   20  C5  UNL     1      33.426  71.463 104.815  1.00  0.00     0.000 C 
BRANCH  20  21
HETATM   21  C4  UNL     1      33.027  70.605 105.974  1.00  0.00     0.000 C 
BRANCH  21  22
HETATM   22  C3  UNL     1      31.868  69.715 105.830  1.00  0.00    -0.000 C 
BRANCH  22  23
HETATM   23  C2  UNL     1      31.801  68.784 104.680  1.00  0.00    -0.005 C 
HETATM   24  C1  UNL     1      30.452  68.327 104.255  1.00  0.00     0.005 C 
ENDBRANCH  22  23
ENDBRANCH  21  22
ENDBRANCH  20  21
ENDBRANCH  19  20
ENDBRANCH  18  19
ENDBRANCH   1  18
TORSDOF 8
ENDMDL
