MODEL 1
REMARK VINA RESULT: -8.808115521      0.000      0.000
REMARK  6 active torsions:
REMARK  status: ('A' for Active; 'I' for Inactive)
REMARK    1  A    between atoms: C8_8  and  O1_9 
REMARK    2  A    between atoms: C13_15  and  C14_16 
REMARK    3  A    between atoms: C15_17  and  C16_18 
REMARK    4  A    between atoms: C20_29  and  N4_30 
REMARK       I    between atoms: N4_30  and  C21_32 
REMARK    5  A    between atoms: C21_32  and  C22_34 
REMARK    6  A    between atoms: C22_34  and  C25_37 
ROOT
HETATM    1  C1  UNL     1      -7.901 -11.126  -6.843  1.00  0.00     0.016 C 
HETATM    2  C2  UNL     1      -7.348 -10.089  -7.455  1.00  0.00    -0.066 C 
HETATM    3  C3  UNL     1      -7.193  -8.830  -6.674  1.00  0.00     0.041 C 
HETATM    4  C4  UNL     1      -6.167  -7.896  -7.228  1.00  0.00     0.009 C 
HETATM    5  C5  UNL     1      -6.241  -6.628  -6.440  1.00  0.00    -0.017 C 
HETATM    6  C6  UNL     1      -6.067  -5.387  -7.294  1.00  0.00     0.018 C 
HETATM    7  C7  UNL     1      -7.604  -6.458  -5.755  1.00  0.00     0.018 C 
HETATM    8  C8  UNL     1      -5.242  -6.567  -5.306  1.00  0.00     0.126 C 
HETATM    9  C9  UNL     1      -3.848  -6.790  -5.800  1.00  0.00     0.033 C 
HETATM   10  C10 UNL     1      -3.806  -8.189  -6.352  1.00  0.00     0.012 C 
HETATM   11  C11 UNL     1      -4.810  -8.468  -7.428  1.00  0.00    -0.032 C 
HETATM   12  C12 UNL     1      -4.187  -7.985  -8.736  1.00  0.00     0.016 C 
HETATM   13  C13 UNL     1      -4.838  -9.985  -7.590  1.00  0.00     0.019 C 
HETATM   14  C19 UNL     1      -5.430 -10.431  -8.880  1.00  0.00     0.039 C 
HETATM   15  C20 UNL     1      -6.920 -10.228  -8.871  1.00  0.00     0.113 C 
ENDROOT
BRANCH  13  16
HETATM   16  C14 UNL     1      -3.444 -10.525  -7.517  1.00  0.00    -0.021 C 
HETATM   17  C15 UNL     1      -3.129 -11.804  -7.483  1.00  0.00     0.022 C 
BRANCH  17  18
HETATM   18  C16 UNL     1      -1.689 -12.183  -7.412  1.00  0.00     0.123 C 
HETATM   19  C17 UNL     1      -1.117 -12.240  -6.012  1.00  0.00     0.068 C 
HETATM   20  N1  UNL     1      -0.849 -11.371  -8.292  1.00  0.00    -0.333 N 
HETATM   21  C18 UNL     1      -0.121 -12.553  -8.580  1.00  0.00     0.173 C 
ATOM     22  H1  UNL     1      -0.806 -10.392  -8.573  1.00  0.00     0.165 HD
HETATM   23  N2  UNL     1       1.087 -12.868  -8.977  1.00  0.00    -0.371 N 
HETATM   24  N3  UNL     1      -1.292 -13.285  -8.243  1.00  0.00    -0.333 N 
ATOM     25  H22 UNL     1       1.928 -12.343  -9.219  1.00  0.00     0.159 HD
ATOM     26  H21 UNL     1       1.611 -13.718  -9.185  1.00  0.00     0.159 HD
ATOM     27  H3  UNL     1      -1.682 -14.196  -8.486  1.00  0.00     0.165 HD
ENDBRANCH  17  18
ENDBRANCH  13  16
BRANCH  15  28
HETATM   28  N4  UNL     1      -7.579 -11.330  -9.537  1.00  0.00    -0.352 N 
HETATM   29  C21 UNL     1      -7.021 -12.618  -9.594  1.00  0.00     0.226 C 
HETATM   30  O2  UNL     1      -5.909 -12.817  -9.046  1.00  0.00    -0.273 OA
ATOM     31  H4  UNL     1      -8.483 -11.167  -9.981  1.00  0.00     0.163 HD
BRANCH  29  32
HETATM   32  C22 UNL     1      -7.669 -13.770 -10.268  1.00  0.00     0.033 C 
HETATM   33  C23 UNL     1      -9.143 -13.381 -10.399  1.00  0.00     0.025 C 
HETATM   34  C24 UNL     1      -7.160 -13.986 -11.658  1.00  0.00     0.025 C 
BRANCH  32  35
HETATM   35  C25 UNL     1      -7.523 -15.034  -9.449  1.00  0.00     0.014 C 
HETATM   36  C26 UNL     1      -8.524 -15.075  -8.339  1.00  0.00     0.006 C 
ENDBRANCH  32  35
ENDBRANCH  29  32
ENDBRANCH  15  28
BRANCH   8  37
HETATM   37  O1  UNL     1      -5.518  -7.575  -4.354  1.00  0.00    -0.395 OA
ATOM     38  H1  UNL     1      -5.225  -7.304  -3.492  1.00  0.00     0.210 HD
ENDBRANCH   8  37
TORSDOF 6
ENDMDL
MODEL 2
REMARK VINA RESULT: -8.662129667      1.073      1.123
REMARK  6 active torsions:
REMARK  status: ('A' for Active; 'I' for Inactive)
REMARK    1  A    between atoms: C8_8  and  O1_9 
REMARK    2  A    between atoms: C13_15  and  C14_16 
REMARK    3  A    between atoms: C15_17  and  C16_18 
REMARK    4  A    between atoms: C20_29  and  N4_30 
REMARK       I    between atoms: N4_30  and  C21_32 
REMARK    5  A    between atoms: C21_32  and  C22_34 
REMARK    6  A    between atoms: C22_34  and  C25_37 
ROOT
HETATM    1  C1  UNL     1      -7.650 -11.489  -6.657  1.00  0.00     0.016 C 
HETATM    2  C2  UNL     1      -7.028 -10.530  -7.328  1.00  0.00    -0.066 C 
HETATM    3  C3  UNL     1      -7.029  -9.163  -6.738  1.00  0.00     0.041 C 
HETATM    4  C4  UNL     1      -5.948  -8.275  -7.261  1.00  0.00     0.009 C 
HETATM    5  C5  UNL     1      -6.178  -6.908  -6.701  1.00  0.00    -0.017 C 
HETATM    6  C6  UNL     1      -5.894  -5.802  -7.699  1.00  0.00     0.018 C 
HETATM    7  C7  UNL     1      -7.637  -6.701  -6.274  1.00  0.00     0.018 C 
HETATM    8  C8  UNL     1      -5.378  -6.632  -5.447  1.00  0.00     0.126 C 
HETATM    9  C9  UNL     1      -3.917  -6.861  -5.675  1.00  0.00     0.033 C 
HETATM   10  C10 UNL     1      -3.756  -8.323  -5.989  1.00  0.00     0.012 C 
HETATM   11  C11 UNL     1      -4.565  -8.806  -7.153  1.00  0.00    -0.032 C 
HETATM   12  C12 UNL     1      -3.747  -8.495  -8.406  1.00  0.00     0.016 C 
HETATM   13  C13 UNL     1      -4.532 -10.331  -7.081  1.00  0.00     0.019 C 
HETATM   14  C19 UNL     1      -4.897 -10.991  -8.363  1.00  0.00     0.039 C 
HETATM   15  C20 UNL     1      -6.372 -10.859  -8.620  1.00  0.00     0.113 C 
ENDROOT
BRANCH  13  16
HETATM   16  C14 UNL     1      -3.157 -10.787  -6.707  1.00  0.00    -0.021 C 
HETATM   17  C15 UNL     1      -2.604 -11.918  -7.095  1.00  0.00     0.022 C 
BRANCH  17  18
HETATM   18  C16 UNL     1      -1.220 -12.231  -6.637  1.00  0.00     0.123 C 
HETATM   19  C17 UNL     1      -0.828 -11.593  -5.322  1.00  0.00     0.068 C 
HETATM   20  N1  UNL     1      -0.214 -11.975  -7.668  1.00  0.00    -0.333 N 
HETATM   21  C18 UNL     1       0.441 -13.153  -7.230  1.00  0.00     0.173 C 
ATOM     22  H1  UNL     1      -0.056 -11.265  -8.382  1.00  0.00     0.165 HD
HETATM   23  N2  UNL     1       1.657 -13.640  -7.239  1.00  0.00    -0.371 N 
HETATM   24  N3  UNL     1      -0.821 -13.606  -6.754  1.00  0.00    -0.333 N 
ATOM     25  H22 UNL     1       2.562 -13.316  -7.580  1.00  0.00     0.159 HD
ATOM     26  H21 UNL     1       2.129 -14.488  -6.924  1.00  0.00     0.159 HD
ATOM     27  H3  UNL     1      -1.253 -14.512  -6.574  1.00  0.00     0.165 HD
ENDBRANCH  17  18
ENDBRANCH  13  16
BRANCH  15  28
HETATM   28  N4  UNL     1      -6.890 -12.078  -9.203  1.00  0.00    -0.352 N 
HETATM   29  C21 UNL     1      -8.040 -12.098 -10.010  1.00  0.00     0.226 C 
HETATM   30  O2  UNL     1      -8.637 -11.017 -10.233  1.00  0.00    -0.273 OA
ATOM     31  H4  UNL     1      -6.403 -12.955  -9.020  1.00  0.00     0.163 HD
BRANCH  29  32
HETATM   32  C22 UNL     1      -8.597 -13.330 -10.622  1.00  0.00     0.033 C 
HETATM   33  C23 UNL     1      -9.761 -12.853 -11.494  1.00  0.00     0.025 C 
HETATM   34  C24 UNL     1      -7.628 -14.008 -11.537  1.00  0.00     0.025 C 
BRANCH  32  35
HETATM   35  C25 UNL     1      -9.086 -14.292  -9.561  1.00  0.00     0.014 C 
HETATM   36  C26 UNL     1      -8.077 -15.366  -9.304  1.00  0.00     0.006 C 
ENDBRANCH  32  35
ENDBRANCH  29  32
ENDBRANCH  15  28
BRANCH   8  37
HETATM   37  O1  UNL     1      -5.783  -7.498  -4.406  1.00  0.00    -0.395 OA
ATOM     38  H1  UNL     1      -5.572  -7.119  -3.560  1.00  0.00     0.210 HD
ENDBRANCH   8  37
TORSDOF 6
ENDMDL
MODEL 3
REMARK VINA RESULT: -8.521644221      0.316      1.040
REMARK  6 active torsions:
REMARK  status: ('A' for Active; 'I' for Inactive)
REMARK    1  A    between atoms: C8_8  and  O1_9 
REMARK    2  A    between atoms: C13_15  and  C14_16 
REMARK    3  A    between atoms: C15_17  and  C16_18 
REMARK    4  A    between atoms: C20_29  and  N4_30 
REMARK       I    between atoms: N4_30  and  C21_32 
REMARK    5  A    between atoms: C21_32  and  C22_34 
REMARK    6  A    between atoms: C22_34  and  C25_37 
ROOT
HETATM    1  C1  UNL     1      -7.876 -10.942  -6.748  1.00  0.00     0.016 C 
HETATM    2  C2  UNL     1      -7.302  -9.942  -7.401  1.00  0.00    -0.066 C 
HETATM    3  C3  UNL     1      -7.111  -8.660  -6.668  1.00  0.00     0.041 C 
HETATM    4  C4  UNL     1      -6.066  -7.772  -7.262  1.00  0.00     0.009 C 
HETATM    5  C5  UNL     1      -6.103  -6.475  -6.521  1.00  0.00    -0.017 C 
HETATM    6  C6  UNL     1      -5.904  -5.270  -7.421  1.00  0.00     0.018 C 
HETATM    7  C7  UNL     1      -7.457  -6.245  -5.835  1.00  0.00     0.018 C 
HETATM    8  C8  UNL     1      -5.096  -6.397  -5.396  1.00  0.00     0.126 C 
HETATM    9  C9  UNL     1      -3.710  -6.673  -5.889  1.00  0.00     0.033 C 
HETATM   10  C10 UNL     1      -3.707  -8.092  -6.389  1.00  0.00     0.012 C 
HETATM   11  C11 UNL     1      -4.725  -8.385  -7.448  1.00  0.00    -0.032 C 
HETATM   12  C12 UNL     1      -4.098  -7.966  -8.777  1.00  0.00     0.016 C 
HETATM   13  C13 UNL     1      -4.791  -9.906  -7.555  1.00  0.00     0.019 C 
HETATM   14  C19 UNL     1      -5.403 -10.384  -8.824  1.00  0.00     0.039 C 
HETATM   15  C20 UNL     1      -6.887 -10.143  -8.814  1.00  0.00     0.113 C 
ENDROOT
BRANCH  13  16
HETATM   16  C14 UNL     1      -3.411 -10.477  -7.469  1.00  0.00    -0.021 C 
HETATM   17  C15 UNL     1      -3.110 -11.753  -7.602  1.00  0.00     0.022 C 
BRANCH  17  18
HETATM   18  C16 UNL     1      -1.683 -12.166  -7.492  1.00  0.00     0.123 C 
HETATM   19  C17 UNL     1      -1.157 -12.262  -6.077  1.00  0.00     0.068 C 
HETATM   20  N1  UNL     1      -0.797 -11.358  -8.330  1.00  0.00    -0.333 N 
HETATM   21  C18 UNL     1      -0.086 -12.550  -8.617  1.00  0.00     0.173 C 
ATOM     22  H1  UNL     1      -0.724 -10.375  -8.591  1.00  0.00     0.165 HD
HETATM   23  N2  UNL     1       1.126 -12.886  -8.982  1.00  0.00    -0.371 N 
HETATM   24  N3  UNL     1      -1.284 -13.262  -8.332  1.00  0.00    -0.333 N 
ATOM     25  H22 UNL     1       1.986 -12.376  -9.187  1.00  0.00     0.159 HD
ATOM     26  H21 UNL     1       1.638 -13.744  -9.189  1.00  0.00     0.159 HD
ATOM     27  H3  UNL     1      -1.686 -14.159  -8.604  1.00  0.00     0.165 HD
ENDBRANCH  17  18
ENDBRANCH  13  16
BRANCH  15  28
HETATM   28  N4  UNL     1      -7.578 -11.253  -9.434  1.00  0.00    -0.352 N 
HETATM   29  C21 UNL     1      -7.011 -12.535  -9.530  1.00  0.00     0.226 C 
HETATM   30  O2  UNL     1      -5.863 -12.721  -9.058  1.00  0.00    -0.273 OA
ATOM     31  H4  UNL     1      -8.511 -11.099  -9.817  1.00  0.00     0.163 HD
BRANCH  29  32
HETATM   32  C22 UNL     1      -7.691 -13.693 -10.160  1.00  0.00     0.033 C 
HETATM   33  C23 UNL     1      -7.061 -13.823 -11.548  1.00  0.00     0.025 C 
HETATM   34  C24 UNL     1      -7.418 -14.979  -9.446  1.00  0.00     0.025 C 
BRANCH  32  35
HETATM   35  C25 UNL     1      -9.182 -13.456 -10.271  1.00  0.00     0.014 C 
HETATM   36  C26 UNL     1      -9.558 -13.042 -11.657  1.00  0.00     0.006 C 
ENDBRANCH  32  35
ENDBRANCH  29  32
ENDBRANCH  15  28
BRANCH   8  37
HETATM   37  O1  UNL     1      -5.390  -7.362  -4.406  1.00  0.00    -0.395 OA
ATOM     38  H1  UNL     1      -5.153  -7.036  -3.545  1.00  0.00     0.210 HD
ENDBRANCH   8  37
TORSDOF 6
ENDMDL
MODEL 4
REMARK VINA RESULT: -8.271104252      2.946      6.967
REMARK  6 active torsions:
REMARK  status: ('A' for Active; 'I' for Inactive)
REMARK    1  A    between atoms: C8_8  and  O1_9 
REMARK    2  A    between atoms: C13_15  and  C14_16 
REMARK    3  A    between atoms: C15_17  and  C16_18 
REMARK    4  A    between atoms: C20_29  and  N4_30 
REMARK       I    between atoms: N4_30  and  C21_32 
REMARK    5  A    between atoms: C21_32  and  C22_34 
REMARK    6  A    between atoms: C22_34  and  C25_37 
ROOT
HETATM    1  C1  UNL     1      -3.124 -12.605  -5.795  1.00  0.00     0.016 C 
HETATM    2  C2  UNL     1      -3.604 -12.170  -6.950  1.00  0.00    -0.066 C 
HETATM    3  C3  UNL     1      -4.979 -12.597  -7.329  1.00  0.00     0.041 C 
HETATM    4  C4  UNL     1      -5.625 -11.723  -8.355  1.00  0.00     0.009 C 
HETATM    5  C5  UNL     1      -6.918 -12.364  -8.743  1.00  0.00    -0.017 C 
HETATM    6  C6  UNL     1      -7.216 -12.250 -10.226  1.00  0.00     0.018 C 
HETATM    7  C7  UNL     1      -6.923 -13.869  -8.446  1.00  0.00     0.018 C 
HETATM    8  C8  UNL     1      -8.108 -11.827  -7.979  1.00  0.00     0.126 C 
HETATM    9  C9  UNL     1      -8.207 -10.340  -8.106  1.00  0.00     0.033 C 
HETATM   10  C10 UNL     1      -6.973  -9.770  -7.461  1.00  0.00     0.012 C 
HETATM   11  C11 UNL     1      -5.682 -10.274  -8.028  1.00  0.00    -0.032 C 
HETATM   12  C12 UNL     1      -5.381  -9.412  -9.253  1.00  0.00     0.016 C 
HETATM   13  C13 UNL     1      -4.600  -9.861  -7.033  1.00  0.00     0.019 C 
HETATM   14  C19 UNL     1      -3.228  -9.878  -7.609  1.00  0.00     0.039 C 
HETATM   15  C20 UNL     1      -2.759 -11.294  -7.802  1.00  0.00     0.113 C 
ENDROOT
BRANCH  13  16
HETATM   16  C14 UNL     1      -4.871  -8.474  -6.542  1.00  0.00    -0.021 C 
HETATM   17  C15 UNL     1      -3.957  -7.636  -6.096  1.00  0.00     0.022 C 
BRANCH  17  18
HETATM   18  C16 UNL     1      -4.387  -6.284  -5.642  1.00  0.00     0.123 C 
HETATM   19  C17 UNL     1      -3.419  -5.167  -5.968  1.00  0.00     0.068 C 
HETATM   20  N1  UNL     1      -4.765  -6.258  -4.229  1.00  0.00    -0.333 N 
HETATM   21  C18 UNL     1      -5.816  -5.380  -4.593  1.00  0.00     0.173 C 
ATOM     22  H1  UNL     1      -4.424  -6.683  -3.367  1.00  0.00     0.165 HD
HETATM   23  N2  UNL     1      -6.538  -4.449  -4.018  1.00  0.00    -0.371 N 
HETATM   24  N3  UNL     1      -5.761  -5.949  -5.895  1.00  0.00    -0.333 N 
ATOM     25  H22 UNL     1      -6.577  -4.040  -3.084  1.00  0.00     0.159 HD
ATOM     26  H21 UNL     1      -7.294  -3.817  -4.279  1.00  0.00     0.159 HD
ATOM     27  H3  UNL     1      -6.413  -6.068  -6.671  1.00  0.00     0.165 HD
ENDBRANCH  17  18
ENDBRANCH  13  16
BRANCH  15  28
HETATM   28  N4  UNL     1      -1.354 -11.403  -7.476  1.00  0.00    -0.352 N 
HETATM   29  C21 UNL     1      -0.545 -12.442  -7.968  1.00  0.00     0.226 C 
HETATM   30  O2  UNL     1      -1.063 -13.304  -8.719  1.00  0.00    -0.273 OA
ATOM     31  H4  UNL     1      -0.935 -10.702  -6.865  1.00  0.00     0.163 HD
BRANCH  29  32
HETATM   32  C22 UNL     1       0.898 -12.584  -7.653  1.00  0.00     0.033 C 
HETATM   33  C23 UNL     1       1.094 -14.066  -7.327  1.00  0.00     0.025 C 
HETATM   34  C24 UNL     1       1.776 -12.285  -8.826  1.00  0.00     0.025 C 
BRANCH  32  35
HETATM   35  C25 UNL     1       1.286 -11.723  -6.470  1.00  0.00     0.014 C 
HETATM   36  C26 UNL     1       2.663 -12.055  -5.991  1.00  0.00     0.006 C 
ENDBRANCH  32  35
ENDBRANCH  29  32
ENDBRANCH  15  28
BRANCH   8  37
HETATM   37  O1  UNL     1      -7.982 -12.124  -6.602  1.00  0.00    -0.395 OA
ATOM     38  H1  UNL     1      -7.065 -12.166  -6.356  1.00  0.00     0.210 HD
ENDBRANCH   8  37
TORSDOF 6
ENDMDL
MODEL 5
REMARK VINA RESULT: -7.897791191      3.030      4.504
REMARK  6 active torsions:
REMARK  status: ('A' for Active; 'I' for Inactive)
REMARK    1  A    between atoms: C8_8  and  O1_9 
REMARK    2  A    between atoms: C13_15  and  C14_16 
REMARK    3  A    between atoms: C15_17  and  C16_18 
REMARK    4  A    between atoms: C20_29  and  N4_30 
REMARK       I    between atoms: N4_30  and  C21_32 
REMARK    5  A    between atoms: C21_32  and  C22_34 
REMARK    6  A    between atoms: C22_34  and  C25_37 
ROOT
HETATM    1  C1  UNL     1      -5.526  -9.404  -5.625  1.00  0.00     0.016 C 
HETATM    2  C2  UNL     1      -6.561  -8.839  -6.228  1.00  0.00    -0.066 C 
HETATM    3  C3  UNL     1      -7.136  -7.614  -5.607  1.00  0.00     0.041 C 
HETATM    4  C4  UNL     1      -7.944  -6.778  -6.547  1.00  0.00     0.009 C 
HETATM    5  C5  UNL     1      -8.577  -5.686  -5.747  1.00  0.00    -0.017 C 
HETATM    6  C6  UNL     1      -9.998  -5.379  -6.182  1.00  0.00     0.018 C 
HETATM    7  C7  UNL     1      -8.681  -6.051  -4.260  1.00  0.00     0.018 C 
HETATM    8  C8  UNL     1      -7.788  -4.396  -5.762  1.00  0.00     0.126 C 
HETATM    9  C9  UNL     1      -7.532  -3.933  -7.162  1.00  0.00     0.033 C 
HETATM   10  C10 UNL     1      -6.675  -4.985  -7.811  1.00  0.00     0.012 C 
HETATM   11  C11 UNL     1      -7.258  -6.364  -7.798  1.00  0.00    -0.032 C 
HETATM   12  C12 UNL     1      -8.193  -6.450  -9.003  1.00  0.00     0.016 C 
HETATM   13  C13 UNL     1      -6.115  -7.305  -8.172  1.00  0.00     0.019 C 
HETATM   14  C19 UNL     1      -6.576  -8.642  -8.634  1.00  0.00     0.039 C 
HETATM   15  C20 UNL     1      -7.094  -9.447  -7.475  1.00  0.00     0.113 C 
ENDROOT
BRANCH  13  16
HETATM   16  C14 UNL     1      -5.302  -6.696  -9.271  1.00  0.00    -0.021 C 
HETATM   17  C15 UNL     1      -4.827  -7.350 -10.312  1.00  0.00     0.022 C 
BRANCH  17  18
HETATM   18  C16 UNL     1      -4.034  -6.600 -11.326  1.00  0.00     0.123 C 
HETATM   19  C17 UNL     1      -4.771  -6.299 -12.613  1.00  0.00     0.068 C 
HETATM   20  N1  UNL     1      -2.735  -7.218 -11.595  1.00  0.00    -0.333 N 
HETATM   21  C18 UNL     1      -2.198  -5.908 -11.660  1.00  0.00     0.173 C 
ATOM     22  H1  UNL     1      -2.377  -8.167 -11.692  1.00  0.00     0.165 HD
HETATM   23  N2  UNL     1      -1.177  -5.311 -12.225  1.00  0.00    -0.371 N 
HETATM   24  N3  UNL     1      -3.271  -5.491 -10.825  1.00  0.00    -0.333 N 
ATOM     25  H22 UNL     1      -0.407  -5.610 -12.825  1.00  0.00     0.159 HD
ATOM     26  H21 UNL     1      -0.790  -4.368 -12.272  1.00  0.00     0.159 HD
ATOM     27  H3  UNL     1      -3.430  -4.733 -10.160  1.00  0.00     0.165 HD
ENDBRANCH  17  18
ENDBRANCH  13  16
BRANCH  15  28
HETATM   28  N4  UNL     1      -6.707 -10.834  -7.617  1.00  0.00    -0.352 N 
HETATM   29  C21 UNL     1      -7.433 -11.742  -8.405  1.00  0.00     0.226 C 
HETATM   30  O2  UNL     1      -8.455 -11.332  -9.008  1.00  0.00    -0.273 OA
ATOM     31  H4  UNL     1      -5.876 -11.164  -7.126  1.00  0.00     0.163 HD
BRANCH  29  32
HETATM   32  C22 UNL     1      -7.064 -13.170  -8.571  1.00  0.00     0.033 C 
HETATM   33  C23 UNL     1      -5.598 -13.258  -8.143  1.00  0.00     0.025 C 
HETATM   34  C24 UNL     1      -7.830 -14.073  -7.658  1.00  0.00     0.025 C 
BRANCH  32  35
HETATM   35  C25 UNL     1      -7.227 -13.611 -10.010  1.00  0.00     0.014 C 
HETATM   36  C26 UNL     1      -8.129 -14.799 -10.109  1.00  0.00     0.006 C 
ENDBRANCH  32  35
ENDBRANCH  29  32
ENDBRANCH  15  28
BRANCH   8  37
HETATM   37  O1  UNL     1      -6.530  -4.583  -5.144  1.00  0.00    -0.395 OA
ATOM     38  H1  UNL     1      -5.938  -5.039  -5.731  1.00  0.00     0.210 HD
ENDBRANCH   8  37
TORSDOF 6
ENDMDL
