MODEL 1
REMARK VINA RESULT: -10.132477175      0.000      0.000
REMARK  5 active torsions:
REMARK  status: ('A' for Active; 'I' for Inactive)
REMARK    1  A    between atoms: C1_2  and  C2_3 
REMARK       I    between atoms: C1_2  and  N3_28 
REMARK    2  A    between atoms: C2_3  and  C3_4 
REMARK    3  A    between atoms: C11_15  and  C12_16 
REMARK    4  A    between atoms: N3_28  and  C19_30 
REMARK    5  A    between atoms: C19_30  and  C20_31 
ROOT
HETATM    1  C3  UNL     1      -3.148 -12.395  -7.866  1.00  0.00     0.194 C 
HETATM    2  C4  UNL     1      -4.204 -13.475  -7.880  1.00  0.00     0.033 C 
HETATM    3  C5  UNL     1      -5.289 -13.023  -8.843  1.00  0.00     0.002 C 
HETATM    4  C6  UNL     1      -6.649 -13.557  -8.462  1.00  0.00     0.000 C 
HETATM    5  C7  UNL     1      -7.590 -13.259  -9.598  1.00  0.00     0.000 C 
HETATM    6  C8  UNL     1      -8.602 -12.176  -9.236  1.00  0.00     0.009 C 
HETATM    7  C9  UNL     1      -8.017 -10.815  -9.425  1.00  0.00     0.103 C 
HETATM    8  C10 UNL     1      -8.950  -9.878 -10.103  1.00  0.00     0.218 C 
HETATM    9  O2  UNL     1      -9.880 -10.445 -10.755  1.00  0.00    -0.274 OA
HETATM   10  N1  UNL     1      -8.870  -8.466 -10.067  1.00  0.00    -0.347 N 
ATOM     11  H1  UNL     1      -8.957  -7.977 -10.959  1.00  0.00     0.163 HD
HETATM   12  C11 UNL     1      -8.677  -7.651  -8.893  1.00  0.00     0.185 C 
HETATM   13  C13 UNL     1      -7.235  -7.393  -8.588  1.00  0.00     0.036 C 
HETATM   14  C14 UNL     1      -6.841  -7.720  -7.165  1.00  0.00     0.002 C 
HETATM   15  C15 UNL     1      -5.320  -7.937  -7.158  1.00  0.00     0.000 C 
HETATM   16  C16 UNL     1      -4.999  -8.675  -5.868  1.00  0.00     0.002 C 
HETATM   17  C17 UNL     1      -4.835 -10.170  -6.162  1.00  0.00     0.027 C 
HETATM   18  C18 UNL     1      -3.389 -10.382  -6.560  1.00  0.00     0.232 C 
HETATM   19  N2  UNL     1      -3.024 -11.780  -6.558  1.00  0.00    -0.070 N 
ATOM     20  H21 UNL     1      -2.086 -11.912  -6.179  1.00  0.00     0.277 HD
ATOM     21  H22 UNL     1      -3.559 -12.297  -5.859  1.00  0.00     0.277 HD
ENDROOT
BRANCH   1  22
HETATM   22  C2  UNL     1      -1.846 -13.018  -8.318  1.00  0.00     0.135 C 
BRANCH  22  23
HETATM   23  C1  UNL     1      -0.683 -12.155  -7.898  1.00  0.00     0.219 C 
HETATM   24  O1  UNL     1      -0.417 -11.137  -8.580  1.00  0.00    -0.274 OA
HETATM   25  N3  UNL     1       0.098 -12.462  -6.776  1.00  0.00    -0.361 N 
ATOM     26  H3  UNL     1      -0.194 -13.299  -6.272  1.00  0.00     0.162 HD
BRANCH  25  27
HETATM   27  C19 UNL     1       1.224 -11.806  -6.225  1.00  0.00     0.127 C 
BRANCH  27  28
HETATM   28  C20 UNL     1       2.561 -12.372  -6.325  1.00  0.00     0.003 C 
HETATM   29  C21 UNL     1       3.026 -12.583  -7.762  1.00  0.00     0.006 C 
HETATM   30  C22 UNL     1       4.507 -12.914  -7.786  1.00  0.00     0.000 C 
HETATM   31  C23 UNL     1       4.915 -13.685  -6.552  1.00  0.00     0.000 C 
HETATM   32  C24 UNL     1       4.704 -12.918  -5.266  1.00  0.00     0.000 C 
HETATM   33  C25 UNL     1       3.643 -11.828  -5.468  1.00  0.00     0.006 C 
ENDBRANCH  27  28
ENDBRANCH  25  27
ENDBRANCH  22  23
ENDBRANCH   1  22
BRANCH  12  34
HETATM   34  C12 UNL     1      -9.420  -8.148  -7.721  1.00  0.00     0.196 C 
HETATM   35  O3  UNL     1     -10.611  -7.757  -7.463  1.00  0.00    -0.646 OA
HETATM   36  O4  UNL     1      -8.915  -9.062  -6.810  1.00  0.00    -0.646 OA
ENDBRANCH  12  34
TORSDOF 5
ENDMDL
MODEL 2
REMARK VINA RESULT: -9.922156356      0.639      1.066
REMARK  5 active torsions:
REMARK  status: ('A' for Active; 'I' for Inactive)
REMARK    1  A    between atoms: C1_2  and  C2_3 
REMARK       I    between atoms: C1_2  and  N3_28 
REMARK    2  A    between atoms: C2_3  and  C3_4 
REMARK    3  A    between atoms: C11_15  and  C12_16 
REMARK    4  A    between atoms: N3_28  and  C19_30 
REMARK    5  A    between atoms: C19_30  and  C20_31 
ROOT
HETATM    1  C3  UNL     1      -3.477 -12.507  -7.933  1.00  0.00     0.194 C 
HETATM    2  C4  UNL     1      -4.559 -13.561  -7.900  1.00  0.00     0.033 C 
HETATM    3  C5  UNL     1      -5.605 -13.156  -8.926  1.00  0.00     0.002 C 
HETATM    4  C6  UNL     1      -6.988 -13.629  -8.547  1.00  0.00     0.000 C 
HETATM    5  C7  UNL     1      -7.889 -13.394  -9.730  1.00  0.00     0.000 C 
HETATM    6  C8  UNL     1      -8.884 -12.264  -9.478  1.00  0.00     0.009 C 
HETATM    7  C9  UNL     1      -8.259 -10.934  -9.747  1.00  0.00     0.103 C 
HETATM    8  C10 UNL     1      -9.150 -10.028 -10.519  1.00  0.00     0.218 C 
HETATM    9  O2  UNL     1     -10.075 -10.621 -11.156  1.00  0.00    -0.274 OA
HETATM   10  N1  UNL     1      -9.035  -8.620 -10.584  1.00  0.00    -0.347 N 
ATOM     11  H1  UNL     1      -9.085  -8.196 -11.511  1.00  0.00     0.163 HD
HETATM   12  C11 UNL     1      -8.854  -7.726  -9.466  1.00  0.00     0.185 C 
HETATM   13  C13 UNL     1      -7.415  -7.479  -9.139  1.00  0.00     0.036 C 
HETATM   14  C14 UNL     1      -7.071  -7.710  -7.685  1.00  0.00     0.002 C 
HETATM   15  C15 UNL     1      -5.556  -7.961  -7.617  1.00  0.00     0.000 C 
HETATM   16  C16 UNL     1      -5.289  -8.609  -6.267  1.00  0.00     0.002 C 
HETATM   17  C17 UNL     1      -5.155 -10.125  -6.447  1.00  0.00     0.027 C 
HETATM   18  C18 UNL     1      -3.704 -10.399  -6.785  1.00  0.00     0.232 C 
HETATM   19  N2  UNL     1      -3.375 -11.801  -6.671  1.00  0.00    -0.070 N 
ATOM     20  H21 UNL     1      -2.451 -11.926  -6.255  1.00  0.00     0.277 HD
ATOM     21  H22 UNL     1      -3.941 -12.253  -5.952  1.00  0.00     0.277 HD
ENDROOT
BRANCH   1  22
HETATM   22  C2  UNL     1      -2.180 -13.191  -8.300  1.00  0.00     0.135 C 
BRANCH  22  23
HETATM   23  C1  UNL     1      -1.012 -12.447  -7.701  1.00  0.00     0.219 C 
HETATM   24  O1  UNL     1      -0.694 -11.339  -8.195  1.00  0.00    -0.274 OA
HETATM   25  N3  UNL     1      -0.284 -12.961  -6.620  1.00  0.00    -0.361 N 
ATOM     26  H3  UNL     1      -0.617 -13.861  -6.274  1.00  0.00     0.162 HD
BRANCH  25  27
HETATM   27  C19 UNL     1       0.836 -12.441  -5.929  1.00  0.00     0.127 C 
BRANCH  27  28
HETATM   28  C20 UNL     1       2.194 -12.669  -6.399  1.00  0.00     0.003 C 
HETATM   29  C21 UNL     1       3.070 -13.408  -5.393  1.00  0.00     0.006 C 
HETATM   30  C22 UNL     1       4.367 -13.841  -6.051  1.00  0.00     0.000 C 
HETATM   31  C23 UNL     1       4.797 -12.856  -7.113  1.00  0.00     0.000 C 
HETATM   32  C24 UNL     1       3.805 -12.723  -8.247  1.00  0.00     0.000 C 
HETATM   33  C25 UNL     1       2.409 -13.159  -7.782  1.00  0.00     0.006 C 
ENDBRANCH  27  28
ENDBRANCH  25  27
ENDBRANCH  22  23
ENDBRANCH   1  22
BRANCH  12  34
HETATM   34  C12 UNL     1      -9.642  -8.118  -8.285  1.00  0.00     0.196 C 
HETATM   35  O3  UNL     1     -10.822  -7.665  -8.080  1.00  0.00    -0.646 OA
HETATM   36  O4  UNL     1      -9.195  -8.992  -7.307  1.00  0.00    -0.646 OA
ENDBRANCH  12  34
TORSDOF 5
ENDMDL
MODEL 3
REMARK VINA RESULT: -9.871435343      0.764      1.105
REMARK  5 active torsions:
REMARK  status: ('A' for Active; 'I' for Inactive)
REMARK    1  A    between atoms: C1_2  and  C2_3 
REMARK       I    between atoms: C1_2  and  N3_28 
REMARK    2  A    between atoms: C2_3  and  C3_4 
REMARK    3  A    between atoms: C11_15  and  C12_16 
REMARK    4  A    between atoms: N3_28  and  C19_30 
REMARK    5  A    between atoms: C19_30  and  C20_31 
ROOT
HETATM    1  C3  UNL     1      -3.265 -12.619  -7.896  1.00  0.00     0.194 C 
HETATM    2  C4  UNL     1      -4.425 -13.585  -7.952  1.00  0.00     0.033 C 
HETATM    3  C5  UNL     1      -5.480 -12.960  -8.850  1.00  0.00     0.002 C 
HETATM    4  C6  UNL     1      -6.879 -13.381  -8.466  1.00  0.00     0.000 C 
HETATM    5  C7  UNL     1      -7.809 -12.911  -9.551  1.00  0.00     0.000 C 
HETATM    6  C8  UNL     1      -8.698 -11.761  -9.087  1.00  0.00     0.009 C 
HETATM    7  C9  UNL     1      -7.982 -10.455  -9.201  1.00  0.00     0.103 C 
HETATM    8  C10 UNL     1      -8.830  -9.384  -9.786  1.00  0.00     0.218 C 
HETATM    9  O2  UNL     1      -9.827  -9.809 -10.447  1.00  0.00    -0.274 OA
HETATM   10  N1  UNL     1      -8.606  -7.994  -9.658  1.00  0.00    -0.347 N 
ATOM     11  H1  UNL     1      -8.663  -7.437 -10.511  1.00  0.00     0.163 HD
HETATM   12  C11 UNL     1      -8.304  -7.286  -8.437  1.00  0.00     0.185 C 
HETATM   13  C13 UNL     1      -6.837  -7.196  -8.158  1.00  0.00     0.036 C 
HETATM   14  C14 UNL     1      -6.447  -7.660  -6.773  1.00  0.00     0.002 C 
HETATM   15  C15 UNL     1      -4.956  -8.028  -6.825  1.00  0.00     0.000 C 
HETATM   16  C16 UNL     1      -4.682  -8.882  -5.598  1.00  0.00     0.002 C 
HETATM   17  C17 UNL     1      -4.678 -10.362  -5.997  1.00  0.00     0.027 C 
HETATM   18  C18 UNL     1      -3.271 -10.689  -6.451  1.00  0.00     0.232 C 
HETATM   19  N2  UNL     1      -3.050 -12.113  -6.554  1.00  0.00    -0.070 N 
ATOM     20  H21 UNL     1      -2.122 -12.365  -6.213  1.00  0.00     0.277 HD
ATOM     21  H22 UNL     1      -3.618 -12.622  -5.876  1.00  0.00     0.277 HD
ENDROOT
BRANCH   1  22
HETATM   22  C2  UNL     1      -2.044 -13.336  -8.427  1.00  0.00     0.135 C 
BRANCH  22  23
HETATM   23  C1  UNL     1      -0.849 -12.416  -8.402  1.00  0.00     0.219 C 
HETATM   24  O1  UNL     1      -1.048 -11.178  -8.375  1.00  0.00    -0.274 OA
HETATM   25  N3  UNL     1       0.463 -12.909  -8.409  1.00  0.00    -0.361 N 
ATOM     26  H3  UNL     1       0.534 -13.926  -8.420  1.00  0.00     0.162 HD
BRANCH  25  27
HETATM   27  C19 UNL     1       1.705 -12.232  -8.404  1.00  0.00     0.127 C 
BRANCH  27  28
HETATM   28  C20 UNL     1       2.752 -12.568  -7.452  1.00  0.00     0.003 C 
HETATM   29  C21 UNL     1       2.279 -13.476  -6.322  1.00  0.00     0.006 C 
HETATM   30  C22 UNL     1       3.470 -13.994  -5.536  1.00  0.00     0.000 C 
HETATM   31  C23 UNL     1       4.590 -12.981  -5.510  1.00  0.00     0.000 C 
HETATM   32  C24 UNL     1       5.136 -12.652  -6.882  1.00  0.00     0.000 C 
HETATM   33  C25 UNL     1       4.088 -12.968  -7.958  1.00  0.00     0.006 C 
ENDBRANCH  27  28
ENDBRANCH  25  27
ENDBRANCH  22  23
ENDBRANCH   1  22
BRANCH  12  34
HETATM   34  C12 UNL     1      -9.068  -7.787  -7.281  1.00  0.00     0.196 C 
HETATM   35  O3  UNL     1     -10.108  -7.182  -6.845  1.00  0.00    -0.646 OA
HETATM   36  O4  UNL     1      -8.742  -8.932  -6.571  1.00  0.00    -0.646 OA
ENDBRANCH  12  34
TORSDOF 5
ENDMDL
MODEL 4
REMARK VINA RESULT: -9.837865220      0.983      1.016
REMARK  5 active torsions:
REMARK  status: ('A' for Active; 'I' for Inactive)
REMARK    1  A    between atoms: C1_2  and  C2_3 
REMARK       I    between atoms: C1_2  and  N3_28 
REMARK    2  A    between atoms: C2_3  and  C3_4 
REMARK    3  A    between atoms: C11_15  and  C12_16 
REMARK    4  A    between atoms: N3_28  and  C19_30 
REMARK    5  A    between atoms: C19_30  and  C20_31 
ROOT
HETATM    1  C3  UNL     1      -3.220 -12.074  -7.903  1.00  0.00     0.194 C 
HETATM    2  C4  UNL     1      -4.139 -13.261  -7.726  1.00  0.00     0.033 C 
HETATM    3  C5  UNL     1      -5.231 -13.137  -8.776  1.00  0.00     0.002 C 
HETATM    4  C6  UNL     1      -6.532 -13.755  -8.321  1.00  0.00     0.000 C 
HETATM    5  C7  UNL     1      -7.455 -13.797  -9.508  1.00  0.00     0.000 C 
HETATM    6  C8  UNL     1      -8.603 -12.800  -9.377  1.00  0.00     0.009 C 
HETATM    7  C9  UNL     1      -8.178 -11.437  -9.814  1.00  0.00     0.103 C 
HETATM    8  C10 UNL     1      -9.189 -10.768 -10.674  1.00  0.00     0.218 C 
HETATM    9  O2  UNL     1     -10.018 -11.560 -11.220  1.00  0.00    -0.274 OA
HETATM   10  N1  UNL     1      -9.279  -9.376 -10.909  1.00  0.00    -0.347 N 
ATOM     11  H1  UNL     1      -9.389  -9.079 -11.880  1.00  0.00     0.163 HD
HETATM   12  C11 UNL     1      -9.231  -8.337  -9.910  1.00  0.00     0.185 C 
HETATM   13  C13 UNL     1      -7.843  -7.848  -9.638  1.00  0.00     0.036 C 
HETATM   14  C14 UNL     1      -7.471  -7.849  -8.173  1.00  0.00     0.002 C 
HETATM   15  C15 UNL     1      -5.935  -7.870  -8.100  1.00  0.00     0.000 C 
HETATM   16  C16 UNL     1      -5.580  -8.304  -6.687  1.00  0.00     0.002 C 
HETATM   17  C17 UNL     1      -5.227  -9.796  -6.686  1.00  0.00     0.027 C 
HETATM   18  C18 UNL     1      -3.752  -9.898  -7.012  1.00  0.00     0.232 C 
HETATM   19  N2  UNL     1      -3.223 -11.213  -6.736  1.00  0.00    -0.070 N 
ATOM     20  H21 UNL     1      -2.292 -11.154  -6.324  1.00  0.00     0.277 HD
ATOM     21  H22 UNL     1      -3.719 -11.652  -5.960  1.00  0.00     0.277 HD
ENDROOT
BRANCH   1  22
HETATM   22  C2  UNL     1      -1.837 -12.604  -8.206  1.00  0.00     0.135 C 
BRANCH  22  23
HETATM   23  C1  UNL     1      -0.971 -12.533  -6.973  1.00  0.00     0.219 C 
HETATM   24  O1  UNL     1      -1.436 -12.964  -5.891  1.00  0.00    -0.274 OA
HETATM   25  N3  UNL     1       0.325 -12.002  -7.010  1.00  0.00    -0.361 N 
ATOM     26  H3  UNL     1       0.628 -11.686  -7.931  1.00  0.00     0.162 HD
BRANCH  25  27
HETATM   27  C19 UNL     1       1.283 -11.832  -5.984  1.00  0.00     0.127 C 
BRANCH  27  28
HETATM   28  C20 UNL     1       2.643 -12.332  -6.120  1.00  0.00     0.003 C 
HETATM   29  C21 UNL     1       3.059 -12.576  -7.566  1.00  0.00     0.006 C 
HETATM   30  C22 UNL     1       4.554 -12.832  -7.642  1.00  0.00     0.000 C 
HETATM   31  C23 UNL     1       5.053 -13.530  -6.399  1.00  0.00     0.000 C 
HETATM   32  C24 UNL     1       4.855 -12.723  -5.135  1.00  0.00     0.000 C 
HETATM   33  C25 UNL     1       3.729 -11.698  -5.333  1.00  0.00     0.006 C 
ENDBRANCH  27  28
ENDBRANCH  25  27
ENDBRANCH  22  23
ENDBRANCH   1  22
BRANCH  12  34
HETATM   34  C12 UNL     1      -9.955  -8.692  -8.678  1.00  0.00     0.196 C 
HETATM   35  O3  UNL     1     -11.234  -8.664  -8.614  1.00  0.00    -0.646 OA
HETATM   36  O4  UNL     1      -9.340  -9.081  -7.498  1.00  0.00    -0.646 OA
ENDBRANCH  12  34
TORSDOF 5
ENDMDL
MODEL 5
REMARK VINA RESULT: -9.242322650      1.403      1.690
REMARK  5 active torsions:
REMARK  status: ('A' for Active; 'I' for Inactive)
REMARK    1  A    between atoms: C1_2  and  C2_3 
REMARK       I    between atoms: C1_2  and  N3_28 
REMARK    2  A    between atoms: C2_3  and  C3_4 
REMARK    3  A    between atoms: C11_15  and  C12_16 
REMARK    4  A    between atoms: N3_28  and  C19_30 
REMARK    5  A    between atoms: C19_30  and  C20_31 
ROOT
HETATM    1  C3  UNL     1      -3.996 -11.978  -7.643  1.00  0.00     0.194 C 
HETATM    2  C4  UNL     1      -5.314 -12.684  -7.860  1.00  0.00     0.033 C 
HETATM    3  C5  UNL     1      -6.118 -11.836  -8.830  1.00  0.00     0.002 C 
HETATM    4  C6  UNL     1      -7.606 -11.970  -8.609  1.00  0.00     0.000 C 
HETATM    5  C7  UNL     1      -8.300 -11.294  -9.760  1.00  0.00     0.000 C 
HETATM    6  C8  UNL     1      -8.984  -9.997  -9.336  1.00  0.00     0.009 C 
HETATM    7  C9  UNL     1      -8.012  -8.864  -9.317  1.00  0.00     0.103 C 
HETATM    8  C10 UNL     1      -8.560  -7.628  -9.936  1.00  0.00     0.218 C 
HETATM    9  O2  UNL     1      -9.544  -7.824 -10.713  1.00  0.00    -0.274 OA
HETATM   10  N1  UNL     1      -8.076  -6.317  -9.722  1.00  0.00    -0.347 N 
ATOM     11  H1  UNL     1      -7.927  -5.740 -10.551  1.00  0.00     0.163 HD
HETATM   12  C11 UNL     1      -7.772  -5.716  -8.446  1.00  0.00     0.185 C 
HETATM   13  C13 UNL     1      -6.356  -5.934  -8.017  1.00  0.00     0.036 C 
HETATM   14  C14 UNL     1      -6.219  -6.501  -6.622  1.00  0.00     0.002 C 
HETATM   15  C15 UNL     1      -4.835  -7.165  -6.540  1.00  0.00     0.000 C 
HETATM   16  C16 UNL     1      -4.873  -8.087  -5.332  1.00  0.00     0.002 C 
HETATM   17  C17 UNL     1      -5.124  -9.526  -5.796  1.00  0.00     0.027 C 
HETATM   18  C18 UNL     1      -3.770 -10.123  -6.119  1.00  0.00     0.232 C 
HETATM   19  N2  UNL     1      -3.830 -11.560  -6.264  1.00  0.00    -0.070 N 
ATOM     20  H21 UNL     1      -3.014 -12.004  -5.843  1.00  0.00     0.277 HD
ATOM     21  H22 UNL     1      -4.559 -11.957  -5.671  1.00  0.00     0.277 HD
ENDROOT
BRANCH   1  22
HETATM   22  C2  UNL     1      -2.894 -12.917  -8.080  1.00  0.00     0.135 C 
BRANCH  22  23
HETATM   23  C1  UNL     1      -1.595 -12.163  -8.225  1.00  0.00     0.219 C 
HETATM   24  O1  UNL     1      -1.627 -10.910  -8.203  1.00  0.00    -0.274 OA
HETATM   25  N3  UNL     1      -0.371 -12.825  -8.381  1.00  0.00    -0.361 N 
ATOM     26  H3  UNL     1      -0.434 -13.843  -8.376  1.00  0.00     0.162 HD
BRANCH  25  27
HETATM   27  C19 UNL     1       0.940 -12.318  -8.545  1.00  0.00     0.127 C 
BRANCH  27  28
HETATM   28  C20 UNL     1       2.024 -12.706  -7.655  1.00  0.00     0.003 C 
HETATM   29  C21 UNL     1       3.394 -12.691  -8.324  1.00  0.00     0.006 C 
HETATM   30  C22 UNL     1       4.485 -12.839  -7.279  1.00  0.00     0.000 C 
HETATM   31  C23 UNL     1       4.022 -13.693  -6.122  1.00  0.00     0.000 C 
HETATM   32  C24 UNL     1       2.841 -13.111  -5.379  1.00  0.00     0.000 C 
HETATM   33  C25 UNL     1       2.073 -12.139  -6.285  1.00  0.00     0.006 C 
ENDBRANCH  27  28
ENDBRANCH  25  27
ENDBRANCH  22  23
ENDBRANCH   1  22
BRANCH  12  34
HETATM   34  C12 UNL     1      -8.741  -6.077  -7.397  1.00  0.00     0.196 C 
HETATM   35  O3  UNL     1      -9.624  -5.249  -6.979  1.00  0.00    -0.646 OA
HETATM   36  O4  UNL     1      -8.790  -7.316  -6.777  1.00  0.00    -0.646 OA
ENDBRANCH  12  34
TORSDOF 5
ENDMDL
