MODEL 1
REMARK VINA RESULT: -7.729972155      0.000      0.000
REMARK  7 active torsions:
REMARK  status: ('A' for Active; 'I' for Inactive)
REMARK    1  A    between atoms: C2_2  and  C3_3 
REMARK    2  A    between atoms: C3_3  and  N1_4 
REMARK    3  A    between atoms: N1_4  and  C4_6 
REMARK    4  A    between atoms: C4_6  and  C5_10 
REMARK    5  A    between atoms: C7_12  and  O1_13 
REMARK    6  A    between atoms: C8_15  and  O2_16 
REMARK    7  A    between atoms: C20_29  and  C22_31 
ROOT
HETATM    1  C5  UNL     1      -7.648  -8.268  -8.850  1.00  0.00     0.061 C 
HETATM    2  C6  UNL     1      -7.442  -7.023  -8.007  1.00  0.00     0.053 C 
HETATM    3  C7  UNL     1      -7.350  -7.491  -6.551  1.00  0.00     0.089 C 
HETATM    4  C8  UNL     1      -7.682  -6.405  -5.597  1.00  0.00     0.153 C 
HETATM    5  C9  UNL     1      -6.610  -5.773  -4.824  1.00  0.00     0.039 C 
HETATM    6  C10 UNL     1      -5.271  -6.433  -4.857  1.00  0.00    -0.016 C 
HETATM    7  C11 UNL     1      -4.209  -5.380  -4.507  1.00  0.00     0.010 C 
HETATM    8  C12 UNL     1      -4.993  -7.000  -6.221  1.00  0.00     0.012 C 
HETATM    9  C13 UNL     1      -6.022  -8.120  -6.416  1.00  0.00     0.031 C 
HETATM   10  C14 UNL     1      -5.566  -8.928  -7.571  1.00  0.00    -0.033 C 
HETATM   11  C15 UNL     1      -4.338  -8.334  -8.256  1.00  0.00     0.016 C 
HETATM   12  C16 UNL     1      -5.023 -10.251  -6.992  1.00  0.00     0.010 C 
HETATM   13  C17 UNL     1      -4.674 -11.216  -8.079  1.00  0.00     0.006 C 
HETATM   14  C18 UNL     1      -5.953 -11.647  -8.753  1.00  0.00    -0.009 C 
HETATM   15  C19 UNL     1      -6.325 -13.031  -8.298  1.00  0.00     0.025 C 
HETATM   16  C20 UNL     1      -7.506 -13.486  -9.108  1.00  0.00     0.045 C 
HETATM   17  C21 UNL     1      -7.050 -13.700 -10.533  1.00  0.00     0.027 C 
HETATM   18  C23 UNL     1      -8.639 -12.529  -8.994  1.00  0.00     0.020 C 
HETATM   19  C24 UNL     1      -8.253 -11.091  -9.242  1.00  0.00     0.007 C 
HETATM   20  C25 UNL     1      -7.118 -10.711  -8.365  1.00  0.00    -0.005 C 
HETATM   21  C26 UNL     1      -6.597  -9.313  -8.591  1.00  0.00     0.010 C 
ENDROOT
BRANCH   1  22
HETATM   22  C4  UNL     1      -7.588  -7.743 -10.269  1.00  0.00     0.075 C 
HETATM   23  N2  UNL     1      -8.563  -7.897 -11.090  1.00  0.00    -0.389 N 
ATOM     24  H22 UNL     1      -8.523  -7.543 -12.046  1.00  0.00     0.157 HD
ATOM     25  H21 UNL     1      -9.367  -8.402 -10.718  1.00  0.00     0.157 HD
BRANCH  22  26
HETATM   26  N1  UNL     1      -6.473  -7.041 -10.785  1.00  0.00    -0.380 N 
ATOM     27  H1  UNL     1      -5.608  -6.994 -10.246  1.00  0.00     0.160 HD
BRANCH  26  28
HETATM   28  C3  UNL     1      -6.553  -6.390 -12.071  1.00  0.00     0.120 C 
BRANCH  28  29
HETATM   29  C2  UNL     1      -5.222  -6.504 -12.759  1.00  0.00     0.015 C 
HETATM   30  C1  UNL     1      -4.224  -7.035 -11.771  1.00  0.00     0.006 C 
ENDBRANCH  28  29
ENDBRANCH  26  28
ENDBRANCH  22  26
ENDBRANCH   1  22
BRANCH   3  31
HETATM   31  O1  UNL     1      -8.347  -8.460  -6.431  1.00  0.00    -0.387 OA
ATOM     32  H1  UNL     1      -8.029  -9.047  -5.756  1.00  0.00     0.210 HD
ENDBRANCH   3  31
BRANCH   4  33
HETATM   33  O2  UNL     1      -8.701  -6.803  -4.693  1.00  0.00    -0.393 OA
ATOM     34  H2  UNL     1      -9.336  -6.109  -4.558  1.00  0.00     0.210 HD
ENDBRANCH   4  33
BRANCH  16  35
HETATM   35  C22 UNL     1      -7.948 -14.810  -8.602  1.00  0.00     0.181 C 
HETATM   36  O3  UNL     1      -8.005 -15.810  -9.394  1.00  0.00    -0.647 OA
HETATM   37  O4  UNL     1      -8.314 -15.044  -7.288  1.00  0.00    -0.647 OA
ENDBRANCH  16  35
TORSDOF 7
ENDMDL
MODEL 2
REMARK VINA RESULT: -7.615347332      1.042      1.811
REMARK  7 active torsions:
REMARK  status: ('A' for Active; 'I' for Inactive)
REMARK    1  A    between atoms: C2_2  and  C3_3 
REMARK    2  A    between atoms: C3_3  and  N1_4 
REMARK    3  A    between atoms: N1_4  and  C4_6 
REMARK    4  A    between atoms: C4_6  and  C5_10 
REMARK    5  A    between atoms: C7_12  and  O1_13 
REMARK    6  A    between atoms: C8_15  and  O2_16 
REMARK    7  A    between atoms: C20_29  and  C22_31 
ROOT
HETATM    1  C5  UNL     1      -7.472  -8.337  -8.702  1.00  0.00     0.061 C 
HETATM    2  C6  UNL     1      -7.255  -7.122  -7.819  1.00  0.00     0.053 C 
HETATM    3  C7  UNL     1      -7.206  -7.634  -6.375  1.00  0.00     0.089 C 
HETATM    4  C8  UNL     1      -7.534  -6.568  -5.397  1.00  0.00     0.153 C 
HETATM    5  C9  UNL     1      -6.464  -5.985  -4.583  1.00  0.00     0.039 C 
HETATM    6  C10 UNL     1      -5.141  -6.677  -4.607  1.00  0.00    -0.016 C 
HETATM    7  C11 UNL     1      -4.062  -5.660  -4.203  1.00  0.00     0.010 C 
HETATM    8  C12 UNL     1      -4.846  -7.211  -5.980  1.00  0.00     0.012 C 
HETATM    9  C13 UNL     1      -5.898  -8.299  -6.230  1.00  0.00     0.031 C 
HETATM   10  C14 UNL     1      -5.435  -9.085  -7.399  1.00  0.00    -0.033 C 
HETATM   11  C15 UNL     1      -4.179  -8.501  -8.039  1.00  0.00     0.016 C 
HETATM   12  C16 UNL     1      -4.938 -10.436  -6.847  1.00  0.00     0.010 C 
HETATM   13  C17 UNL     1      -4.588 -11.379  -7.953  1.00  0.00     0.006 C 
HETATM   14  C18 UNL     1      -5.862 -11.758  -8.667  1.00  0.00    -0.009 C 
HETATM   15  C19 UNL     1      -6.277 -13.145  -8.261  1.00  0.00     0.025 C 
HETATM   16  C20 UNL     1      -7.450 -13.547  -9.109  1.00  0.00     0.045 C 
HETATM   17  C21 UNL     1      -6.968 -13.732 -10.530  1.00  0.00     0.027 C 
HETATM   18  C23 UNL     1      -8.563 -12.566  -8.991  1.00  0.00     0.020 C 
HETATM   19  C24 UNL     1      -8.136 -11.132  -9.189  1.00  0.00     0.007 C 
HETATM   20  C25 UNL     1      -7.012 -10.805  -8.277  1.00  0.00    -0.005 C 
HETATM   21  C26 UNL     1      -6.453  -9.415  -8.451  1.00  0.00     0.010 C 
ENDROOT
BRANCH   1  22
HETATM   22  C4  UNL     1      -7.368  -7.773 -10.104  1.00  0.00     0.075 C 
HETATM   23  N2  UNL     1      -6.285  -7.242 -10.543  1.00  0.00    -0.389 N 
ATOM     24  H22 UNL     1      -6.215  -6.863 -11.487  1.00  0.00     0.157 HD
ATOM     25  H21 UNL     1      -5.512  -7.222  -9.877  1.00  0.00     0.157 HD
BRANCH  22  26
HETATM   26  N1  UNL     1      -8.441  -7.802 -11.027  1.00  0.00    -0.380 N 
ATOM     27  H1  UNL     1      -8.263  -8.029 -12.005  1.00  0.00     0.160 HD
BRANCH  26  28
HETATM   28  C3  UNL     1      -9.786  -7.510 -10.590  1.00  0.00     0.120 C 
BRANCH  28  29
HETATM   29  C2  UNL     1     -10.629  -8.743 -10.756  1.00  0.00     0.015 C 
HETATM   30  C1  UNL     1     -10.101  -9.524 -11.924  1.00  0.00     0.006 C 
ENDBRANCH  28  29
ENDBRANCH  26  28
ENDBRANCH  22  26
ENDBRANCH   1  22
BRANCH   3  31
HETATM   31  O1  UNL     1      -8.230  -8.581  -6.306  1.00  0.00    -0.387 OA
ATOM     32  H1  UNL     1      -8.055  -9.173  -7.027  1.00  0.00     0.210 HD
ENDBRANCH   3  31
BRANCH   4  33
HETATM   33  O2  UNL     1      -8.582  -6.966  -4.528  1.00  0.00    -0.393 OA
ATOM     34  H2  UNL     1      -8.360  -7.762  -4.058  1.00  0.00     0.210 HD
ENDBRANCH   4  33
BRANCH  16  35
HETATM   35  C22 UNL     1      -7.935 -14.874  -8.651  1.00  0.00     0.181 C 
HETATM   36  O3  UNL     1      -7.929 -15.868  -9.453  1.00  0.00    -0.647 OA
HETATM   37  O4  UNL     1      -8.409 -15.117  -7.374  1.00  0.00    -0.647 OA
ENDBRANCH  16  35
TORSDOF 7
ENDMDL
MODEL 3
REMARK VINA RESULT: -7.541293376      2.852      4.823
REMARK  7 active torsions:
REMARK  status: ('A' for Active; 'I' for Inactive)
REMARK    1  A    between atoms: C2_2  and  C3_3 
REMARK    2  A    between atoms: C3_3  and  N1_4 
REMARK    3  A    between atoms: N1_4  and  C4_6 
REMARK    4  A    between atoms: C4_6  and  C5_10 
REMARK    5  A    between atoms: C7_12  and  O1_13 
REMARK    6  A    between atoms: C8_15  and  O2_16 
REMARK    7  A    between atoms: C20_29  and  C22_31 
ROOT
HETATM    1  C5  UNL     1      -4.667  -9.192  -7.965  1.00  0.00     0.061 C 
HETATM    2  C6  UNL     1      -4.195  -7.795  -8.329  1.00  0.00     0.053 C 
HETATM    3  C7  UNL     1      -4.710  -7.514  -9.744  1.00  0.00     0.089 C 
HETATM    4  C8  UNL     1      -3.914  -6.465 -10.426  1.00  0.00     0.153 C 
HETATM    5  C9  UNL     1      -4.488  -5.130 -10.607  1.00  0.00     0.039 C 
HETATM    6  C10 UNL     1      -5.945  -4.973 -10.316  1.00  0.00    -0.016 C 
HETATM    7  C11 UNL     1      -6.214  -3.493 -10.005  1.00  0.00     0.010 C 
HETATM    8  C12 UNL     1      -6.345  -5.820  -9.142  1.00  0.00     0.012 C 
HETATM    9  C13 UNL     1      -6.158  -7.271  -9.602  1.00  0.00     0.031 C 
HETATM   10  C14 UNL     1      -6.868  -8.128  -8.622  1.00  0.00    -0.033 C 
HETATM   11  C15 UNL     1      -7.422  -7.336  -7.442  1.00  0.00     0.016 C 
HETATM   12  C16 UNL     1      -8.146  -8.628  -9.325  1.00  0.00     0.010 C 
HETATM   13  C17 UNL     1      -8.870  -9.631  -8.485  1.00  0.00     0.006 C 
HETATM   14  C18 UNL     1      -8.023 -10.877  -8.407  1.00  0.00    -0.009 C 
HETATM   15  C19 UNL     1      -8.593 -11.935  -9.312  1.00  0.00     0.025 C 
HETATM   16  C20 UNL     1      -7.822 -13.205  -9.085  1.00  0.00     0.045 C 
HETATM   17  C21 UNL     1      -8.151 -13.719  -7.702  1.00  0.00     0.027 C 
HETATM   18  C23 UNL     1      -6.365 -12.999  -9.302  1.00  0.00     0.020 C 
HETATM   19  C24 UNL     1      -5.800 -11.809  -8.566  1.00  0.00     0.007 C 
HETATM   20  C25 UNL     1      -6.585 -10.591  -8.888  1.00  0.00    -0.005 C 
HETATM   21  C26 UNL     1      -6.153  -9.356  -8.138  1.00  0.00     0.010 C 
ENDROOT
BRANCH   1  22
HETATM   22  C4  UNL     1      -4.244  -9.339  -6.519  1.00  0.00     0.075 C 
HETATM   23  N2  UNL     1      -4.044  -8.320  -5.764  1.00  0.00    -0.389 N 
ATOM     24  H22 UNL     1      -3.760  -8.420  -4.790  1.00  0.00     0.157 HD
ATOM     25  H21 UNL     1      -4.183  -7.415  -6.213  1.00  0.00     0.157 HD
BRANCH  22  26
HETATM   26  N1  UNL     1      -4.052 -10.596  -5.896  1.00  0.00    -0.380 N 
ATOM     27  H1  UNL     1      -4.852 -11.101  -5.516  1.00  0.00     0.160 HD
BRANCH  26  28
HETATM   28  C3  UNL     1      -2.729 -11.165  -5.797  1.00  0.00     0.120 C 
BRANCH  28  29
HETATM   29  C2  UNL     1      -2.688 -12.443  -6.587  1.00  0.00     0.015 C 
HETATM   30  C1  UNL     1      -2.067 -12.153  -7.922  1.00  0.00     0.006 C 
ENDBRANCH  28  29
ENDBRANCH  26  28
ENDBRANCH  22  26
ENDBRANCH   1  22
BRANCH   3  31
HETATM   31  O1  UNL     1      -4.496  -8.706 -10.438  1.00  0.00    -0.387 OA
ATOM     32  H1  UNL     1      -4.748  -8.509 -11.332  1.00  0.00     0.210 HD
ENDBRANCH   3  31
BRANCH   4  33
HETATM   33  O2  UNL     1      -3.436  -6.913 -11.684  1.00  0.00    -0.393 OA
ATOM     34  H2  UNL     1      -3.444  -7.861 -11.742  1.00  0.00     0.210 HD
ENDBRANCH   4  33
BRANCH  16  35
HETATM   35  C22 UNL     1      -8.306 -14.231 -10.043  1.00  0.00     0.181 C 
HETATM   36  O3  UNL     1      -8.086 -15.468  -9.819  1.00  0.00    -0.647 OA
HETATM   37  O4  UNL     1      -9.001 -13.929 -11.202  1.00  0.00    -0.647 OA
ENDBRANCH  16  35
TORSDOF 7
ENDMDL
MODEL 4
REMARK VINA RESULT: -7.473589305      3.226      4.586
REMARK  7 active torsions:
REMARK  status: ('A' for Active; 'I' for Inactive)
REMARK    1  A    between atoms: C2_2  and  C3_3 
REMARK    2  A    between atoms: C3_3  and  N1_4 
REMARK    3  A    between atoms: N1_4  and  C4_6 
REMARK    4  A    between atoms: C4_6  and  C5_10 
REMARK    5  A    between atoms: C7_12  and  O1_13 
REMARK    6  A    between atoms: C8_15  and  O2_16 
REMARK    7  A    between atoms: C20_29  and  C22_31 
ROOT
HETATM    1  C5  UNL     1      -4.139 -10.524  -7.614  1.00  0.00     0.061 C 
HETATM    2  C6  UNL     1      -3.525  -9.178  -7.276  1.00  0.00     0.053 C 
HETATM    3  C7  UNL     1      -4.286  -8.131  -8.096  1.00  0.00     0.089 C 
HETATM    4  C8  UNL     1      -3.492  -6.893  -8.291  1.00  0.00     0.153 C 
HETATM    5  C9  UNL     1      -3.851  -5.684  -7.545  1.00  0.00     0.039 C 
HETATM    6  C10 UNL     1      -5.156  -5.698  -6.819  1.00  0.00    -0.016 C 
HETATM    7  C11 UNL     1      -5.087  -4.656  -5.693  1.00  0.00     0.010 C 
HETATM    8  C12 UNL     1      -5.425  -7.057  -6.237  1.00  0.00     0.012 C 
HETATM    9  C13 UNL     1      -5.601  -7.989  -7.442  1.00  0.00     0.031 C 
HETATM   10  C14 UNL     1      -6.212  -9.240  -6.932  1.00  0.00    -0.033 C 
HETATM   11  C15 UNL     1      -6.341  -9.254  -5.412  1.00  0.00     0.016 C 
HETATM   12  C16 UNL     1      -7.682  -9.230  -7.398  1.00  0.00     0.010 C 
HETATM   13  C17 UNL     1      -8.363 -10.520  -7.074  1.00  0.00     0.006 C 
HETATM   14  C18 UNL     1      -7.750 -11.602  -7.929  1.00  0.00    -0.009 C 
HETATM   15  C19 UNL     1      -8.682 -11.946  -9.058  1.00  0.00     0.025 C 
HETATM   16  C20 UNL     1      -8.114 -13.131  -9.786  1.00  0.00     0.045 C 
HETATM   17  C21 UNL     1      -8.209 -14.336  -8.879  1.00  0.00     0.027 C 
HETATM   18  C23 UNL     1      -6.729 -12.861 -10.258  1.00  0.00     0.020 C 
HETATM   19  C24 UNL     1      -5.815 -12.313  -9.189  1.00  0.00     0.007 C 
HETATM   20  C25 UNL     1      -6.428 -11.116  -8.560  1.00  0.00    -0.005 C 
HETATM   21  C26 UNL     1      -5.631 -10.536  -7.419  1.00  0.00     0.010 C 
ENDROOT
BRANCH   1  22
HETATM   22  C4  UNL     1      -3.436 -11.476  -6.670  1.00  0.00     0.075 C 
HETATM   23  N2  UNL     1      -3.281 -11.206  -5.425  1.00  0.00    -0.389 N 
ATOM     24  H22 UNL     1      -2.807 -11.848  -4.789  1.00  0.00     0.157 HD
ATOM     25  H21 UNL     1      -3.657 -10.305  -5.127  1.00  0.00     0.157 HD
BRANCH  22  26
HETATM   26  N1  UNL     1      -2.915 -12.726  -7.083  1.00  0.00    -0.380 N 
ATOM     27  H1  UNL     1      -3.191 -13.578  -6.594  1.00  0.00     0.160 HD
BRANCH  26  28
HETATM   28  C3  UNL     1      -1.996 -12.801  -8.193  1.00  0.00     0.120 C 
BRANCH  28  29
HETATM   29  C2  UNL     1      -0.613 -12.474  -7.704  1.00  0.00     0.015 C 
HETATM   30  C1  UNL     1       0.137 -11.806  -8.819  1.00  0.00     0.006 C 
ENDBRANCH  28  29
ENDBRANCH  26  28
ENDBRANCH  22  26
ENDBRANCH   1  22
BRANCH   3  31
HETATM   31  O1  UNL     1      -4.443  -8.718  -9.352  1.00  0.00    -0.387 OA
ATOM     32  H1  UNL     1      -5.116  -8.198  -9.775  1.00  0.00     0.210 HD
ENDBRANCH   3  31
BRANCH   4  33
HETATM   33  O2  UNL     1      -3.393  -6.551  -9.663  1.00  0.00    -0.393 OA
ATOM     34  H2  UNL     1      -4.232  -6.278 -10.015  1.00  0.00     0.210 HD
ENDBRANCH   4  33
BRANCH  16  35
HETATM   35  C22 UNL     1      -8.971 -13.419 -10.965  1.00  0.00     0.181 C 
HETATM   36  O3  UNL     1      -8.670 -14.376 -11.754  1.00  0.00    -0.647 OA
HETATM   37  O4  UNL     1     -10.110 -12.698 -11.277  1.00  0.00    -0.647 OA
ENDBRANCH  16  35
TORSDOF 7
ENDMDL
MODEL 5
REMARK VINA RESULT: -7.394160742      2.616      4.728
REMARK  7 active torsions:
REMARK  status: ('A' for Active; 'I' for Inactive)
REMARK    1  A    between atoms: C2_2  and  C3_3 
REMARK    2  A    between atoms: C3_3  and  N1_4 
REMARK    3  A    between atoms: N1_4  and  C4_6 
REMARK    4  A    between atoms: C4_6  and  C5_10 
REMARK    5  A    between atoms: C7_12  and  O1_13 
REMARK    6  A    between atoms: C8_15  and  O2_16 
REMARK    7  A    between atoms: C20_29  and  C22_31 
ROOT
HETATM    1  C5  UNL     1      -4.547  -9.020  -8.085  1.00  0.00     0.061 C 
HETATM    2  C6  UNL     1      -4.157  -7.624  -8.535  1.00  0.00     0.053 C 
HETATM    3  C7  UNL     1      -4.757  -7.431  -9.932  1.00  0.00     0.089 C 
HETATM    4  C8  UNL     1      -4.044  -6.383 -10.703  1.00  0.00     0.153 C 
HETATM    5  C9  UNL     1      -4.686  -5.083 -10.912  1.00  0.00     0.039 C 
HETATM    6  C10 UNL     1      -6.131  -4.974 -10.550  1.00  0.00    -0.016 C 
HETATM    7  C11 UNL     1      -6.449  -3.494 -10.292  1.00  0.00     0.010 C 
HETATM    8  C12 UNL     1      -6.432  -5.781  -9.319  1.00  0.00     0.012 C 
HETATM    9  C13 UNL     1      -6.205  -7.243  -9.723  1.00  0.00     0.031 C 
HETATM   10  C14 UNL     1      -6.824  -8.082  -8.669  1.00  0.00    -0.033 C 
HETATM   11  C15 UNL     1      -7.351  -7.259  -7.497  1.00  0.00     0.016 C 
HETATM   12  C16 UNL     1      -8.114  -8.668  -9.279  1.00  0.00     0.010 C 
HETATM   13  C17 UNL     1      -8.748  -9.659  -8.358  1.00  0.00     0.006 C 
HETATM   14  C18 UNL     1      -7.844 -10.864  -8.269  1.00  0.00    -0.009 C 
HETATM   15  C19 UNL     1      -8.412 -11.986  -9.094  1.00  0.00     0.025 C 
HETATM   16  C20 UNL     1      -7.575 -13.211  -8.853  1.00  0.00     0.045 C 
HETATM   17  C21 UNL     1      -7.808 -13.672  -7.432  1.00  0.00     0.027 C 
HETATM   18  C23 UNL     1      -6.142 -12.954  -9.157  1.00  0.00     0.020 C 
HETATM   19  C24 UNL     1      -5.592 -11.708  -8.506  1.00  0.00     0.007 C 
HETATM   20  C25 UNL     1      -6.446 -10.540  -8.839  1.00  0.00    -0.005 C 
HETATM   21  C26 UNL     1      -6.031  -9.254  -8.170  1.00  0.00     0.010 C 
ENDROOT
BRANCH   1  22
HETATM   22  C4  UNL     1      -4.043  -9.082  -6.659  1.00  0.00     0.075 C 
HETATM   23  N2  UNL     1      -3.786 -10.197  -6.078  1.00  0.00    -0.389 N 
ATOM     24  H22 UNL     1      -3.446 -10.238  -5.117  1.00  0.00     0.157 HD
ATOM     25  H21 UNL     1      -3.954 -11.029  -6.644  1.00  0.00     0.157 HD
BRANCH  22  26
HETATM   26  N1  UNL     1      -3.809  -7.927  -5.874  1.00  0.00    -0.380 N 
ATOM     27  H1  UNL     1      -2.935  -7.411  -5.978  1.00  0.00     0.160 HD
BRANCH  26  28
HETATM   28  C3  UNL     1      -4.801  -7.476  -4.927  1.00  0.00     0.120 C 
BRANCH  28  29
HETATM   29  C2  UNL     1      -4.436  -6.096  -4.459  1.00  0.00     0.015 C 
HETATM   30  C1  UNL     1      -3.748  -5.381  -5.586  1.00  0.00     0.006 C 
ENDBRANCH  28  29
ENDBRANCH  26  28
ENDBRANCH  22  26
ENDBRANCH   1  22
BRANCH   3  31
HETATM   31  O1  UNL     1      -4.526  -8.645 -10.582  1.00  0.00    -0.387 OA
ATOM     32  H1  UNL     1      -4.681  -9.304  -9.917  1.00  0.00     0.210 HD
ENDBRANCH   3  31
BRANCH   4  33
HETATM   33  O2  UNL     1      -3.613  -6.869 -11.963  1.00  0.00    -0.393 OA
ATOM     34  H2  UNL     1      -2.942  -7.537 -11.868  1.00  0.00     0.210 HD
ENDBRANCH   4  33
BRANCH  16  35
HETATM   35  C22 UNL     1      -8.062 -14.300  -9.737  1.00  0.00     0.181 C 
HETATM   36  O3  UNL     1      -7.720 -15.508  -9.508  1.00  0.00    -0.647 OA
HETATM   37  O4  UNL     1      -8.887 -14.089 -10.828  1.00  0.00    -0.647 OA
ENDBRANCH  16  35
TORSDOF 7
ENDMDL
