MODEL 1
REMARK VINA RESULT: -5.578565144      0.000      0.000
REMARK  0 active torsions:
REMARK  status: ('A' for Active; 'I' for Inactive)
ROOT
HETATM    1  C1  UNL     1     -34.466   4.679   3.951  1.00  0.00    -0.030 A 
HETATM    2  C2  UNL     1     -34.790   4.789   4.773  1.00  0.00    -0.030 A 
HETATM    3  C3  UNL     1     -34.875   5.582   5.868  1.00  0.00     0.026 A 
HETATM    4  C4  UNL     1     -33.896   6.742   5.167  1.00  0.00     0.004 A 
HETATM    5  C5  UNL     1     -33.420   6.595   3.803  1.00  0.00     0.004 A 
HETATM    6  C6  UNL     1     -33.723   5.190   2.930  1.00  0.00     0.026 A 
ENDROOT
TORSDOF 0
ENDMDL
MODEL 2
REMARK VINA RESULT: -5.571611329      0.017      2.083
REMARK  0 active torsions:
REMARK  status: ('A' for Active; 'I' for Inactive)
ROOT
HETATM    1  C1  UNL     1     -34.777   4.783   4.768  1.00  0.00    -0.030 A 
HETATM    2  C2  UNL     1     -34.456   4.684   3.943  1.00  0.00    -0.030 A 
HETATM    3  C3  UNL     1     -33.725   5.213   2.934  1.00  0.00     0.026 A 
HETATM    4  C4  UNL     1     -33.429   6.606   3.809  1.00  0.00     0.004 A 
HETATM    5  C5  UNL     1     -33.896   6.743   5.178  1.00  0.00     0.004 A 
HETATM    6  C6  UNL     1     -34.868   5.565   5.880  1.00  0.00     0.026 A 
ENDROOT
TORSDOF 0
ENDMDL
MODEL 3
REMARK VINA RESULT: -5.501726509      0.624      1.202
REMARK  0 active torsions:
REMARK  status: ('A' for Active; 'I' for Inactive)
ROOT
HETATM    1  C1  UNL     1     -34.800   4.964   5.128  1.00  0.00    -0.030 A 
HETATM    2  C2  UNL     1     -34.696   5.619   5.723  1.00  0.00    -0.030 A 
HETATM    3  C3  UNL     1     -34.153   6.828   6.003  1.00  0.00     0.026 A 
HETATM    4  C4  UNL     1     -33.431   6.911   4.498  1.00  0.00     0.004 A 
HETATM    5  C5  UNL     1     -33.653   5.876   3.504  1.00  0.00     0.004 A 
HETATM    6  C6  UNL     1     -34.530   4.492   3.879  1.00  0.00     0.026 A 
ENDROOT
TORSDOF 0
ENDMDL
MODEL 4
REMARK VINA RESULT: -5.493385520      0.611      2.076
REMARK  0 active torsions:
REMARK  status: ('A' for Active; 'I' for Inactive)
ROOT
HETATM    1  C1  UNL     1     -34.687   5.634   5.728  1.00  0.00    -0.030 A 
HETATM    2  C2  UNL     1     -34.801   4.964   5.152  1.00  0.00    -0.030 A 
HETATM    3  C3  UNL     1     -34.555   4.471   3.916  1.00  0.00     0.026 A 
HETATM    4  C4  UNL     1     -33.699   5.840   3.483  1.00  0.00     0.004 A 
HETATM    5  C5  UNL     1     -33.456   6.904   4.441  1.00  0.00     0.004 A 
HETATM    6  C6  UNL     1     -34.144   6.860   5.973  1.00  0.00     0.026 A 
ENDROOT
TORSDOF 0
ENDMDL
MODEL 5
REMARK VINA RESULT: -5.464043428      0.404      1.870
REMARK  0 active torsions:
REMARK  status: ('A' for Active; 'I' for Inactive)
ROOT
HETATM    1  C1  UNL     1     -33.685   6.842   4.901  1.00  0.00    -0.030 A 
HETATM    2  C2  UNL     1     -34.156   6.445   5.545  1.00  0.00    -0.030 A 
HETATM    3  C3  UNL     1     -34.899   5.377   5.919  1.00  0.00     0.026 A 
HETATM    4  C4  UNL     1     -34.745   4.674   4.410  1.00  0.00     0.004 A 
HETATM    5  C5  UNL     1     -33.924   5.287   3.380  1.00  0.00     0.004 A 
HETATM    6  C6  UNL     1     -33.215   6.792   3.623  1.00  0.00     0.026 A 
ENDROOT
TORSDOF 0
ENDMDL
