MODEL 1
REMARK VINA RESULT: -4.750358908      0.000      0.000
REMARK  0 active torsions:
REMARK  status: ('A' for Active; 'I' for Inactive)
ROOT
HETATM    1  C1  UNL     1     -34.101   4.368   4.894  1.00  0.00     0.014 C 
HETATM    2  C2  UNL     1     -34.322   5.190   3.721  1.00  0.00    -0.008 C 
HETATM    3  C3  UNL     1     -35.719   5.450   4.210  1.00  0.00     0.014 C 
HETATM    4  C4  UNL     1     -34.887   5.565   5.494  1.00  0.00    -0.035 A 
HETATM    5  C5  UNL     1     -34.067   6.629   5.920  1.00  0.00     0.015 A 
HETATM    6  C6  UNL     1     -34.036   6.453   4.487  1.00  0.00    -0.001 A 
ENDROOT
TORSDOF 0
ENDMDL
MODEL 2
REMARK VINA RESULT: -4.511244695      0.588      1.563
REMARK  0 active torsions:
REMARK  status: ('A' for Active; 'I' for Inactive)
ROOT
HETATM    1  C1  UNL     1     -35.685   5.608   4.172  1.00  0.00     0.014 C 
HETATM    2  C2  UNL     1     -34.750   4.516   4.351  1.00  0.00    -0.008 C 
HETATM    3  C3  UNL     1     -33.701   5.349   3.671  1.00  0.00     0.014 C 
HETATM    4  C4  UNL     1     -34.395   6.366   4.588  1.00  0.00    -0.035 A 
HETATM    5  C5  UNL     1     -34.257   6.534   5.980  1.00  0.00     0.015 A 
HETATM    6  C6  UNL     1     -34.165   5.149   5.584  1.00  0.00    -0.001 A 
ENDROOT
TORSDOF 0
ENDMDL
MODEL 3
REMARK VINA RESULT: -4.390000083      0.829      2.127
REMARK  0 active torsions:
REMARK  status: ('A' for Active; 'I' for Inactive)
ROOT
HETATM    1  C1  UNL     1     -35.751   5.417   4.185  1.00  0.00     0.014 C 
HETATM    2  C2  UNL     1     -34.799   6.181   4.966  1.00  0.00    -0.008 C 
HETATM    3  C3  UNL     1     -34.264   4.887   5.512  1.00  0.00     0.014 C 
HETATM    4  C4  UNL     1     -34.463   4.567   4.025  1.00  0.00    -0.035 A 
HETATM    5  C5  UNL     1     -33.663   4.946   2.928  1.00  0.00     0.015 A 
HETATM    6  C6  UNL     1     -33.712   5.965   3.948  1.00  0.00    -0.001 A 
ENDROOT
TORSDOF 0
ENDMDL
MODEL 4
REMARK VINA RESULT: -4.380033255      0.729      1.343
REMARK  0 active torsions:
REMARK  status: ('A' for Active; 'I' for Inactive)
ROOT
HETATM    1  C1  UNL     1     -34.328   5.346   5.736  1.00  0.00     0.014 C 
HETATM    2  C2  UNL     1     -34.638   4.537   4.574  1.00  0.00    -0.008 C 
HETATM    3  C3  UNL     1     -35.698   5.537   4.205  1.00  0.00     0.014 C 
HETATM    4  C4  UNL     1     -34.531   6.432   4.645  1.00  0.00    -0.035 A 
HETATM    5  C5  UNL     1     -33.355   6.756   3.939  1.00  0.00     0.015 A 
HETATM    6  C6  UNL     1     -33.794   5.406   3.680  1.00  0.00    -0.001 A 
ENDROOT
TORSDOF 0
ENDMDL
MODEL 5
REMARK VINA RESULT: -4.370210383      0.710      2.123
REMARK  0 active torsions:
REMARK  status: ('A' for Active; 'I' for Inactive)
ROOT
HETATM    1  C1  UNL     1     -33.969   6.200   5.002  1.00  0.00     0.014 C 
HETATM    2  C2  UNL     1     -34.750   5.014   5.289  1.00  0.00    -0.008 C 
HETATM    3  C3  UNL     1     -35.753   5.470   4.266  1.00  0.00     0.014 C 
HETATM    4  C4  UNL     1     -34.413   5.766   3.579  1.00  0.00    -0.035 A 
HETATM    5  C5  UNL     1     -33.525   4.867   2.955  1.00  0.00     0.015 A 
HETATM    6  C6  UNL     1     -34.176   4.285   4.104  1.00  0.00    -0.001 A 
ENDROOT
TORSDOF 0
ENDMDL
