MODEL 1
REMARK VINA RESULT: -4.492160739      0.000      0.000
REMARK  0 active torsions:
REMARK  status: ('A' for Active; 'I' for Inactive)
ROOT
HETATM    1  C1  UNL     1      85.520  -9.221  47.473  1.00  0.00     0.195 C 
HETATM    2  N1  UNL     1      86.874  -9.602  46.970  1.00  0.00    -0.234 N 
HETATM    3  N2  UNL     1      88.001  -9.173  47.214  1.00  0.00    -0.240 N 
ATOM      4  H2  UNL     1      88.343  -8.434  47.829  1.00  0.00     0.189 HD
HETATM    5  C2  UNL     1      88.645 -10.063  46.344  1.00  0.00     0.438 A 
HETATM    6  F1  UNL     1      89.167  -9.375  45.254  1.00  0.00    -0.162 F 
HETATM    7  F2  UNL     1      89.537 -10.961  46.902  1.00  0.00    -0.162 F 
HETATM    8  N3  UNL     1      87.347 -10.536  46.081  1.00  0.00    -0.024 NA
ENDROOT
TORSDOF 0
ENDMDL
MODEL 2
REMARK VINA RESULT: -4.423314482      3.211      3.718
REMARK  0 active torsions:
REMARK  status: ('A' for Active; 'I' for Inactive)
ROOT
HETATM    1  C1  UNL     1      88.426 -10.222  46.945  1.00  0.00     0.195 C 
HETATM    2  N1  UNL     1      87.301 -11.167  47.217  1.00  0.00    -0.234 N 
HETATM    3  N2  UNL     1      86.945 -12.211  46.671  1.00  0.00    -0.240 N 
ATOM      4  H2  UNL     1      87.309 -12.736  45.877  1.00  0.00     0.189 HD
HETATM    5  C2  UNL     1      85.860 -12.417  47.533  1.00  0.00     0.438 A 
HETATM    6  F1  UNL     1      84.662 -12.241  46.848  1.00  0.00    -0.162 F 
HETATM    7  F2  UNL     1      85.880 -13.557  48.316  1.00  0.00    -0.162 F 
HETATM    8  N3  UNL     1      86.286 -11.222  48.140  1.00  0.00    -0.024 NA
ENDROOT
TORSDOF 0
ENDMDL
MODEL 3
REMARK VINA RESULT: -4.378239514      0.428      1.650
REMARK  0 active torsions:
REMARK  status: ('A' for Active; 'I' for Inactive)
ROOT
HETATM    1  C1  UNL     1      85.189 -10.011  47.138  1.00  0.00     0.195 C 
HETATM    2  N1  UNL     1      86.640  -9.973  46.782  1.00  0.00    -0.234 N 
HETATM    3  N2  UNL     1      87.320 -10.640  46.003  1.00  0.00    -0.240 N 
ATOM      4  H2  UNL     1      87.097 -11.411  45.375  1.00  0.00     0.189 HD
HETATM    5  C2  UNL     1      88.510  -9.958  46.291  1.00  0.00     0.438 A 
HETATM    6  F1  UNL     1      89.387 -10.792  46.978  1.00  0.00    -0.162 F 
HETATM    7  F2  UNL     1      89.112  -9.267  45.254  1.00  0.00    -0.162 F 
HETATM    8  N3  UNL     1      87.712  -9.210  47.174  1.00  0.00    -0.024 NA
ENDROOT
TORSDOF 0
ENDMDL
MODEL 4
REMARK VINA RESULT: -4.259221819      1.774      2.061
REMARK  0 active torsions:
REMARK  status: ('A' for Active; 'I' for Inactive)
ROOT
HETATM    1  C1  UNL     1      86.335 -12.617  47.051  1.00  0.00     0.195 C 
HETATM    2  N1  UNL     1      87.162 -11.404  46.774  1.00  0.00    -0.234 N 
HETATM    3  N2  UNL     1      88.311 -11.095  47.087  1.00  0.00    -0.240 N 
ATOM      4  H2  UNL     1      89.035 -11.571  47.625  1.00  0.00     0.189 HD
HETATM    5  C2  UNL     1      88.267  -9.853  46.438  1.00  0.00     0.438 A 
HETATM    6  F1  UNL     1      88.272  -8.823  47.373  1.00  0.00    -0.162 F 
HETATM    7  F2  UNL     1      89.154  -9.651  45.396  1.00  0.00    -0.162 F 
HETATM    8  N3  UNL     1      86.957 -10.230  46.093  1.00  0.00    -0.024 NA
ENDROOT
TORSDOF 0
ENDMDL
MODEL 5
REMARK VINA RESULT: -4.245348427      3.835      4.323
REMARK  0 active torsions:
REMARK  status: ('A' for Active; 'I' for Inactive)
ROOT
HETATM    1  C1  UNL     1      85.075 -11.811  43.141  1.00  0.00     0.195 C 
HETATM    2  N1  UNL     1      85.076 -11.758  44.634  1.00  0.00    -0.234 N 
HETATM    3  N2  UNL     1      84.248 -12.103  45.476  1.00  0.00    -0.240 N 
ATOM      4  H2  UNL     1      83.322 -12.525  45.406  1.00  0.00     0.189 HD
HETATM    5  C2  UNL     1      85.035 -11.708  46.567  1.00  0.00     0.438 A 
HETATM    6  F1  UNL     1      84.467 -10.604  47.193  1.00  0.00    -0.162 F 
HETATM    7  F2  UNL     1      85.434 -12.695  47.451  1.00  0.00    -0.162 F 
HETATM    8  N3  UNL     1      85.965 -11.322  45.585  1.00  0.00    -0.024 NA
ENDROOT
TORSDOF 0
ENDMDL
