MODEL 1
REMARK VINA RESULT: -3.015345899      0.000      0.000
REMARK  0 active torsions:
REMARK  status: ('A' for Active; 'I' for Inactive)
ROOT
HETATM    1  C1  UNL     1      87.151 -10.579  47.135  1.00  0.00     0.170 C 
HETATM    2  N1  UNL     1      88.396 -10.697  46.370  1.00  0.00    -0.064 NA
HETATM    3  F1  UNL     1      89.429 -10.964  47.209  1.00  0.00    -0.117 F 
HETATM    4 CL1  UNL     1      88.594  -9.129  45.614  1.00  0.00     0.010 Cl
ENDROOT
TORSDOF 0
ENDMDL
MODEL 2
REMARK VINA RESULT: -2.965145952      2.068      2.068
REMARK  0 active torsions:
REMARK  status: ('A' for Active; 'I' for Inactive)
ROOT
HETATM    1  C1  UNL     1      87.035  -9.343  46.822  1.00  0.00     0.170 C 
HETATM    2  N1  UNL     1      88.484  -9.241  46.630  1.00  0.00    -0.064 NA
HETATM    3  F1  UNL     1      88.757  -8.919  45.341  1.00  0.00    -0.117 F 
HETATM    4 CL1  UNL     1      89.088 -10.841  47.017  1.00  0.00     0.010 Cl
ENDROOT
TORSDOF 0
ENDMDL
MODEL 3
REMARK VINA RESULT: -2.860883312      1.899      1.899
REMARK  0 active torsions:
REMARK  status: ('A' for Active; 'I' for Inactive)
ROOT
HETATM    1  C1  UNL     1      88.969 -10.795  47.032  1.00  0.00     0.170 C 
HETATM    2  N1  UNL     1      88.236 -10.096  45.974  1.00  0.00    -0.064 NA
HETATM    3  F1  UNL     1      89.083  -9.299  45.275  1.00  0.00    -0.117 F 
HETATM    4 CL1  UNL     1      87.041  -9.140  46.829  1.00  0.00     0.010 Cl
ENDROOT
TORSDOF 0
ENDMDL
MODEL 4
REMARK VINA RESULT: -2.860333986      7.790      7.790
REMARK  0 active torsions:
REMARK  status: ('A' for Active; 'I' for Inactive)
ROOT
HETATM    1  C1  UNL     1      92.267  -3.887  42.779  1.00  0.00     0.170 C 
HETATM    2  N1  UNL     1      91.590  -5.142  42.440  1.00  0.00    -0.064 NA
HETATM    3  F1  UNL     1      91.167  -5.106  41.151  1.00  0.00    -0.117 F 
HETATM    4 CL1  UNL     1      90.229  -5.214  43.543  1.00  0.00     0.010 Cl
ENDROOT
TORSDOF 0
ENDMDL
MODEL 5
REMARK VINA RESULT: -2.802981719      1.919      1.919
REMARK  0 active torsions:
REMARK  status: ('A' for Active; 'I' for Inactive)
ROOT
HETATM    1  C1  UNL     1      88.744 -10.607  47.015  1.00  0.00     0.170 C 
HETATM    2  N1  UNL     1      88.325  -9.203  47.043  1.00  0.00    -0.064 NA
HETATM    3  F1  UNL     1      87.037  -9.114  47.460  1.00  0.00    -0.117 F 
HETATM    4 CL1  UNL     1      88.483  -8.669  45.380  1.00  0.00     0.010 Cl
ENDROOT
TORSDOF 0
ENDMDL
