MODEL 1
REMARK VINA RESULT: -4.140823465      0.000      0.000
REMARK  1 active torsions:
REMARK  status: ('A' for Active; 'I' for Inactive)
REMARK    1  A    between atoms: C1_4  and  C2_6 
ROOT
HETATM    1  N1  UNL     1      90.719  -3.563  44.258  1.00  0.00    -0.389 N 
ATOM      2  H11 UNL     1      91.476  -2.902  44.082  1.00  0.00     0.157 HD
ATOM      3  H12 UNL     1      89.980  -3.409  44.944  1.00  0.00     0.157 HD
HETATM    4  C1  UNL     1      90.722  -4.632  43.566  1.00  0.00     0.139 C 
HETATM    5 CL1  UNL     1      89.422  -5.768  43.869  1.00  0.00    -0.064 Cl
ENDROOT
BRANCH   4   6
HETATM    6  C2  UNL     1      91.783  -4.853  42.580  1.00  0.00     0.414 C 
HETATM    7  F1  UNL     1      91.247  -5.016  41.317  1.00  0.00    -0.207 F 
HETATM    8  F2  UNL     1      92.749  -3.871  42.589  1.00  0.00    -0.207 F 
ENDBRANCH   4   6
TORSDOF 1
ENDMDL
MODEL 2
REMARK VINA RESULT: -3.999809082      1.538      1.538
REMARK  1 active torsions:
REMARK  status: ('A' for Active; 'I' for Inactive)
REMARK    1  A    between atoms: C1_4  and  C2_6 
ROOT
HETATM    1  N1  UNL     1      89.927  -5.268  43.938  1.00  0.00    -0.389 N 
ATOM      2  H11 UNL     1      90.054  -6.215  43.579  1.00  0.00     0.157 HD
ATOM      3  H12 UNL     1      89.162  -4.994  44.555  1.00  0.00     0.157 HD
HETATM    4  C1  UNL     1      90.789  -4.401  43.581  1.00  0.00     0.139 C 
HETATM    5 CL1  UNL     1      90.570  -2.775  44.198  1.00  0.00    -0.064 Cl
ENDROOT
BRANCH   4   6
HETATM    6  C2  UNL     1      91.888  -4.796  42.695  1.00  0.00     0.414 C 
HETATM    7  F1  UNL     1      91.422  -5.028  41.416  1.00  0.00    -0.207 F 
HETATM    8  F2  UNL     1      92.933  -3.897  42.691  1.00  0.00    -0.207 F 
ENDBRANCH   4   6
TORSDOF 1
ENDMDL
MODEL 3
REMARK VINA RESULT: -3.990262514      7.394      7.641
REMARK  1 active torsions:
REMARK  status: ('A' for Active; 'I' for Inactive)
REMARK    1  A    between atoms: C1_4  and  C2_6 
ROOT
HETATM    1  N1  UNL     1      86.739 -11.337  46.279  1.00  0.00    -0.389 N 
ATOM      2  H11 UNL     1      87.413 -11.938  45.804  1.00  0.00     0.157 HD
ATOM      3  H12 UNL     1      85.748 -11.559  46.370  1.00  0.00     0.157 HD
HETATM    4  C1  UNL     1      87.191 -10.256  46.779  1.00  0.00     0.139 C 
HETATM    5 CL1  UNL     1      86.032  -9.224  47.595  1.00  0.00    -0.064 Cl
ENDROOT
BRANCH   4   6
HETATM    6  C2  UNL     1      88.616  -9.939  46.649  1.00  0.00     0.414 C 
HETATM    7  F1  UNL     1      89.390 -11.019  47.024  1.00  0.00    -0.207 F 
HETATM    8  F2  UNL     1      88.961  -9.487  45.394  1.00  0.00    -0.207 F 
ENDBRANCH   4   6
TORSDOF 1
ENDMDL
MODEL 4
REMARK VINA RESULT: -3.839402429      8.101      8.310
REMARK  1 active torsions:
REMARK  status: ('A' for Active; 'I' for Inactive)
REMARK    1  A    between atoms: C1_4  and  C2_6 
ROOT
HETATM    1  N1  UNL     1      86.881 -12.170  46.764  1.00  0.00    -0.389 N 
ATOM      2  H11 UNL     1      87.655 -12.606  46.261  1.00  0.00     0.157 HD
ATOM      3  H12 UNL     1      86.010 -12.650  46.989  1.00  0.00     0.157 HD
HETATM    4  C1  UNL     1      87.043 -10.958  47.120  1.00  0.00     0.139 C 
HETATM    5 CL1  UNL     1      85.713 -10.210  47.985  1.00  0.00    -0.064 Cl
ENDROOT
BRANCH   4   6
HETATM    6  C2  UNL     1      88.295 -10.269  46.798  1.00  0.00     0.414 C 
HETATM    7  F1  UNL     1      88.307  -9.001  47.345  1.00  0.00    -0.207 F 
HETATM    8  F2  UNL     1      89.418 -10.980  47.161  1.00  0.00    -0.207 F 
ENDBRANCH   4   6
TORSDOF 1
ENDMDL
MODEL 5
REMARK VINA RESULT: -3.800251036      7.845      8.139
REMARK  1 active torsions:
REMARK  status: ('A' for Active; 'I' for Inactive)
REMARK    1  A    between atoms: C1_4  and  C2_6 
ROOT
HETATM    1  N1  UNL     1      88.940 -10.843  46.882  1.00  0.00    -0.389 N 
ATOM      2  H11 UNL     1      88.692 -11.595  47.525  1.00  0.00     0.157 HD
ATOM      3  H12 UNL     1      89.864 -10.738  46.463  1.00  0.00     0.157 HD
HETATM    4  C1  UNL     1      88.023 -10.004  46.605  1.00  0.00     0.139 C 
HETATM    5 CL1  UNL     1      88.450  -8.712  45.500  1.00  0.00    -0.064 Cl
ENDROOT
BRANCH   4   6
HETATM    6  C2  UNL     1      86.696 -10.156  47.207  1.00  0.00     0.414 C 
HETATM    7  F1  UNL     1      86.671 -11.241  48.061  1.00  0.00    -0.207 F 
HETATM    8  F2  UNL     1      86.249  -9.014  47.835  1.00  0.00    -0.207 F 
ENDBRANCH   4   6
TORSDOF 1
ENDMDL
