MODEL 1
REMARK VINA RESULT: -3.497963893      0.000      0.000
REMARK  0 active torsions:
REMARK  status: ('A' for Active; 'I' for Inactive)
ROOT
HETATM    1  N1  UNL     1      89.125 -11.128  46.804  1.00  0.00    -0.111 NA
HETATM    2  C1  UNL     1      87.881 -10.568  47.182  1.00  0.00     0.155 C 
HETATM    3  C2  UNL     1      87.478  -9.457  46.645  1.00  0.00     0.199 C 
HETATM    4  F1  UNL     1      86.305  -8.890  46.973  1.00  0.00    -0.192 F 
HETATM    5 CL1  UNL     1      88.490  -8.682  45.464  1.00  0.00    -0.051 Cl
ENDROOT
TORSDOF 0
ENDMDL
MODEL 2
REMARK VINA RESULT: -3.443440882      7.146      7.350
REMARK  0 active torsions:
REMARK  status: ('A' for Active; 'I' for Inactive)
ROOT
HETATM    1  N1  UNL     1      90.496  -2.944  44.298  1.00  0.00    -0.111 NA
HETATM    2  C1  UNL     1      91.350  -3.689  43.451  1.00  0.00     0.155 C 
HETATM    3  C2  UNL     1      91.049  -4.913  43.138  1.00  0.00     0.199 C 
HETATM    4  F1  UNL     1      91.831  -5.656  42.337  1.00  0.00    -0.192 F 
HETATM    5 CL1  UNL     1      89.590  -5.606  43.776  1.00  0.00    -0.051 Cl
ENDROOT
TORSDOF 0
ENDMDL
MODEL 3
REMARK VINA RESULT: -3.346549653      6.456      6.469
REMARK  0 active torsions:
REMARK  status: ('A' for Active; 'I' for Inactive)
ROOT
HETATM    1  N1  UNL     1      86.004 -14.277  43.690  1.00  0.00    -0.111 NA
HETATM    2  C1  UNL     1      84.825 -15.032  43.891  1.00  0.00     0.155 C 
HETATM    3  C2  UNL     1      83.809 -14.501  44.502  1.00  0.00     0.199 C 
HETATM    4  F1  UNL     1      82.670 -15.181  44.714  1.00  0.00    -0.192 F 
HETATM    5 CL1  UNL     1      83.930 -12.860  45.060  1.00  0.00    -0.051 Cl
ENDROOT
TORSDOF 0
ENDMDL
MODEL 4
REMARK VINA RESULT: -3.338881771      1.235      1.235
REMARK  0 active torsions:
REMARK  status: ('A' for Active; 'I' for Inactive)
ROOT
HETATM    1  N1  UNL     1      87.405 -12.119  46.778  1.00  0.00    -0.111 NA
HETATM    2  C1  UNL     1      86.561 -11.013  47.039  1.00  0.00     0.155 C 
HETATM    3  C2  UNL     1      86.976  -9.807  46.795  1.00  0.00     0.199 C 
HETATM    4  F1  UNL     1      86.209  -8.729  47.028  1.00  0.00    -0.192 F 
HETATM    5 CL1  UNL     1      88.572  -9.584  46.146  1.00  0.00    -0.051 Cl
ENDROOT
TORSDOF 0
ENDMDL
MODEL 5
REMARK VINA RESULT: -3.336097878      7.634      7.758
REMARK  0 active torsions:
REMARK  status: ('A' for Active; 'I' for Inactive)
ROOT
HETATM    1  N1  UNL     1      90.644  -3.107  44.367  1.00  0.00    -0.111 NA
HETATM    2  C1  UNL     1      90.674  -4.353  43.698  1.00  0.00     0.155 C 
HETATM    3  C2  UNL     1      91.677  -4.656  42.931  1.00  0.00     0.199 C 
HETATM    4  F1  UNL     1      91.748  -5.827  42.277  1.00  0.00    -0.192 F 
HETATM    5 CL1  UNL     1      92.968  -3.507  42.747  1.00  0.00    -0.051 Cl
ENDROOT
TORSDOF 0
ENDMDL
