MODEL 1
REMARK VINA RESULT: -6.886591477      0.000      0.000
REMARK  9 active torsions:
REMARK  status: ('A' for Active; 'I' for Inactive)
REMARK    1  A    between atoms: C3_3  and  C4_4 
REMARK    2  A    between atoms: C5_6  and  N1_7 
REMARK    3  A    between atoms: N1_7  and  C6_9 
REMARK    4  A    between atoms: C6_9  and  N2_11 
REMARK    5  A    between atoms: N2_11  and  N3_13 
REMARK    6  A    between atoms: C7_15  and  C8_16 
REMARK    7  A    between atoms: C11_19  and  O1_20 
REMARK    8  A    between atoms: C13_22  and  O2_23 
REMARK    9  A    between atoms: O2_23  and  C14_24 
ROOT
HETATM    1  C1  UNL     1      14.516  51.942  97.894  1.00  0.00     0.112 C 
HETATM    2  C2  UNL     1      14.227  52.467  96.548  1.00  0.00    -0.105 C 
HETATM    3  C3  UNL     1      13.966  52.891  95.455  1.00  0.00    -0.058 C 
ENDROOT
BRANCH   3   4
HETATM    4  C4  UNL     1      13.647  53.371  94.111  1.00  0.00     0.084 A 
HETATM    5  S1  UNL     1      13.841  52.593  92.611  1.00  0.00    -0.043 SA
HETATM    6  C5  UNL     1      13.232  53.819  91.605  1.00  0.00     0.152 A 
HETATM    7  N4  UNL     1      12.903  54.785  92.469  1.00  0.00    -0.339 N 
HETATM    8  C17 UNL     1      13.107  54.575  93.743  1.00  0.00     0.033 A 
ATOM      9  H4  UNL     1      12.501  55.663  92.142  1.00  0.00     0.168 HD
HETATM   10  C18 UNL     1      12.788  55.613  94.809  1.00  0.00     0.070 C 
BRANCH   6  11
HETATM   11  N1  UNL     1      13.100  53.843  90.294  1.00  0.00    -0.312 N 
ATOM     12  H1  UNL     1      12.324  53.338  89.865  1.00  0.00     0.170 HD
BRANCH  11  13
HETATM   13  C6  UNL     1      14.002  54.545  89.467  1.00  0.00     0.192 C 
HETATM   14  S2  UNL     1      15.041  55.637  90.130  1.00  0.00    -0.039 SA
BRANCH  13  15
HETATM   15  N2  UNL     1      13.992  54.314  88.082  1.00  0.00    -0.276 N 
ATOM     16  H2  UNL     1      14.842  54.589  87.589  1.00  0.00     0.189 HD
BRANCH  15  17
HETATM   17  N3  UNL     1      13.070  53.805  87.343  1.00  0.00    -0.309 N 
HETATM   18  C7  UNL     1      12.739  53.235  86.339  1.00  0.00     0.118 C 
ATOM     19  H3  UNL     1      12.204  53.961  87.857  1.00  0.00     0.186 HD
BRANCH  18  20
HETATM   20  C8  UNL     1      13.615  52.774  85.260  1.00  0.00    -0.017 A 
HETATM   21  C9  UNL     1      14.742  53.430  84.866  1.00  0.00     0.016 A 
HETATM   22  C10 UNL     1      15.515  52.995  83.779  1.00  0.00     0.040 A 
HETATM   23  C11 UNL     1      15.120  51.872  83.088  1.00  0.00     0.101 A 
HETATM   24  C13 UNL     1      13.958  51.185  83.491  1.00  0.00     0.102 A 
HETATM   25  C16 UNL     1      13.247  51.641  84.545  1.00  0.00     0.052 A 
BRANCH  23  26
HETATM   26  O1  UNL     1      15.778  51.380  82.031  1.00  0.00    -0.353 OA
HETATM   27  C12 UNL     1      15.794  51.930  80.744  1.00  0.00     0.210 C 
ENDBRANCH  23  26
BRANCH  24  28
HETATM   28  O2  UNL     1      13.572  50.060  82.793  1.00  0.00    -0.349 OA
BRANCH  28  29
HETATM   29  C14 UNL     1      12.327  49.864  82.188  1.00  0.00     0.171 C 
HETATM   30  C15 UNL     1      12.098  50.898  81.093  1.00  0.00     0.034 C 
ENDBRANCH  28  29
ENDBRANCH  24  28
ENDBRANCH  18  20
ENDBRANCH  15  17
ENDBRANCH  13  15
ENDBRANCH  11  13
ENDBRANCH   6  11
ENDBRANCH   3   4
TORSDOF 9
ENDMDL
MODEL 2
REMARK VINA RESULT: -6.874001076      4.375     10.536
REMARK  9 active torsions:
REMARK  status: ('A' for Active; 'I' for Inactive)
REMARK    1  A    between atoms: C3_3  and  C4_4 
REMARK    2  A    between atoms: C5_6  and  N1_7 
REMARK    3  A    between atoms: N1_7  and  C6_9 
REMARK    4  A    between atoms: C6_9  and  N2_11 
REMARK    5  A    between atoms: N2_11  and  N3_13 
REMARK    6  A    between atoms: C7_15  and  C8_16 
REMARK    7  A    between atoms: C11_19  and  O1_20 
REMARK    8  A    between atoms: C13_22  and  O2_23 
REMARK    9  A    between atoms: O2_23  and  C14_24 
ROOT
HETATM    1  C1  UNL     1      16.023  51.574  81.664  1.00  0.00     0.112 C 
HETATM    2  C2  UNL     1      15.123  51.777  82.814  1.00  0.00    -0.105 C 
HETATM    3  C3  UNL     1      14.393  51.916  83.757  1.00  0.00    -0.058 C 
ENDROOT
BRANCH   3   4
HETATM    4  C4  UNL     1      13.477  52.071  84.886  1.00  0.00     0.084 A 
HETATM    5  S1  UNL     1      13.241  53.409  85.910  1.00  0.00    -0.043 SA
HETATM    6  C5  UNL     1      12.029  52.758  86.908  1.00  0.00     0.152 A 
HETATM    7  N4  UNL     1      11.853  51.530  86.409  1.00  0.00    -0.339 N 
HETATM    8  C17 UNL     1      12.579  51.165  85.385  1.00  0.00     0.033 A 
ATOM      9  H4  UNL     1      11.169  50.894  86.818  1.00  0.00     0.168 HD
HETATM   10  C18 UNL     1      12.475  49.784  84.754  1.00  0.00     0.070 C 
BRANCH   6  11
HETATM   11  N1  UNL     1      11.395  53.304  87.925  1.00  0.00    -0.312 N 
ATOM     12  H1  UNL     1      10.519  53.800  87.755  1.00  0.00     0.170 HD
BRANCH  11  13
HETATM   13  C6  UNL     1      11.893  53.223  89.243  1.00  0.00     0.192 C 
HETATM   14  S2  UNL     1      10.862  52.920  90.491  1.00  0.00    -0.039 SA
BRANCH  13  15
HETATM   15  N2  UNL     1      13.264  53.416  89.476  1.00  0.00    -0.276 N 
ATOM     16  H2  UNL     1      13.877  52.710  89.069  1.00  0.00     0.189 HD
BRANCH  15  17
HETATM   17  N3  UNL     1      13.861  54.351  90.127  1.00  0.00    -0.309 N 
HETATM   18  C7  UNL     1      14.208  54.833  91.172  1.00  0.00     0.118 C 
ATOM     19  H3  UNL     1      14.206  54.991  89.412  1.00  0.00     0.186 HD
BRANCH  18  20
HETATM   20  C8  UNL     1      13.969  54.293  92.511  1.00  0.00    -0.017 A 
HETATM   21  C9  UNL     1      14.056  52.969  92.821  1.00  0.00     0.016 A 
HETATM   22  C10 UNL     1      13.747  52.482  94.100  1.00  0.00     0.040 A 
HETATM   23  C11 UNL     1      13.341  53.369  95.071  1.00  0.00     0.101 A 
HETATM   24  C13 UNL     1      13.252  54.741  94.761  1.00  0.00     0.102 A 
HETATM   25  C16 UNL     1      13.562  55.163  93.515  1.00  0.00     0.052 A 
BRANCH  23  26
HETATM   26  O1  UNL     1      13.012  53.008  96.317  1.00  0.00    -0.353 OA
HETATM   27  C12 UNL     1      13.827  52.306  97.212  1.00  0.00     0.210 C 
ENDBRANCH  23  26
BRANCH  24  28
HETATM   28  O2  UNL     1      12.846  55.622  95.740  1.00  0.00    -0.349 OA
BRANCH  28  29
HETATM   29  C14 UNL     1      11.684  56.397  95.708  1.00  0.00     0.171 C 
HETATM   30  C15 UNL     1      12.032  57.880  95.769  1.00  0.00     0.034 C 
ENDBRANCH  28  29
ENDBRANCH  24  28
ENDBRANCH  18  20
ENDBRANCH  15  17
ENDBRANCH  13  15
ENDBRANCH  11  13
ENDBRANCH   6  11
ENDBRANCH   3   4
TORSDOF 9
ENDMDL
MODEL 3
REMARK VINA RESULT: -6.864123750      4.356     10.573
REMARK  9 active torsions:
REMARK  status: ('A' for Active; 'I' for Inactive)
REMARK    1  A    between atoms: C3_3  and  C4_4 
REMARK    2  A    between atoms: C5_6  and  N1_7 
REMARK    3  A    between atoms: N1_7  and  C6_9 
REMARK    4  A    between atoms: C6_9  and  N2_11 
REMARK    5  A    between atoms: N2_11  and  N3_13 
REMARK    6  A    between atoms: C7_15  and  C8_16 
REMARK    7  A    between atoms: C11_19  and  O1_20 
REMARK    8  A    between atoms: C13_22  and  O2_23 
REMARK    9  A    between atoms: O2_23  and  C14_24 
ROOT
HETATM    1  C1  UNL     1      14.069  50.056  81.099  1.00  0.00     0.112 C 
HETATM    2  C2  UNL     1      13.645  50.706  82.351  1.00  0.00    -0.105 C 
HETATM    3  C3  UNL     1      13.293  51.258  83.358  1.00  0.00    -0.058 C 
ENDROOT
BRANCH   3   4
HETATM    4  C4  UNL     1      12.897  51.947  84.586  1.00  0.00     0.084 A 
HETATM    5  S1  UNL     1      11.500  51.746  85.535  1.00  0.00    -0.043 SA
HETATM    6  C5  UNL     1      11.838  52.899  86.736  1.00  0.00     0.152 A 
HETATM    7  N4  UNL     1      13.019  53.396  86.356  1.00  0.00    -0.339 N 
HETATM    8  C17 UNL     1      13.570  52.926  85.268  1.00  0.00     0.033 A 
ATOM      9  H4  UNL     1      13.480  54.124  86.902  1.00  0.00     0.168 HD
HETATM   10  C18 UNL     1      14.901  53.435  84.734  1.00  0.00     0.070 C 
BRANCH   6  11
HETATM   11  N1  UNL     1      11.133  53.240  87.796  1.00  0.00    -0.312 N 
ATOM     12  H1  UNL     1      10.167  53.544  87.672  1.00  0.00     0.170 HD
BRANCH  11  13
HETATM   13  C6  UNL     1      11.677  53.196  89.098  1.00  0.00     0.192 C 
HETATM   14  S2  UNL     1      11.935  51.743  89.829  1.00  0.00    -0.039 SA
BRANCH  13  15
HETATM   15  N2  UNL     1      11.978  54.396  89.761  1.00  0.00    -0.276 N 
ATOM     16  H2  UNL     1      11.184  55.016  89.921  1.00  0.00     0.189 HD
BRANCH  15  17
HETATM   17  N3  UNL     1      13.108  54.831  90.195  1.00  0.00    -0.309 N 
HETATM   18  C7  UNL     1      13.912  54.932  91.083  1.00  0.00     0.118 C 
ATOM     19  H3  UNL     1      13.521  55.328  89.406  1.00  0.00     0.186 HD
BRANCH  18  20
HETATM   20  C8  UNL     1      13.803  54.380  92.435  1.00  0.00    -0.017 A 
HETATM   21  C9  UNL     1      13.981  53.062  92.730  1.00  0.00     0.016 A 
HETATM   22  C10 UNL     1      13.795  52.558  94.027  1.00  0.00     0.040 A 
HETATM   23  C11 UNL     1      13.419  53.424  95.030  1.00  0.00     0.101 A 
HETATM   24  C13 UNL     1      13.236  54.789  94.733  1.00  0.00     0.102 A 
HETATM   25  C16 UNL     1      13.429  55.227  93.469  1.00  0.00     0.052 A 
BRANCH  23  26
HETATM   26  O1  UNL     1      13.204  53.045  96.296  1.00  0.00    -0.353 OA
HETATM   27  C12 UNL     1      14.069  52.275  97.081  1.00  0.00     0.210 C 
ENDBRANCH  23  26
BRANCH  24  28
HETATM   28  O2  UNL     1      12.861  55.647  95.745  1.00  0.00    -0.349 OA
BRANCH  28  29
HETATM   29  C14 UNL     1      11.690  56.409  95.774  1.00  0.00     0.171 C 
HETATM   30  C15 UNL     1      12.023  57.896  95.770  1.00  0.00     0.034 C 
ENDBRANCH  28  29
ENDBRANCH  24  28
ENDBRANCH  18  20
ENDBRANCH  15  17
ENDBRANCH  13  15
ENDBRANCH  11  13
ENDBRANCH   6  11
ENDBRANCH   3   4
TORSDOF 9
ENDMDL
MODEL 4
REMARK VINA RESULT: -6.736042399      1.551      2.449
REMARK  9 active torsions:
REMARK  status: ('A' for Active; 'I' for Inactive)
REMARK    1  A    between atoms: C3_3  and  C4_4 
REMARK    2  A    between atoms: C5_6  and  N1_7 
REMARK    3  A    between atoms: N1_7  and  C6_9 
REMARK    4  A    between atoms: C6_9  and  N2_11 
REMARK    5  A    between atoms: N2_11  and  N3_13 
REMARK    6  A    between atoms: C7_15  and  C8_16 
REMARK    7  A    between atoms: C11_19  and  O1_20 
REMARK    8  A    between atoms: C13_22  and  O2_23 
REMARK    9  A    between atoms: O2_23  and  C14_24 
ROOT
HETATM    1  C1  UNL     1      12.101  57.501  96.126  1.00  0.00     0.112 C 
HETATM    2  C2  UNL     1      12.288  56.340  95.238  1.00  0.00    -0.105 C 
HETATM    3  C3  UNL     1      12.465  55.401  94.510  1.00  0.00    -0.058 C 
ENDROOT
BRANCH   3   4
HETATM    4  C4  UNL     1      12.677  54.281  93.595  1.00  0.00     0.084 A 
HETATM    5  S1  UNL     1      12.288  54.145  91.944  1.00  0.00    -0.043 SA
HETATM    6  C5  UNL     1      12.866  52.571  91.673  1.00  0.00     0.152 A 
HETATM    7  N4  UNL     1      13.337  52.210  92.870  1.00  0.00    -0.339 N 
HETATM    8  C17 UNL     1      13.249  53.063  93.856  1.00  0.00     0.033 A 
ATOM      9  H4  UNL     1      13.755  51.290  93.011  1.00  0.00     0.168 HD
HETATM   10  C18 UNL     1      13.733  52.748  95.263  1.00  0.00     0.070 C 
BRANCH   6  11
HETATM   11  N1  UNL     1      12.868  51.856  90.566  1.00  0.00    -0.312 N 
ATOM     12  H1  UNL     1      13.493  51.052  90.496  1.00  0.00     0.170 HD
BRANCH  11  13
HETATM   13  C6  UNL     1      12.030  52.170  89.474  1.00  0.00     0.192 C 
HETATM   14  S2  UNL     1      10.432  51.777  89.528  1.00  0.00    -0.039 SA
BRANCH  13  15
HETATM   15  N2  UNL     1      12.576  52.804  88.347  1.00  0.00    -0.276 N 
ATOM     16  H2  UNL     1      13.556  53.074  88.431  1.00  0.00     0.189 HD
BRANCH  15  17
HETATM   17  N3  UNL     1      12.022  53.096  87.223  1.00  0.00    -0.309 N 
HETATM   18  C7  UNL     1      12.068  53.147  86.023  1.00  0.00     0.118 C 
ATOM     19  H3  UNL     1      11.101  53.458  87.468  1.00  0.00     0.186 HD
BRANCH  18  20
HETATM   20  C8  UNL     1      13.181  52.731  85.167  1.00  0.00    -0.017 A 
HETATM   21  C9  UNL     1      14.346  53.428  85.048  1.00  0.00     0.016 A 
HETATM   22  C10 UNL     1      15.359  53.037  84.161  1.00  0.00     0.040 A 
HETATM   23  C11 UNL     1      15.169  51.915  83.386  1.00  0.00     0.101 A 
HETATM   24  C13 UNL     1      13.970  51.186  83.506  1.00  0.00     0.102 A 
HETATM   25  C16 UNL     1      13.023  51.602  84.375  1.00  0.00     0.052 A 
BRANCH  23  26
HETATM   26  O1  UNL     1      16.066  51.462  82.501  1.00  0.00    -0.353 OA
HETATM   27  C12 UNL     1      16.210  51.900  81.179  1.00  0.00     0.210 C 
ENDBRANCH  23  26
BRANCH  24  28
HETATM   28  O2  UNL     1      13.789  50.063  82.726  1.00  0.00    -0.349 OA
BRANCH  28  29
HETATM   29  C14 UNL     1      12.713  49.833  81.865  1.00  0.00     0.171 C 
HETATM   30  C15 UNL     1      12.513  51.022  80.933  1.00  0.00     0.034 C 
ENDBRANCH  28  29
ENDBRANCH  24  28
ENDBRANCH  18  20
ENDBRANCH  15  17
ENDBRANCH  13  15
ENDBRANCH  11  13
ENDBRANCH   6  11
ENDBRANCH   3   4
TORSDOF 9
ENDMDL
MODEL 5
REMARK VINA RESULT: -6.703694572      1.870      2.464
REMARK  9 active torsions:
REMARK  status: ('A' for Active; 'I' for Inactive)
REMARK    1  A    between atoms: C3_3  and  C4_4 
REMARK    2  A    between atoms: C5_6  and  N1_7 
REMARK    3  A    between atoms: N1_7  and  C6_9 
REMARK    4  A    between atoms: C6_9  and  N2_11 
REMARK    5  A    between atoms: N2_11  and  N3_13 
REMARK    6  A    between atoms: C7_15  and  C8_16 
REMARK    7  A    between atoms: C11_19  and  O1_20 
REMARK    8  A    between atoms: C13_22  and  O2_23 
REMARK    9  A    between atoms: O2_23  and  C14_24 
ROOT
HETATM    1  C1  UNL     1      13.829  53.058  96.343  1.00  0.00     0.112 C 
HETATM    2  C2  UNL     1      13.569  53.010  94.893  1.00  0.00    -0.105 C 
HETATM    3  C3  UNL     1      13.332  52.976  93.716  1.00  0.00    -0.058 C 
ENDROOT
BRANCH   3   4
HETATM    4  C4  UNL     1      13.032  52.900  92.287  1.00  0.00     0.084 A 
HETATM    5  S1  UNL     1      12.112  51.749  91.437  1.00  0.00    -0.043 SA
HETATM    6  C5  UNL     1      12.268  52.399  89.875  1.00  0.00     0.152 A 
HETATM    7  N4  UNL     1      13.025  53.483  90.071  1.00  0.00    -0.339 N 
HETATM    8  C17 UNL     1      13.422  53.751  91.287  1.00  0.00     0.033 A 
ATOM      9  H4  UNL     1      13.287  54.085  89.292  1.00  0.00     0.168 HD
HETATM   10  C18 UNL     1      14.305  54.946  91.620  1.00  0.00     0.070 C 
BRANCH   6  11
HETATM   11  N1  UNL     1      11.772  51.969  88.732  1.00  0.00    -0.312 N 
ATOM     12  H1  UNL     1      11.955  51.008  88.443  1.00  0.00     0.170 HD
BRANCH  11  13
HETATM   13  C6  UNL     1      10.995  52.800  87.897  1.00  0.00     0.192 C 
HETATM   14  S2  UNL     1       9.419  53.094  88.272  1.00  0.00    -0.039 SA
BRANCH  13  15
HETATM   15  N2  UNL     1      11.574  53.357  86.746  1.00  0.00    -0.276 N 
ATOM     16  H2  UNL     1      10.977  53.364  85.919  1.00  0.00     0.189 HD
BRANCH  15  17
HETATM   17  N3  UNL     1      12.746  53.860  86.580  1.00  0.00    -0.309 N 
HETATM   18  C7  UNL     1      13.805  53.864  86.011  1.00  0.00     0.118 C 
ATOM     19  H3  UNL     1      12.806  54.621  87.255  1.00  0.00     0.186 HD
BRANCH  18  20
HETATM   20  C8  UNL     1      14.228  52.966  84.934  1.00  0.00    -0.017 A 
HETATM   21  C9  UNL     1      15.396  53.107  84.246  1.00  0.00     0.016 A 
HETATM   22  C10 UNL     1      15.731  52.271  83.171  1.00  0.00     0.040 A 
HETATM   23  C11 UNL     1      14.851  51.279  82.799  1.00  0.00     0.101 A 
HETATM   24  C13 UNL     1      13.644  51.124  83.507  1.00  0.00     0.102 A 
HETATM   25  C16 UNL     1      13.365  51.953  84.537  1.00  0.00     0.052 A 
BRANCH  23  26
HETATM   26  O1  UNL     1      15.069  50.437  81.781  1.00  0.00    -0.353 OA
HETATM   27  C12 UNL     1      15.557  50.783  80.517  1.00  0.00     0.210 C 
ENDBRANCH  23  26
BRANCH  24  28
HETATM   28  O2  UNL     1      12.770  50.128  83.127  1.00  0.00    -0.349 OA
BRANCH  28  29
HETATM   29  C14 UNL     1      11.816  49.523  83.950  1.00  0.00     0.171 C 
HETATM   30  C15 UNL     1      12.452  48.411  84.775  1.00  0.00     0.034 C 
ENDBRANCH  28  29
ENDBRANCH  24  28
ENDBRANCH  18  20
ENDBRANCH  15  17
ENDBRANCH  13  15
ENDBRANCH  11  13
ENDBRANCH   6  11
ENDBRANCH   3   4
TORSDOF 9
ENDMDL
