MODEL 1
REMARK VINA RESULT: -6.439044371      0.000      0.000
REMARK  6 active torsions:
REMARK  status: ('A' for Active; 'I' for Inactive)
REMARK    1  A    between atoms: S1_2  and  C2_5 
REMARK    2  A    between atoms: C2_5  and  C3_6 
REMARK    3  A    between atoms: C3_6  and  C4_7 
REMARK    4  A    between atoms: N1_10  and  C7_11 
REMARK    5  A    between atoms: C8_14  and  N3_15 
REMARK    6  A    between atoms: N3_15  and  C9_17 
ROOT
HETATM    1  C7  UNL     1      11.801  53.771  91.416  1.00  0.00     0.129 A 
HETATM    2  N2  UNL     1      11.537  53.845  92.731  1.00  0.00    -0.176 N 
ATOM      3  H2  UNL     1      10.641  53.498  93.074  1.00  0.00     0.186 HD
HETATM    4  C8  UNL     1      12.411  54.360  93.607  1.00  0.00     0.681 A 
HETATM    5  N4  UNL     1      13.592  54.822  93.179  1.00  0.00    -0.176 N 
ATOM      6  H4  UNL     1      14.252  55.212  93.853  1.00  0.00     0.186 HD
HETATM    7  C14 UNL     1      13.927  54.781  91.869  1.00  0.00     0.127 A 
HETATM    8  C15 UNL     1      13.024  54.251  90.988  1.00  0.00     0.032 A 
HETATM    9  C16 UNL     1      13.593  54.306  89.593  1.00  0.00     0.066 C 
HETATM   10  C17 UNL     1      14.734  55.319  89.757  1.00  0.00     0.126 C 
HETATM   11  N5  UNL     1      15.092  55.197  91.153  1.00  0.00    -0.375 N 
ATOM     12  H5  UNL     1      16.012  55.377  91.554  1.00  0.00     0.161 HD
ENDROOT
BRANCH   1  13
HETATM   13  N1  UNL     1      10.911  53.234  90.454  1.00  0.00    -0.366 N 
HETATM   14  C6  UNL     1      11.076  51.865  90.050  1.00  0.00     0.125 C 
HETATM   15  C5  UNL     1      10.824  51.756  88.561  1.00  0.00     0.024 C 
HETATM   16  C4  UNL     1       9.412  52.251  88.340  1.00  0.00    -0.011 C 
HETATM   17  C19 UNL     1       9.411  53.729  88.568  1.00  0.00     0.024 C 
HETATM   18  C18 UNL     1       9.887  54.112  89.940  1.00  0.00     0.125 C 
BRANCH  16  19
HETATM   19  C3  UNL     1       8.863  51.893  87.003  1.00  0.00     0.019 C 
BRANCH  19  20
HETATM   20  C2  UNL     1       9.930  51.456  86.023  1.00  0.00     0.140 C 
BRANCH  20  21
HETATM   21  S1  UNL     1      10.267  52.790  84.893  1.00  0.00     0.140 S 
HETATM   22  C1  UNL     1      10.711  52.169  83.301  1.00  0.00     0.161 C 
HETATM   23  O1  UNL     1      11.385  53.622  85.489  1.00  0.00    -0.228 OA
HETATM   24  O2  UNL     1       9.050  53.663  84.749  1.00  0.00    -0.228 OA
ENDBRANCH  20  21
ENDBRANCH  19  20
ENDBRANCH  16  19
ENDBRANCH   1  13
BRANCH   4  25
HETATM   25  N3  UNL     1      12.085  54.395  94.844  1.00  0.00    -0.221 N 
ATOM     26  H3  UNL     1      11.407  53.707  95.173  1.00  0.00     0.178 HD
BRANCH  25  27
HETATM   27  C9  UNL     1      12.600  55.328  95.802  1.00  0.00     0.099 C 
HETATM   28  C10 UNL     1      12.094  55.091  97.205  1.00  0.00     0.026 C 
HETATM   29  C11 UNL     1      10.859  55.951  97.347  1.00  0.00     0.002 C 
HETATM   30  C12 UNL     1      10.892  56.965  96.250  1.00  0.00     0.002 C 
HETATM   31  C13 UNL     1      12.147  56.744  95.450  1.00  0.00     0.026 C 
ENDBRANCH  25  27
ENDBRANCH   4  25
TORSDOF 6
ENDMDL
MODEL 2
REMARK VINA RESULT: -6.249250552      4.199      8.769
REMARK  6 active torsions:
REMARK  status: ('A' for Active; 'I' for Inactive)
REMARK    1  A    between atoms: S1_2  and  C2_5 
REMARK    2  A    between atoms: C2_5  and  C3_6 
REMARK    3  A    between atoms: C3_6  and  C4_7 
REMARK    4  A    between atoms: N1_10  and  C7_11 
REMARK    5  A    between atoms: C8_14  and  N3_15 
REMARK    6  A    between atoms: N3_15  and  C9_17 
ROOT
HETATM    1  C7  UNL     1      11.997  53.277  89.926  1.00  0.00     0.129 A 
HETATM    2  N2  UNL     1      12.652  52.860  88.830  1.00  0.00    -0.176 N 
ATOM      3  H2  UNL     1      13.646  52.644  88.902  1.00  0.00     0.186 HD
HETATM    4  C8  UNL     1      12.042  52.718  87.644  1.00  0.00     0.681 A 
HETATM    5  N4  UNL     1      10.739  52.995  87.526  1.00  0.00    -0.176 N 
ATOM      6  H4  UNL     1      10.283  52.883  86.620  1.00  0.00     0.186 HD
HETATM    7  C14 UNL     1      10.014  53.419  88.586  1.00  0.00     0.127 A 
HETATM    8  C15 UNL     1      10.651  53.558  89.790  1.00  0.00     0.032 A 
HETATM    9  C16 UNL     1       9.668  54.042  90.825  1.00  0.00     0.066 C 
HETATM   10  C17 UNL     1       8.519  54.562  89.951  1.00  0.00     0.126 C 
HETATM   11  N5  UNL     1       8.639  53.782  88.739  1.00  0.00    -0.375 N 
ATOM     12  H5  UNL     1       7.879  53.534  88.106  1.00  0.00     0.161 HD
ENDROOT
BRANCH   1  13
HETATM   13  N1  UNL     1      12.596  53.439  91.198  1.00  0.00    -0.366 N 
HETATM   14  C6  UNL     1      12.343  52.452  92.212  1.00  0.00     0.125 C 
HETATM   15  C5  UNL     1      12.181  53.147  93.547  1.00  0.00     0.024 C 
HETATM   16  C4  UNL     1      13.473  53.895  93.788  1.00  0.00    -0.011 C 
HETATM   17  C19 UNL     1      13.521  55.037  92.824  1.00  0.00     0.024 C 
HETATM   18  C18 UNL     1      13.432  54.600  91.390  1.00  0.00     0.125 C 
BRANCH  16  19
HETATM   19  C3  UNL     1      13.641  54.347  95.196  1.00  0.00     0.019 C 
BRANCH  19  20
HETATM   20  C2  UNL     1      12.385  54.182  96.024  1.00  0.00     0.140 C 
BRANCH  20  21
HETATM   21  S1  UNL     1      11.550  55.749  96.139  1.00  0.00     0.140 S 
HETATM   22  C1  UNL     1      11.204  56.157  97.821  1.00  0.00     0.161 C 
HETATM   23  O1  UNL     1      10.274  55.647  95.325  1.00  0.00    -0.228 OA
HETATM   24  O2  UNL     1      12.406  56.834  95.543  1.00  0.00    -0.228 OA
ENDBRANCH  20  21
ENDBRANCH  19  20
ENDBRANCH  16  19
ENDBRANCH   1  13
BRANCH   4  25
HETATM   25  N3  UNL     1      12.736  52.316  86.646  1.00  0.00    -0.221 N 
ATOM     26  H3  UNL     1      13.292  51.469  86.769  1.00  0.00     0.178 HD
BRANCH  25  27
HETATM   27  C9  UNL     1      12.791  52.966  85.371  1.00  0.00     0.099 C 
HETATM   28  C10 UNL     1      12.444  52.057  84.216  1.00  0.00     0.026 C 
HETATM   29  C11 UNL     1      13.755  51.475  83.740  1.00  0.00     0.002 C 
HETATM   30  C12 UNL     1      14.849  52.331  84.293  1.00  0.00     0.002 C 
HETATM   31  C13 UNL     1      14.216  53.441  85.087  1.00  0.00     0.026 C 
ENDBRANCH  25  27
ENDBRANCH   4  25
TORSDOF 6
ENDMDL
MODEL 3
REMARK VINA RESULT: -6.221654795      3.625      5.764
REMARK  6 active torsions:
REMARK  status: ('A' for Active; 'I' for Inactive)
REMARK    1  A    between atoms: S1_2  and  C2_5 
REMARK    2  A    between atoms: C2_5  and  C3_6 
REMARK    3  A    between atoms: C3_6  and  C4_7 
REMARK    4  A    between atoms: N1_10  and  C7_11 
REMARK    5  A    between atoms: C8_14  and  N3_15 
REMARK    6  A    between atoms: N3_15  and  C9_17 
ROOT
HETATM    1  C7  UNL     1      11.586  52.588  87.552  1.00  0.00     0.129 A 
HETATM    2  N2  UNL     1      12.383  52.715  88.625  1.00  0.00    -0.176 N 
ATOM      3  H2  UNL     1      13.367  52.458  88.542  1.00  0.00     0.186 HD
HETATM    4  C8  UNL     1      11.929  53.168  89.803  1.00  0.00     0.681 A 
HETATM    5  N4  UNL     1      10.643  53.511  89.935  1.00  0.00    -0.176 N 
ATOM      6  H4  UNL     1      10.307  53.855  90.835  1.00  0.00     0.186 HD
HETATM    7  C14 UNL     1       9.781  53.409  88.898  1.00  0.00     0.127 A 
HETATM    8  C15 UNL     1      10.260  52.946  87.703  1.00  0.00     0.032 A 
HETATM    9  C16 UNL     1       9.141  52.909  86.694  1.00  0.00     0.066 C 
HETATM   10  C17 UNL     1       7.901  52.998  87.594  1.00  0.00     0.126 C 
HETATM   11  N5  UNL     1       8.386  53.695  88.765  1.00  0.00    -0.375 N 
ATOM     12  H5  UNL     1       7.833  54.286  89.385  1.00  0.00     0.161 HD
ENDROOT
BRANCH   1  13
HETATM   13  N1  UNL     1      12.020  52.117  86.289  1.00  0.00    -0.366 N 
HETATM   14  C6  UNL     1      11.685  50.774  85.901  1.00  0.00     0.125 C 
HETATM   15  C5  UNL     1      12.866  50.161  85.177  1.00  0.00     0.024 C 
HETATM   16  C4  UNL     1      13.133  51.051  83.985  1.00  0.00    -0.011 C 
HETATM   17  C19 UNL     1      13.692  52.339  84.498  1.00  0.00     0.024 C 
HETATM   18  C18 UNL     1      12.779  53.031  85.470  1.00  0.00     0.125 C 
BRANCH  16  19
HETATM   19  C3  UNL     1      14.020  50.425  82.966  1.00  0.00     0.019 C 
BRANCH  19  20
HETATM   20  C2  UNL     1      13.574  50.696  81.546  1.00  0.00     0.140 C 
BRANCH  20  21
HETATM   21  S1  UNL     1      12.618  49.313  80.959  1.00  0.00     0.140 S 
HETATM   22  C1  UNL     1      11.068  49.850  80.308  1.00  0.00     0.161 C 
HETATM   23  O1  UNL     1      12.425  48.364  82.126  1.00  0.00    -0.228 OA
HETATM   24  O2  UNL     1      13.373  48.587  79.879  1.00  0.00    -0.228 OA
ENDBRANCH  20  21
ENDBRANCH  19  20
ENDBRANCH  16  19
ENDBRANCH   1  13
BRANCH   4  25
HETATM   25  N3  UNL     1      12.753  53.260  90.779  1.00  0.00    -0.221 N 
ATOM     26  H3  UNL     1      13.091  52.391  91.195  1.00  0.00     0.178 HD
BRANCH  25  27
HETATM   27  C9  UNL     1      13.236  54.490  91.330  1.00  0.00     0.099 C 
HETATM   28  C10 UNL     1      13.207  55.641  90.352  1.00  0.00     0.026 C 
HETATM   29  C11 UNL     1      14.565  55.651  89.688  1.00  0.00     0.002 C 
HETATM   30  C12 UNL     1      15.484  54.837  90.540  1.00  0.00     0.002 C 
HETATM   31  C13 UNL     1      14.704  54.345  91.729  1.00  0.00     0.026 C 
ENDBRANCH  25  27
ENDBRANCH   4  25
TORSDOF 6
ENDMDL
MODEL 4
REMARK VINA RESULT: -6.065956759      3.728      6.198
REMARK  6 active torsions:
REMARK  status: ('A' for Active; 'I' for Inactive)
REMARK    1  A    between atoms: S1_2  and  C2_5 
REMARK    2  A    between atoms: C2_5  and  C3_6 
REMARK    3  A    between atoms: C3_6  and  C4_7 
REMARK    4  A    between atoms: N1_10  and  C7_11 
REMARK    5  A    between atoms: C8_14  and  N3_15 
REMARK    6  A    between atoms: N3_15  and  C9_17 
ROOT
HETATM    1  C7  UNL     1      11.167  51.626  87.116  1.00  0.00     0.129 A 
HETATM    2  N2  UNL     1      12.150  52.193  87.835  1.00  0.00    -0.176 N 
ATOM      3  H2  UNL     1      13.086  52.246  87.433  1.00  0.00     0.186 HD
HETATM    4  C8  UNL     1      11.942  52.689  89.063  1.00  0.00     0.681 A 
HETATM    5  N4  UNL     1      10.723  52.630  89.609  1.00  0.00    -0.176 N 
ATOM      6  H4  UNL     1      10.573  53.011  90.544  1.00  0.00     0.186 HD
HETATM    7  C14 UNL     1       9.684  52.074  88.945  1.00  0.00     0.127 A 
HETATM    8  C15 UNL     1       9.912  51.572  87.692  1.00  0.00     0.032 A 
HETATM    9  C16 UNL     1       8.632  51.001  87.139  1.00  0.00     0.066 C 
HETATM   10  C17 UNL     1       7.776  50.862  88.405  1.00  0.00     0.126 C 
HETATM   11  N5  UNL     1       8.309  51.879  89.284  1.00  0.00    -0.375 N 
ATOM     12  H5  UNL     1       7.795  52.370  90.016  1.00  0.00     0.161 HD
ENDROOT
BRANCH   1  13
HETATM   13  N1  UNL     1      11.338  51.092  85.816  1.00  0.00    -0.366 N 
HETATM   14  C6  UNL     1      11.917  49.783  85.679  1.00  0.00     0.125 C 
HETATM   15  C5  UNL     1      12.847  49.778  84.484  1.00  0.00     0.024 C 
HETATM   16  C4  UNL     1      11.997  50.155  83.292  1.00  0.00    -0.011 C 
HETATM   17  C19 UNL     1      11.642  51.601  83.429  1.00  0.00     0.024 C 
HETATM   18  C18 UNL     1      10.913  51.909  84.705  1.00  0.00     0.125 C 
BRANCH  16  19
HETATM   19  C3  UNL     1      12.648  49.861  81.986  1.00  0.00     0.019 C 
BRANCH  19  20
HETATM   20  C2  UNL     1      13.231  51.092  81.326  1.00  0.00     0.140 C 
BRANCH  20  21
HETATM   21  S1  UNL     1      14.986  50.872  81.126  1.00  0.00     0.140 S 
HETATM   22  C1  UNL     1      15.729  52.323  80.450  1.00  0.00     0.161 C 
HETATM   23  O1  UNL     1      15.196  49.674  80.220  1.00  0.00    -0.228 OA
HETATM   24  O2  UNL     1      15.623  50.577  82.457  1.00  0.00    -0.228 OA
ENDBRANCH  20  21
ENDBRANCH  19  20
ENDBRANCH  16  19
ENDBRANCH   1  13
BRANCH   4  25
HETATM   25  N3  UNL     1      12.932  53.213  89.684  1.00  0.00    -0.221 N 
ATOM     26  H3  UNL     1      13.723  52.608  89.905  1.00  0.00     0.178 HD
BRANCH  25  27
HETATM   27  C9  UNL     1      13.011  54.584  90.091  1.00  0.00     0.099 C 
HETATM   28  C10 UNL     1      14.146  55.340  89.441  1.00  0.00     0.026 C 
HETATM   29  C11 UNL     1      15.319  55.212  90.385  1.00  0.00     0.002 C 
HETATM   30  C12 UNL     1      14.780  54.785  91.712  1.00  0.00     0.002 C 
HETATM   31  C13 UNL     1      13.285  54.669  91.592  1.00  0.00     0.026 C 
ENDBRANCH  25  27
ENDBRANCH   4  25
TORSDOF 6
ENDMDL
MODEL 5
REMARK VINA RESULT: -6.036832506      3.227      5.491
REMARK  6 active torsions:
REMARK  status: ('A' for Active; 'I' for Inactive)
REMARK    1  A    between atoms: S1_2  and  C2_5 
REMARK    2  A    between atoms: C2_5  and  C3_6 
REMARK    3  A    between atoms: C3_6  and  C4_7 
REMARK    4  A    between atoms: N1_10  and  C7_11 
REMARK    5  A    between atoms: C8_14  and  N3_15 
REMARK    6  A    between atoms: N3_15  and  C9_17 
ROOT
HETATM    1  C7  UNL     1      11.580  52.709  87.648  1.00  0.00     0.129 A 
HETATM    2  N2  UNL     1      12.224  53.227  88.706  1.00  0.00    -0.176 N 
ATOM      3  H2  UNL     1      13.237  53.119  88.768  1.00  0.00     0.186 HD
HETATM    4  C8  UNL     1      11.581  53.881  89.684  1.00  0.00     0.681 A 
HETATM    5  N4  UNL     1      10.254  54.035  89.623  1.00  0.00    -0.176 N 
ATOM      6  H4  UNL     1       9.772  54.535  90.372  1.00  0.00     0.186 HD
HETATM    7  C14 UNL     1       9.538  53.540  88.588  1.00  0.00     0.127 A 
HETATM    8  C15 UNL     1      10.209  52.875  87.598  1.00  0.00     0.032 A 
HETATM    9  C16 UNL     1       9.229  52.408  86.553  1.00  0.00     0.066 C 
HETATM   10  C17 UNL     1       7.894  52.519  87.301  1.00  0.00     0.126 C 
HETATM   11  N5  UNL     1       8.142  53.556  88.279  1.00  0.00    -0.375 N 
ATOM     12  H5  UNL     1       7.446  54.186  88.676  1.00  0.00     0.161 HD
ENDROOT
BRANCH   1  13
HETATM   13  N1  UNL     1      12.216  52.013  86.592  1.00  0.00    -0.366 N 
HETATM   14  C6  UNL     1      12.876  52.771  85.564  1.00  0.00     0.125 C 
HETATM   15  C5  UNL     1      12.625  52.111  84.225  1.00  0.00     0.024 C 
HETATM   16  C4  UNL     1      13.175  50.707  84.342  1.00  0.00    -0.011 C 
HETATM   17  C19 UNL     1      12.275  49.945  85.261  1.00  0.00     0.024 C 
HETATM   18  C18 UNL     1      12.155  50.571  86.620  1.00  0.00     0.125 C 
BRANCH  16  19
HETATM   19  C3  UNL     1      13.339  50.026  83.029  1.00  0.00     0.019 C 
BRANCH  19  20
HETATM   20  C2  UNL     1      13.349  50.987  81.860  1.00  0.00     0.140 C 
BRANCH  20  21
HETATM   21  S1  UNL     1      15.013  51.147  81.250  1.00  0.00     0.140 S 
HETATM   22  C1  UNL     1      16.176  51.125  82.578  1.00  0.00     0.161 C 
HETATM   23  O1  UNL     1      15.092  52.447  80.474  1.00  0.00    -0.228 OA
HETATM   24  O2  UNL     1      15.329  50.015  80.311  1.00  0.00    -0.228 OA
ENDBRANCH  20  21
ENDBRANCH  19  20
ENDBRANCH  16  19
ENDBRANCH   1  13
BRANCH   4  25
HETATM   25  N3  UNL     1      12.267  54.346  90.660  1.00  0.00    -0.221 N 
ATOM     26  H3  UNL     1      12.173  55.340  90.871  1.00  0.00     0.178 HD
BRANCH  25  27
HETATM   27  C9  UNL     1      13.156  53.576  91.477  1.00  0.00     0.099 C 
HETATM   28  C10 UNL     1      12.474  52.914  92.651  1.00  0.00     0.026 C 
HETATM   29  C11 UNL     1      12.597  53.886  93.802  1.00  0.00     0.002 C 
HETATM   30  C12 UNL     1      13.671  54.863  93.446  1.00  0.00     0.002 C 
HETATM   31  C13 UNL     1      14.217  54.485  92.097  1.00  0.00     0.026 C 
ENDBRANCH  25  27
ENDBRANCH   4  25
TORSDOF 6
ENDMDL
