MODEL 1
REMARK VINA RESULT: -7.896138919      0.000      0.000
REMARK  5 active torsions:
REMARK  status: ('A' for Active; 'I' for Inactive)
REMARK       I    between atoms: C1_2  and  N1_3 
REMARK    1  A    between atoms: C1_2  and  C17_26 
REMARK    2  A    between atoms: N1_3  and  C2_5 
REMARK    3  A    between atoms: C3_6  and  N2_7 
REMARK    4  A    between atoms: N2_7  and  C4_9 
REMARK       I    between atoms: N3_12  and  C7_13 
REMARK    5  A    between atoms: C7_13  and  C8_15 
ROOT
HETATM    1  C2  UNL     1       9.525  53.509  88.788  1.00  0.00     0.120 A 
HETATM    2  C3  UNL     1       9.265  53.057  87.513  1.00  0.00     0.114 A 
HETATM    3  C15 UNL     1       8.165  52.408  88.008  1.00  0.00     0.252 A 
HETATM    4  O3  UNL     1       7.224  51.677  87.613  1.00  0.00    -0.281 OA
HETATM    5  C16 UNL     1       8.438  52.866  89.277  1.00  0.00     0.253 A 
HETATM    6  O4  UNL     1       7.946  52.777  90.438  1.00  0.00    -0.281 OA
ENDROOT
BRANCH   2   7
HETATM    7  N2  UNL     1       9.899  53.226  86.252  1.00  0.00    -0.380 N 
ATOM      8  H2  UNL     1       9.504  53.928  85.626  1.00  0.00     0.160 HD
BRANCH   7   9
HETATM    9  C4  UNL     1      11.035  52.506  85.781  1.00  0.00     0.085 C 
HETATM   10  C5  UNL     1      12.364  53.004  86.292  1.00  0.00     0.045 C 
HETATM   11  C6  UNL     1      13.425  52.680  85.225  1.00  0.00     0.127 C 
HETATM   12  N3  UNL     1      13.134  51.288  84.852  1.00  0.00    -0.352 N 
HETATM   13  C7  UNL     1      13.537  50.786  83.610  1.00  0.00     0.224 C 
HETATM   14  C13 UNL     1      12.415  50.489  85.839  1.00  0.00     0.127 C 
HETATM   15  O2  UNL     1      13.284  49.602  83.302  1.00  0.00    -0.273 OA
HETATM   16  C14 UNL     1      10.987  51.017  86.002  1.00  0.00     0.045 C 
BRANCH  13  17
HETATM   17  C8  UNL     1      14.260  51.642  82.653  1.00  0.00     0.078 C 
HETATM   18  C9  UNL     1      14.281  50.994  81.272  1.00  0.00     0.014 C 
HETATM   19  C10 UNL     1      15.432  51.644  80.575  1.00  0.00     0.001 C 
HETATM   20  C11 UNL     1      16.479  51.804  81.676  1.00  0.00     0.001 C 
HETATM   21  C12 UNL     1      15.719  51.773  82.968  1.00  0.00     0.014 C 
ENDBRANCH  13  17
ENDBRANCH   7   9
ENDBRANCH   2   7
BRANCH   1  22
HETATM   22  N1  UNL     1      10.555  54.338  89.358  1.00  0.00    -0.321 N 
HETATM   23  C1  UNL     1      11.743  53.750  89.844  1.00  0.00     0.226 C 
HETATM   24  O1  UNL     1      11.903  52.504  89.780  1.00  0.00    -0.273 OA
ATOM     25  H1  UNL     1      10.426  55.348  89.411  1.00  0.00     0.169 HD
BRANCH  23  26
HETATM   26  C17 UNL     1      12.810  54.572  90.429  1.00  0.00     0.078 C 
HETATM   27  C18 UNL     1      14.024  54.708  89.563  1.00  0.00     0.014 C 
HETATM   28  C19 UNL     1      15.045  55.288  90.523  1.00  0.00     0.001 C 
HETATM   29  C20 UNL     1      14.668  54.750  91.871  1.00  0.00     0.001 C 
HETATM   30  C21 UNL     1      13.372  53.987  91.704  1.00  0.00     0.014 C 
ENDBRANCH  23  26
ENDBRANCH   1  22
TORSDOF 5
ENDMDL
MODEL 2
REMARK VINA RESULT: -7.603487225      2.083      6.615
REMARK  5 active torsions:
REMARK  status: ('A' for Active; 'I' for Inactive)
REMARK       I    between atoms: C1_2  and  N1_3 
REMARK    1  A    between atoms: C1_2  and  C17_26 
REMARK    2  A    between atoms: N1_3  and  C2_5 
REMARK    3  A    between atoms: C3_6  and  N2_7 
REMARK    4  A    between atoms: N2_7  and  C4_9 
REMARK       I    between atoms: N3_12  and  C7_13 
REMARK    5  A    between atoms: C7_13  and  C8_15 
ROOT
HETATM    1  C2  UNL     1      10.142  52.228  84.909  1.00  0.00     0.120 A 
HETATM    2  C3  UNL     1       9.402  51.980  86.044  1.00  0.00     0.114 A 
HETATM    3  C15 UNL     1       8.449  52.838  85.562  1.00  0.00     0.252 A 
HETATM    4  O3  UNL     1       7.330  53.308  85.884  1.00  0.00    -0.281 OA
HETATM    5  C16 UNL     1       9.200  53.077  84.434  1.00  0.00     0.253 A 
HETATM    6  O4  UNL     1       9.123  53.764  83.377  1.00  0.00    -0.281 OA
ENDROOT
BRANCH   2   7
HETATM    7  N2  UNL     1       9.590  51.166  87.193  1.00  0.00    -0.380 N 
ATOM      8  H2  UNL     1       9.305  50.190  87.121  1.00  0.00     0.160 HD
BRANCH   7   9
HETATM    9  C4  UNL     1      10.141  51.588  88.438  1.00  0.00     0.085 C 
HETATM   10  C5  UNL     1       9.339  52.636  89.169  1.00  0.00     0.045 C 
HETATM   11  C6  UNL     1      10.319  53.471  90.012  1.00  0.00     0.127 C 
HETATM   12  N3  UNL     1      11.175  52.464  90.656  1.00  0.00    -0.352 N 
HETATM   13  C7  UNL     1      12.457  52.801  91.102  1.00  0.00     0.224 C 
HETATM   14  C13 UNL     1      10.610  51.125  90.792  1.00  0.00     0.127 C 
HETATM   15  O2  UNL     1      13.176  51.937  91.648  1.00  0.00    -0.273 OA
HETATM   16  C14 UNL     1      10.447  50.481  89.412  1.00  0.00     0.045 C 
BRANCH  13  17
HETATM   17  C8  UNL     1      12.974  54.170  90.936  1.00  0.00     0.078 C 
HETATM   18  C9  UNL     1      13.460  54.384  89.505  1.00  0.00     0.014 C 
HETATM   19  C10 UNL     1      14.399  55.542  89.602  1.00  0.00     0.001 C 
HETATM   20  C11 UNL     1      15.117  55.316  90.931  1.00  0.00     0.001 C 
HETATM   21  C12 UNL     1      14.214  54.432  91.737  1.00  0.00     0.014 C 
ENDBRANCH  13  17
ENDBRANCH   7   9
ENDBRANCH   2   7
BRANCH   1  22
HETATM   22  N1  UNL     1      11.418  51.759  84.433  1.00  0.00    -0.321 N 
HETATM   23  C1  UNL     1      12.607  52.374  84.882  1.00  0.00     0.226 C 
HETATM   24  O1  UNL     1      12.553  53.331  85.697  1.00  0.00    -0.273 OA
ATOM     25  H1  UNL     1      11.462  50.983  83.772  1.00  0.00     0.169 HD
BRANCH  23  26
HETATM   26  C17 UNL     1      13.921  51.916  84.414  1.00  0.00     0.078 C 
HETATM   27  C18 UNL     1      14.888  53.022  84.125  1.00  0.00     0.014 C 
HETATM   28  C19 UNL     1      15.986  52.302  83.364  1.00  0.00     0.001 C 
HETATM   29  C20 UNL     1      15.298  51.180  82.645  1.00  0.00     0.001 C 
HETATM   30  C21 UNL     1      13.853  51.176  83.098  1.00  0.00     0.014 C 
ENDBRANCH  23  26
ENDBRANCH   1  22
TORSDOF 5
ENDMDL
MODEL 3
REMARK VINA RESULT: -7.599456287      1.113      1.486
REMARK  5 active torsions:
REMARK  status: ('A' for Active; 'I' for Inactive)
REMARK       I    between atoms: C1_2  and  N1_3 
REMARK    1  A    between atoms: C1_2  and  C17_26 
REMARK    2  A    between atoms: N1_3  and  C2_5 
REMARK    3  A    between atoms: C3_6  and  N2_7 
REMARK    4  A    between atoms: N2_7  and  C4_9 
REMARK       I    between atoms: N3_12  and  C7_13 
REMARK    5  A    between atoms: C7_13  and  C8_15 
ROOT
HETATM    1  C2  UNL     1       9.748  53.370  88.587  1.00  0.00     0.120 A 
HETATM    2  C3  UNL     1       9.740  53.074  87.242  1.00  0.00     0.114 A 
HETATM    3  C15 UNL     1       8.584  52.369  87.443  1.00  0.00     0.252 A 
HETATM    4  O3  UNL     1       7.749  51.688  86.796  1.00  0.00    -0.281 OA
HETATM    5  C16 UNL     1       8.605  52.672  88.786  1.00  0.00     0.253 A 
HETATM    6  O4  UNL     1       7.910  52.443  89.816  1.00  0.00    -0.281 OA
ENDROOT
BRANCH   2   7
HETATM    7  N2  UNL     1      10.592  53.395  86.150  1.00  0.00    -0.380 N 
ATOM      8  H2  UNL     1      10.889  54.367  86.065  1.00  0.00     0.160 HD
BRANCH   7   9
HETATM    9  C4  UNL     1      11.070  52.484  85.164  1.00  0.00     0.085 C 
HETATM   10  C5  UNL     1      11.499  51.138  85.692  1.00  0.00     0.045 C 
HETATM   11  C6  UNL     1      12.592  50.595  84.754  1.00  0.00     0.127 C 
HETATM   12  N3  UNL     1      12.054  50.840  83.408  1.00  0.00    -0.352 N 
HETATM   13  C7  UNL     1      12.911  50.940  82.307  1.00  0.00     0.224 C 
HETATM   14  C13 UNL     1      10.604  50.968  83.304  1.00  0.00     0.127 C 
HETATM   15  O2  UNL     1      12.443  51.149  81.167  1.00  0.00    -0.273 OA
HETATM   16  C14 UNL     1      10.138  52.247  84.004  1.00  0.00     0.045 C 
BRANCH  13  17
HETATM   17  C8  UNL     1      14.368  50.803  82.475  1.00  0.00     0.078 C 
HETATM   18  C9  UNL     1      14.926  51.989  83.256  1.00  0.00     0.014 C 
HETATM   19  C10 UNL     1      16.378  52.012  82.908  1.00  0.00     0.001 C 
HETATM   20  C11 UNL     1      16.403  51.624  81.431  1.00  0.00     0.001 C 
HETATM   21  C12 UNL     1      15.119  50.891  81.181  1.00  0.00     0.014 C 
ENDBRANCH  13  17
ENDBRANCH   7   9
ENDBRANCH   2   7
BRANCH   1  22
HETATM   22  N1  UNL     1      10.635  54.126  89.432  1.00  0.00    -0.321 N 
HETATM   23  C1  UNL     1      12.006  53.795  89.490  1.00  0.00     0.226 C 
HETATM   24  O1  UNL     1      12.454  52.840  88.804  1.00  0.00    -0.273 OA
ATOM     25  H1  UNL     1      10.273  54.900  89.989  1.00  0.00     0.169 HD
BRANCH  23  26
HETATM   26  C17 UNL     1      12.933  54.550  90.343  1.00  0.00     0.078 C 
HETATM   27  C18 UNL     1      14.255  54.842  89.703  1.00  0.00     0.014 C 
HETATM   28  C19 UNL     1      15.092  55.303  90.881  1.00  0.00     0.001 C 
HETATM   29  C20 UNL     1      14.544  54.565  92.066  1.00  0.00     0.001 C 
HETATM   30  C21 UNL     1      13.325  53.801  91.595  1.00  0.00     0.014 C 
ENDBRANCH  23  26
ENDBRANCH   1  22
TORSDOF 5
ENDMDL
MODEL 4
REMARK VINA RESULT: -7.463517911      2.535      4.148
REMARK  5 active torsions:
REMARK  status: ('A' for Active; 'I' for Inactive)
REMARK       I    between atoms: C1_2  and  N1_3 
REMARK    1  A    between atoms: C1_2  and  C17_26 
REMARK    2  A    between atoms: N1_3  and  C2_5 
REMARK    3  A    between atoms: C3_6  and  N2_7 
REMARK    4  A    between atoms: N2_7  and  C4_9 
REMARK       I    between atoms: N3_12  and  C7_13 
REMARK    5  A    between atoms: C7_13  and  C8_15 
ROOT
HETATM    1  C2  UNL     1      13.306  54.489  90.509  1.00  0.00     0.120 A 
HETATM    2  C3  UNL     1      13.004  53.762  89.379  1.00  0.00     0.114 A 
HETATM    3  C15 UNL     1      13.903  54.533  88.690  1.00  0.00     0.252 A 
HETATM    4  O3  UNL     1      14.370  54.658  87.530  1.00  0.00    -0.281 OA
HETATM    5  C16 UNL     1      14.194  55.251  89.827  1.00  0.00     0.253 A 
HETATM    6  O4  UNL     1      14.943  56.208  90.172  1.00  0.00    -0.281 OA
ENDROOT
BRANCH   2   7
HETATM    7  N2  UNL     1      12.127  52.679  89.101  1.00  0.00    -0.380 N 
ATOM      8  H2  UNL     1      11.619  52.280  89.890  1.00  0.00     0.160 HD
BRANCH   7   9
HETATM    9  C4  UNL     1      11.892  52.098  87.821  1.00  0.00     0.085 C 
HETATM   10  C5  UNL     1      11.895  50.590  87.793  1.00  0.00     0.045 C 
HETATM   11  C6  UNL     1      12.355  50.149  86.392  1.00  0.00     0.127 C 
HETATM   12  N3  UNL     1      11.581  51.007  85.482  1.00  0.00    -0.352 N 
HETATM   13  C7  UNL     1      12.037  51.263  84.186  1.00  0.00     0.224 C 
HETATM   14  C13 UNL     1      10.338  51.557  86.013  1.00  0.00     0.127 C 
HETATM   15  O2  UNL     1      11.372  51.993  83.421  1.00  0.00    -0.273 OA
HETATM   16  C14 UNL     1      10.642  52.567  87.123  1.00  0.00     0.045 C 
BRANCH  13  17
HETATM   17  C8  UNL     1      13.302  50.679  83.706  1.00  0.00     0.078 C 
HETATM   18  C9  UNL     1      14.407  51.732  83.707  1.00  0.00     0.014 C 
HETATM   19  C10 UNL     1      15.424  51.203  82.750  1.00  0.00     0.001 C 
HETATM   20  C11 UNL     1      14.585  50.564  81.646  1.00  0.00     0.001 C 
HETATM   21  C12 UNL     1      13.252  50.270  82.265  1.00  0.00     0.014 C 
ENDBRANCH  13  17
ENDBRANCH   7   9
ENDBRANCH   2   7
BRANCH   1  22
HETATM   22  N1  UNL     1      12.846  54.442  91.872  1.00  0.00    -0.321 N 
HETATM   23  C1  UNL     1      13.458  53.563  92.792  1.00  0.00     0.226 C 
HETATM   24  O1  UNL     1      14.403  52.820  92.422  1.00  0.00    -0.273 OA
ATOM     25  H1  UNL     1      12.079  55.044  92.173  1.00  0.00     0.169 HD
BRANCH  23  26
HETATM   26  C17 UNL     1      13.009  53.495  94.189  1.00  0.00     0.078 C 
HETATM   27  C18 UNL     1      13.007  54.814  94.897  1.00  0.00     0.014 C 
HETATM   28  C19 UNL     1      12.842  54.403  96.348  1.00  0.00     0.001 C 
HETATM   29  C20 UNL     1      13.500  53.059  96.454  1.00  0.00     0.001 C 
HETATM   30  C21 UNL     1      13.912  52.649  95.057  1.00  0.00     0.014 C 
ENDBRANCH  23  26
ENDBRANCH   1  22
TORSDOF 5
ENDMDL
MODEL 5
REMARK VINA RESULT: -7.279394761      1.815      7.251
REMARK  5 active torsions:
REMARK  status: ('A' for Active; 'I' for Inactive)
REMARK       I    between atoms: C1_2  and  N1_3 
REMARK    1  A    between atoms: C1_2  and  C17_26 
REMARK    2  A    between atoms: N1_3  and  C2_5 
REMARK    3  A    between atoms: C3_6  and  N2_7 
REMARK    4  A    between atoms: N2_7  and  C4_9 
REMARK       I    between atoms: N3_12  and  C7_13 
REMARK    5  A    between atoms: C7_13  and  C8_15 
ROOT
HETATM    1  C2  UNL     1      10.600  51.396  83.227  1.00  0.00     0.120 A 
HETATM    2  C3  UNL     1       9.960  52.020  84.275  1.00  0.00     0.114 A 
HETATM    3  C15 UNL     1       8.834  51.306  83.961  1.00  0.00     0.252 A 
HETATM    4  O3  UNL     1       7.649  51.161  84.352  1.00  0.00    -0.281 OA
HETATM    5  C16 UNL     1       9.486  50.692  82.916  1.00  0.00     0.253 A 
HETATM    6  O4  UNL     1       9.236  49.839  82.018  1.00  0.00    -0.281 OA
ENDROOT
BRANCH   2   7
HETATM    7  N2  UNL     1      10.350  52.983  85.244  1.00  0.00    -0.380 N 
ATOM      8  H2  UNL     1      10.464  53.944  84.922  1.00  0.00     0.160 HD
BRANCH   7   9
HETATM    9  C4  UNL     1      10.596  52.731  86.625  1.00  0.00     0.085 C 
HETATM   10  C5  UNL     1       9.522  53.218  87.565  1.00  0.00     0.045 C 
HETATM   11  C6  UNL     1      10.193  53.546  88.911  1.00  0.00     0.127 C 
HETATM   12  N3  UNL     1      11.068  52.391  89.158  1.00  0.00    -0.352 N 
HETATM   13  C7  UNL     1      12.181  52.509  89.997  1.00  0.00     0.224 C 
HETATM   14  C13 UNL     1      10.706  51.148  88.484  1.00  0.00     0.127 C 
HETATM   15  O2  UNL     1      12.918  51.521  90.200  1.00  0.00    -0.273 OA
HETATM   16  C14 UNL     1      10.894  51.296  86.972  1.00  0.00     0.045 C 
BRANCH  13  17
HETATM   17  C8  UNL     1      12.497  53.791  90.649  1.00  0.00     0.078 C 
HETATM   18  C9  UNL     1      13.556  54.546  89.851  1.00  0.00     0.014 C 
HETATM   19  C10 UNL     1      14.149  55.502  90.834  1.00  0.00     0.001 C 
HETATM   20  C11 UNL     1      14.186  54.706  92.137  1.00  0.00     0.001 C 
HETATM   21  C12 UNL     1      13.160  53.625  91.983  1.00  0.00     0.014 C 
ENDBRANCH  13  17
ENDBRANCH   7   9
ENDBRANCH   2   7
BRANCH   1  22
HETATM   22  N1  UNL     1      11.932  51.477  82.688  1.00  0.00    -0.321 N 
HETATM   23  C1  UNL     1      12.959  50.667  83.221  1.00  0.00     0.226 C 
HETATM   24  O1  UNL     1      12.710  49.876  84.168  1.00  0.00    -0.273 OA
ATOM     25  H1  UNL     1      12.135  52.119  81.921  1.00  0.00     0.169 HD
BRANCH  23  26
HETATM   26  C17 UNL     1      14.326  50.729  82.691  1.00  0.00     0.078 C 
HETATM   27  C18 UNL     1      15.180  51.786  83.319  1.00  0.00     0.014 C 
HETATM   28  C19 UNL     1      16.369  51.845  82.378  1.00  0.00     0.001 C 
HETATM   29  C20 UNL     1      15.823  51.479  81.029  1.00  0.00     0.001 C 
HETATM   30  C21 UNL     1      14.374  51.085  81.224  1.00  0.00     0.014 C 
ENDBRANCH  23  26
ENDBRANCH   1  22
TORSDOF 5
ENDMDL
