MODEL 1
REMARK VINA RESULT: -7.081478600      0.000      0.000
REMARK  5 active torsions:
REMARK  status: ('A' for Active; 'I' for Inactive)
REMARK    1  A    between atoms: C6_9  and  N3_10 
REMARK    2  A    between atoms: N3_10  and  S1_12 
REMARK    3  A    between atoms: S1_12  and  N4_15 
REMARK    4  A    between atoms: N4_15  and  C7_17 
REMARK    5  A    between atoms: C10_20  and  N5_21 
ROOT
HETATM    1  N4  UNL     1      12.009  52.487  87.868  1.00  0.00    -0.298 N 
ATOM      2  H4  UNL     1      12.787  51.896  88.165  1.00  0.00     0.174 HD
ENDROOT
BRANCH   1   3
HETATM    3  S1  UNL     1      10.786  53.029  88.927  1.00  0.00     0.319 S 
HETATM    4  O1  UNL     1      10.413  51.877  89.832  1.00  0.00    -0.182 OA
HETATM    5  O2  UNL     1       9.603  53.484  88.114  1.00  0.00    -0.182 OA
BRANCH   3   6
HETATM    6  N3  UNL     1      11.290  54.326  89.942  1.00  0.00    -0.264 N 
ATOM      7  H3  UNL     1      10.796  55.217  89.875  1.00  0.00     0.180 HD
BRANCH   6   8
HETATM    8  C6  UNL     1      12.360  54.213  90.866  1.00  0.00     0.091 A 
HETATM    9  C2  UNL     1      13.709  54.457  90.673  1.00  0.00     0.051 A 
HETATM   10  C1  UNL     1      14.300  54.904  89.391  1.00  0.00     0.072 C 
HETATM   11  N1  UNL     1      14.358  54.214  91.847  1.00  0.00    -0.301 N 
HETATM   12  N2  UNL     1      13.475  53.832  92.757  1.00  0.00    -0.299 N 
ATOM     13  H1  UNL     1      15.362  54.310  92.000  1.00  0.00     0.187 HD
HETATM   14  C3  UNL     1      13.752  53.477  94.138  1.00  0.00     0.177 C 
HETATM   15  C4  UNL     1      12.254  53.821  92.196  1.00  0.00     0.053 A 
HETATM   16  C5  UNL     1      10.970  53.458  92.843  1.00  0.00     0.072 C 
ENDBRANCH   6   8
ENDBRANCH   3   6
ENDBRANCH   1   3
BRANCH   1  17
HETATM   17  C7  UNL     1      11.833  52.952  86.491  1.00  0.00     0.094 C 
HETATM   18  C8  UNL     1      13.048  53.560  85.939  1.00  0.00     0.028 C 
HETATM   19  C9  UNL     1      13.836  52.788  84.947  1.00  0.00     0.028 C 
HETATM   20  C10 UNL     1      13.125  51.703  84.231  1.00  0.00     0.088 C 
HETATM   21  C17 UNL     1      12.341  50.865  85.213  1.00  0.00     0.028 C 
HETATM   22  C18 UNL     1      11.251  51.791  85.729  1.00  0.00     0.028 C 
BRANCH  20  23
HETATM   23  N5  UNL     1      13.998  50.989  83.388  1.00  0.00    -0.369 N 
HETATM   24  C11 UNL     1      13.530  50.469  82.174  1.00  0.00     0.064 C 
HETATM   25  C12 UNL     1      14.195  50.984  80.928  1.00  0.00     0.049 C 
HETATM   26  C13 UNL     1      15.629  51.327  81.053  1.00  0.00    -0.009 C 
HETATM   27  C14 UNL     1      15.881  52.511  80.102  1.00  0.00     0.010 C 
HETATM   28  C15 UNL     1      16.116  51.749  82.391  1.00  0.00     0.049 C 
HETATM   29  C16 UNL     1      15.378  51.167  83.553  1.00  0.00     0.064 C 
ENDBRANCH  20  23
ENDBRANCH   1  17
TORSDOF 5
ENDMDL
MODEL 2
REMARK VINA RESULT: -6.970894697      3.166     10.371
REMARK  5 active torsions:
REMARK  status: ('A' for Active; 'I' for Inactive)
REMARK    1  A    between atoms: C6_9  and  N3_10 
REMARK    2  A    between atoms: N3_10  and  S1_12 
REMARK    3  A    between atoms: S1_12  and  N4_15 
REMARK    4  A    between atoms: N4_15  and  C7_17 
REMARK    5  A    between atoms: C10_20  and  N5_21 
ROOT
HETATM    1  N4  UNL     1      12.024  54.118  91.255  1.00  0.00    -0.298 N 
ATOM      2  H4  UNL     1      11.289  54.826  91.248  1.00  0.00     0.174 HD
ENDROOT
BRANCH   1   3
HETATM    3  S1  UNL     1      12.670  53.421  89.838  1.00  0.00     0.319 S 
HETATM    4  O1  UNL     1      12.867  51.944  90.097  1.00  0.00    -0.182 OA
HETATM    5  O2  UNL     1      13.979  54.093  89.516  1.00  0.00    -0.182 OA
BRANCH   3   6
HETATM    6  N3  UNL     1      11.628  53.561  88.474  1.00  0.00    -0.264 N 
ATOM      7  H3  UNL     1      10.956  54.329  88.451  1.00  0.00     0.180 HD
BRANCH   6   8
HETATM    8  C6  UNL     1      11.660  52.658  87.381  1.00  0.00     0.091 A 
HETATM    9  C2  UNL     1      10.888  51.530  87.158  1.00  0.00     0.051 A 
HETATM   10  C1  UNL     1       9.835  51.047  88.078  1.00  0.00     0.072 C 
HETATM   11  N1  UNL     1      11.275  50.977  85.973  1.00  0.00    -0.301 N 
HETATM   12  N2  UNL     1      12.248  51.708  85.452  1.00  0.00    -0.299 N 
ATOM     13  H1  UNL     1      10.879  50.135  85.555  1.00  0.00     0.187 HD
HETATM   14  C3  UNL     1      12.940  51.465  84.199  1.00  0.00     0.177 C 
HETATM   15  C4  UNL     1      12.507  52.736  86.280  1.00  0.00     0.053 A 
HETATM   16  C5  UNL     1      13.518  53.805  86.098  1.00  0.00     0.072 C 
ENDBRANCH   6   8
ENDBRANCH   3   6
ENDBRANCH   1   3
BRANCH   1  17
HETATM   17  C7  UNL     1      12.630  53.601  92.484  1.00  0.00     0.094 C 
HETATM   18  C8  UNL     1      13.646  54.501  93.038  1.00  0.00     0.028 C 
HETATM   19  C9  UNL     1      13.306  55.293  94.245  1.00  0.00     0.028 C 
HETATM   20  C10 UNL     1      12.188  54.789  95.078  1.00  0.00     0.088 C 
HETATM   21  C17 UNL     1      11.013  54.430  94.200  1.00  0.00     0.028 C 
HETATM   22  C18 UNL     1      11.486  53.233  93.390  1.00  0.00     0.028 C 
BRANCH  20  23
HETATM   23  N5  UNL     1      11.904  55.671  96.139  1.00  0.00    -0.369 N 
HETATM   24  C11 UNL     1      12.122  57.046  95.985  1.00  0.00     0.064 C 
HETATM   25  C12 UNL     1      10.914  57.931  96.117  1.00  0.00     0.049 C 
HETATM   26  C13 UNL     1       9.876  57.474  97.067  1.00  0.00    -0.009 C 
HETATM   27  C14 UNL     1       8.524  57.930  96.491  1.00  0.00     0.010 C 
HETATM   28  C15 UNL     1       9.764  56.013  97.304  1.00  0.00     0.049 C 
HETATM   29  C16 UNL     1      11.032  55.239  97.148  1.00  0.00     0.064 C 
ENDBRANCH  20  23
ENDBRANCH   1  17
TORSDOF 5
ENDMDL
MODEL 3
REMARK VINA RESULT: -6.889780724      3.135     10.222
REMARK  5 active torsions:
REMARK  status: ('A' for Active; 'I' for Inactive)
REMARK    1  A    between atoms: C6_9  and  N3_10 
REMARK    2  A    between atoms: N3_10  and  S1_12 
REMARK    3  A    between atoms: S1_12  and  N4_15 
REMARK    4  A    between atoms: N4_15  and  C7_17 
REMARK    5  A    between atoms: C10_20  and  N5_21 
ROOT
HETATM    1  N4  UNL     1      11.973  54.025  91.180  1.00  0.00    -0.298 N 
ATOM      2  H4  UNL     1      11.261  54.757  91.183  1.00  0.00     0.174 HD
ENDROOT
BRANCH   1   3
HETATM    3  S1  UNL     1      12.604  53.338  89.751  1.00  0.00     0.319 S 
HETATM    4  O1  UNL     1      12.783  51.856  89.991  1.00  0.00    -0.182 OA
HETATM    5  O2  UNL     1      13.920  53.998  89.433  1.00  0.00    -0.182 OA
BRANCH   3   6
HETATM    6  N3  UNL     1      11.558  53.508  88.393  1.00  0.00    -0.264 N 
ATOM      7  H3  UNL     1      10.874  54.265  88.398  1.00  0.00     0.180 HD
BRANCH   6   8
HETATM    8  C6  UNL     1      11.605  52.644  87.269  1.00  0.00     0.091 A 
HETATM    9  C2  UNL     1      12.455  52.678  86.178  1.00  0.00     0.051 A 
HETATM   10  C1  UNL     1      13.525  53.682  85.986  1.00  0.00     0.072 C 
HETATM   11  N1  UNL     1      12.126  51.646  85.349  1.00  0.00    -0.301 N 
HETATM   12  N2  UNL     1      11.113  50.976  85.876  1.00  0.00    -0.299 N 
ATOM     13  H1  UNL     1      12.585  51.426  84.465  1.00  0.00     0.187 HD
HETATM   14  C3  UNL     1      10.459  49.808  85.313  1.00  0.00     0.177 C 
HETATM   15  C4  UNL     1      10.772  51.554  87.041  1.00  0.00     0.053 A 
HETATM   16  C5  UNL     1       9.693  51.138  87.970  1.00  0.00     0.072 C 
ENDBRANCH   6   8
ENDBRANCH   3   6
ENDBRANCH   1   3
BRANCH   1  17
HETATM   17  C7  UNL     1      12.553  53.461  92.400  1.00  0.00     0.094 C 
HETATM   18  C8  UNL     1      13.639  54.284  92.943  1.00  0.00     0.028 C 
HETATM   19  C9  UNL     1      13.372  55.095  94.156  1.00  0.00     0.028 C 
HETATM   20  C10 UNL     1      12.230  54.673  95.001  1.00  0.00     0.088 C 
HETATM   21  C17 UNL     1      11.021  54.402  94.137  1.00  0.00     0.028 C 
HETATM   22  C18 UNL     1      11.396  53.176  93.319  1.00  0.00     0.028 C 
BRANCH  20  23
HETATM   23  N5  UNL     1      12.024  55.570  96.067  1.00  0.00    -0.369 N 
HETATM   24  C11 UNL     1      12.254  56.940  95.884  1.00  0.00     0.064 C 
HETATM   25  C12 UNL     1      11.070  57.845  96.078  1.00  0.00     0.049 C 
HETATM   26  C13 UNL     1      10.084  57.416  97.094  1.00  0.00    -0.009 C 
HETATM   27  C14 UNL     1       8.707  57.888  96.596  1.00  0.00     0.010 C 
HETATM   28  C15 UNL     1       9.963  55.959  97.355  1.00  0.00     0.049 C 
HETATM   29  C16 UNL     1      11.208  55.163  97.132  1.00  0.00     0.064 C 
ENDBRANCH  20  23
ENDBRANCH   1  17
TORSDOF 5
ENDMDL
MODEL 4
REMARK VINA RESULT: -6.830856448      3.973     10.989
REMARK  5 active torsions:
REMARK  status: ('A' for Active; 'I' for Inactive)
REMARK    1  A    between atoms: C6_9  and  N3_10 
REMARK    2  A    between atoms: N3_10  and  S1_12 
REMARK    3  A    between atoms: S1_12  and  N4_15 
REMARK    4  A    between atoms: N4_15  and  C7_17 
REMARK    5  A    between atoms: C10_20  and  N5_21 
ROOT
HETATM    1  N4  UNL     1      12.438  52.979  94.103  1.00  0.00    -0.298 N 
ATOM      2  H4  UNL     1      11.595  52.521  94.452  1.00  0.00     0.174 HD
ENDROOT
BRANCH   1   3
HETATM    3  S1  UNL     1      13.053  52.738  92.529  1.00  0.00     0.319 S 
HETATM    4  O1  UNL     1      12.640  51.355  92.078  1.00  0.00    -0.182 OA
HETATM    5  O2  UNL     1      14.552  52.871  92.566  1.00  0.00    -0.182 OA
BRANCH   3   6
HETATM    6  N3  UNL     1      12.428  53.855  91.376  1.00  0.00    -0.264 N 
ATOM      7  H3  UNL     1      11.711  54.515  91.677  1.00  0.00     0.180 HD
BRANCH   6   8
HETATM    8  C6  UNL     1      12.864  53.897  90.027  1.00  0.00     0.091 A 
HETATM    9  C2  UNL     1      13.918  54.604  89.474  1.00  0.00     0.051 A 
HETATM   10  C1  UNL     1      14.823  55.489  90.241  1.00  0.00     0.072 C 
HETATM   11  N1  UNL     1      13.955  54.334  88.137  1.00  0.00    -0.301 N 
HETATM   12  N2  UNL     1      12.976  53.495  87.838  1.00  0.00    -0.299 N 
ATOM     13  H1  UNL     1      14.629  54.718  87.474  1.00  0.00     0.187 HD
HETATM   14  C3  UNL     1      12.665  52.957  86.525  1.00  0.00     0.177 C 
HETATM   15  C4  UNL     1      12.295  53.209  88.961  1.00  0.00     0.053 A 
HETATM   16  C5  UNL     1      11.120  52.313  89.098  1.00  0.00     0.072 C 
ENDBRANCH   6   8
ENDBRANCH   3   6
ENDBRANCH   1   3
BRANCH   1  17
HETATM   17  C7  UNL     1      13.241  53.905  94.904  1.00  0.00     0.094 C 
HETATM   18  C8  UNL     1      13.120  55.295  94.452  1.00  0.00     0.028 C 
HETATM   19  C9  UNL     1      12.308  56.234  95.263  1.00  0.00     0.028 C 
HETATM   20  C10 UNL     1      12.078  55.864  96.679  1.00  0.00     0.088 C 
HETATM   21  C17 UNL     1      11.659  54.415  96.771  1.00  0.00     0.028 C 
HETATM   22  C18 UNL     1      12.887  53.629  96.341  1.00  0.00     0.028 C 
BRANCH  20  23
HETATM   23  N5  UNL     1      11.222  56.783  97.315  1.00  0.00    -0.369 N 
HETATM   24  C11 UNL     1      10.593  57.788  96.569  1.00  0.00     0.064 C 
HETATM   25  C12 UNL     1       9.091  57.770  96.559  1.00  0.00     0.049 C 
HETATM   26  C13 UNL     1       8.440  57.287  97.796  1.00  0.00    -0.009 C 
HETATM   27  C14 UNL     1       7.146  56.575  97.362  1.00  0.00     0.010 C 
HETATM   28  C15 UNL     1       9.195  56.320  98.632  1.00  0.00     0.049 C 
HETATM   29  C16 UNL     1      10.683  56.439  98.562  1.00  0.00     0.064 C 
ENDBRANCH  20  23
ENDBRANCH   1  17
TORSDOF 5
ENDMDL
MODEL 5
REMARK VINA RESULT: -6.516392320      0.895      1.833
REMARK  5 active torsions:
REMARK  status: ('A' for Active; 'I' for Inactive)
REMARK    1  A    between atoms: C6_9  and  N3_10 
REMARK    2  A    between atoms: N3_10  and  S1_12 
REMARK    3  A    between atoms: S1_12  and  N4_15 
REMARK    4  A    between atoms: N4_15  and  C7_17 
REMARK    5  A    between atoms: C10_20  and  N5_21 
ROOT
HETATM    1  N4  UNL     1      11.164  52.323  87.599  1.00  0.00    -0.298 N 
ATOM      2  H4  UNL     1      11.882  51.711  87.989  1.00  0.00     0.174 HD
ENDROOT
BRANCH   1   3
HETATM    3  S1  UNL     1       9.858  52.937  88.510  1.00  0.00     0.319 S 
HETATM    4  O1  UNL     1       9.332  51.816  89.378  1.00  0.00    -0.182 OA
HETATM    5  O2  UNL     1       8.796  53.434  87.566  1.00  0.00    -0.182 OA
BRANCH   3   6
HETATM    6  N3  UNL     1      10.308  54.224  89.562  1.00  0.00    -0.264 N 
ATOM      7  H3  UNL     1       9.958  55.161  89.363  1.00  0.00     0.180 HD
BRANCH   6   8
HETATM    8  C6  UNL     1      11.145  54.040  90.694  1.00  0.00     0.091 A 
HETATM    9  C2  UNL     1      10.797  53.689  91.987  1.00  0.00     0.051 A 
HETATM   10  C1  UNL     1       9.411  53.431  92.437  1.00  0.00     0.072 C 
HETATM   11  N1  UNL     1      11.938  53.631  92.732  1.00  0.00    -0.301 N 
HETATM   12  N2  UNL     1      12.973  53.929  91.963  1.00  0.00    -0.299 N 
ATOM     13  H1  UNL     1      11.985  53.397  93.724  1.00  0.00     0.187 HD
HETATM   14  C3  UNL     1      14.367  53.982  92.366  1.00  0.00     0.177 C 
HETATM   15  C4  UNL     1      12.528  54.182  90.720  1.00  0.00     0.053 A 
HETATM   16  C5  UNL     1      13.335  54.556  89.533  1.00  0.00     0.072 C 
ENDBRANCH   6   8
ENDBRANCH   3   6
ENDBRANCH   1   3
BRANCH   1  17
HETATM   17  C7  UNL     1      11.153  52.760  86.201  1.00  0.00     0.094 C 
HETATM   18  C8  UNL     1      12.402  53.416  85.803  1.00  0.00     0.028 C 
HETATM   19  C9  UNL     1      13.350  52.669  84.941  1.00  0.00     0.028 C 
HETATM   20  C10 UNL     1      12.790  51.541  84.159  1.00  0.00     0.088 C 
HETATM   21  C17 UNL     1      11.920  50.681  85.044  1.00  0.00     0.028 C 
HETATM   22  C18 UNL     1      10.731  51.562  85.393  1.00  0.00     0.028 C 
BRANCH  20  23
HETATM   23  N5  UNL     1      13.799  50.858  83.454  1.00  0.00    -0.369 N 
HETATM   24  C11 UNL     1      13.500  50.223  82.241  1.00  0.00     0.064 C 
HETATM   25  C12 UNL     1      14.240  50.717  81.030  1.00  0.00     0.049 C 
HETATM   26  C13 UNL     1      15.621  51.195  81.265  1.00  0.00    -0.009 C 
HETATM   27  C14 UNL     1      15.867  52.334  80.260  1.00  0.00     0.010 C 
HETATM   28  C15 UNL     1      15.935  51.740  82.609  1.00  0.00     0.049 C 
HETATM   29  C16 UNL     1      15.136  51.168  83.735  1.00  0.00     0.064 C 
ENDBRANCH  20  23
ENDBRANCH   1  17
TORSDOF 5
ENDMDL
