MODEL 1
REMARK VINA RESULT: -5.196694983      0.000      0.000
REMARK  6 active torsions:
REMARK  status: ('A' for Active; 'I' for Inactive)
REMARK    1  A    between atoms: N1_2  and  C2_5 
REMARK    2  A    between atoms: C12_16  and  C13_17 
REMARK    3  A    between atoms: C13_17  and  O2_18 
REMARK    4  A    between atoms: C16_22  and  C17_23 
REMARK    5  A    between atoms: C17_23  and  N2_24 
REMARK    6  A    between atoms: C20_28  and  C21_29 
ROOT
HETATM    1  C2  UNL     1      12.733  50.773  92.853  1.00  0.00     0.200 C 
HETATM    2  C3  UNL     1      13.928  51.580  93.191  1.00  0.00     0.066 C 
HETATM    3  C4  UNL     1      13.609  53.058  93.273  1.00  0.00     0.129 C 
HETATM    4  O1  UNL     1      12.981  53.281  94.372  1.00  0.00    -0.377 OA
HETATM    5  C5  UNL     1      13.062  54.137  95.339  1.00  0.00     0.161 C 
HETATM    6  C6  UNL     1      13.106  53.325  96.654  1.00  0.00     0.071 C 
HETATM    7  C7  UNL     1      11.700  52.685  96.513  1.00  0.00     0.147 C 
HETATM    8  C8  UNL     1      11.802  51.414  95.771  1.00  0.00     0.002 C 
HETATM    9  C9  UNL     1      10.991  51.128  94.586  1.00  0.00    -0.016 C 
HETATM   10  C10 UNL     1      11.395  51.443  93.207  1.00  0.00     0.012 C 
HETATM   11  C11 UNL     1      10.418  50.543  92.417  1.00  0.00     0.022 C 
HETATM   12  C12 UNL     1      11.283  52.838  92.613  1.00  0.00    -0.000 C 
HETATM   13  C14 UNL     1      10.544  53.801  93.479  1.00  0.00     0.016 C 
HETATM   14  C15 UNL     1      11.117  54.944  94.138  1.00  0.00     0.043 C 
HETATM   15  C16 UNL     1      11.657  54.685  95.555  1.00  0.00     0.114 C 
HETATM   16  O3  UNL     1      10.890  53.660  96.032  1.00  0.00    -0.366 OA
HETATM   17  C20 UNL     1      12.609  53.243  92.071  1.00  0.00     0.030 C 
ENDROOT
BRANCH   1  18
HETATM   18  N1  UNL     1      12.862  49.449  93.359  1.00  0.00    -0.074 N 
HETATM   19  C1  UNL     1      14.160  49.173  93.948  1.00  0.00     0.267 C 
ATOM     20  H12 UNL     1      12.642  48.765  92.635  1.00  0.00     0.277 HD
ATOM     21  H11 UNL     1      12.114  49.242  94.022  1.00  0.00     0.277 HD
ENDBRANCH   1  18
BRANCH  12  22
HETATM   22  C13 UNL     1      10.407  52.819  91.357  1.00  0.00     0.175 C 
BRANCH  22  23
HETATM   23  O2  UNL     1       9.476  53.864  91.291  1.00  0.00    -0.400 OA
ATOM     24  H2  UNL     1       9.038  53.942  90.452  1.00  0.00     0.209 HD
ENDBRANCH  22  23
ENDBRANCH  12  22
BRANCH  17  25
HETATM   25  C21 UNL     1      12.979  54.423  91.315  1.00  0.00    -0.015 C 
HETATM   26  C22 UNL     1      13.120  54.422  89.829  1.00  0.00     0.010 C 
HETATM   27  C23 UNL     1      14.417  54.838  91.797  1.00  0.00     0.010 C 
ENDBRANCH  17  25
BRANCH  15  28
HETATM   28  C17 UNL     1      11.665  55.925  96.390  1.00  0.00     0.311 C 
BRANCH  28  29
HETATM   29  N2  UNL     1      10.922  56.978  95.797  1.00  0.00     0.083 N 
HETATM   30  C18 UNL     1      11.770  58.179  95.835  1.00  0.00     0.309 C 
HETATM   31  C19 UNL     1       9.695  57.310  96.446  1.00  0.00     0.309 C 
ENDBRANCH  28  29
ENDBRANCH  15  28
TORSDOF 6
ENDMDL
MODEL 2
REMARK VINA RESULT: -5.144495817      8.539     11.182
REMARK  6 active torsions:
REMARK  status: ('A' for Active; 'I' for Inactive)
REMARK    1  A    between atoms: N1_2  and  C2_5 
REMARK    2  A    between atoms: C12_16  and  C13_17 
REMARK    3  A    between atoms: C13_17  and  O2_18 
REMARK    4  A    between atoms: C16_22  and  C17_23 
REMARK    5  A    between atoms: C17_23  and  N2_24 
REMARK    6  A    between atoms: C20_28  and  C21_29 
ROOT
HETATM    1  C2  UNL     1      10.681  52.196  82.464  1.00  0.00     0.200 C 
HETATM    2  C3  UNL     1      11.617  51.296  81.753  1.00  0.00     0.066 C 
HETATM    3  C4  UNL     1      12.605  50.643  82.697  1.00  0.00     0.129 C 
HETATM    4  O1  UNL     1      11.998  49.717  83.349  1.00  0.00    -0.377 OA
HETATM    5  C5  UNL     1      12.227  48.480  83.650  1.00  0.00     0.161 C 
HETATM    6  C6  UNL     1      10.971  47.678  83.237  1.00  0.00     0.071 C 
HETATM    7  C7  UNL     1       9.987  48.377  84.211  1.00  0.00     0.147 C 
HETATM    8  C8  UNL     1       9.397  49.561  83.558  1.00  0.00     0.002 C 
HETATM    9  C9  UNL     1       9.430  50.893  84.167  1.00  0.00    -0.016 C 
HETATM   10  C10 UNL     1      10.505  51.875  83.958  1.00  0.00     0.012 C 
HETATM   11  C11 UNL     1       9.802  53.165  84.437  1.00  0.00     0.022 C 
HETATM   12  C12 UNL     1      11.838  51.805  84.685  1.00  0.00    -0.000 C 
HETATM   13  C14 UNL     1      11.877  50.782  85.770  1.00  0.00     0.016 C 
HETATM   14  C15 UNL     1      12.674  49.584  85.761  1.00  0.00     0.043 C 
HETATM   15  C16 UNL     1      11.997  48.347  85.151  1.00  0.00     0.114 C 
HETATM   16  O3  UNL     1      10.662  48.541  85.375  1.00  0.00    -0.366 OA
HETATM   17  C20 UNL     1      12.940  51.823  83.684  1.00  0.00     0.030 C 
ENDROOT
BRANCH   1  18
HETATM   18  N1  UNL     1       9.454  52.308  81.754  1.00  0.00    -0.074 N 
HETATM   19  C1  UNL     1       9.466  51.648  80.460  1.00  0.00     0.267 C 
ATOM     20  H12 UNL     1       9.181  53.285  81.657  1.00  0.00     0.277 HD
ATOM     21  H11 UNL     1       8.676  51.970  82.323  1.00  0.00     0.277 HD
ENDBRANCH   1  18
BRANCH  12  22
HETATM   22  C13 UNL     1      12.089  53.096  85.472  1.00  0.00     0.175 C 
BRANCH  22  23
HETATM   23  O2  UNL     1      12.330  52.898  86.838  1.00  0.00    -0.400 OA
ATOM     24  H2  UNL     1      11.751  52.264  87.246  1.00  0.00     0.209 HD
ENDBRANCH  22  23
ENDBRANCH  12  22
BRANCH  17  25
HETATM   25  C21 UNL     1      14.374  51.889  83.886  1.00  0.00    -0.015 C 
HETATM   26  C22 UNL     1      15.107  53.174  84.081  1.00  0.00     0.010 C 
HETATM   27  C23 UNL     1      15.041  51.304  82.589  1.00  0.00     0.010 C 
ENDBRANCH  17  25
BRANCH  15  28
HETATM   28  C17 UNL     1      12.561  47.071  85.689  1.00  0.00     0.311 C 
BRANCH  28  29
HETATM   29  N2  UNL     1      13.207  47.255  86.939  1.00  0.00     0.083 N 
HETATM   30  C18 UNL     1      14.467  46.499  86.888  1.00  0.00     0.309 C 
HETATM   31  C19 UNL     1      12.487  46.794  88.081  1.00  0.00     0.309 C 
ENDBRANCH  28  29
ENDBRANCH  15  28
TORSDOF 6
ENDMDL
MODEL 3
REMARK VINA RESULT: -4.885738292      2.260      5.918
REMARK  6 active torsions:
REMARK  status: ('A' for Active; 'I' for Inactive)
REMARK    1  A    between atoms: N1_2  and  C2_5 
REMARK    2  A    between atoms: C12_16  and  C13_17 
REMARK    3  A    between atoms: C13_17  and  O2_18 
REMARK    4  A    between atoms: C16_22  and  C17_23 
REMARK    5  A    between atoms: C17_23  and  N2_24 
REMARK    6  A    between atoms: C20_28  and  C21_29 
ROOT
HETATM    1  C2  UNL     1      12.144  54.695  93.359  1.00  0.00     0.200 C 
HETATM    2  C3  UNL     1      10.918  53.937  93.697  1.00  0.00     0.066 C 
HETATM    3  C4  UNL     1      10.489  53.020  92.571  1.00  0.00     0.129 C 
HETATM    4  O1  UNL     1      11.273  52.002  92.550  1.00  0.00    -0.377 OA
HETATM    5  C5  UNL     1      11.138  50.717  92.477  1.00  0.00     0.161 C 
HETATM    6  C6  UNL     1      11.962  50.113  93.638  1.00  0.00     0.071 C 
HETATM    7  C7  UNL     1      13.347  50.616  93.153  1.00  0.00     0.147 C 
HETATM    8  C8  UNL     1      13.615  51.955  93.712  1.00  0.00     0.002 C 
HETATM    9  C9  UNL     1      13.983  53.098  92.873  1.00  0.00    -0.016 C 
HETATM   10  C10 UNL     1      13.018  54.036  92.278  1.00  0.00     0.012 C 
HETATM   11  C11 UNL     1      13.954  55.214  91.925  1.00  0.00     0.022 C 
HETATM   12  C12 UNL     1      12.224  53.715  91.022  1.00  0.00    -0.000 C 
HETATM   13  C14 UNL     1      12.658  52.462  90.341  1.00  0.00     0.016 C 
HETATM   14  C15 UNL     1      11.881  51.256  90.233  1.00  0.00     0.043 C 
HETATM   15  C16 UNL     1      12.076  50.243  91.373  1.00  0.00     0.114 C 
HETATM   16  O3  UNL     1      13.354  50.457  91.807  1.00  0.00    -0.366 OA
HETATM   17  C20 UNL     1      10.774  53.907  91.302  1.00  0.00     0.030 C 
ENDROOT
BRANCH   1  18
HETATM   18  N1  UNL     1      12.859  55.045  94.538  1.00  0.00    -0.074 N 
HETATM   19  C1  UNL     1      12.280  56.165  95.260  1.00  0.00     0.267 C 
ATOM     20  H12 UNL     1      13.840  55.224  94.324  1.00  0.00     0.277 HD
ATOM     21  H11 UNL     1      12.963  54.236  95.151  1.00  0.00     0.277 HD
ENDBRANCH   1  18
BRANCH  12  22
HETATM   22  C13 UNL     1      12.489  54.763  89.936  1.00  0.00     0.175 C 
BRANCH  22  23
HETATM   23  O2  UNL     1      12.934  54.229  88.721  1.00  0.00    -0.400 OA
ATOM     24  H2  UNL     1      13.633  53.591  88.809  1.00  0.00     0.209 HD
ENDBRANCH  22  23
ENDBRANCH  12  22
BRANCH  17  25
HETATM   25  C21 UNL     1       9.640  53.837  90.402  1.00  0.00    -0.015 C 
HETATM   26  C22 UNL     1       8.965  55.050  89.853  1.00  0.00     0.010 C 
HETATM   27  C23 UNL     1       8.481  53.124  91.188  1.00  0.00     0.010 C 
ENDBRANCH  17  25
BRANCH  15  28
HETATM   28  C17 UNL     1      11.767  48.844  90.944  1.00  0.00     0.311 C 
BRANCH  28  29
HETATM   29  N2  UNL     1      12.930  48.138  90.538  1.00  0.00     0.083 N 
HETATM   30  C18 UNL     1      12.724  47.738  89.138  1.00  0.00     0.309 C 
HETATM   31  C19 UNL     1      13.220  46.952  91.275  1.00  0.00     0.309 C 
ENDBRANCH  28  29
ENDBRANCH  15  28
TORSDOF 6
ENDMDL
MODEL 4
REMARK VINA RESULT: -4.830852496      3.696      6.238
REMARK  6 active torsions:
REMARK  status: ('A' for Active; 'I' for Inactive)
REMARK    1  A    between atoms: N1_2  and  C2_5 
REMARK    2  A    between atoms: C12_16  and  C13_17 
REMARK    3  A    between atoms: C13_17  and  O2_18 
REMARK    4  A    between atoms: C16_22  and  C17_23 
REMARK    5  A    between atoms: C17_23  and  N2_24 
REMARK    6  A    between atoms: C20_28  and  C21_29 
ROOT
HETATM    1  C2  UNL     1       8.137  55.584  95.859  1.00  0.00     0.200 C 
HETATM    2  C3  UNL     1       8.683  54.214  95.982  1.00  0.00     0.066 C 
HETATM    3  C4  UNL     1      10.042  54.203  96.652  1.00  0.00     0.129 C 
HETATM    4  O1  UNL     1       9.879  54.395  97.912  1.00  0.00    -0.377 OA
HETATM    5  C5  UNL     1      10.306  53.851  99.006  1.00  0.00     0.161 C 
HETATM    6  C6  UNL     1       9.061  53.549  99.872  1.00  0.00     0.071 C 
HETATM    7  C7  UNL     1       8.609  55.022 100.052  1.00  0.00     0.147 C 
HETATM    8  C8  UNL     1       7.703  55.404  98.953  1.00  0.00     0.002 C 
HETATM    9  C9  UNL     1       7.930  56.588  98.121  1.00  0.00    -0.016 C 
HETATM   10  C10 UNL     1       8.710  56.589  96.873  1.00  0.00     0.012 C 
HETATM   11  C11 UNL     1       8.232  57.917  96.246  1.00  0.00     0.022 C 
HETATM   12  C12 UNL     1      10.230  56.615  96.851  1.00  0.00    -0.000 C 
HETATM   13  C14 UNL     1      10.845  56.844  98.190  1.00  0.00     0.016 C 
HETATM   14  C15 UNL     1      11.622  55.886  98.929  1.00  0.00     0.043 C 
HETATM   15  C16 UNL     1      10.822  54.985  99.884  1.00  0.00     0.114 C 
HETATM   16  O3  UNL     1       9.742  55.742 100.245  1.00  0.00    -0.366 OA
HETATM   17  C20 UNL     1      10.724  55.477  96.027  1.00  0.00     0.030 C 
ENDROOT
BRANCH   1  18
HETATM   18  N1  UNL     1       6.715  55.557  95.822  1.00  0.00    -0.074 N 
HETATM   19  C1  UNL     1       6.164  54.245  95.528  1.00  0.00     0.267 C 
ATOM     20  H12 UNL     1       6.358  56.252  95.166  1.00  0.00     0.277 HD
ATOM     21  H11 UNL     1       6.324  55.925  96.690  1.00  0.00     0.277 HD
ENDBRANCH   1  18
BRANCH  12  22
HETATM   22  C13 UNL     1      10.735  57.830  96.068  1.00  0.00     0.175 C 
BRANCH  22  23
HETATM   23  O2  UNL     1      11.896  58.411  96.596  1.00  0.00    -0.400 OA
ATOM     24  H2  UNL     1      12.662  57.850  96.557  1.00  0.00     0.209 HD
ENDBRANCH  22  23
ENDBRANCH  12  22
BRANCH  17  25
HETATM   25  C21 UNL     1      12.074  55.148  95.617  1.00  0.00    -0.015 C 
HETATM   26  C22 UNL     1      12.565  55.331  94.220  1.00  0.00     0.010 C 
HETATM   27  C23 UNL     1      12.253  53.603  95.846  1.00  0.00     0.010 C 
ENDBRANCH  17  25
BRANCH  15  28
HETATM   28  C17 UNL     1      11.658  54.476 101.014  1.00  0.00     0.311 C 
BRANCH  28  29
HETATM   29  N2  UNL     1      13.037  54.426 100.682  1.00  0.00     0.083 N 
HETATM   30  C18 UNL     1      13.373  53.012 100.454  1.00  0.00     0.309 C 
HETATM   31  C19 UNL     1      13.931  54.914 101.680  1.00  0.00     0.309 C 
ENDBRANCH  28  29
ENDBRANCH  15  28
TORSDOF 6
ENDMDL
MODEL 5
REMARK VINA RESULT: -4.815690009      9.817     12.415
REMARK  6 active torsions:
REMARK  status: ('A' for Active; 'I' for Inactive)
REMARK    1  A    between atoms: N1_2  and  C2_5 
REMARK    2  A    between atoms: C12_16  and  C13_17 
REMARK    3  A    between atoms: C13_17  and  O2_18 
REMARK    4  A    between atoms: C16_22  and  C17_23 
REMARK    5  A    between atoms: C17_23  and  N2_24 
REMARK    6  A    between atoms: C20_28  and  C21_29 
ROOT
HETATM    1  C2  UNL     1      10.831  51.858  81.437  1.00  0.00     0.200 C 
HETATM    2  C3  UNL     1      11.716  50.928  80.700  1.00  0.00     0.066 C 
HETATM    3  C4  UNL     1      12.607  50.134  81.632  1.00  0.00     0.129 C 
HETATM    4  O1  UNL     1      11.899  49.223  82.198  1.00  0.00    -0.377 OA
HETATM    5  C5  UNL     1      12.012  47.954  82.424  1.00  0.00     0.161 C 
HETATM    6  C6  UNL     1      10.711  47.291  81.915  1.00  0.00     0.071 C 
HETATM    7  C7  UNL     1       9.750  48.009  82.899  1.00  0.00     0.147 C 
HETATM    8  C8  UNL     1       9.288  49.278  82.308  1.00  0.00     0.002 C 
HETATM    9  C9  UNL     1       9.408  50.561  83.005  1.00  0.00    -0.016 C 
HETATM   10  C10 UNL     1      10.569  51.458  82.899  1.00  0.00     0.012 C 
HETATM   11  C11 UNL     1       9.958  52.771  83.440  1.00  0.00     0.022 C 
HETATM   12  C12 UNL     1      11.861  51.228  83.666  1.00  0.00    -0.000 C 
HETATM   13  C14 UNL     1      11.771  50.138  84.680  1.00  0.00     0.016 C 
HETATM   14  C15 UNL     1      12.465  48.879  84.618  1.00  0.00     0.043 C 
HETATM   15  C16 UNL     1      11.712  47.746  83.903  1.00  0.00     0.114 C 
HETATM   16  O3  UNL     1      10.391  48.039  84.094  1.00  0.00    -0.366 OA
HETATM   17  C20 UNL     1      13.000  51.214  82.707  1.00  0.00     0.030 C 
ENDROOT
BRANCH   1  18
HETATM   18  N1  UNL     1       9.646  52.120  80.695  1.00  0.00    -0.074 N 
HETATM   19  C1  UNL     1       9.669  51.575  79.348  1.00  0.00     0.267 C 
ATOM     20  H12 UNL     1       9.447  53.120  80.675  1.00  0.00     0.277 HD
ATOM     21  H11 UNL     1       8.823  51.792  81.202  1.00  0.00     0.277 HD
ENDBRANCH   1  18
BRANCH  12  22
HETATM   22  C13 UNL     1      12.188  52.439  84.546  1.00  0.00     0.175 C 
BRANCH  22  23
HETATM   23  O2  UNL     1      12.490  52.117  85.875  1.00  0.00    -0.400 OA
ATOM     24  H2  UNL     1      11.998  52.617  86.517  1.00  0.00     0.209 HD
ENDBRANCH  22  23
ENDBRANCH  12  22
BRANCH  17  25
HETATM   25  C21 UNL     1      14.425  51.144  82.962  1.00  0.00    -0.015 C 
HETATM   26  C22 UNL     1      15.229  52.321  83.406  1.00  0.00     0.010 C 
HETATM   27  C23 UNL     1      15.109  50.753  81.602  1.00  0.00     0.010 C 
ENDBRANCH  17  25
BRANCH  15  28
HETATM   28  C17 UNL     1      12.145  46.395  84.374  1.00  0.00     0.311 C 
BRANCH  28  29
HETATM   29  N2  UNL     1      11.353  45.921  85.452  1.00  0.00     0.083 N 
HETATM   30  C18 UNL     1      12.264  45.672  86.579  1.00  0.00     0.309 C 
HETATM   31  C19 UNL     1      10.642  44.709  85.210  1.00  0.00     0.309 C 
ENDBRANCH  28  29
ENDBRANCH  15  28
TORSDOF 6
ENDMDL
