MODEL 1
REMARK VINA RESULT: -7.412551885      0.000      0.000
REMARK  7 active torsions:
REMARK  status: ('A' for Active; 'I' for Inactive)
REMARK    1  A    between atoms: N2_5  and  C3_6 
REMARK    2  A    between atoms: C10_14  and  C11_15 
REMARK    3  A    between atoms: C11_15  and  C12_16 
REMARK    4  A    between atoms: C14_18  and  O2_19 
REMARK    5  A    between atoms: C16_21  and  O3_22 
REMARK    6  A    between atoms: C17_24  and  O4_25 
REMARK    7  A    between atoms: O4_25  and  C18_26 
ROOT
HETATM    1  C12 UNL     1       9.616  52.271  85.912  1.00  0.00    -0.030 A 
HETATM    2  C13 UNL     1       8.849  53.031  85.079  1.00  0.00     0.051 A 
HETATM    3  C14 UNL     1       9.078  53.162  83.729  1.00  0.00     0.104 A 
HETATM    4  C16 UNL     1      10.150  52.481  83.194  1.00  0.00     0.133 A 
HETATM    5  C17 UNL     1      10.979  51.681  83.996  1.00  0.00     0.106 A 
HETATM    6  C23 UNL     1      10.694  51.593  85.340  1.00  0.00     0.051 A 
ENDROOT
BRANCH   1   7
HETATM    7  C11 UNL     1       9.348  52.151  87.337  1.00  0.00     0.031 C 
BRANCH   7   8
HETATM    8  C10 UNL     1       9.818  52.941  88.249  1.00  0.00     0.062 A 
HETATM    9  C2  UNL     1       9.129  53.931  88.916  1.00  0.00     0.055 A 
HETATM   10  C1  UNL     1       7.868  54.281  88.777  1.00  0.00     0.045 C 
HETATM   11  N1  UNL     1       9.973  54.530  89.788  1.00  0.00    -0.291 N 
HETATM   12  N2  UNL     1      11.160  53.962  89.696  1.00  0.00    -0.220 N 
ATOM     13  H1  UNL     1       9.731  55.297  90.416  1.00  0.00     0.187 HD
HETATM   14  C9  UNL     1      11.096  52.975  88.752  1.00  0.00     0.279 A 
HETATM   15  O1  UNL     1      12.089  52.274  88.465  1.00  0.00    -0.265 OA
BRANCH  12  16
HETATM   16  C3  UNL     1      12.320  54.327  90.465  1.00  0.00     0.060 A 
HETATM   17  C4  UNL     1      12.494  53.877  91.757  1.00  0.00     0.031 A 
HETATM   18  C5  UNL     1      13.618  54.226  92.512  1.00  0.00     0.002 A 
HETATM   19  C6  UNL     1      14.585  55.041  91.962  1.00  0.00     0.000 A 
HETATM   20  C7  UNL     1      14.435  55.503  90.673  1.00  0.00     0.002 A 
HETATM   21  C8  UNL     1      13.307  55.140  89.946  1.00  0.00     0.031 A 
ENDBRANCH  12  16
ENDBRANCH   7   8
ENDBRANCH   1   7
BRANCH   3  22
HETATM   22  O2  UNL     1       8.258  53.957  82.914  1.00  0.00    -0.353 OA
HETATM   23  C15 UNL     1       7.035  53.383  82.492  1.00  0.00     0.210 C 
ENDBRANCH   3  22
BRANCH   5  24
HETATM   24  O4  UNL     1      12.020  51.040  83.386  1.00  0.00    -0.343 OA
BRANCH  24  25
HETATM   25  C18 UNL     1      13.368  51.141  83.676  1.00  0.00     0.129 C 
HETATM   26  C19 UNL     1      14.201  51.226  82.404  1.00  0.00     0.032 C 
HETATM   27  C20 UNL     1      15.501  51.819  82.901  1.00  0.00     0.002 C 
HETATM   28  C21 UNL     1      15.092  52.800  83.970  1.00  0.00     0.002 C 
HETATM   29  C22 UNL     1      13.630  52.529  84.264  1.00  0.00     0.032 C 
ENDBRANCH  24  25
ENDBRANCH   5  24
BRANCH   4  30
HETATM   30  O3  UNL     1      10.381  52.612  81.837  1.00  0.00    -0.356 OA
ATOM     31  H3  UNL     1      11.283  52.608  81.541  1.00  0.00     0.218 HD
ENDBRANCH   4  30
TORSDOF 7
ENDMDL
MODEL 2
REMARK VINA RESULT: -7.127762225      2.717      4.038
REMARK  7 active torsions:
REMARK  status: ('A' for Active; 'I' for Inactive)
REMARK    1  A    between atoms: N2_5  and  C3_6 
REMARK    2  A    between atoms: C10_14  and  C11_15 
REMARK    3  A    between atoms: C11_15  and  C12_16 
REMARK    4  A    between atoms: C14_18  and  O2_19 
REMARK    5  A    between atoms: C16_21  and  O3_22 
REMARK    6  A    between atoms: C17_24  and  O4_25 
REMARK    7  A    between atoms: O4_25  and  C18_26 
ROOT
HETATM    1  C12 UNL     1      11.738  52.117  87.524  1.00  0.00    -0.030 A 
HETATM    2  C13 UNL     1      11.563  50.814  87.888  1.00  0.00     0.051 A 
HETATM    3  C14 UNL     1      11.790  49.746  87.052  1.00  0.00     0.104 A 
HETATM    4  C16 UNL     1      12.220  50.017  85.771  1.00  0.00     0.133 A 
HETATM    5  C17 UNL     1      12.421  51.336  85.335  1.00  0.00     0.106 A 
HETATM    6  C23 UNL     1      12.176  52.360  86.221  1.00  0.00     0.051 A 
ENDROOT
BRANCH   1   7
HETATM    7  C11 UNL     1      11.491  53.227  88.432  1.00  0.00     0.031 C 
BRANCH   7   8
HETATM    8  C10 UNL     1      12.234  53.535  89.446  1.00  0.00     0.062 A 
HETATM    9  C2  UNL     1      13.427  54.225  89.414  1.00  0.00     0.055 A 
HETATM   10  C1  UNL     1      14.057  54.714  88.367  1.00  0.00     0.045 C 
HETATM   11  N1  UNL     1      13.892  54.342  90.680  1.00  0.00    -0.291 N 
HETATM   12  N2  UNL     1      13.045  53.755  91.503  1.00  0.00    -0.220 N 
ATOM     13  H1  UNL     1      14.756  54.809  90.954  1.00  0.00     0.187 HD
HETATM   14  C9  UNL     1      12.009  53.247  90.771  1.00  0.00     0.279 A 
HETATM   15  O1  UNL     1      11.061  52.636  91.307  1.00  0.00    -0.265 OA
BRANCH  12  16
HETATM   16  C3  UNL     1      13.195  53.671  92.933  1.00  0.00     0.060 A 
HETATM   17  C4  UNL     1      12.940  54.756  93.745  1.00  0.00     0.031 A 
HETATM   18  C5  UNL     1      13.084  54.683  95.134  1.00  0.00     0.002 A 
HETATM   19  C6  UNL     1      13.490  53.502  95.719  1.00  0.00     0.000 A 
HETATM   20  C7  UNL     1      13.750  52.404  94.929  1.00  0.00     0.002 A 
HETATM   21  C8  UNL     1      13.599  52.505  93.550  1.00  0.00     0.031 A 
ENDBRANCH  12  16
ENDBRANCH   7   8
ENDBRANCH   1   7
BRANCH   3  22
HETATM   22  O2  UNL     1      11.594  48.422  87.475  1.00  0.00    -0.353 OA
HETATM   23  C15 UNL     1      12.589  47.871  88.315  1.00  0.00     0.210 C 
ENDBRANCH   3  22
BRANCH   5  24
HETATM   24  O4  UNL     1      12.850  51.517  84.049  1.00  0.00    -0.343 OA
BRANCH  24  25
HETATM   25  C18 UNL     1      14.050  51.122  83.489  1.00  0.00     0.129 C 
HETATM   26  C19 UNL     1      13.918  50.924  81.985  1.00  0.00     0.032 C 
HETATM   27  C20 UNL     1      15.355  51.000  81.516  1.00  0.00     0.002 C 
HETATM   28  C21 UNL     1      15.992  52.043  82.398  1.00  0.00     0.002 C 
HETATM   29  C22 UNL     1      15.011  52.311  83.522  1.00  0.00     0.032 C 
ENDBRANCH  24  25
ENDBRANCH   5  24
BRANCH   4  30
HETATM   30  O3  UNL     1      12.449  48.944  84.931  1.00  0.00    -0.356 OA
ATOM     31  H3  UNL     1      12.174  48.084  85.228  1.00  0.00     0.218 HD
ENDBRANCH   4  30
TORSDOF 7
ENDMDL
MODEL 3
REMARK VINA RESULT: -7.110426511      2.481      6.909
REMARK  7 active torsions:
REMARK  status: ('A' for Active; 'I' for Inactive)
REMARK    1  A    between atoms: N2_5  and  C3_6 
REMARK    2  A    between atoms: C10_14  and  C11_15 
REMARK    3  A    between atoms: C11_15  and  C12_16 
REMARK    4  A    between atoms: C14_18  and  O2_19 
REMARK    5  A    between atoms: C16_21  and  O3_22 
REMARK    6  A    between atoms: C17_24  and  O4_25 
REMARK    7  A    between atoms: O4_25  and  C18_26 
ROOT
HETATM    1  C12 UNL     1       9.423  52.215  88.255  1.00  0.00    -0.030 A 
HETATM    2  C13 UNL     1       8.369  52.074  89.110  1.00  0.00     0.051 A 
HETATM    3  C14 UNL     1       8.259  52.738  90.309  1.00  0.00     0.104 A 
HETATM    4  C16 UNL     1       9.278  53.596  90.661  1.00  0.00     0.133 A 
HETATM    5  C17 UNL     1      10.389  53.788  89.825  1.00  0.00     0.106 A 
HETATM    6  C23 UNL     1      10.439  53.093  88.638  1.00  0.00     0.051 A 
ENDROOT
BRANCH   1   7
HETATM    7  C11 UNL     1       9.511  51.499  86.991  1.00  0.00     0.031 C 
BRANCH   7   8
HETATM    8  C10 UNL     1      10.248  51.854  85.988  1.00  0.00     0.062 A 
HETATM    9  C2  UNL     1       9.869  52.646  84.926  1.00  0.00     0.055 A 
HETATM   10  C1  UNL     1       8.698  53.205  84.704  1.00  0.00     0.045 C 
HETATM   11  N1  UNL     1      10.926  52.783  84.091  1.00  0.00    -0.291 N 
HETATM   12  N2  UNL     1      11.949  52.111  84.581  1.00  0.00    -0.220 N 
ATOM     13  H1  UNL     1      10.931  53.319  83.223  1.00  0.00     0.187 HD
HETATM   14  C9  UNL     1      11.562  51.526  85.754  1.00  0.00     0.279 A 
HETATM   15  O1  UNL     1      12.345  50.826  86.431  1.00  0.00    -0.265 OA
BRANCH  12  16
HETATM   16  C3  UNL     1      13.252  52.017  83.975  1.00  0.00     0.060 A 
HETATM   17  C4  UNL     1      13.524  51.075  83.005  1.00  0.00     0.031 A 
HETATM   18  C5  UNL     1      14.786  50.977  82.411  1.00  0.00     0.002 A 
HETATM   19  C6  UNL     1      15.792  51.838  82.796  1.00  0.00     0.000 A 
HETATM   20  C7  UNL     1      15.545  52.787  83.762  1.00  0.00     0.002 A 
HETATM   21  C8  UNL     1      14.281  52.862  84.337  1.00  0.00     0.031 A 
ENDBRANCH  12  16
ENDBRANCH   7   8
ENDBRANCH   1   7
BRANCH   3  22
HETATM   22  O2  UNL     1       7.153  52.557  91.155  1.00  0.00    -0.353 OA
HETATM   23  C15 UNL     1       5.928  53.119  90.725  1.00  0.00     0.210 C 
ENDBRANCH   3  22
BRANCH   5  24
HETATM   24  O4  UNL     1      11.356  54.657  90.248  1.00  0.00    -0.343 OA
BRANCH  24  25
HETATM   25  C18 UNL     1      12.714  54.428  90.364  1.00  0.00     0.129 C 
HETATM   26  C19 UNL     1      13.515  55.680  90.033  1.00  0.00     0.032 C 
HETATM   27  C20 UNL     1      14.852  55.396  90.681  1.00  0.00     0.002 C 
HETATM   28  C21 UNL     1      14.514  54.655  91.950  1.00  0.00     0.002 C 
HETATM   29  C22 UNL     1      13.051  54.275  91.848  1.00  0.00     0.032 C 
ENDBRANCH  24  25
ENDBRANCH   5  24
BRANCH   4  30
HETATM   30  O3  UNL     1       9.167  54.264  91.865  1.00  0.00    -0.356 OA
ATOM     31  H3  UNL     1       9.731  55.016  92.006  1.00  0.00     0.218 HD
ENDBRANCH   4  30
TORSDOF 7
ENDMDL
MODEL 4
REMARK VINA RESULT: -7.032495914      2.904      7.819
REMARK  7 active torsions:
REMARK  status: ('A' for Active; 'I' for Inactive)
REMARK    1  A    between atoms: N2_5  and  C3_6 
REMARK    2  A    between atoms: C10_14  and  C11_15 
REMARK    3  A    between atoms: C11_15  and  C12_16 
REMARK    4  A    between atoms: C14_18  and  O2_19 
REMARK    5  A    between atoms: C16_21  and  O3_22 
REMARK    6  A    between atoms: C17_24  and  O4_25 
REMARK    7  A    between atoms: O4_25  and  C18_26 
ROOT
HETATM    1  C12 UNL     1      11.505  50.613  88.339  1.00  0.00    -0.030 A 
HETATM    2  C13 UNL     1      12.171  49.580  88.931  1.00  0.00     0.051 A 
HETATM    3  C14 UNL     1      12.722  49.642  90.189  1.00  0.00     0.104 A 
HETATM    4  C16 UNL     1      12.589  50.822  90.888  1.00  0.00     0.133 A 
HETATM    5  C17 UNL     1      11.914  51.922  90.336  1.00  0.00     0.106 A 
HETATM    6  C23 UNL     1      11.386  51.795  89.072  1.00  0.00     0.051 A 
ENDROOT
BRANCH   1   7
HETATM    7  C11 UNL     1      10.932  50.517  87.004  1.00  0.00     0.031 C 
BRANCH   7   8
HETATM    8  C10 UNL     1      11.434  51.060  85.942  1.00  0.00     0.062 A 
HETATM    9  C2  UNL     1      11.085  52.275  85.394  1.00  0.00     0.055 A 
HETATM   10  C1  UNL     1      10.184  53.134  85.823  1.00  0.00     0.045 C 
HETATM   11  N1  UNL     1      11.839  52.482  84.288  1.00  0.00    -0.291 N 
HETATM   12  N2  UNL     1      12.642  51.450  84.119  1.00  0.00    -0.220 N 
ATOM     13  H1  UNL     1      11.793  53.303  83.685  1.00  0.00     0.187 HD
HETATM   14  C9  UNL     1      12.416  50.554  85.125  1.00  0.00     0.279 A 
HETATM   15  O1  UNL     1      13.049  49.479  85.204  1.00  0.00    -0.265 OA
BRANCH  12  16
HETATM   16  C3  UNL     1      13.595  51.304  83.049  1.00  0.00     0.060 A 
HETATM   17  C4  UNL     1      13.250  50.697  81.860  1.00  0.00     0.031 A 
HETATM   18  C5  UNL     1      14.168  50.550  80.816  1.00  0.00     0.002 A 
HETATM   19  C6  UNL     1      15.456  51.022  80.967  1.00  0.00     0.000 A 
HETATM   20  C7  UNL     1      15.825  51.632  82.145  1.00  0.00     0.002 A 
HETATM   21  C8  UNL     1      14.891  51.764  83.167  1.00  0.00     0.031 A 
ENDBRANCH  12  16
ENDBRANCH   7   8
ENDBRANCH   1   7
BRANCH   3  22
HETATM   22  O2  UNL     1      13.398  48.550  90.754  1.00  0.00    -0.353 OA
HETATM   23  C15 UNL     1      14.388  47.933  89.953  1.00  0.00     0.210 C 
ENDBRANCH   3  22
BRANCH   5  24
HETATM   24  O4  UNL     1      11.826  53.055  91.096  1.00  0.00    -0.343 OA
BRANCH  24  25
HETATM   25  C18 UNL     1      12.533  54.234  90.950  1.00  0.00     0.129 C 
HETATM   26  C19 UNL     1      13.762  54.256  91.848  1.00  0.00     0.032 C 
HETATM   27  C20 UNL     1      14.623  55.319  91.202  1.00  0.00     0.002 C 
HETATM   28  C21 UNL     1      14.392  55.153  89.721  1.00  0.00     0.002 C 
HETATM   29  C22 UNL     1      13.203  54.225  89.575  1.00  0.00     0.032 C 
ENDBRANCH  24  25
ENDBRANCH   5  24
BRANCH   4  30
HETATM   30  O3  UNL     1      13.141  50.885  92.153  1.00  0.00    -0.356 OA
ATOM     31  H3  UNL     1      13.136  51.725  92.596  1.00  0.00     0.218 HD
ENDBRANCH   4  30
TORSDOF 7
ENDMDL
MODEL 5
REMARK VINA RESULT: -7.020001079      2.887      4.685
REMARK  7 active torsions:
REMARK  status: ('A' for Active; 'I' for Inactive)
REMARK    1  A    between atoms: N2_5  and  C3_6 
REMARK    2  A    between atoms: C10_14  and  C11_15 
REMARK    3  A    between atoms: C11_15  and  C12_16 
REMARK    4  A    between atoms: C14_18  and  O2_19 
REMARK    5  A    between atoms: C16_21  and  O3_22 
REMARK    6  A    between atoms: C17_24  and  O4_25 
REMARK    7  A    between atoms: O4_25  and  C18_26 
ROOT
HETATM    1  C12 UNL     1      11.763  53.055  89.564  1.00  0.00    -0.030 A 
HETATM    2  C13 UNL     1      10.432  53.331  89.682  1.00  0.00     0.051 A 
HETATM    3  C14 UNL     1       9.596  53.549  88.612  1.00  0.00     0.104 A 
HETATM    4  C16 UNL     1      10.142  53.483  87.349  1.00  0.00     0.133 A 
HETATM    5  C17 UNL     1      11.504  53.202  87.159  1.00  0.00     0.106 A 
HETATM    6  C23 UNL     1      12.287  52.993  88.272  1.00  0.00     0.051 A 
ENDROOT
BRANCH   1   7
HETATM    7  C11 UNL     1      12.624  52.827  90.715  1.00  0.00     0.031 C 
BRANCH   7   8
HETATM    8  C10 UNL     1      12.827  53.679  91.668  1.00  0.00     0.062 A 
HETATM    9  C2  UNL     1      13.789  54.665  91.701  1.00  0.00     0.055 A 
HETATM   10  C1  UNL     1      14.694  54.951  90.789  1.00  0.00     0.045 C 
HETATM   11  N1  UNL     1      13.673  55.342  92.868  1.00  0.00    -0.291 N 
HETATM   12  N2  UNL     1      12.682  54.824  93.567  1.00  0.00    -0.220 N 
ATOM     13  H1  UNL     1      14.256  56.127  93.159  1.00  0.00     0.187 HD
HETATM   14  C9  UNL     1      12.139  53.794  92.852  1.00  0.00     0.279 A 
HETATM   15  O1  UNL     1      11.177  53.126  93.288  1.00  0.00    -0.265 OA
BRANCH  12  16
HETATM   16  C3  UNL     1      12.253  55.276  94.865  1.00  0.00     0.060 A 
HETATM   17  C4  UNL     1      12.234  54.424  95.950  1.00  0.00     0.031 A 
HETATM   18  C5  UNL     1      11.819  54.854  97.214  1.00  0.00     0.002 A 
HETATM   19  C6  UNL     1      11.417  56.162  97.394  1.00  0.00     0.000 A 
HETATM   20  C7  UNL     1      11.427  57.031  96.326  1.00  0.00     0.002 A 
HETATM   21  C8  UNL     1      11.844  56.576  95.080  1.00  0.00     0.031 A 
ENDBRANCH  12  16
ENDBRANCH   7   8
ENDBRANCH   1   7
BRANCH   3  22
HETATM   22  O2  UNL     1       8.232  53.830  88.786  1.00  0.00    -0.353 OA
HETATM   23  C15 UNL     1       7.900  54.752  89.807  1.00  0.00     0.210 C 
ENDBRANCH   3  22
BRANCH   5  24
HETATM   24  O4  UNL     1      11.966  53.154  85.873  1.00  0.00    -0.343 OA
BRANCH  24  25
HETATM   25  C18 UNL     1      13.071  52.478  85.391  1.00  0.00     0.129 C 
HETATM   26  C19 UNL     1      12.807  51.905  84.005  1.00  0.00     0.032 C 
HETATM   27  C20 UNL     1      14.204  51.675  83.472  1.00  0.00     0.002 C 
HETATM   28  C21 UNL     1      15.014  52.829  84.008  1.00  0.00     0.002 C 
HETATM   29  C22 UNL     1      14.154  53.505  85.057  1.00  0.00     0.032 C 
ENDBRANCH  24  25
ENDBRANCH   5  24
BRANCH   4  30
HETATM   30  O3  UNL     1       9.302  53.701  86.274  1.00  0.00    -0.356 OA
ATOM     31  H3  UNL     1       9.573  54.339  85.624  1.00  0.00     0.218 HD
ENDBRANCH   4  30
TORSDOF 7
ENDMDL
