MODEL 1
REMARK VINA RESULT: -7.598962920      0.000      0.000
REMARK  5 active torsions:
REMARK  status: ('A' for Active; 'I' for Inactive)
REMARK    1  A    between atoms: C3_3  and  N1_4 
REMARK    2  A    between atoms: C9_13  and  O1_14 
REMARK    3  A    between atoms: O1_14  and  C10_15 
REMARK    4  A    between atoms: N3_23  and  C18_24 
REMARK    5  A    between atoms: C18_24  and  C19_25 
ROOT
HETATM    1  C10 UNL     1      11.563  52.829  87.433  1.00  0.00     0.071 C 
HETATM    2  C11 UNL     1      12.480  53.547  86.525  1.00  0.00     0.048 C 
HETATM    3  C12 UNL     1      12.378  53.191  85.075  1.00  0.00     0.028 C 
HETATM    4  C13 UNL     1      11.009  52.719  84.642  1.00  0.00     0.015 C 
HETATM    5  C14 UNL     1      10.369  51.867  85.670  1.00  0.00    -0.002 C 
HETATM    6  C15 UNL     1      10.133  52.760  86.897  1.00  0.00     0.044 C 
HETATM    7  C16 UNL     1      11.267  50.828  86.225  1.00  0.00     0.032 C 
HETATM    8  C17 UNL     1      12.188  50.152  85.260  1.00  0.00     0.073 C 
HETATM    9  N3  UNL     1      13.000  50.887  84.443  1.00  0.00    -0.353 N 
HETATM   10  C23 UNL     1      13.447  52.175  84.745  1.00  0.00     0.072 C 
HETATM   11  C24 UNL     1      11.947  51.367  87.440  1.00  0.00     0.049 C 
ENDROOT
BRANCH   1  12
HETATM   12  O1  UNL     1      11.501  53.380  88.700  1.00  0.00    -0.324 OA
BRANCH  12  13
HETATM   13  C9  UNL     1      12.477  53.921  89.469  1.00  0.00     0.144 A 
HETATM   14  C8  UNL     1      12.467  53.704  90.828  1.00  0.00     0.085 A 
HETATM   15  C3  UNL     1      13.428  54.225  91.663  1.00  0.00     0.035 A 
HETATM   16  C2  UNL     1      14.406  54.984  91.041  1.00  0.00     0.046 A 
HETATM   17  C1  UNL     1      14.402  55.192  89.672  1.00  0.00     0.092 A 
HETATM   18  N4  UNL     1      13.447  54.660  88.934  1.00  0.00    -0.347 N 
ATOM     19  H4  UNL     1      13.452  54.820  87.926  1.00  0.00     0.167 HD
BRANCH  15  20
HETATM   20  N1  UNL     1      13.436  54.012  93.065  1.00  0.00    -0.378 N 
HETATM   21  C4  UNL     1      13.447  55.047  94.064  1.00  0.00     0.150 C 
HETATM   22  C5  UNL     1      12.554  54.643  95.232  1.00  0.00     0.252 C 
HETATM   23  N2  UNL     1      12.911  53.390  95.818  1.00  0.00    -0.072 N 
HETATM   24  C6  UNL     1      13.822  52.621  94.987  1.00  0.00     0.252 C 
ATOM     25  H22 UNL     1      13.293  53.521  96.754  1.00  0.00     0.277 HD
ATOM     26  H21 UNL     1      12.080  52.846  96.051  1.00  0.00     0.277 HD
HETATM   27  C7  UNL     1      13.436  52.630  93.540  1.00  0.00     0.150 C 
ENDBRANCH  15  20
ENDBRANCH  12  13
ENDBRANCH   1  12
BRANCH   9  28
HETATM   28  C18 UNL     1      13.287  50.385  83.169  1.00  0.00     0.072 C 
BRANCH  28  29
HETATM   29  C19 UNL     1      13.929  51.197  82.141  1.00  0.00     0.024 C 
HETATM   30  C20 UNL     1      13.847  50.922  80.703  1.00  0.00     0.010 C 
HETATM   31  C21 UNL     1      15.322  51.301  80.514  1.00  0.00     0.001 C 
HETATM   32  C22 UNL     1      15.434  51.155  82.037  1.00  0.00     0.010 C 
ENDBRANCH  28  29
ENDBRANCH   9  28
TORSDOF 5
ENDMDL
MODEL 2
REMARK VINA RESULT: -7.434065760      1.846      3.051
REMARK  5 active torsions:
REMARK  status: ('A' for Active; 'I' for Inactive)
REMARK    1  A    between atoms: C3_3  and  N1_4 
REMARK    2  A    between atoms: C9_13  and  O1_14 
REMARK    3  A    between atoms: O1_14  and  C10_15 
REMARK    4  A    between atoms: N3_23  and  C18_24 
REMARK    5  A    between atoms: C18_24  and  C19_25 
ROOT
HETATM    1  C10 UNL     1      10.329  51.682  86.183  1.00  0.00     0.071 C 
HETATM    2  C11 UNL     1      11.585  50.942  86.419  1.00  0.00     0.048 C 
HETATM    3  C12 UNL     1      12.598  51.003  85.318  1.00  0.00     0.028 C 
HETATM    4  C13 UNL     1      12.540  52.263  84.484  1.00  0.00     0.015 C 
HETATM    5  C14 UNL     1      11.146  52.703  84.247  1.00  0.00    -0.002 C 
HETATM    6  C15 UNL     1      10.564  53.082  85.616  1.00  0.00     0.044 C 
HETATM    7  C16 UNL     1      10.240  51.607  83.830  1.00  0.00     0.032 C 
HETATM    8  C17 UNL     1      10.802  50.593  82.886  1.00  0.00     0.073 C 
HETATM    9  N3  UNL     1      11.978  49.957  83.170  1.00  0.00    -0.353 N 
HETATM   10  C23 UNL     1      12.467  49.764  84.463  1.00  0.00     0.072 C 
HETATM   11  C24 UNL     1       9.593  51.020  85.042  1.00  0.00     0.049 C 
ENDROOT
BRANCH   1  12
HETATM   12  O1  UNL     1       9.554  51.824  87.319  1.00  0.00    -0.324 OA
BRANCH  12  13
HETATM   13  C9  UNL     1       9.578  52.776  88.284  1.00  0.00     0.144 A 
HETATM   14  C8  UNL     1      10.741  53.005  88.982  1.00  0.00     0.085 A 
HETATM   15  C3  UNL     1      10.830  53.955  89.972  1.00  0.00     0.035 A 
HETATM   16  C2  UNL     1       9.666  54.667  90.217  1.00  0.00     0.046 A 
HETATM   17  C1  UNL     1       8.504  54.424  89.506  1.00  0.00     0.092 A 
HETATM   18  N4  UNL     1       8.493  53.495  88.570  1.00  0.00    -0.347 N 
ATOM     19  H4  UNL     1       7.632  53.324  88.051  1.00  0.00     0.167 HD
BRANCH  15  20
HETATM   20  N1  UNL     1      12.020  54.207  90.701  1.00  0.00    -0.378 N 
HETATM   21  C4  UNL     1      12.167  54.071  92.126  1.00  0.00     0.150 C 
HETATM   22  C5  UNL     1      13.538  53.484  92.446  1.00  0.00     0.252 C 
HETATM   23  N2  UNL     1      14.623  54.241  91.910  1.00  0.00    -0.072 N 
HETATM   24  C6  UNL     1      14.196  55.207  90.912  1.00  0.00     0.252 C 
ATOM     25  H22 UNL     1      15.154  54.694  92.653  1.00  0.00     0.277 HD
ATOM     26  H21 UNL     1      15.348  53.627  91.538  1.00  0.00     0.277 HD
HETATM   27  C7  UNL     1      13.195  54.644  89.951  1.00  0.00     0.150 C 
ENDBRANCH  15  20
ENDBRANCH  12  13
ENDBRANCH   1  12
BRANCH   9  28
HETATM   28  C18 UNL     1      12.813  49.605  82.104  1.00  0.00     0.072 C 
BRANCH  28  29
HETATM   29  C19 UNL     1      13.608  50.593  81.382  1.00  0.00     0.024 C 
HETATM   30  C20 UNL     1      14.402  50.297  80.185  1.00  0.00     0.010 C 
HETATM   31  C21 UNL     1      15.536  51.208  80.673  1.00  0.00     0.001 C 
HETATM   32  C22 UNL     1      14.854  51.128  82.045  1.00  0.00     0.010 C 
ENDBRANCH  28  29
ENDBRANCH   9  28
TORSDOF 5
ENDMDL
MODEL 3
REMARK VINA RESULT: -7.241406730      1.873      2.953
REMARK  5 active torsions:
REMARK  status: ('A' for Active; 'I' for Inactive)
REMARK    1  A    between atoms: C3_3  and  N1_4 
REMARK    2  A    between atoms: C9_13  and  O1_14 
REMARK    3  A    between atoms: O1_14  and  C10_15 
REMARK    4  A    between atoms: N3_23  and  C18_24 
REMARK    5  A    between atoms: C18_24  and  C19_25 
ROOT
HETATM    1  C10 UNL     1       9.795  52.210  86.491  1.00  0.00     0.071 C 
HETATM    2  C11 UNL     1      10.601  53.210  85.762  1.00  0.00     0.048 C 
HETATM    3  C12 UNL     1      11.194  52.754  84.466  1.00  0.00     0.028 C 
HETATM    4  C13 UNL     1      10.402  51.676  83.761  1.00  0.00     0.015 C 
HETATM    5  C14 UNL     1       9.838  50.694  84.715  1.00  0.00    -0.002 C 
HETATM    6  C15 UNL     1       8.825  51.454  85.583  1.00  0.00     0.044 C 
HETATM    7  C16 UNL     1      10.810  50.226  85.730  1.00  0.00     0.032 C 
HETATM    8  C17 UNL     1      12.210  49.990  85.261  1.00  0.00     0.073 C 
HETATM    9  N3  UNL     1      12.888  50.962  84.581  1.00  0.00    -0.353 N 
HETATM   10  C23 UNL     1      12.623  52.327  84.705  1.00  0.00     0.072 C 
HETATM   11  C24 UNL     1      10.711  51.095  86.940  1.00  0.00     0.049 C 
ENDROOT
BRANCH   1  12
HETATM   12  O1  UNL     1       9.052  52.751  87.525  1.00  0.00    -0.324 OA
BRANCH  12  13
HETATM   13  C9  UNL     1       9.364  52.920  88.834  1.00  0.00     0.144 A 
HETATM   14  C8  UNL     1      10.551  53.524  89.175  1.00  0.00     0.085 A 
HETATM   15  C3  UNL     1      10.925  53.724  90.483  1.00  0.00     0.035 A 
HETATM   16  C2  UNL     1      10.022  53.276  91.434  1.00  0.00     0.046 A 
HETATM   17  C1  UNL     1       8.831  52.670  91.073  1.00  0.00     0.092 A 
HETATM   18  N4  UNL     1       8.539  52.511  89.797  1.00  0.00    -0.347 N 
ATOM     19  H4  UNL     1       7.659  52.063  89.541  1.00  0.00     0.167 HD
BRANCH  15  20
HETATM   20  N1  UNL     1      12.144  54.346  90.856  1.00  0.00    -0.378 N 
HETATM   21  C4  UNL     1      12.612  54.519  92.205  1.00  0.00     0.150 C 
HETATM   22  C5  UNL     1      14.120  54.292  92.258  1.00  0.00     0.252 C 
HETATM   23  N2  UNL     1      14.856  55.134  91.371  1.00  0.00    -0.072 N 
HETATM   24  C6  UNL     1      14.012  55.784  90.383  1.00  0.00     0.252 C 
ATOM     25  H22 UNL     1      15.405  55.819  91.889  1.00  0.00     0.277 HD
ATOM     26  H21 UNL     1      15.614  54.619  90.923  1.00  0.00     0.277 HD
HETATM   27  C7  UNL     1      12.999  54.857  89.786  1.00  0.00     0.150 C 
ENDBRANCH  15  20
ENDBRANCH  12  13
ENDBRANCH   1  12
BRANCH   9  28
HETATM   28  C18 UNL     1      13.800  50.567  83.597  1.00  0.00     0.072 C 
BRANCH  28  29
HETATM   29  C19 UNL     1      14.370  51.512  82.642  1.00  0.00     0.024 C 
HETATM   30  C20 UNL     1      14.671  51.190  81.243  1.00  0.00     0.010 C 
HETATM   31  C21 UNL     1      15.972  52.001  81.303  1.00  0.00     0.001 C 
HETATM   32  C22 UNL     1      15.807  51.934  82.828  1.00  0.00     0.010 C 
ENDBRANCH  28  29
ENDBRANCH   9  28
TORSDOF 5
ENDMDL
MODEL 4
REMARK VINA RESULT: -7.177042614      1.923      3.142
REMARK  5 active torsions:
REMARK  status: ('A' for Active; 'I' for Inactive)
REMARK    1  A    between atoms: C3_3  and  N1_4 
REMARK    2  A    between atoms: C9_13  and  O1_14 
REMARK    3  A    between atoms: O1_14  and  C10_15 
REMARK    4  A    between atoms: N3_23  and  C18_24 
REMARK    5  A    between atoms: C18_24  and  C19_25 
ROOT
HETATM    1  C10 UNL     1      10.187  50.973  86.510  1.00  0.00     0.071 C 
HETATM    2  C11 UNL     1      10.245  52.156  85.627  1.00  0.00     0.048 C 
HETATM    3  C12 UNL     1      10.497  51.879  84.178  1.00  0.00     0.028 C 
HETATM    4  C13 UNL     1       9.999  50.533  83.703  1.00  0.00     0.015 C 
HETATM    5  C14 UNL     1      10.217  49.476  84.717  1.00  0.00    -0.002 C 
HETATM    6  C15 UNL     1       9.344  49.840  85.927  1.00  0.00     0.044 C 
HETATM    7  C16 UNL     1      11.574  49.494  85.312  1.00  0.00     0.032 C 
HETATM    8  C17 UNL     1      12.709  49.790  84.385  1.00  0.00     0.073 C 
HETATM    9  N3  UNL     1      12.684  50.901  83.589  1.00  0.00    -0.353 N 
HETATM   10  C23 UNL     1      11.969  52.061  83.893  1.00  0.00     0.072 C 
HETATM   11  C24 UNL     1      11.557  50.337  86.544  1.00  0.00     0.049 C 
ENDROOT
BRANCH   1  12
HETATM   12  O1  UNL     1       9.687  51.252  87.769  1.00  0.00    -0.324 OA
BRANCH  12  13
HETATM   13  C9  UNL     1       9.739  52.392  88.501  1.00  0.00     0.144 A 
HETATM   14  C8  UNL     1      10.935  52.785  89.056  1.00  0.00     0.085 A 
HETATM   15  C3  UNL     1      11.055  53.930  89.809  1.00  0.00     0.035 A 
HETATM   16  C2  UNL     1       9.887  54.659  89.970  1.00  0.00     0.046 A 
HETATM   17  C1  UNL     1       8.692  54.249  89.404  1.00  0.00     0.092 A 
HETATM   18  N4  UNL     1       8.653  53.138  88.694  1.00  0.00    -0.347 N 
ATOM     19  H4  UNL     1       7.768  52.844  88.281  1.00  0.00     0.167 HD
BRANCH  15  20
HETATM   20  N1  UNL     1      12.278  54.354  90.388  1.00  0.00    -0.378 N 
HETATM   21  C4  UNL     1      12.516  54.527  91.796  1.00  0.00     0.150 C 
HETATM   22  C5  UNL     1      13.922  54.047  92.142  1.00  0.00     0.252 C 
HETATM   23  N2  UNL     1      14.947  54.693  91.387  1.00  0.00    -0.072 N 
HETATM   24  C6  UNL     1      14.429  55.416  90.237  1.00  0.00     0.252 C 
ATOM     25  H22 UNL     1      15.508  55.304  91.980  1.00  0.00     0.277 HD
ATOM     26  H21 UNL     1      15.668  54.028  91.106  1.00  0.00     0.277 HD
HETATM   27  C7  UNL     1      13.390  54.643  89.486  1.00  0.00     0.150 C 
ENDBRANCH  15  20
ENDBRANCH  12  13
ENDBRANCH   1  12
BRANCH   9  28
HETATM   28  C18 UNL     1      13.291  50.826  82.331  1.00  0.00     0.072 C 
BRANCH  28  29
HETATM   29  C19 UNL     1      14.738  50.906  82.161  1.00  0.00     0.024 C 
HETATM   30  C20 UNL     1      15.586  51.929  82.781  1.00  0.00     0.010 C 
HETATM   31  C21 UNL     1      16.432  52.047  81.506  1.00  0.00     0.001 C 
HETATM   32  C22 UNL     1      15.275  51.314  80.811  1.00  0.00     0.010 C 
ENDBRANCH  28  29
ENDBRANCH   9  28
TORSDOF 5
ENDMDL
MODEL 5
REMARK VINA RESULT: -7.160842583      3.441     10.606
REMARK  5 active torsions:
REMARK  status: ('A' for Active; 'I' for Inactive)
REMARK    1  A    between atoms: C3_3  and  N1_4 
REMARK    2  A    between atoms: C9_13  and  O1_14 
REMARK    3  A    between atoms: O1_14  and  C10_15 
REMARK    4  A    between atoms: N3_23  and  C18_24 
REMARK    5  A    between atoms: C18_24  and  C19_25 
ROOT
HETATM    1  C10 UNL     1      12.540  54.371  94.406  1.00  0.00     0.071 C 
HETATM    2  C11 UNL     1      12.890  55.749  94.807  1.00  0.00     0.048 C 
HETATM    3  C12 UNL     1      12.216  56.264  96.040  1.00  0.00     0.028 C 
HETATM    4  C13 UNL     1      11.845  55.194  97.043  1.00  0.00     0.015 C 
HETATM    5  C14 UNL     1      11.357  53.963  96.380  1.00  0.00    -0.002 C 
HETATM    6  C15 UNL     1      12.540  53.395  95.582  1.00  0.00     0.044 C 
HETATM    7  C16 UNL     1      10.369  54.218  95.306  1.00  0.00     0.032 C 
HETATM    8  C17 UNL     1       9.364  55.295  95.561  1.00  0.00     0.073 C 
HETATM    9  N3  UNL     1       9.766  56.545  95.940  1.00  0.00    -0.353 N 
HETATM   10  C23 UNL     1      11.016  57.086  95.634  1.00  0.00     0.072 C 
HETATM   11  C24 UNL     1      11.085  54.348  94.002  1.00  0.00     0.049 C 
ENDROOT
BRANCH   1  12
HETATM   12  O1  UNL     1      13.380  53.850  93.440  1.00  0.00    -0.324 OA
BRANCH  12  13
HETATM   13  C9  UNL     1      13.528  54.184  92.134  1.00  0.00     0.144 A 
HETATM   14  C8  UNL     1      12.683  53.639  91.196  1.00  0.00     0.085 A 
HETATM   15  C3  UNL     1      12.781  53.937  89.857  1.00  0.00     0.035 A 
HETATM   16  C2  UNL     1      13.790  54.824  89.518  1.00  0.00     0.046 A 
HETATM   17  C1  UNL     1      14.632  55.363  90.475  1.00  0.00     0.092 A 
HETATM   18  N4  UNL     1      14.479  55.031  91.742  1.00  0.00    -0.347 N 
ATOM     19  H4  UNL     1      15.104  55.434  92.440  1.00  0.00     0.167 HD
BRANCH  15  20
HETATM   20  N1  UNL     1      11.919  53.386  88.874  1.00  0.00    -0.378 N 
HETATM   21  C4  UNL     1      10.547  53.011  89.086  1.00  0.00     0.150 C 
HETATM   22  C5  UNL     1       9.718  53.380  87.860  1.00  0.00     0.252 C 
HETATM   23  N2  UNL     1      10.203  52.802  86.648  1.00  0.00    -0.072 N 
HETATM   24  C6  UNL     1      11.548  52.266  86.779  1.00  0.00     0.252 C 
ATOM     25  H22 UNL     1       9.560  52.092  86.298  1.00  0.00     0.277 HD
ATOM     26  H21 UNL     1      10.149  53.469  85.878  1.00  0.00     0.277 HD
HETATM   27  C7  UNL     1      12.464  53.179  87.534  1.00  0.00     0.150 C 
ENDBRANCH  15  20
ENDBRANCH  12  13
ENDBRANCH   1  12
BRANCH   9  28
HETATM   28  C18 UNL     1       8.940  57.271  96.805  1.00  0.00     0.072 C 
BRANCH  28  29
HETATM   29  C19 UNL     1       7.550  57.572  96.480  1.00  0.00     0.024 C 
HETATM   30  C20 UNL     1       7.082  58.871  95.985  1.00  0.00     0.010 C 
HETATM   31  C21 UNL     1       5.817  58.780  96.849  1.00  0.00     0.001 C 
HETATM   32  C22 UNL     1       6.559  57.675  97.613  1.00  0.00     0.010 C 
ENDBRANCH  28  29
ENDBRANCH   9  28
TORSDOF 5
ENDMDL
