MODEL 1
REMARK VINA RESULT: -7.179516014      0.000      0.000
REMARK  8 active torsions:
REMARK  status: ('A' for Active; 'I' for Inactive)
REMARK    1  A    between atoms: O1_2  and  C2_3 
REMARK    2  A    between atoms: C4_5  and  C5_6 
REMARK    3  A    between atoms: C5_6  and  N1_7 
REMARK    4  A    between atoms: N1_7  and  C6_9 
REMARK    5  A    between atoms: C13_20  and  C14_21 
REMARK    6  A    between atoms: C15_22  and  C16_23 
REMARK    7  A    between atoms: C21_30  and  O2_31 
REMARK    8  A    between atoms: C23_33  and  O3_34 
ROOT
HETATM    1  C2  UNL     1      -5.089  39.618   3.916  1.00  0.00     0.104 A 
HETATM    2  C3  UNL     1      -4.398  38.527   3.453  1.00  0.00     0.050 A 
HETATM    3  C4  UNL     1      -4.475  37.330   4.129  1.00  0.00    -0.016 A 
HETATM    4  C13 UNL     1      -5.233  37.171   5.281  1.00  0.00     0.062 A 
HETATM    5  C21 UNL     1      -5.911  38.290   5.712  1.00  0.00     0.123 A 
HETATM    6  C23 UNL     1      -5.854  39.501   5.055  1.00  0.00     0.136 A 
ENDROOT
BRANCH   3   7
HETATM    7  C5  UNL     1      -3.734  36.128   3.652  1.00  0.00     0.178 C 
BRANCH   7   8
HETATM    8  N1  UNL     1      -4.009  35.903   2.246  1.00  0.00    -0.222 N 
ATOM      9  H1  UNL     1      -3.398  36.320   1.542  1.00  0.00     0.178 HD
BRANCH   8  10
HETATM   10  C6  UNL     1      -5.027  35.176   1.869  1.00  0.00     0.679 A 
HETATM   11  N2  UNL     1      -5.955  34.587   2.641  1.00  0.00    -0.190 N 
HETATM   12  C7  UNL     1      -6.841  33.925   1.878  1.00  0.00     0.076 A 
ATOM     13  H2  UNL     1      -5.983  34.635   3.660  1.00  0.00     0.184 HD
HETATM   14  C8  UNL     1      -7.958  33.173   2.158  1.00  0.00     0.032 A 
HETATM   15  C12 UNL     1      -6.462  34.098   0.544  1.00  0.00     0.076 A 
HETATM   16  C9  UNL     1      -8.665  32.616   1.125  1.00  0.00     0.002 A 
HETATM   17  C10 UNL     1      -8.294  32.784  -0.207  1.00  0.00     0.002 A 
HETATM   18  C11 UNL     1      -7.184  33.533  -0.479  1.00  0.00     0.032 A 
HETATM   19  N3  UNL     1      -5.352  34.868   0.606  1.00  0.00    -0.190 N 
ATOM     20  H3  UNL     1      -4.825  35.177  -0.211  1.00  0.00     0.184 HD
ENDBRANCH   8  10
ENDBRANCH   7   8
ENDBRANCH   3   7
BRANCH   4  21
HETATM   21  C14 UNL     1      -5.290  35.906   5.964  1.00  0.00    -0.056 C 
HETATM   22  C15 UNL     1      -5.321  34.847   6.548  1.00  0.00    -0.043 C 
BRANCH  22  23
HETATM   23  C16 UNL     1      -5.337  33.593   7.248  1.00  0.00     0.086 A 
HETATM   24  C17 UNL     1      -6.258  32.610   6.955  1.00  0.00     0.039 A 
HETATM   25  C18 UNL     1      -6.237  31.436   7.642  1.00  0.00     0.004 A 
HETATM   26  C19 UNL     1      -5.318  31.184   8.639  1.00  0.00     0.017 A 
HETATM   27  C20 UNL     1      -4.411  32.187   8.908  1.00  0.00     0.089 A 
HETATM   28  N4  UNL     1      -4.444  33.339   8.221  1.00  0.00    -0.359 N 
ATOM     29  H4  UNL     1      -3.757  34.058   8.447  1.00  0.00     0.166 HD
ENDBRANCH  22  23
ENDBRANCH   4  21
BRANCH   1  30
HETATM   30  O1  UNL     1      -4.987  40.805   3.205  1.00  0.00    -0.353 OA
HETATM   31  C1  UNL     1      -5.759  41.019   2.043  1.00  0.00     0.210 C 
ENDBRANCH   1  30
BRANCH   5  32
HETATM   32  O2  UNL     1      -6.677  38.128   6.876  1.00  0.00    -0.352 OA
HETATM   33  C22 UNL     1      -6.161  38.402   8.159  1.00  0.00     0.210 C 
ENDBRANCH   5  32
BRANCH   6  34
HETATM   34  O3  UNL     1      -6.548  40.605   5.516  1.00  0.00    -0.351 OA
HETATM   35  C24 UNL     1      -5.968  41.627   6.293  1.00  0.00     0.210 C 
ENDBRANCH   6  34
TORSDOF 8
ENDMDL
MODEL 2
REMARK VINA RESULT: -7.157619277      0.508      1.137
REMARK  8 active torsions:
REMARK  status: ('A' for Active; 'I' for Inactive)
REMARK    1  A    between atoms: O1_2  and  C2_3 
REMARK    2  A    between atoms: C4_5  and  C5_6 
REMARK    3  A    between atoms: C5_6  and  N1_7 
REMARK    4  A    between atoms: N1_7  and  C6_9 
REMARK    5  A    between atoms: C13_20  and  C14_21 
REMARK    6  A    between atoms: C15_22  and  C16_23 
REMARK    7  A    between atoms: C21_30  and  O2_31 
REMARK    8  A    between atoms: C23_33  and  O3_34 
ROOT
HETATM    1  C2  UNL     1      -5.187  39.910   3.880  1.00  0.00     0.104 A 
HETATM    2  C3  UNL     1      -4.537  38.823   3.354  1.00  0.00     0.050 A 
HETATM    3  C4  UNL     1      -4.609  37.606   3.995  1.00  0.00    -0.016 A 
HETATM    4  C13 UNL     1      -5.322  37.424   5.172  1.00  0.00     0.062 A 
HETATM    5  C21 UNL     1      -5.960  38.541   5.667  1.00  0.00     0.123 A 
HETATM    6  C23 UNL     1      -5.906  39.771   5.046  1.00  0.00     0.136 A 
ENDROOT
BRANCH   3   7
HETATM    7  C5  UNL     1      -3.914  36.406   3.448  1.00  0.00     0.178 C 
BRANCH   7   8
HETATM    8  N1  UNL     1      -4.256  36.229   2.051  1.00  0.00    -0.222 N 
ATOM      9  H1  UNL     1      -3.746  36.751   1.338  1.00  0.00     0.178 HD
BRANCH   8  10
HETATM   10  C6  UNL     1      -5.209  35.410   1.693  1.00  0.00     0.679 A 
HETATM   11  N2  UNL     1      -5.611  35.101   0.448  1.00  0.00    -0.190 N 
HETATM   12  C7  UNL     1      -6.623  34.218   0.494  1.00  0.00     0.076 A 
ATOM     13  H2  UNL     1      -5.207  35.482  -0.408  1.00  0.00     0.184 HD
HETATM   14  C8  UNL     1      -7.380  33.591  -0.469  1.00  0.00     0.032 A 
HETATM   15  C12 UNL     1      -6.885  33.945   1.840  1.00  0.00     0.076 A 
HETATM   16  C9  UNL     1      -8.365  32.721  -0.084  1.00  0.00     0.002 A 
HETATM   17  C10 UNL     1      -8.631  32.443   1.254  1.00  0.00     0.002 A 
HETATM   18  C11 UNL     1      -7.877  33.068   2.206  1.00  0.00     0.032 A 
HETATM   19  N3  UNL     1      -5.992  34.700   2.517  1.00  0.00    -0.190 N 
ATOM     20  H3  UNL     1      -5.922  34.727   3.535  1.00  0.00     0.184 HD
ENDBRANCH   8  10
ENDBRANCH   7   8
ENDBRANCH   3   7
BRANCH   4  21
HETATM   21  C14 UNL     1      -5.375  36.139   5.816  1.00  0.00    -0.056 C 
HETATM   22  C15 UNL     1      -5.409  35.065   6.373  1.00  0.00    -0.043 C 
BRANCH  22  23
HETATM   23  C16 UNL     1      -5.432  33.797   7.048  1.00  0.00     0.086 A 
HETATM   24  C17 UNL     1      -6.362  32.828   6.738  1.00  0.00     0.039 A 
HETATM   25  C18 UNL     1      -6.349  31.640   7.401  1.00  0.00     0.004 A 
HETATM   26  C19 UNL     1      -5.429  31.361   8.390  1.00  0.00     0.017 A 
HETATM   27  C20 UNL     1      -4.514  32.351   8.677  1.00  0.00     0.089 A 
HETATM   28  N4  UNL     1      -4.539  33.517   8.013  1.00  0.00    -0.359 N 
ATOM     29  H4  UNL     1      -3.846  34.226   8.252  1.00  0.00     0.166 HD
ENDBRANCH  22  23
ENDBRANCH   4  21
BRANCH   1  30
HETATM   30  O1  UNL     1      -5.091  41.118   3.203  1.00  0.00    -0.353 OA
HETATM   31  C1  UNL     1      -3.881  41.846   3.195  1.00  0.00     0.210 C 
ENDBRANCH   1  30
BRANCH   5  32
HETATM   32  O2  UNL     1      -6.678  38.355   6.856  1.00  0.00    -0.352 OA
HETATM   33  C22 UNL     1      -6.092  38.538   8.125  1.00  0.00     0.210 C 
ENDBRANCH   5  32
BRANCH   6  34
HETATM   34  O3  UNL     1      -6.558  40.872   5.571  1.00  0.00    -0.351 OA
HETATM   35  C24 UNL     1      -5.944  41.817   6.416  1.00  0.00     0.210 C 
ENDBRANCH   6  34
TORSDOF 8
ENDMDL
MODEL 3
REMARK VINA RESULT: -7.122372489      1.400      1.969
REMARK  8 active torsions:
REMARK  status: ('A' for Active; 'I' for Inactive)
REMARK    1  A    between atoms: O1_2  and  C2_3 
REMARK    2  A    between atoms: C4_5  and  C5_6 
REMARK    3  A    between atoms: C5_6  and  N1_7 
REMARK    4  A    between atoms: N1_7  and  C6_9 
REMARK    5  A    between atoms: C13_20  and  C14_21 
REMARK    6  A    between atoms: C15_22  and  C16_23 
REMARK    7  A    between atoms: C21_30  and  O2_31 
REMARK    8  A    between atoms: C23_33  and  O3_34 
ROOT
HETATM    1  C2  UNL     1      -6.145  38.790   3.551  1.00  0.00     0.104 A 
HETATM    2  C3  UNL     1      -5.953  37.553   2.990  1.00  0.00     0.050 A 
HETATM    3  C4  UNL     1      -5.808  36.448   3.799  1.00  0.00    -0.016 A 
HETATM    4  C13 UNL     1      -5.846  36.529   5.185  1.00  0.00     0.062 A 
HETATM    5  C21 UNL     1      -6.041  37.788   5.708  1.00  0.00     0.123 A 
HETATM    6  C23 UNL     1      -6.190  38.911   4.922  1.00  0.00     0.136 A 
ENDROOT
BRANCH   3   7
HETATM    7  C5  UNL     1      -5.598  35.091   3.219  1.00  0.00     0.178 C 
BRANCH   7   8
HETATM    8  N1  UNL     1      -6.796  34.657   2.528  1.00  0.00    -0.222 N 
ATOM      9  H1  UNL     1      -7.659  34.521   3.054  1.00  0.00     0.178 HD
BRANCH   8  10
HETATM   10  C6  UNL     1      -6.784  34.437   1.240  1.00  0.00     0.679 A 
HETATM   11  N2  UNL     1      -7.834  34.255   0.422  1.00  0.00    -0.190 N 
HETATM   12  C7  UNL     1      -7.411  34.057  -0.838  1.00  0.00     0.076 A 
ATOM     13  H2  UNL     1      -8.812  34.265   0.714  1.00  0.00     0.184 HD
HETATM   14  C8  UNL     1      -8.058  33.826  -2.031  1.00  0.00     0.032 A 
HETATM   15  C12 UNL     1      -6.014  34.115  -0.829  1.00  0.00     0.076 A 
HETATM   16  C9  UNL     1      -7.318  33.661  -3.171  1.00  0.00     0.002 A 
HETATM   17  C10 UNL     1      -5.926  33.718  -3.171  1.00  0.00     0.002 A 
HETATM   18  C11 UNL     1      -5.289  33.947  -1.984  1.00  0.00     0.032 A 
HETATM   19  N3  UNL     1      -5.695  34.349   0.463  1.00  0.00    -0.190 N 
ATOM     20  H3  UNL     1      -4.740  34.447   0.807  1.00  0.00     0.184 HD
ENDBRANCH   8  10
ENDBRANCH   7   8
ENDBRANCH   3   7
BRANCH   4  21
HETATM   21  C14 UNL     1      -5.691  35.354   6.000  1.00  0.00    -0.056 C 
HETATM   22  C15 UNL     1      -5.542  34.374   6.693  1.00  0.00    -0.043 C 
BRANCH  22  23
HETATM   23  C16 UNL     1      -5.343  33.215   7.520  1.00  0.00     0.086 A 
HETATM   24  C17 UNL     1      -6.062  32.055   7.325  1.00  0.00     0.039 A 
HETATM   25  C18 UNL     1      -5.842  30.979   8.130  1.00  0.00     0.004 A 
HETATM   26  C19 UNL     1      -4.916  31.004   9.151  1.00  0.00     0.017 A 
HETATM   27  C20 UNL     1      -4.216  32.179   9.320  1.00  0.00     0.089 A 
HETATM   28  N4  UNL     1      -4.442  33.230   8.517  1.00  0.00    -0.359 N 
ATOM     29  H4  UNL     1      -3.904  34.083   8.672  1.00  0.00     0.166 HD
ENDBRANCH  22  23
ENDBRANCH   4  21
BRANCH   1  30
HETATM   30  O1  UNL     1      -6.288  39.877   2.701  1.00  0.00    -0.353 OA
HETATM   31  C1  UNL     1      -7.528  40.154   2.086  1.00  0.00     0.210 C 
ENDBRANCH   1  30
BRANCH   5  32
HETATM   32  O2  UNL     1      -6.079  37.867   7.107  1.00  0.00    -0.352 OA
HETATM   33  C22 UNL     1      -4.930  38.139   7.877  1.00  0.00     0.210 C 
ENDBRANCH   5  32
BRANCH   6  34
HETATM   34  O3  UNL     1      -6.384  40.162   5.481  1.00  0.00    -0.351 OA
HETATM   35  C24 UNL     1      -5.344  41.082   5.720  1.00  0.00     0.210 C 
ENDBRANCH   6  34
TORSDOF 8
ENDMDL
MODEL 4
REMARK VINA RESULT: -7.111081807      1.406      2.043
REMARK  8 active torsions:
REMARK  status: ('A' for Active; 'I' for Inactive)
REMARK    1  A    between atoms: O1_2  and  C2_3 
REMARK    2  A    between atoms: C4_5  and  C5_6 
REMARK    3  A    between atoms: C5_6  and  N1_7 
REMARK    4  A    between atoms: N1_7  and  C6_9 
REMARK    5  A    between atoms: C13_20  and  C14_21 
REMARK    6  A    between atoms: C15_22  and  C16_23 
REMARK    7  A    between atoms: C21_30  and  O2_31 
REMARK    8  A    between atoms: C23_33  and  O3_34 
ROOT
HETATM    1  C2  UNL     1      -6.151  38.812   3.572  1.00  0.00     0.104 A 
HETATM    2  C3  UNL     1      -5.966  37.578   3.003  1.00  0.00     0.050 A 
HETATM    3  C4  UNL     1      -5.816  36.468   3.805  1.00  0.00    -0.016 A 
HETATM    4  C13 UNL     1      -5.842  36.542   5.192  1.00  0.00     0.062 A 
HETATM    5  C21 UNL     1      -6.031  37.799   5.722  1.00  0.00     0.123 A 
HETATM    6  C23 UNL     1      -6.185  38.926   4.944  1.00  0.00     0.136 A 
ENDROOT
BRANCH   3   7
HETATM    7  C5  UNL     1      -5.612  35.115   3.217  1.00  0.00     0.178 C 
BRANCH   7   8
HETATM    8  N1  UNL     1      -6.792  34.714   2.475  1.00  0.00    -0.222 N 
ATOM      9  H1  UNL     1      -7.682  34.610   2.963  1.00  0.00     0.178 HD
BRANCH   8  10
HETATM   10  C6  UNL     1      -6.730  34.485   1.190  1.00  0.00     0.679 A 
HETATM   11  N2  UNL     1      -5.634  34.338   0.427  1.00  0.00    -0.190 N 
HETATM   12  C7  UNL     1      -5.986  34.113  -0.851  1.00  0.00     0.076 A 
ATOM     13  H2  UNL     1      -4.674  34.389   0.767  1.00  0.00     0.184 HD
HETATM   14  C8  UNL     1      -5.273  33.900  -2.008  1.00  0.00     0.032 A 
HETATM   15  C12 UNL     1      -7.383  34.116  -0.911  1.00  0.00     0.076 A 
HETATM   16  C9  UNL     1      -5.948  33.698  -3.182  1.00  0.00     0.002 A 
HETATM   17  C10 UNL     1      -7.339  33.699  -3.250  1.00  0.00     0.002 A 
HETATM   18  C11 UNL     1      -8.043  33.910  -2.099  1.00  0.00     0.032 A 
HETATM   19  N3  UNL     1      -7.775  34.347   0.362  1.00  0.00    -0.190 N 
ATOM     20  H3  UNL     1      -8.750  34.409   0.657  1.00  0.00     0.184 HD
ENDBRANCH   8  10
ENDBRANCH   7   8
ENDBRANCH   3   7
BRANCH   4  21
HETATM   21  C14 UNL     1      -5.681  35.363   6.000  1.00  0.00    -0.056 C 
HETATM   22  C15 UNL     1      -5.535  34.383   6.693  1.00  0.00    -0.043 C 
BRANCH  22  23
HETATM   23  C16 UNL     1      -5.343  33.228   7.527  1.00  0.00     0.086 A 
HETATM   24  C17 UNL     1      -6.065  32.069   7.337  1.00  0.00     0.039 A 
HETATM   25  C18 UNL     1      -5.852  30.998   8.149  1.00  0.00     0.004 A 
HETATM   26  C19 UNL     1      -4.929  31.026   9.174  1.00  0.00     0.017 A 
HETATM   27  C20 UNL     1      -4.225  32.199   9.337  1.00  0.00     0.089 A 
HETATM   28  N4  UNL     1      -4.445  33.246   8.527  1.00  0.00    -0.359 N 
ATOM     29  H4  UNL     1      -3.904  34.098   8.678  1.00  0.00     0.166 HD
ENDBRANCH  22  23
ENDBRANCH   4  21
BRANCH   1  30
HETATM   30  O1  UNL     1      -6.300  39.904   2.729  1.00  0.00    -0.353 OA
HETATM   31  C1  UNL     1      -7.548  40.190   2.132  1.00  0.00     0.210 C 
ENDBRANCH   1  30
BRANCH   5  32
HETATM   32  O2  UNL     1      -6.057  37.871   7.123  1.00  0.00    -0.352 OA
HETATM   33  C22 UNL     1      -4.899  38.131   7.884  1.00  0.00     0.210 C 
ENDBRANCH   5  32
BRANCH   6  34
HETATM   34  O3  UNL     1      -6.372  40.174   5.511  1.00  0.00    -0.351 OA
HETATM   35  C24 UNL     1      -5.327  41.085   5.761  1.00  0.00     0.210 C 
ENDBRANCH   6  34
TORSDOF 8
ENDMDL
MODEL 5
REMARK VINA RESULT: -6.789795313      1.798      6.496
REMARK  8 active torsions:
REMARK  status: ('A' for Active; 'I' for Inactive)
REMARK    1  A    between atoms: O1_2  and  C2_3 
REMARK    2  A    between atoms: C4_5  and  C5_6 
REMARK    3  A    between atoms: C5_6  and  N1_7 
REMARK    4  A    between atoms: N1_7  and  C6_9 
REMARK    5  A    between atoms: C13_20  and  C14_21 
REMARK    6  A    between atoms: C15_22  and  C16_23 
REMARK    7  A    between atoms: C21_30  and  O2_31 
REMARK    8  A    between atoms: C23_33  and  O3_34 
ROOT
HETATM    1  C2  UNL     1      -5.970  39.362   5.385  1.00  0.00     0.104 A 
HETATM    2  C3  UNL     1      -5.726  38.014   5.455  1.00  0.00     0.050 A 
HETATM    3  C4  UNL     1      -5.944  37.219   4.351  1.00  0.00    -0.016 A 
HETATM    4  C13 UNL     1      -6.409  37.729   3.146  1.00  0.00     0.062 A 
HETATM    5  C21 UNL     1      -6.641  39.087   3.118  1.00  0.00     0.123 A 
HETATM    6  C23 UNL     1      -6.431  39.906   4.207  1.00  0.00     0.136 A 
ENDROOT
BRANCH   3   7
HETATM    7  C5  UNL     1      -5.689  35.752   4.397  1.00  0.00     0.178 C 
BRANCH   7   8
HETATM    8  N1  UNL     1      -6.583  35.124   5.350  1.00  0.00    -0.222 N 
ATOM      9  H1  UNL     1      -7.580  35.341   5.324  1.00  0.00     0.178 HD
BRANCH   8  10
HETATM   10  C6  UNL     1      -6.130  34.283   6.241  1.00  0.00     0.679 A 
HETATM   11  N2  UNL     1      -5.171  34.487   7.160  1.00  0.00    -0.190 N 
HETATM   12  C7  UNL     1      -4.988  33.377   7.895  1.00  0.00     0.076 A 
ATOM     13  H2  UNL     1      -4.655  35.359   7.282  1.00  0.00     0.184 HD
HETATM   14  C8  UNL     1      -4.151  33.057   8.938  1.00  0.00     0.032 A 
HETATM   15  C12 UNL     1      -5.878  32.407   7.423  1.00  0.00     0.076 A 
HETATM   16  C9  UNL     1      -4.212  31.802   9.484  1.00  0.00     0.002 A 
HETATM   17  C10 UNL     1      -5.097  30.831   9.021  1.00  0.00     0.002 A 
HETATM   18  C11 UNL     1      -5.926  31.154   7.984  1.00  0.00     0.032 A 
HETATM   19  N3  UNL     1      -6.543  33.020   6.418  1.00  0.00    -0.190 N 
ATOM     20  H3  UNL     1      -7.273  32.575   5.861  1.00  0.00     0.184 HD
ENDBRANCH   8  10
ENDBRANCH   7   8
ENDBRANCH   3   7
BRANCH   4  21
HETATM   21  C14 UNL     1      -6.626  36.870   2.013  1.00  0.00    -0.056 C 
HETATM   22  C15 UNL     1      -6.820  36.163   1.051  1.00  0.00    -0.043 C 
BRANCH  22  23
HETATM   23  C16 UNL     1      -7.068  35.336  -0.098  1.00  0.00     0.086 A 
HETATM   24  C17 UNL     1      -7.482  34.028   0.026  1.00  0.00     0.039 A 
HETATM   25  C18 UNL     1      -7.706  33.279  -1.088  1.00  0.00     0.004 A 
HETATM   26  C19 UNL     1      -7.531  33.784  -2.359  1.00  0.00     0.017 A 
HETATM   27  C20 UNL     1      -7.115  35.095  -2.449  1.00  0.00     0.089 A 
HETATM   28  N4  UNL     1      -6.900  35.821  -1.341  1.00  0.00    -0.359 N 
ATOM     29  H4  UNL     1      -6.593  36.788  -1.447  1.00  0.00     0.166 HD
ENDBRANCH  22  23
ENDBRANCH   4  21
BRANCH   1  30
HETATM   30  O1  UNL     1      -5.737  40.127   6.519  1.00  0.00    -0.353 OA
HETATM   31  C1  UNL     1      -5.671  39.525   7.795  1.00  0.00     0.210 C 
ENDBRANCH   1  30
BRANCH   5  32
HETATM   32  O2  UNL     1      -7.110  39.599   1.900  1.00  0.00    -0.352 OA
HETATM   33  C22 UNL     1      -8.457  39.970   1.709  1.00  0.00     0.210 C 
ENDBRANCH   5  32
BRANCH   6  34
HETATM   34  O3  UNL     1      -6.675  41.266   4.143  1.00  0.00    -0.351 OA
HETATM   35  C24 UNL     1      -5.729  42.211   3.699  1.00  0.00     0.210 C 
ENDBRANCH   6  34
TORSDOF 8
ENDMDL
