MODEL 1
REMARK VINA RESULT: -7.860877510      0.000      0.000
REMARK  5 active torsions:
REMARK  status: ('A' for Active; 'I' for Inactive)
REMARK    1  A    between atoms: C5_5  and  N1_6 
REMARK    2  A    between atoms: N1_6  and  C6_8 
REMARK    3  A    between atoms: C6_8  and  C7_9 
REMARK    4  A    between atoms: C7_9  and  C8_10 
REMARK    5  A    between atoms: C14_19  and  C15_20 
ROOT
HETATM    1  C1  UNL     1      -2.717  35.359   2.865  1.00  0.00     0.016 C 
HETATM    2  C2  UNL     1      -3.379  36.489   2.157  1.00  0.00    -0.029 C 
HETATM    3  C3  UNL     1      -2.546  37.739   2.391  1.00  0.00     0.016 C 
HETATM    4  C4  UNL     1      -4.782  36.809   2.620  1.00  0.00     0.041 C 
HETATM    5  C5  UNL     1      -5.725  35.681   2.460  1.00  0.00     0.132 C 
HETATM    6  C13 UNL     1      -5.718  35.162   1.032  1.00  0.00     0.044 A 
HETATM    7  C14 UNL     1      -6.812  34.382   0.570  1.00  0.00    -0.022 A 
HETATM    8  C18 UNL     1      -6.705  33.935  -0.703  1.00  0.00    -0.038 A 
HETATM    9  C19 UNL     1      -5.559  34.238  -1.495  1.00  0.00     0.017 A 
HETATM   10  C20 UNL     1      -4.545  34.987  -1.002  1.00  0.00     0.254 A 
HETATM   11  O2  UNL     1      -3.522  35.258  -1.713  1.00  0.00    -0.267 OA
HETATM   12  N3  UNL     1      -4.649  35.449   0.294  1.00  0.00    -0.314 N 
HETATM   13  C21 UNL     1      -3.492  36.247   0.691  1.00  0.00     0.141 C 
HETATM   14  C22 UNL     1      -5.456  33.713  -2.907  1.00  0.00     0.045 C 
HETATM   15  C23 UNL     1      -6.766  33.844  -3.624  1.00  0.00     0.005 C 
HETATM   16  C24 UNL     1      -7.920  34.087  -2.721  1.00  0.00     0.005 C 
HETATM   17  C25 UNL     1      -7.698  33.218  -1.451  1.00  0.00     0.040 C 
ENDROOT
BRANCH   5  18
HETATM   18  N1  UNL     1      -5.653  34.705   3.419  1.00  0.00    -0.392 N 
ATOM     19  H1  UNL     1      -5.323  33.784   3.130  1.00  0.00     0.159 HD
BRANCH  18  20
HETATM   20  C6  UNL     1      -5.992  34.870   4.740  1.00  0.00     0.056 C 
BRANCH  20  21
HETATM   21  C7  UNL     1      -5.042  35.111   5.837  1.00  0.00     0.050 C 
BRANCH  21  22
HETATM   22  C8  UNL     1      -4.951  33.818   6.685  1.00  0.00     0.009 C 
HETATM   23  C9  UNL     1      -6.296  33.174   6.786  1.00  0.00     0.015 C 
HETATM   24  C10 UNL     1      -6.127  31.814   7.410  1.00  0.00     0.103 C 
HETATM   25  C11 UNL     1      -5.097  31.849   8.487  1.00  0.00     0.217 C 
HETATM   26  O1  UNL     1      -4.729  30.750   8.969  1.00  0.00    -0.274 OA
HETATM   27  N2  UNL     1      -4.549  33.066   8.954  1.00  0.00    -0.361 N 
HETATM   28  C12 UNL     1      -4.279  34.120   7.967  1.00  0.00     0.127 C 
ATOM     29  H2  UNL     1      -4.347  33.207   9.944  1.00  0.00     0.162 HD
ENDBRANCH  21  22
ENDBRANCH  20  21
ENDBRANCH  18  20
ENDBRANCH   5  18
BRANCH   7  30
HETATM   30  C15 UNL     1      -7.952  34.198   1.409  1.00  0.00     0.021 A 
HETATM   31  C16 UNL     1      -8.154  32.917   2.215  1.00  0.00     0.010 A 
HETATM   32  C17 UNL     1      -9.063  33.276   1.141  1.00  0.00     0.010 A 
ENDBRANCH   7  30
TORSDOF 5
ENDMDL
MODEL 2
REMARK VINA RESULT: -7.850658027      4.638      7.591
REMARK  5 active torsions:
REMARK  status: ('A' for Active; 'I' for Inactive)
REMARK    1  A    between atoms: C5_5  and  N1_6 
REMARK    2  A    between atoms: N1_6  and  C6_8 
REMARK    3  A    between atoms: C6_8  and  C7_9 
REMARK    4  A    between atoms: C7_9  and  C8_10 
REMARK    5  A    between atoms: C14_19  and  C15_20 
ROOT
HETATM    1  C1  UNL     1      -8.772  37.925  -4.596  1.00  0.00     0.016 C 
HETATM    2  C2  UNL     1      -9.424  36.604  -4.812  1.00  0.00    -0.029 C 
HETATM    3  C3  UNL     1     -10.925  36.795  -4.666  1.00  0.00     0.016 C 
HETATM    4  C4  UNL     1      -9.026  35.519  -3.837  1.00  0.00     0.041 C 
HETATM    5  C5  UNL     1      -7.579  35.215  -3.855  1.00  0.00     0.132 C 
HETATM    6  C13 UNL     1      -7.107  34.894  -5.264  1.00  0.00     0.044 A 
HETATM    7  C14 UNL     1      -5.885  34.191  -5.443  1.00  0.00    -0.022 A 
HETATM    8  C18 UNL     1      -5.527  33.978  -6.731  1.00  0.00    -0.038 A 
HETATM    9  C19 UNL     1      -6.338  34.444  -7.808  1.00  0.00     0.017 A 
HETATM   10  C20 UNL     1      -7.494  35.109  -7.576  1.00  0.00     0.254 A 
HETATM   11  O2  UNL     1      -8.218  35.525  -8.540  1.00  0.00    -0.267 OA
HETATM   12  N3  UNL     1      -7.867  35.327  -6.265  1.00  0.00    -0.314 N 
HETATM   13  C21 UNL     1      -9.134  36.047  -6.164  1.00  0.00     0.141 C 
HETATM   14  C22 UNL     1      -5.907  34.209  -9.235  1.00  0.00     0.045 C 
HETATM   15  C23 UNL     1      -5.371  32.821  -9.411  1.00  0.00     0.005 C 
HETATM   16  C24 UNL     1      -5.034  32.144  -8.132  1.00  0.00     0.005 C 
HETATM   17  C25 UNL     1      -4.405  33.215  -7.198  1.00  0.00     0.040 C 
ENDROOT
BRANCH   5  18
HETATM   18  N1  UNL     1      -6.778  36.093  -3.174  1.00  0.00    -0.392 N 
ATOM     19  H1  UNL     1      -6.059  36.584  -3.706  1.00  0.00     0.159 HD
BRANCH  18  20
HETATM   20  C6  UNL     1      -6.867  36.362  -1.830  1.00  0.00     0.056 C 
BRANCH  20  21
HETATM   21  C7  UNL     1      -6.187  35.609  -0.765  1.00  0.00     0.050 C 
BRANCH  21  22
HETATM   22  C8  UNL     1      -7.177  34.549  -0.221  1.00  0.00     0.009 C 
HETATM   23  C9  UNL     1      -7.255  34.634   1.268  1.00  0.00     0.015 C 
HETATM   24  C10 UNL     1      -8.388  33.760   1.736  1.00  0.00     0.103 C 
HETATM   25  C11 UNL     1      -8.457  32.506   0.933  1.00  0.00     0.217 C 
HETATM   26  O1  UNL     1      -9.460  31.769   1.099  1.00  0.00    -0.274 OA
HETATM   27  N2  UNL     1      -7.439  32.151   0.017  1.00  0.00    -0.361 N 
HETATM   28  C12 UNL     1      -6.827  33.224  -0.778  1.00  0.00     0.127 C 
ATOM     29  H2  UNL     1      -7.140  31.182  -0.087  1.00  0.00     0.162 HD
ENDBRANCH  21  22
ENDBRANCH  20  21
ENDBRANCH  18  20
ENDBRANCH   5  18
BRANCH   7  30
HETATM   30  C15 UNL     1      -5.183  33.694  -4.305  1.00  0.00     0.021 A 
HETATM   31  C16 UNL     1      -3.883  34.337  -3.824  1.00  0.00     0.010 A 
HETATM   32  C17 UNL     1      -3.899  32.981  -4.346  1.00  0.00     0.010 A 
ENDBRANCH   7  30
TORSDOF 5
ENDMDL
MODEL 3
REMARK VINA RESULT: -7.735111512      0.644      1.108
REMARK  5 active torsions:
REMARK  status: ('A' for Active; 'I' for Inactive)
REMARK    1  A    between atoms: C5_5  and  N1_6 
REMARK    2  A    between atoms: N1_6  and  C6_8 
REMARK    3  A    between atoms: C6_8  and  C7_9 
REMARK    4  A    between atoms: C7_9  and  C8_10 
REMARK    5  A    between atoms: C14_19  and  C15_20 
ROOT
HETATM    1  C1  UNL     1      -2.710  35.304   2.922  1.00  0.00     0.016 C 
HETATM    2  C2  UNL     1      -3.366  36.444   2.226  1.00  0.00    -0.029 C 
HETATM    3  C3  UNL     1      -2.532  37.689   2.481  1.00  0.00     0.016 C 
HETATM    4  C4  UNL     1      -4.771  36.761   2.685  1.00  0.00     0.041 C 
HETATM    5  C5  UNL     1      -5.715  35.637   2.505  1.00  0.00     0.132 C 
HETATM    6  C13 UNL     1      -5.701  35.137   1.070  1.00  0.00     0.044 A 
HETATM    7  C14 UNL     1      -6.794  34.365   0.592  1.00  0.00    -0.022 A 
HETATM    8  C18 UNL     1      -6.681  33.936  -0.686  1.00  0.00    -0.038 A 
HETATM    9  C19 UNL     1      -5.531  34.247  -1.468  1.00  0.00     0.017 A 
HETATM   10  C20 UNL     1      -4.518  34.987  -0.960  1.00  0.00     0.254 A 
HETATM   11  O2  UNL     1      -3.490  35.266  -1.661  1.00  0.00    -0.267 OA
HETATM   12  N3  UNL     1      -4.627  35.432   0.342  1.00  0.00    -0.314 N 
HETATM   13  C21 UNL     1      -3.471  36.222   0.756  1.00  0.00     0.141 C 
HETATM   14  C22 UNL     1      -5.421  33.741  -2.886  1.00  0.00     0.045 C 
HETATM   15  C23 UNL     1      -6.726  33.883  -3.608  1.00  0.00     0.005 C 
HETATM   16  C24 UNL     1      -7.885  34.116  -2.708  1.00  0.00     0.005 C 
HETATM   17  C25 UNL     1      -7.672  33.231  -1.449  1.00  0.00     0.040 C 
ENDROOT
BRANCH   5  18
HETATM   18  N1  UNL     1      -5.651  34.648   3.452  1.00  0.00    -0.392 N 
ATOM     19  H1  UNL     1      -5.346  33.724   3.146  1.00  0.00     0.159 HD
BRANCH  18  20
HETATM   20  C6  UNL     1      -5.965  34.805   4.779  1.00  0.00     0.056 C 
BRANCH  20  21
HETATM   21  C7  UNL     1      -6.750  33.857   5.585  1.00  0.00     0.050 C 
BRANCH  21  22
HETATM   22  C8  UNL     1      -5.965  33.572   6.889  1.00  0.00     0.009 C 
HETATM   23  C9  UNL     1      -4.540  33.995   6.735  1.00  0.00     0.015 C 
HETATM   24  C10 UNL     1      -3.873  33.922   8.083  1.00  0.00     0.103 C 
HETATM   25  C11 UNL     1      -4.349  32.733   8.845  1.00  0.00     0.217 C 
HETATM   26  O1  UNL     1      -4.008  32.647  10.051  1.00  0.00    -0.274 OA
HETATM   27  N2  UNL     1      -5.152  31.735   8.246  1.00  0.00    -0.361 N 
HETATM   28  C12 UNL     1      -6.184  32.166   7.294  1.00  0.00     0.127 C 
ATOM     29  H2  UNL     1      -5.019  30.749   8.468  1.00  0.00     0.162 HD
ENDBRANCH  21  22
ENDBRANCH  20  21
ENDBRANCH  18  20
ENDBRANCH   5  18
BRANCH   7  30
HETATM   30  C15 UNL     1      -7.939  34.173   1.423  1.00  0.00     0.021 A 
HETATM   31  C16 UNL     1      -8.143  32.885   2.217  1.00  0.00     0.010 A 
HETATM   32  C17 UNL     1      -9.047  33.251   1.139  1.00  0.00     0.010 A 
ENDBRANCH   7  30
TORSDOF 5
ENDMDL
MODEL 4
REMARK VINA RESULT: -7.661559295      3.077      8.052
REMARK  5 active torsions:
REMARK  status: ('A' for Active; 'I' for Inactive)
REMARK    1  A    between atoms: C5_5  and  N1_6 
REMARK    2  A    between atoms: N1_6  and  C6_8 
REMARK    3  A    between atoms: C6_8  and  C7_9 
REMARK    4  A    between atoms: C7_9  and  C8_10 
REMARK    5  A    between atoms: C14_19  and  C15_20 
ROOT
HETATM    1  C1  UNL     1      -2.540  37.957   8.882  1.00  0.00     0.016 C 
HETATM    2  C2  UNL     1      -1.683  36.851   8.374  1.00  0.00    -0.029 C 
HETATM    3  C3  UNL     1      -0.236  37.310   8.447  1.00  0.00     0.016 C 
HETATM    4  C4  UNL     1      -1.937  36.442   6.941  1.00  0.00     0.041 C 
HETATM    5  C5  UNL     1      -3.318  35.969   6.701  1.00  0.00     0.132 C 
HETATM    6  C13 UNL     1      -3.689  34.857   7.668  1.00  0.00     0.044 A 
HETATM    7  C14 UNL     1      -4.780  34.001   7.357  1.00  0.00    -0.022 A 
HETATM    8  C18 UNL     1      -5.058  33.061   8.290  1.00  0.00    -0.038 A 
HETATM    9  C19 UNL     1      -4.297  32.968   9.492  1.00  0.00     0.017 A 
HETATM   10  C20 UNL     1      -3.267  33.812   9.735  1.00  0.00     0.254 A 
HETATM   11  O2  UNL     1      -2.586  33.727  10.810  1.00  0.00    -0.267 OA
HETATM   12  N3  UNL     1      -2.974  34.771   8.787  1.00  0.00    -0.314 N 
HETATM   13  C21 UNL     1      -1.839  35.604   9.175  1.00  0.00     0.141 C 
HETATM   14  C22 UNL     1      -4.640  31.922  10.525  1.00  0.00     0.045 C 
HETATM   15  C23 UNL     1      -4.946  30.607   9.875  1.00  0.00     0.005 C 
HETATM   16  C24 UNL     1      -5.214  30.709   8.417  1.00  0.00     0.005 C 
HETATM   17  C25 UNL     1      -6.032  32.011   8.192  1.00  0.00     0.040 C 
ENDROOT
BRANCH   5  18
HETATM   18  N1  UNL     1      -4.268  36.947   6.568  1.00  0.00    -0.392 N 
ATOM     19  H1  UNL     1      -5.186  36.769   6.976  1.00  0.00     0.159 HD
BRANCH  18  20
HETATM   20  C6  UNL     1      -4.080  38.148   5.929  1.00  0.00     0.056 C 
BRANCH  20  21
HETATM   21  C7  UNL     1      -4.463  38.441   4.540  1.00  0.00     0.050 C 
BRANCH  21  22
HETATM   22  C8  UNL     1      -5.028  37.141   3.915  1.00  0.00     0.009 C 
HETATM   23  C9  UNL     1      -4.018  36.530   2.999  1.00  0.00     0.015 C 
HETATM   24  C10 UNL     1      -4.505  35.162   2.597  1.00  0.00     0.103 C 
HETATM   25  C11 UNL     1      -5.981  35.167   2.386  1.00  0.00     0.217 C 
HETATM   26  O1  UNL     1      -6.543  34.056   2.221  1.00  0.00    -0.274 OA
HETATM   27  N2  UNL     1      -6.728  36.367   2.370  1.00  0.00    -0.361 N 
HETATM   28  C12 UNL     1      -6.356  37.420   3.324  1.00  0.00     0.127 C 
ATOM     29  H2  UNL     1      -7.501  36.498   1.717  1.00  0.00     0.162 HD
ENDBRANCH  21  22
ENDBRANCH  20  21
ENDBRANCH  18  20
ENDBRANCH   5  18
BRANCH   7  30
HETATM   30  C15 UNL     1      -5.432  34.118   6.093  1.00  0.00     0.021 A 
HETATM   31  C16 UNL     1      -6.761  34.856   5.945  1.00  0.00     0.010 A 
HETATM   32  C17 UNL     1      -6.668  33.425   5.709  1.00  0.00     0.010 A 
ENDBRANCH   7  30
TORSDOF 5
ENDMDL
MODEL 5
REMARK VINA RESULT: -7.320057371      1.907      2.206
REMARK  5 active torsions:
REMARK  status: ('A' for Active; 'I' for Inactive)
REMARK    1  A    between atoms: C5_5  and  N1_6 
REMARK    2  A    between atoms: N1_6  and  C6_8 
REMARK    3  A    between atoms: C6_8  and  C7_9 
REMARK    4  A    between atoms: C7_9  and  C8_10 
REMARK    5  A    between atoms: C14_19  and  C15_20 
ROOT
HETATM    1  C1  UNL     1      -4.662  38.444   2.002  1.00  0.00     0.016 C 
HETATM    2  C2  UNL     1      -6.124  38.645   1.810  1.00  0.00    -0.029 C 
HETATM    3  C3  UNL     1      -6.491  39.997   2.396  1.00  0.00     0.016 C 
HETATM    4  C4  UNL     1      -7.012  37.623   2.484  1.00  0.00     0.041 C 
HETATM    5  C5  UNL     1      -6.773  36.240   2.020  1.00  0.00     0.132 C 
HETATM    6  C13 UNL     1      -6.874  36.147   0.506  1.00  0.00     0.044 A 
HETATM    7  C14 UNL     1      -7.084  34.879  -0.100  1.00  0.00    -0.022 A 
HETATM    8  C18 UNL     1      -7.128  34.888  -1.453  1.00  0.00    -0.038 A 
HETATM    9  C19 UNL     1      -6.964  36.099  -2.187  1.00  0.00     0.017 A 
HETATM   10  C20 UNL     1      -6.766  37.279  -1.555  1.00  0.00     0.254 A 
HETATM   11  O2  UNL     1      -6.621  38.362  -2.214  1.00  0.00    -0.267 OA
HETATM   12  N3  UNL     1      -6.724  37.279  -0.176  1.00  0.00    -0.314 N 
HETATM   13  C21 UNL     1      -6.512  38.617   0.370  1.00  0.00     0.141 C 
HETATM   14  C22 UNL     1      -6.999  36.078  -3.696  1.00  0.00     0.045 C 
HETATM   15  C23 UNL     1      -8.097  35.187  -4.194  1.00  0.00     0.005 C 
HETATM   16  C24 UNL     1      -8.633  34.264  -3.161  1.00  0.00     0.005 C 
HETATM   17  C25 UNL     1      -7.425  33.777  -2.312  1.00  0.00     0.040 C 
ENDROOT
BRANCH   5  18
HETATM   18  N1  UNL     1      -5.679  35.612   2.556  1.00  0.00    -0.392 N 
ATOM     19  H1  UNL     1      -4.790  35.720   2.068  1.00  0.00     0.159 HD
BRANCH  18  20
HETATM   20  C6  UNL     1      -5.688  34.850   3.698  1.00  0.00     0.056 C 
BRANCH  20  21
HETATM   21  C7  UNL     1      -5.675  35.377   5.072  1.00  0.00     0.050 C 
BRANCH  21  22
HETATM   22  C8  UNL     1      -5.387  34.197   6.034  1.00  0.00     0.009 C 
HETATM   23  C9  UNL     1      -6.649  33.455   6.330  1.00  0.00     0.015 C 
HETATM   24  C10 UNL     1      -6.297  32.192   7.070  1.00  0.00     0.103 C 
HETATM   25  C11 UNL     1      -5.185  32.435   8.033  1.00  0.00     0.217 C 
HETATM   26  O1  UNL     1      -4.673  31.431   8.587  1.00  0.00    -0.274 OA
HETATM   27  N2  UNL     1      -4.717  33.738   8.318  1.00  0.00    -0.361 N 
HETATM   28  C12 UNL     1      -4.637  34.697   7.207  1.00  0.00     0.127 C 
ATOM     29  H2  UNL     1      -4.444  34.005   9.264  1.00  0.00     0.162 HD
ENDBRANCH  21  22
ENDBRANCH  20  21
ENDBRANCH  18  20
ENDBRANCH   5  18
BRANCH   7  30
HETATM   30  C15 UNL     1      -7.318  33.735   0.720  1.00  0.00     0.021 A 
HETATM   31  C16 UNL     1      -8.178  32.568   0.237  1.00  0.00     0.010 A 
HETATM   32  C17 UNL     1      -8.597  33.394   1.357  1.00  0.00     0.010 A 
ENDBRANCH   7  30
TORSDOF 5
ENDMDL
