MODEL 1
REMARK VINA RESULT: -6.453933078      0.000      0.000
REMARK  5 active torsions:
REMARK  status: ('A' for Active; 'I' for Inactive)
REMARK    1  A    between atoms: O1_2  and  C2_3 
REMARK    2  A    between atoms: C2_3  and  C3_4 
REMARK    3  A    between atoms: C3_4  and  N1_5 
REMARK    4  A    between atoms: C3_4  and  C6_10 
REMARK       I    between atoms: N1_5  and  C4_7 
REMARK    5  A    between atoms: C9_13  and  O3_14 
ROOT
HETATM    1  C6  UNL     1      -5.778  34.826   2.136  1.00  0.00     0.017 C 
HETATM    2  C7  UNL     1      -7.156  34.178   2.240  1.00  0.00     0.010 C 
HETATM    3  C8  UNL     1      -7.920  34.648   1.005  1.00  0.00     0.039 C 
HETATM    4  C9  UNL     1      -6.736  34.639   0.010  1.00  0.00     0.067 C 
HETATM    5  C10 UNL     1      -5.796  35.530   0.840  1.00  0.00     0.027 C 
HETATM    6  C11 UNL     1      -4.502  35.571   0.097  1.00  0.00     0.009 C 
HETATM    7  C12 UNL     1      -4.681  36.093  -1.325  1.00  0.00     0.010 C 
HETATM    8  C13 UNL     1      -6.043  36.300  -1.779  1.00  0.00    -0.032 C 
HETATM    9  C14 UNL     1      -6.504  37.717  -1.351  1.00  0.00     0.016 C 
HETATM   10  C15 UNL     1      -6.597  35.953  -3.076  1.00  0.00     0.008 C 
HETATM   11  C16 UNL     1      -6.005  35.887  -4.374  1.00  0.00    -0.002 C 
HETATM   12  C17 UNL     1      -7.066  35.331  -5.342  1.00  0.00     0.005 C 
HETATM   13  C18 UNL     1      -8.452  35.687  -5.028  1.00  0.00     0.000 C 
HETATM   14  C19 UNL     1      -9.090  35.031  -3.876  1.00  0.00     0.001 C 
HETATM   15  C20 UNL     1      -8.297  34.103  -3.069  1.00  0.00     0.011 C 
HETATM   16  C21 UNL     1      -6.960  34.550  -2.560  1.00  0.00    -0.022 C 
HETATM   17  C22 UNL     1      -5.929  33.538  -2.805  1.00  0.00     0.088 C 
HETATM   18  C23 UNL     1      -5.242  33.630  -4.148  1.00  0.00     0.128 C 
HETATM   19  O4  UNL     1      -5.022  32.634  -4.821  1.00  0.00    -0.298 OA
HETATM   20  C24 UNL     1      -4.842  34.973  -4.625  1.00  0.00     0.083 C 
HETATM   21  C25 UNL     1      -7.051  35.264  -1.246  1.00  0.00     0.038 C 
ENDROOT
BRANCH   1  22
HETATM   22  C3  UNL     1      -5.611  35.673   3.353  1.00  0.00     0.112 C 
BRANCH  22  23
HETATM   23  C2  UNL     1      -4.420  36.598   3.312  1.00  0.00     0.192 C 
BRANCH  23  24
HETATM   24  O1  UNL     1      -4.826  37.770   3.996  1.00  0.00    -0.394 OA
HETATM   25  C1  UNL     1      -6.014  38.257   3.450  1.00  0.00     0.201 C 
ENDBRANCH  23  24
ENDBRANCH  22  23
BRANCH  22  26
HETATM   26  N1  UNL     1      -5.330  34.760   4.476  1.00  0.00    -0.354 N 
HETATM   27  C4  UNL     1      -5.914  34.910   5.735  1.00  0.00     0.214 C 
HETATM   28  C5  UNL     1      -5.583  33.949   6.816  1.00  0.00     0.117 C 
HETATM   29  O2  UNL     1      -6.720  35.843   5.988  1.00  0.00    -0.274 OA
ATOM     30  H1  UNL     1      -4.683  33.987   4.326  1.00  0.00     0.162 HD
ENDBRANCH  22  26
ENDBRANCH   1  22
BRANCH   4  31
HETATM   31  O3  UNL     1      -6.346  33.320   0.015  1.00  0.00    -0.389 OA
ATOM     32  H3  UNL     1      -5.693  33.298   0.704  1.00  0.00     0.210 HD
ENDBRANCH   4  31
TORSDOF 5
ENDMDL
MODEL 2
REMARK VINA RESULT: -6.370180371      4.013     10.077
REMARK  5 active torsions:
REMARK  status: ('A' for Active; 'I' for Inactive)
REMARK    1  A    between atoms: O1_2  and  C2_3 
REMARK    2  A    between atoms: C2_3  and  C3_4 
REMARK    3  A    between atoms: C3_4  and  N1_5 
REMARK    4  A    between atoms: C3_4  and  C6_10 
REMARK       I    between atoms: N1_5  and  C4_7 
REMARK    5  A    between atoms: C9_13  and  O3_14 
ROOT
HETATM    1  C6  UNL     1      -5.967  35.237   4.549  1.00  0.00     0.017 C 
HETATM    2  C7  UNL     1      -6.816  34.228   5.320  1.00  0.00     0.010 C 
HETATM    3  C8  UNL     1      -5.895  33.662   6.398  1.00  0.00     0.039 C 
HETATM    4  C9  UNL     1      -5.116  34.962   6.711  1.00  0.00     0.067 C 
HETATM    5  C10 UNL     1      -4.679  35.263   5.267  1.00  0.00     0.027 C 
HETATM    6  C11 UNL     1      -3.980  36.581   5.313  1.00  0.00     0.009 C 
HETATM    7  C12 UNL     1      -2.798  36.563   6.279  1.00  0.00     0.010 C 
HETATM    8  C13 UNL     1      -2.643  35.376   7.099  1.00  0.00    -0.032 C 
HETATM    9  C14 UNL     1      -1.829  34.322   6.306  1.00  0.00     0.016 C 
HETATM   10  C15 UNL     1      -2.305  35.325   8.511  1.00  0.00     0.008 C 
HETATM   11  C16 UNL     1      -1.519  36.190   9.331  1.00  0.00    -0.002 C 
HETATM   12  C17 UNL     1      -1.632  35.687  10.782  1.00  0.00     0.005 C 
HETATM   13  C18 UNL     1      -1.790  34.238  10.934  1.00  0.00     0.000 C 
HETATM   14  C19 UNL     1      -3.086  33.642  10.576  1.00  0.00     0.001 C 
HETATM   15  C20 UNL     1      -4.131  34.511  10.032  1.00  0.00     0.011 C 
HETATM   16  C21 UNL     1      -3.796  35.412   8.883  1.00  0.00    -0.022 C 
HETATM   17  C22 UNL     1      -4.275  36.777   9.117  1.00  0.00     0.088 C 
HETATM   18  C23 UNL     1      -3.316  37.677   9.862  1.00  0.00     0.128 C 
HETATM   19  O4  UNL     1      -3.701  38.415  10.757  1.00  0.00    -0.298 OA
HETATM   20  C24 UNL     1      -1.889  37.637   9.470  1.00  0.00     0.083 C 
HETATM   21  C25 UNL     1      -3.972  34.744   7.554  1.00  0.00     0.038 C 
ENDROOT
BRANCH   1  22
HETATM   22  C3  UNL     1      -5.932  34.771   3.133  1.00  0.00     0.112 C 
BRANCH  22  23
HETATM   23  C2  UNL     1      -5.868  35.880   2.112  1.00  0.00     0.192 C 
BRANCH  23  24
HETATM   24  O1  UNL     1      -6.480  36.999   2.728  1.00  0.00    -0.394 OA
HETATM   25  C1  UNL     1      -7.334  37.635   1.828  1.00  0.00     0.201 C 
ENDBRANCH  23  24
ENDBRANCH  22  23
BRANCH  22  26
HETATM   26  N1  UNL     1      -7.218  34.101   2.870  1.00  0.00    -0.354 N 
HETATM   27  C4  UNL     1      -7.510  33.477   1.655  1.00  0.00     0.214 C 
HETATM   28  C5  UNL     1      -8.828  32.821   1.466  1.00  0.00     0.117 C 
HETATM   29  O2  UNL     1      -6.685  33.452   0.705  1.00  0.00    -0.274 OA
ATOM     30  H1  UNL     1      -7.924  34.092   3.605  1.00  0.00     0.162 HD
ENDBRANCH  22  26
ENDBRANCH   1  22
BRANCH   4  31
HETATM   31  O3  UNL     1      -6.107  35.811   7.145  1.00  0.00    -0.389 OA
ATOM     32  H3  UNL     1      -5.647  36.636   7.244  1.00  0.00     0.210 HD
ENDBRANCH   4  31
TORSDOF 5
ENDMDL
MODEL 3
REMARK VINA RESULT: -6.283157921      0.730      2.073
REMARK  5 active torsions:
REMARK  status: ('A' for Active; 'I' for Inactive)
REMARK    1  A    between atoms: O1_2  and  C2_3 
REMARK    2  A    between atoms: C2_3  and  C3_4 
REMARK    3  A    between atoms: C3_4  and  N1_5 
REMARK    4  A    between atoms: C3_4  and  C6_10 
REMARK       I    between atoms: N1_5  and  C4_7 
REMARK    5  A    between atoms: C9_13  and  O3_14 
ROOT
HETATM    1  C6  UNL     1      -5.715  34.692   2.104  1.00  0.00     0.017 C 
HETATM    2  C7  UNL     1      -7.103  34.067   2.222  1.00  0.00     0.010 C 
HETATM    3  C8  UNL     1      -7.884  34.584   1.017  1.00  0.00     0.039 C 
HETATM    4  C9  UNL     1      -6.722  34.579  -0.004  1.00  0.00     0.067 C 
HETATM    5  C10 UNL     1      -5.747  35.430   0.827  1.00  0.00     0.027 C 
HETATM    6  C11 UNL     1      -4.469  35.466   0.057  1.00  0.00     0.009 C 
HETATM    7  C12 UNL     1      -4.669  36.028  -1.347  1.00  0.00     0.010 C 
HETATM    8  C13 UNL     1      -6.036  36.272  -1.765  1.00  0.00    -0.032 C 
HETATM    9  C14 UNL     1      -6.461  37.686  -1.291  1.00  0.00     0.016 C 
HETATM   10  C15 UNL     1      -6.624  35.970  -3.059  1.00  0.00     0.008 C 
HETATM   11  C16 UNL     1      -6.062  35.926  -4.370  1.00  0.00    -0.002 C 
HETATM   12  C17 UNL     1      -7.154  35.415  -5.328  1.00  0.00     0.005 C 
HETATM   13  C18 UNL     1      -8.526  35.789  -4.974  1.00  0.00     0.000 C 
HETATM   14  C19 UNL     1      -9.151  35.115  -3.826  1.00  0.00     0.001 C 
HETATM   15  C20 UNL     1      -8.359  34.152  -3.061  1.00  0.00     0.011 C 
HETATM   16  C21 UNL     1      -7.003  34.561  -2.570  1.00  0.00    -0.022 C 
HETATM   17  C22 UNL     1      -5.998  33.536  -2.864  1.00  0.00     0.088 C 
HETATM   18  C23 UNL     1      -5.338  33.650  -4.219  1.00  0.00     0.128 C 
HETATM   19  O4  UNL     1      -5.151  32.668  -4.921  1.00  0.00    -0.298 OA
HETATM   20  C24 UNL     1      -4.922  34.998  -4.670  1.00  0.00     0.083 C 
HETATM   21  C25 UNL     1      -7.052  35.241  -1.237  1.00  0.00     0.038 C 
ENDROOT
BRANCH   1  22
HETATM   22  C3  UNL     1      -5.506  35.504   3.338  1.00  0.00     0.112 C 
BRANCH  22  23
HETATM   23  C2  UNL     1      -6.008  34.856   4.605  1.00  0.00     0.192 C 
BRANCH  23  24
HETATM   24  O1  UNL     1      -4.937  34.945   5.527  1.00  0.00    -0.394 OA
HETATM   25  C1  UNL     1      -5.272  34.298   6.716  1.00  0.00     0.201 C 
ENDBRANCH  23  24
ENDBRANCH  22  23
BRANCH  22  26
HETATM   26  N1  UNL     1      -6.328  36.719   3.195  1.00  0.00    -0.354 N 
HETATM   27  C4  UNL     1      -5.776  38.000   3.125  1.00  0.00     0.214 C 
HETATM   28  C5  UNL     1      -6.670  39.176   2.980  1.00  0.00     0.117 C 
HETATM   29  O2  UNL     1      -4.534  38.194   3.182  1.00  0.00    -0.274 OA
ATOM     30  H1  UNL     1      -7.341  36.620   3.146  1.00  0.00     0.162 HD
ENDBRANCH  22  26
ENDBRANCH   1  22
BRANCH   4  31
HETATM   31  O3  UNL     1      -6.358  33.253  -0.041  1.00  0.00    -0.389 OA
ATOM     32  H3  UNL     1      -6.480  33.028  -0.956  1.00  0.00     0.210 HD
ENDBRANCH   4  31
TORSDOF 5
ENDMDL
MODEL 4
REMARK VINA RESULT: -6.218248316      1.034      1.115
REMARK  5 active torsions:
REMARK  status: ('A' for Active; 'I' for Inactive)
REMARK    1  A    between atoms: O1_2  and  C2_3 
REMARK    2  A    between atoms: C2_3  and  C3_4 
REMARK    3  A    between atoms: C3_4  and  N1_5 
REMARK    4  A    between atoms: C3_4  and  C6_10 
REMARK       I    between atoms: N1_5  and  C4_7 
REMARK    5  A    between atoms: C9_13  and  O3_14 
ROOT
HETATM    1  C6  UNL     1      -5.738  34.684   2.110  1.00  0.00     0.017 C 
HETATM    2  C7  UNL     1      -7.131  34.068   2.220  1.00  0.00     0.010 C 
HETATM    3  C8  UNL     1      -7.901  34.587   1.008  1.00  0.00     0.039 C 
HETATM    4  C9  UNL     1      -6.733  34.572  -0.005  1.00  0.00     0.067 C 
HETATM    5  C10 UNL     1      -5.757  35.420   0.831  1.00  0.00     0.027 C 
HETATM    6  C11 UNL     1      -4.474  35.446   0.070  1.00  0.00     0.009 C 
HETATM    7  C12 UNL     1      -4.661  36.007  -1.337  1.00  0.00     0.010 C 
HETATM    8  C13 UNL     1      -6.024  36.258  -1.764  1.00  0.00    -0.032 C 
HETATM    9  C14 UNL     1      -6.443  37.676  -1.296  1.00  0.00     0.016 C 
HETATM   10  C15 UNL     1      -6.605  35.956  -3.062  1.00  0.00     0.008 C 
HETATM   11  C16 UNL     1      -6.034  35.907  -4.369  1.00  0.00    -0.002 C 
HETATM   12  C17 UNL     1      -7.123  35.400  -5.334  1.00  0.00     0.005 C 
HETATM   13  C18 UNL     1      -8.495  35.784  -4.990  1.00  0.00     0.000 C 
HETATM   14  C19 UNL     1      -9.132  35.116  -3.844  1.00  0.00     0.001 C 
HETATM   15  C20 UNL     1      -8.351  34.150  -3.071  1.00  0.00     0.011 C 
HETATM   16  C21 UNL     1      -6.996  34.551  -2.572  1.00  0.00    -0.022 C 
HETATM   17  C22 UNL     1      -5.995  33.519  -2.858  1.00  0.00     0.088 C 
HETATM   18  C23 UNL     1      -5.325  33.627  -4.208  1.00  0.00     0.128 C 
HETATM   19  O4  UNL     1      -5.140  32.642  -4.907  1.00  0.00    -0.298 OA
HETATM   20  C24 UNL     1      -4.898  34.971  -4.659  1.00  0.00     0.083 C 
HETATM   21  C25 UNL     1      -7.050  35.235  -1.241  1.00  0.00     0.038 C 
ENDROOT
BRANCH   1  22
HETATM   22  C3  UNL     1      -5.533  35.497   3.344  1.00  0.00     0.112 C 
BRANCH  22  23
HETATM   23  C2  UNL     1      -5.802  36.972   3.171  1.00  0.00     0.192 C 
BRANCH  23  24
HETATM   24  O1  UNL     1      -6.403  37.392   4.383  1.00  0.00    -0.394 OA
HETATM   25  C1  UNL     1      -5.728  38.500   4.894  1.00  0.00     0.201 C 
ENDBRANCH  23  24
ENDBRANCH  22  23
BRANCH  22  26
HETATM   26  N1  UNL     1      -4.098  35.420   3.674  1.00  0.00    -0.354 N 
HETATM   27  C4  UNL     1      -3.634  35.153   4.963  1.00  0.00     0.214 C 
HETATM   28  C5  UNL     1      -2.173  35.089   5.217  1.00  0.00     0.117 C 
HETATM   29  O2  UNL     1      -4.419  34.961   5.927  1.00  0.00    -0.274 OA
ATOM     30  H1  UNL     1      -3.417  35.568   2.930  1.00  0.00     0.162 HD
ENDBRANCH  22  26
ENDBRANCH   1  22
BRANCH   4  31
HETATM   31  O3  UNL     1      -6.376  33.245  -0.037  1.00  0.00    -0.389 OA
ATOM     32  H3  UNL     1      -5.939  33.165  -0.877  1.00  0.00     0.210 HD
ENDBRANCH   4  31
TORSDOF 5
ENDMDL
MODEL 5
REMARK VINA RESULT: -6.125692092      2.097      7.702
REMARK  5 active torsions:
REMARK  status: ('A' for Active; 'I' for Inactive)
REMARK    1  A    between atoms: O1_2  and  C2_3 
REMARK    2  A    between atoms: C2_3  and  C3_4 
REMARK    3  A    between atoms: C3_4  and  N1_5 
REMARK    4  A    between atoms: C3_4  and  C6_10 
REMARK       I    between atoms: N1_5  and  C4_7 
REMARK    5  A    between atoms: C9_13  and  O3_14 
ROOT
HETATM    1  C6  UNL     1      -6.923  35.161  -0.336  1.00  0.00     0.017 C 
HETATM    2  C7  UNL     1      -7.859  34.191   0.382  1.00  0.00     0.010 C 
HETATM    3  C8  UNL     1      -7.147  33.824   1.681  1.00  0.00     0.039 C 
HETATM    4  C9  UNL     1      -6.510  35.204   1.967  1.00  0.00     0.067 C 
HETATM    5  C10 UNL     1      -5.807  35.364   0.608  1.00  0.00     0.027 C 
HETATM    6  C11 UNL     1      -5.194  36.725   0.616  1.00  0.00     0.009 C 
HETATM    7  C12 UNL     1      -4.231  36.906   1.786  1.00  0.00     0.010 C 
HETATM    8  C13 UNL     1      -4.186  35.839   2.767  1.00  0.00    -0.032 C 
HETATM    9  C14 UNL     1      -3.181  34.760   2.289  1.00  0.00     0.016 C 
HETATM   10  C15 UNL     1      -4.136  35.979   4.212  1.00  0.00     0.008 C 
HETATM   11  C16 UNL     1      -3.572  36.989   5.049  1.00  0.00    -0.002 C 
HETATM   12  C17 UNL     1      -3.950  36.654   6.504  1.00  0.00     0.005 C 
HETATM   13  C18 UNL     1      -4.066  35.225   6.809  1.00  0.00     0.000 C 
HETATM   14  C19 UNL     1      -5.235  34.499   6.288  1.00  0.00     0.001 C 
HETATM   15  C20 UNL     1      -6.189  35.220   5.445  1.00  0.00     0.011 C 
HETATM   16  C21 UNL     1      -5.674  36.002   4.275  1.00  0.00    -0.022 C 
HETATM   17  C22 UNL     1      -6.254  37.346   4.234  1.00  0.00     0.088 C 
HETATM   18  C23 UNL     1      -5.508  38.395   5.026  1.00  0.00     0.128 C 
HETATM   19  O4  UNL     1      -6.099  39.203   5.727  1.00  0.00    -0.298 OA
HETATM   20  C24 UNL     1      -4.031  38.412   4.926  1.00  0.00     0.083 C 
HETATM   21  C25 UNL     1      -5.548  35.170   3.036  1.00  0.00     0.038 C 
ENDROOT
BRANCH   1  22
HETATM   22  C3  UNL     1      -6.582  34.535  -1.646  1.00  0.00     0.112 C 
BRANCH  22  23
HETATM   23  C2  UNL     1      -7.635  33.598  -2.183  1.00  0.00     0.192 C 
BRANCH  23  24
HETATM   24  O1  UNL     1      -7.806  33.958  -3.542  1.00  0.00    -0.394 OA
HETATM   25  C1  UNL     1      -8.673  35.045  -3.645  1.00  0.00     0.201 C 
ENDBRANCH  23  24
ENDBRANCH  22  23
BRANCH  22  26
HETATM   26  N1  UNL     1      -5.407  33.675  -1.417  1.00  0.00    -0.354 N 
HETATM   27  C4  UNL     1      -4.391  33.517  -2.362  1.00  0.00     0.214 C 
HETATM   28  C5  UNL     1      -3.238  32.635  -2.058  1.00  0.00     0.117 C 
HETATM   29  O2  UNL     1      -4.420  34.104  -3.474  1.00  0.00    -0.274 OA
ATOM     30  H1  UNL     1      -5.333  33.174  -0.532  1.00  0.00     0.162 HD
ENDBRANCH  22  26
ENDBRANCH   1  22
BRANCH   4  31
HETATM   31  O3  UNL     1      -7.606  36.025   2.088  1.00  0.00    -0.389 OA
ATOM     32  H3  UNL     1      -7.249  36.789   2.526  1.00  0.00     0.210 HD
ENDBRANCH   4  31
TORSDOF 5
ENDMDL
