MODEL 1
REMARK VINA RESULT: -8.950518920      0.000      0.000
REMARK  7 active torsions:
REMARK  status: ('A' for Active; 'I' for Inactive)
REMARK    1  A    between atoms: O1_2  and  C2_3 
REMARK    2  A    between atoms: C6_7  and  C7_8 
REMARK    3  A    between atoms: C7_8  and  N1_9 
REMARK    4  A    between atoms: N1_9  and  C8_11 
REMARK    5  A    between atoms: C10_17  and  N4_18 
REMARK    6  A    between atoms: N4_18  and  C11_20 
REMARK    7  A    between atoms: C11_20  and  C12_21 
ROOT
HETATM    1  C8  UNL     1      -5.884  35.034   3.698  1.00  0.00     0.124 A 
HETATM    2  N2  UNL     1      -6.786  34.705   2.770  1.00  0.00    -0.327 N 
ATOM      3  H2  UNL     1      -7.728  34.441   3.057  1.00  0.00     0.169 HD
HETATM    4  C9  UNL     1      -6.471  34.717   1.455  1.00  0.00     0.120 A 
HETATM    5  N3  UNL     1      -7.430  34.375   0.598  1.00  0.00    -0.328 N 
ATOM      6  H3  UNL     1      -8.358  34.118   0.933  1.00  0.00     0.169 HD
HETATM    7  C10 UNL     1      -7.153  34.376  -0.718  1.00  0.00     0.104 A 
HETATM    8  C18 UNL     1      -5.905  34.723  -1.179  1.00  0.00     0.072 A 
HETATM    9  C19 UNL     1      -4.901  35.081  -0.271  1.00  0.00     0.062 A 
HETATM   10  C20 UNL     1      -3.590  35.450  -0.679  1.00  0.00     0.100 C 
HETATM   11  N5  UNL     1      -2.522  35.759  -1.021  1.00  0.00    -0.191 NA
HETATM   12  C21 UNL     1      -5.194  35.077   1.075  1.00  0.00     0.030 A 
HETATM   13  C22 UNL     1      -4.228  35.425   1.992  1.00  0.00     0.043 A 
HETATM   14  C23 UNL     1      -4.602  35.396   3.341  1.00  0.00     0.089 A 
HETATM   15  C24 UNL     1      -3.682  35.738   4.376  1.00  0.00     0.103 C 
HETATM   16  N6  UNL     1      -2.923  36.001   5.211  1.00  0.00    -0.191 NA
ENDROOT
BRANCH   7  17
HETATM   17  N4  UNL     1      -8.062  34.052  -1.541  1.00  0.00    -0.372 N 
ATOM     18  H4  UNL     1      -8.948  33.748  -1.138  1.00  0.00     0.161 HD
BRANCH  17  19
HETATM   19  C11 UNL     1      -7.990  34.065  -2.963  1.00  0.00     0.159 C 
BRANCH  19  20
HETATM   20  C12 UNL     1      -8.736  35.175  -3.582  1.00  0.00    -0.041 A 
HETATM   21  C13 UNL     1      -8.110  36.389  -3.734  1.00  0.00     0.009 A 
HETATM   22  C14 UNL     1      -8.789  37.465  -4.318  1.00  0.00     0.001 A 
HETATM   23  C15 UNL     1     -10.083  37.309  -4.738  1.00  0.00     0.000 A 
HETATM   24  C16 UNL     1     -10.728  36.104  -4.596  1.00  0.00     0.001 A 
HETATM   25  C17 UNL     1     -10.031  35.043  -4.011  1.00  0.00     0.009 A 
ENDBRANCH  19  20
ENDBRANCH  17  19
ENDBRANCH   7  17
BRANCH   1  26
HETATM   26  N1  UNL     1      -6.204  35.015   4.941  1.00  0.00    -0.371 N 
ATOM     27  H1  UNL     1      -5.985  35.808   5.545  1.00  0.00     0.161 HD
BRANCH  26  28
HETATM   28  C7  UNL     1      -6.881  33.853   5.474  1.00  0.00     0.160 C 
BRANCH  28  29
HETATM   29  C6  UNL     1      -6.131  33.257   6.598  1.00  0.00    -0.038 A 
HETATM   30  C5  UNL     1      -6.506  32.027   7.085  1.00  0.00     0.009 A 
HETATM   31  C4  UNL     1      -5.780  31.504   8.136  1.00  0.00     0.003 A 
HETATM   32  C3  UNL     1      -4.709  32.204   8.677  1.00  0.00     0.037 A 
HETATM   33  C2  UNL     1      -4.343  33.436   8.181  1.00  0.00     0.068 A 
HETATM   34  C25 UNL     1      -5.063  33.951   7.140  1.00  0.00     0.045 A 
BRANCH  33  35
HETATM   35  O1  UNL     1      -3.256  34.138   8.736  1.00  0.00    -0.356 OA
HETATM   36  C1  UNL     1      -2.956  33.999  10.111  1.00  0.00     0.210 C 
ENDBRANCH  33  35
ENDBRANCH  28  29
ENDBRANCH  26  28
ENDBRANCH   1  26
TORSDOF 7
ENDMDL
MODEL 2
REMARK VINA RESULT: -8.863286685      3.005     10.054
REMARK  7 active torsions:
REMARK  status: ('A' for Active; 'I' for Inactive)
REMARK    1  A    between atoms: O1_2  and  C2_3 
REMARK    2  A    between atoms: C6_7  and  C7_8 
REMARK    3  A    between atoms: C7_8  and  N1_9 
REMARK    4  A    between atoms: N1_9  and  C8_11 
REMARK    5  A    between atoms: C10_17  and  N4_18 
REMARK    6  A    between atoms: N4_18  and  C11_20 
REMARK    7  A    between atoms: C11_20  and  C12_21 
ROOT
HETATM    1  C8  UNL     1      -7.399  34.352   1.477  1.00  0.00     0.124 A 
HETATM    2  N2  UNL     1      -7.547  33.641   2.597  1.00  0.00    -0.327 N 
ATOM      3  H2  UNL     1      -8.171  32.833   2.599  1.00  0.00     0.169 HD
HETATM    4  C9  UNL     1      -6.885  33.972   3.727  1.00  0.00     0.120 A 
HETATM    5  N3  UNL     1      -7.091  33.209   4.799  1.00  0.00    -0.328 N 
ATOM      6  H3  UNL     1      -7.725  32.412   4.753  1.00  0.00     0.169 HD
HETATM    7  C10 UNL     1      -6.449  33.509   5.941  1.00  0.00     0.104 A 
HETATM    8  C18 UNL     1      -5.591  34.581   6.011  1.00  0.00     0.072 A 
HETATM    9  C19 UNL     1      -5.379  35.379   4.881  1.00  0.00     0.062 A 
HETATM   10  C20 UNL     1      -4.507  36.502   4.883  1.00  0.00     0.100 C 
HETATM   11  N5  UNL     1      -3.785  37.414   4.891  1.00  0.00    -0.191 NA
HETATM   12  C21 UNL     1      -6.042  35.064   3.715  1.00  0.00     0.030 A 
HETATM   13  C22 UNL     1      -5.853  35.830   2.586  1.00  0.00     0.043 A 
HETATM   14  C23 UNL     1      -6.562  35.448   1.441  1.00  0.00     0.089 A 
HETATM   15  C24 UNL     1      -6.443  36.168   0.216  1.00  0.00     0.103 C 
HETATM   16  N6  UNL     1      -6.353  36.770  -0.770  1.00  0.00    -0.191 NA
ENDROOT
BRANCH   7  17
HETATM   17  N4  UNL     1      -6.640  32.786   6.966  1.00  0.00    -0.372 N 
ATOM     18  H4  UNL     1      -7.448  33.022   7.540  1.00  0.00     0.161 HD
BRANCH  17  19
HETATM   19  C11 UNL     1      -5.856  31.681   7.407  1.00  0.00     0.159 C 
BRANCH  19  20
HETATM   20  C12 UNL     1      -5.149  31.930   8.675  1.00  0.00    -0.041 A 
HETATM   21  C13 UNL     1      -5.428  31.130   9.757  1.00  0.00     0.009 A 
HETATM   22  C14 UNL     1      -4.775  31.338  10.977  1.00  0.00     0.001 A 
HETATM   23  C15 UNL     1      -3.854  32.344  11.096  1.00  0.00     0.000 A 
HETATM   24  C16 UNL     1      -3.558  33.156  10.027  1.00  0.00     0.001 A 
HETATM   25  C17 UNL     1      -4.222  32.930   8.819  1.00  0.00     0.009 A 
ENDBRANCH  19  20
ENDBRANCH  17  19
ENDBRANCH   7  17
BRANCH   1  26
HETATM   26  N1  UNL     1      -8.038  34.020   0.414  1.00  0.00    -0.371 N 
ATOM     27  H1  UNL     1      -8.893  34.509   0.149  1.00  0.00     0.161 HD
BRANCH  26  28
HETATM   28  C7  UNL     1      -7.528  32.940  -0.403  1.00  0.00     0.160 C 
BRANCH  28  29
HETATM   29  C6  UNL     1      -7.091  33.422  -1.728  1.00  0.00    -0.038 A 
HETATM   30  C5  UNL     1      -5.773  33.287  -2.096  1.00  0.00     0.009 A 
HETATM   31  C4  UNL     1      -5.404  33.750  -3.344  1.00  0.00     0.003 A 
HETATM   32  C3  UNL     1      -6.339  34.332  -4.190  1.00  0.00     0.037 A 
HETATM   33  C2  UNL     1      -7.657  34.463  -3.810  1.00  0.00     0.068 A 
HETATM   34  C25 UNL     1      -8.019  34.003  -2.576  1.00  0.00     0.045 A 
BRANCH  33  35
HETATM   35  O1  UNL     1      -8.597  35.055  -4.675  1.00  0.00    -0.356 OA
HETATM   36  C1  UNL     1      -9.884  35.387  -4.193  1.00  0.00     0.210 C 
ENDBRANCH  33  35
ENDBRANCH  28  29
ENDBRANCH  26  28
ENDBRANCH   1  26
TORSDOF 7
ENDMDL
MODEL 3
REMARK VINA RESULT: -8.822588260      2.088      2.648
REMARK  7 active torsions:
REMARK  status: ('A' for Active; 'I' for Inactive)
REMARK    1  A    between atoms: O1_2  and  C2_3 
REMARK    2  A    between atoms: C6_7  and  C7_8 
REMARK    3  A    between atoms: C7_8  and  N1_9 
REMARK    4  A    between atoms: N1_9  and  C8_11 
REMARK    5  A    between atoms: C10_17  and  N4_18 
REMARK    6  A    between atoms: N4_18  and  C11_20 
REMARK    7  A    between atoms: C11_20  and  C12_21 
ROOT
HETATM    1  C8  UNL     1      -6.026  35.995   4.810  1.00  0.00     0.124 A 
HETATM    2  N2  UNL     1      -6.060  35.043   3.874  1.00  0.00    -0.327 N 
ATOM      3  H2  UNL     1      -5.934  34.068   4.146  1.00  0.00     0.169 HD
HETATM    4  C9  UNL     1      -6.260  35.349   2.573  1.00  0.00     0.120 A 
HETATM    5  N3  UNL     1      -6.280  34.339   1.707  1.00  0.00    -0.328 N 
ATOM      6  H3  UNL     1      -6.148  33.380   2.026  1.00  0.00     0.169 HD
HETATM    7  C10 UNL     1      -6.477  34.606   0.404  1.00  0.00     0.104 A 
HETATM    8  C18 UNL     1      -6.656  35.897  -0.035  1.00  0.00     0.072 A 
HETATM    9  C19 UNL     1      -6.633  36.955   0.881  1.00  0.00     0.062 A 
HETATM   10  C20 UNL     1      -6.812  38.312   0.496  1.00  0.00     0.100 C 
HETATM   11  N5  UNL     1      -6.967  39.419   0.174  1.00  0.00    -0.191 NA
HETATM   12  C21 UNL     1      -6.431  36.671   2.214  1.00  0.00     0.030 A 
HETATM   13  C22 UNL     1      -6.405  37.690   3.140  1.00  0.00     0.043 A 
HETATM   14  C23 UNL     1      -6.193  37.322   4.474  1.00  0.00     0.089 A 
HETATM   15  C24 UNL     1      -6.147  38.295   5.516  1.00  0.00     0.103 C 
HETATM   16  N6  UNL     1      -6.095  39.094   6.354  1.00  0.00    -0.191 NA
ENDROOT
BRANCH   7  17
HETATM   17  N4  UNL     1      -6.498  33.648  -0.427  1.00  0.00    -0.372 N 
ATOM     18  H4  UNL     1      -5.651  33.083  -0.486  1.00  0.00     0.161 HD
BRANCH  17  19
HETATM   19  C11 UNL     1      -7.567  33.270  -1.288  1.00  0.00     0.159 C 
BRANCH  19  20
HETATM   20  C12 UNL     1      -7.493  33.885  -2.625  1.00  0.00    -0.041 A 
HETATM   21  C13 UNL     1      -6.358  33.698  -3.378  1.00  0.00     0.009 A 
HETATM   22  C14 UNL     1      -6.254  34.268  -4.652  1.00  0.00     0.001 A 
HETATM   23  C15 UNL     1      -7.286  35.016  -5.152  1.00  0.00     0.000 A 
HETATM   24  C16 UNL     1      -8.429  35.216  -4.417  1.00  0.00     0.001 A 
HETATM   25  C17 UNL     1      -8.512  34.637  -3.148  1.00  0.00     0.009 A 
ENDBRANCH  19  20
ENDBRANCH  17  19
ENDBRANCH   7  17
BRANCH   1  26
HETATM   26  N1  UNL     1      -5.834  35.682   6.040  1.00  0.00    -0.371 N 
ATOM     27  H1  UNL     1      -6.506  35.959   6.756  1.00  0.00     0.161 HD
BRANCH  26  28
HETATM   28  C7  UNL     1      -4.650  34.930   6.396  1.00  0.00     0.160 C 
BRANCH  28  29
HETATM   29  C6  UNL     1      -4.990  33.712   7.157  1.00  0.00    -0.038 A 
HETATM   30  C5  UNL     1      -6.087  32.969   6.790  1.00  0.00     0.009 A 
HETATM   31  C4  UNL     1      -6.371  31.836   7.527  1.00  0.00     0.003 A 
HETATM   32  C3  UNL     1      -5.571  31.468   8.601  1.00  0.00     0.037 A 
HETATM   33  C2  UNL     1      -4.474  32.221   8.960  1.00  0.00     0.068 A 
HETATM   34  C25 UNL     1      -4.195  33.341   8.229  1.00  0.00     0.045 A 
BRANCH  33  35
HETATM   35  O1  UNL     1      -3.668  31.840  10.050  1.00  0.00    -0.356 OA
HETATM   36  C1  UNL     1      -3.506  32.718  11.146  1.00  0.00     0.210 C 
ENDBRANCH  33  35
ENDBRANCH  28  29
ENDBRANCH  26  28
ENDBRANCH   1  26
TORSDOF 7
ENDMDL
MODEL 4
REMARK VINA RESULT: -8.753446752      2.920      9.681
REMARK  7 active torsions:
REMARK  status: ('A' for Active; 'I' for Inactive)
REMARK    1  A    between atoms: O1_2  and  C2_3 
REMARK    2  A    between atoms: C6_7  and  C7_8 
REMARK    3  A    between atoms: C7_8  and  N1_9 
REMARK    4  A    between atoms: N1_9  and  C8_11 
REMARK    5  A    between atoms: C10_17  and  N4_18 
REMARK    6  A    between atoms: N4_18  and  C11_20 
REMARK    7  A    between atoms: C11_20  and  C12_21 
ROOT
HETATM    1  C8  UNL     1      -7.506  34.351   1.547  1.00  0.00     0.124 A 
HETATM    2  N2  UNL     1      -7.624  33.637   2.669  1.00  0.00    -0.327 N 
ATOM      3  H2  UNL     1      -8.238  32.823   2.683  1.00  0.00     0.169 HD
HETATM    4  C9  UNL     1      -6.942  33.975   3.786  1.00  0.00     0.120 A 
HETATM    5  N3  UNL     1      -7.118  33.209   4.860  1.00  0.00    -0.328 N 
ATOM      6  H3  UNL     1      -7.744  32.404   4.827  1.00  0.00     0.169 HD
HETATM    7  C10 UNL     1      -6.456  33.514   5.990  1.00  0.00     0.104 A 
HETATM    8  C18 UNL     1      -5.609  34.595   6.044  1.00  0.00     0.072 A 
HETATM    9  C19 UNL     1      -5.429  35.398   4.911  1.00  0.00     0.062 A 
HETATM   10  C20 UNL     1      -4.570  36.530   4.897  1.00  0.00     0.100 C 
HETATM   11  N5  UNL     1      -3.858  37.451   4.892  1.00  0.00    -0.191 NA
HETATM   12  C21 UNL     1      -6.112  35.077   3.758  1.00  0.00     0.030 A 
HETATM   13  C22 UNL     1      -5.956  35.846   2.627  1.00  0.00     0.043 A 
HETATM   14  C23 UNL     1      -6.683  35.457   1.496  1.00  0.00     0.089 A 
HETATM   15  C24 UNL     1      -6.597  36.180   0.270  1.00  0.00     0.103 C 
HETATM   16  N6  UNL     1      -6.534  36.784  -0.717  1.00  0.00    -0.191 NA
ENDROOT
BRANCH   7  17
HETATM   17  N4  UNL     1      -6.618  32.787   7.017  1.00  0.00    -0.372 N 
ATOM     18  H4  UNL     1      -7.403  33.028   7.621  1.00  0.00     0.161 HD
BRANCH  17  19
HETATM   19  C11 UNL     1      -5.830  31.674   7.425  1.00  0.00     0.159 C 
BRANCH  19  20
HETATM   20  C12 UNL     1      -5.152  31.873   8.719  1.00  0.00    -0.041 A 
HETATM   21  C13 UNL     1      -4.230  32.886   8.833  1.00  0.00     0.009 A 
HETATM   22  C14 UNL     1      -3.568  33.103  10.047  1.00  0.00     0.001 A 
HETATM   23  C15 UNL     1      -3.838  32.305  11.126  1.00  0.00     0.000 A 
HETATM   24  C16 UNL     1      -4.757  31.287  11.034  1.00  0.00     0.001 A 
HETATM   25  C17 UNL     1      -5.406  31.088   9.813  1.00  0.00     0.009 A 
ENDBRANCH  19  20
ENDBRANCH  17  19
ENDBRANCH   7  17
BRANCH   1  26
HETATM   26  N1  UNL     1      -8.164  34.013   0.497  1.00  0.00    -0.371 N 
ATOM     27  H1  UNL     1      -8.981  34.548   0.203  1.00  0.00     0.161 HD
BRANCH  26  28
HETATM   28  C7  UNL     1      -7.727  32.862  -0.263  1.00  0.00     0.160 C 
BRANCH  28  29
HETATM   29  C6  UNL     1      -7.079  33.262  -1.527  1.00  0.00    -0.038 A 
HETATM   30  C5  UNL     1      -7.853  33.690  -2.580  1.00  0.00     0.009 A 
HETATM   31  C4  UNL     1      -7.209  34.056  -3.744  1.00  0.00     0.003 A 
HETATM   32  C3  UNL     1      -5.825  33.990  -3.841  1.00  0.00     0.037 A 
HETATM   33  C2  UNL     1      -5.058  33.559  -2.780  1.00  0.00     0.068 A 
HETATM   34  C25 UNL     1      -5.699  33.199  -1.629  1.00  0.00     0.045 A 
BRANCH  33  35
HETATM   35  O1  UNL     1      -3.656  33.496  -2.888  1.00  0.00    -0.356 OA
HETATM   36  C1  UNL     1      -2.911  32.750  -1.945  1.00  0.00     0.210 C 
ENDBRANCH  33  35
ENDBRANCH  28  29
ENDBRANCH  26  28
ENDBRANCH   1  26
TORSDOF 7
ENDMDL
MODEL 5
REMARK VINA RESULT: -8.498427881      2.625      3.823
REMARK  7 active torsions:
REMARK  status: ('A' for Active; 'I' for Inactive)
REMARK    1  A    between atoms: O1_2  and  C2_3 
REMARK    2  A    between atoms: C6_7  and  C7_8 
REMARK    3  A    between atoms: C7_8  and  N1_9 
REMARK    4  A    between atoms: N1_9  and  C8_11 
REMARK    5  A    between atoms: C10_17  and  N4_18 
REMARK    6  A    between atoms: N4_18  and  C11_20 
REMARK    7  A    between atoms: C11_20  and  C12_21 
ROOT
HETATM    1  C8  UNL     1      -5.792  34.954   3.655  1.00  0.00     0.124 A 
HETATM    2  N2  UNL     1      -5.720  35.381   2.392  1.00  0.00    -0.327 N 
ATOM      3  H2  UNL     1      -5.073  36.133   2.153  1.00  0.00     0.169 HD
HETATM    4  C9  UNL     1      -6.488  34.833   1.424  1.00  0.00     0.120 A 
HETATM    5  N3  UNL     1      -6.353  35.318   0.193  1.00  0.00    -0.328 N 
ATOM      6  H3  UNL     1      -5.693  36.072   0.002  1.00  0.00     0.169 HD
HETATM    7  C10 UNL     1      -7.101  34.798  -0.796  1.00  0.00     0.104 A 
HETATM    8  C18 UNL     1      -7.993  33.781  -0.548  1.00  0.00     0.072 A 
HETATM    9  C19 UNL     1      -8.130  33.275   0.750  1.00  0.00     0.062 A 
HETATM   10  C20 UNL     1      -9.033  32.226   1.077  1.00  0.00     0.100 C 
HETATM   11  N5  UNL     1      -9.767  31.361   1.334  1.00  0.00    -0.191 NA
HETATM   12  C21 UNL     1      -7.359  33.815   1.756  1.00  0.00     0.030 A 
HETATM   13  C22 UNL     1      -7.472  33.339   3.043  1.00  0.00     0.043 A 
HETATM   14  C23 UNL     1      -6.656  33.939   4.009  1.00  0.00     0.089 A 
HETATM   15  C24 UNL     1      -6.689  33.525   5.373  1.00  0.00     0.103 C 
HETATM   16  N6  UNL     1      -6.735  33.194   6.483  1.00  0.00    -0.191 NA
ENDROOT
BRANCH   7  17
HETATM   17  N4  UNL     1      -6.976  35.255  -1.972  1.00  0.00    -0.372 N 
ATOM     18  H4  UNL     1      -6.389  36.082  -2.075  1.00  0.00     0.161 HD
BRANCH  17  19
HETATM   19  C11 UNL     1      -7.562  34.747  -3.167  1.00  0.00     0.159 C 
BRANCH  19  20
HETATM   20  C12 UNL     1      -8.580  35.639  -3.749  1.00  0.00    -0.041 A 
HETATM   21  C13 UNL     1      -9.845  35.148  -3.964  1.00  0.00     0.009 A 
HETATM   22  C14 UNL     1     -10.837  35.967  -4.516  1.00  0.00     0.001 A 
HETATM   23  C15 UNL     1     -10.546  37.264  -4.845  1.00  0.00     0.000 A 
HETATM   24  C16 UNL     1      -9.288  37.776  -4.639  1.00  0.00     0.001 A 
HETATM   25  C17 UNL     1      -8.314  36.941  -4.086  1.00  0.00     0.009 A 
ENDBRANCH  19  20
ENDBRANCH  17  19
ENDBRANCH   7  17
BRANCH   1  26
HETATM   26  N1  UNL     1      -5.053  35.489   4.559  1.00  0.00    -0.371 N 
ATOM     27  H1  UNL     1      -4.281  34.967   4.974  1.00  0.00     0.161 HD
BRANCH  26  28
HETATM   28  C7  UNL     1      -5.331  36.845   4.979  1.00  0.00     0.160 C 
BRANCH  28  29
HETATM   29  C6  UNL     1      -5.405  36.952   6.450  1.00  0.00    -0.038 A 
HETATM   30  C5  UNL     1      -4.692  36.071   7.229  1.00  0.00     0.009 A 
HETATM   31  C4  UNL     1      -4.787  36.205   8.600  1.00  0.00     0.003 A 
HETATM   32  C3  UNL     1      -5.578  37.197   9.164  1.00  0.00     0.037 A 
HETATM   33  C2  UNL     1      -6.289  38.073   8.374  1.00  0.00     0.068 A 
HETATM   34  C25 UNL     1      -6.192  37.940   7.017  1.00  0.00     0.045 A 
BRANCH  33  35
HETATM   35  O1  UNL     1      -7.089  39.076   8.954  1.00  0.00    -0.356 OA
HETATM   36  C1  UNL     1      -6.489  40.089   9.737  1.00  0.00     0.210 C 
ENDBRANCH  33  35
ENDBRANCH  28  29
ENDBRANCH  26  28
ENDBRANCH   1  26
TORSDOF 7
ENDMDL
