MODEL 1
REMARK VINA RESULT: -6.871627719      0.000      0.000
REMARK  11 active torsions:
REMARK  status: ('A' for Active; 'I' for Inactive)
REMARK    1  A    between atoms: C2_2  and  C3_3 
REMARK    2  A    between atoms: C2_2  and  C27_35 
REMARK    3  A    between atoms: C4_4  and  C5_5 
REMARK    4  A    between atoms: C5_5  and  O1_6 
REMARK    5  A    between atoms: C5_5  and  C6_8 
REMARK    6  A    between atoms: C6_8  and  O2_9 
REMARK    7  A    between atoms: O2_9  and  C7_10 
REMARK    8  A    between atoms: C13_19  and  C15_21 
REMARK    9  A    between atoms: C19_26  and  C20_27 
REMARK   10  A    between atoms: C24_32  and  C26_34 
REMARK   11  A    between atoms: C27_35  and  O6_36 
ROOT
HETATM    1  C7  UNL     1      12.523  54.353  92.831  1.00  0.00     0.122 C 
HETATM    2  C8  UNL     1      12.994  54.788  94.189  1.00  0.00     0.033 C 
HETATM    3  C9  UNL     1      12.661  53.504  94.979  1.00  0.00     0.022 C 
HETATM    4  C10 UNL     1      11.374  53.029  94.545  1.00  0.00     0.050 C 
HETATM    5  C11 UNL     1      11.204  53.699  93.170  1.00  0.00     0.051 C 
HETATM    6  C12 UNL     1      11.469  51.552  94.244  1.00  0.00     0.227 C 
HETATM    7  O3  UNL     1      12.380  51.053  93.501  1.00  0.00    -0.273 OA
HETATM    8  N1  UNL     1      10.401  50.904  94.921  1.00  0.00    -0.351 N 
ATOM      9  H1  UNL     1      10.384  49.952  95.287  1.00  0.00     0.163 HD
HETATM   10  C13 UNL     1       9.355  51.876  94.977  1.00  0.00     0.039 C 
HETATM   11  C14 UNL     1       8.776  51.979  93.556  1.00  0.00     0.039 C 
HETATM   12  C26 UNL     1      10.154  53.134  95.342  1.00  0.00     0.040 C 
ENDROOT
BRANCH  12  13
HETATM   13  C24 UNL     1      10.220  53.455  96.766  1.00  0.00    -0.025 C 
HETATM   14  C20 UNL     1      10.110  54.984  96.937  1.00  0.00     0.075 C 
HETATM   15  C21 UNL     1      10.471  55.124  98.349  1.00  0.00     0.132 C 
HETATM   16  O5  UNL     1      10.051  55.843  99.210  1.00  0.00    -0.298 OA
HETATM   17  C22 UNL     1      11.565  54.124  98.582  1.00  0.00     0.079 C 
HETATM   18  C23 UNL     1      11.669  53.333  97.271  1.00  0.00     0.018 C 
HETATM   19  C25 UNL     1       9.252  52.868  97.710  1.00  0.00     0.016 C 
BRANCH  14  20
HETATM   20  C19 UNL     1       8.757  55.361  96.550  1.00  0.00     0.073 C 
HETATM   21  C15 UNL     1       8.910  56.678  95.774  1.00  0.00     0.026 C 
HETATM   22  C16 UNL     1       7.492  57.012  95.532  1.00  0.00     0.015 C 
HETATM   23  C17 UNL     1       6.853  56.704  96.896  1.00  0.00     0.079 C 
HETATM   24  C18 UNL     1       7.833  55.798  97.592  1.00  0.00     0.132 C 
HETATM   25  O4  UNL     1       7.792  55.542  98.762  1.00  0.00    -0.298 OA
ENDBRANCH  14  20
ENDBRANCH  12  13
BRANCH   1  26
HETATM   26  O2  UNL     1      13.398  53.509  92.183  1.00  0.00    -0.383 OA
BRANCH  26  27
HETATM   27  C6  UNL     1      14.161  54.236  91.240  1.00  0.00     0.203 C 
BRANCH  27  28
HETATM   28  C5  UNL     1      13.180  54.868  90.239  1.00  0.00     0.164 C 
BRANCH  28  29
HETATM   29  C4  UNL     1      13.246  54.103  88.985  1.00  0.00     0.003 C 
HETATM   30  C3  UNL     1      12.306  53.234  88.667  1.00  0.00    -0.022 C 
BRANCH  30  31
HETATM   31  C2  UNL     1      11.164  53.016  89.575  1.00  0.00     0.027 C 
HETATM   32  C1  UNL     1      11.254  51.594  90.137  1.00  0.00     0.016 C 
BRANCH  31  33
HETATM   33  C27 UNL     1       9.897  53.156  88.746  1.00  0.00     0.172 C 
BRANCH  33  34
HETATM   34  O6  UNL     1       9.365  54.403  88.980  1.00  0.00    -0.400 OA
ATOM     35  H6  UNL     1       9.317  54.866  88.151  1.00  0.00     0.209 HD
ENDBRANCH  33  34
ENDBRANCH  31  33
ENDBRANCH  30  31
ENDBRANCH  28  29
BRANCH  28  36
HETATM   36  O1  UNL     1      13.618  56.200  90.057  1.00  0.00    -0.390 OA
ATOM     37  H1  UNL     1      12.902  56.818  90.154  1.00  0.00     0.210 HD
ENDBRANCH  28  36
ENDBRANCH  27  28
ENDBRANCH  26  27
ENDBRANCH   1  26
TORSDOF 11
ENDMDL
MODEL 2
REMARK VINA RESULT: -6.752555266      2.427      3.395
REMARK  11 active torsions:
REMARK  status: ('A' for Active; 'I' for Inactive)
REMARK    1  A    between atoms: C2_2  and  C3_3 
REMARK    2  A    between atoms: C2_2  and  C27_35 
REMARK    3  A    between atoms: C4_4  and  C5_5 
REMARK    4  A    between atoms: C5_5  and  O1_6 
REMARK    5  A    between atoms: C5_5  and  C6_8 
REMARK    6  A    between atoms: C6_8  and  O2_9 
REMARK    7  A    between atoms: O2_9  and  C7_10 
REMARK    8  A    between atoms: C13_19  and  C15_21 
REMARK    9  A    between atoms: C19_26  and  C20_27 
REMARK   10  A    between atoms: C24_32  and  C26_34 
REMARK   11  A    between atoms: C27_35  and  O6_36 
ROOT
HETATM    1  C7  UNL     1      13.208  54.455  90.657  1.00  0.00     0.122 C 
HETATM    2  C8  UNL     1      13.758  54.058  91.999  1.00  0.00     0.033 C 
HETATM    3  C9  UNL     1      13.001  52.726  92.182  1.00  0.00     0.022 C 
HETATM    4  C10 UNL     1      11.643  52.917  91.749  1.00  0.00     0.050 C 
HETATM    5  C11 UNL     1      11.739  54.154  90.839  1.00  0.00     0.051 C 
HETATM    6  C12 UNL     1      11.256  51.787  90.823  1.00  0.00     0.227 C 
HETATM    7  O3  UNL     1      11.973  51.430  89.829  1.00  0.00    -0.273 OA
HETATM    8  N1  UNL     1      10.016  51.262  91.277  1.00  0.00    -0.351 N 
ATOM      9  H1  UNL     1       9.678  50.303  91.188  1.00  0.00     0.163 HD
HETATM   10  C13 UNL     1       9.345  52.369  91.884  1.00  0.00     0.039 C 
HETATM   11  C14 UNL     1       8.872  53.276  90.736  1.00  0.00     0.039 C 
HETATM   12  C26 UNL     1      10.502  53.013  92.658  1.00  0.00     0.040 C 
ENDROOT
BRANCH  12  13
HETATM   13  C24 UNL     1      10.630  52.615  94.058  1.00  0.00    -0.025 C 
HETATM   14  C20 UNL     1      11.508  53.650  94.791  1.00  0.00     0.075 C 
HETATM   15  C21 UNL     1      11.747  52.953  96.057  1.00  0.00     0.132 C 
HETATM   16  O5  UNL     1      11.808  53.351  97.185  1.00  0.00    -0.298 OA
HETATM   17  C22 UNL     1      11.923  51.509  95.689  1.00  0.00     0.079 C 
HETATM   18  C23 UNL     1      11.614  51.438  94.188  1.00  0.00     0.018 C 
HETATM   19  C25 UNL     1       9.431  52.431  94.895  1.00  0.00     0.016 C 
BRANCH  14  20
HETATM   20  C19 UNL     1      10.751  54.893  94.843  1.00  0.00     0.073 C 
HETATM   21  C15 UNL     1      11.804  56.004  94.969  1.00  0.00     0.026 C 
HETATM   22  C16 UNL     1      10.930  57.185  95.120  1.00  0.00     0.015 C 
HETATM   23  C17 UNL     1       9.867  56.674  96.107  1.00  0.00     0.079 C 
HETATM   24  C18 UNL     1       9.956  55.173  96.036  1.00  0.00     0.132 C 
HETATM   25  O4  UNL     1       9.452  54.435  96.833  1.00  0.00    -0.298 OA
ENDBRANCH  14  20
ENDBRANCH  12  13
BRANCH   1  26
HETATM   26  O2  UNL     1      13.776  53.776  89.602  1.00  0.00    -0.383 OA
BRANCH  26  27
HETATM   27  C6  UNL     1      13.464  54.427  88.386  1.00  0.00     0.203 C 
BRANCH  27  28
HETATM   28  C5  UNL     1      13.015  53.350  87.385  1.00  0.00     0.164 C 
BRANCH  28  29
HETATM   29  C4  UNL     1      13.395  53.791  86.034  1.00  0.00     0.003 C 
HETATM   30  C3  UNL     1      12.925  53.182  84.963  1.00  0.00    -0.022 C 
BRANCH  30  31
HETATM   31  C2  UNL     1      12.002  52.040  85.107  1.00  0.00     0.027 C 
HETATM   32  C1  UNL     1      12.616  50.827  84.400  1.00  0.00     0.016 C 
BRANCH  31  33
HETATM   33  C27 UNL     1      10.701  52.424  84.421  1.00  0.00     0.172 C 
BRANCH  33  34
HETATM   34  O6  UNL     1      10.087  53.396  85.176  1.00  0.00    -0.400 OA
ATOM     35  H6  UNL     1       9.553  52.967  85.834  1.00  0.00     0.209 HD
ENDBRANCH  33  34
ENDBRANCH  31  33
ENDBRANCH  30  31
ENDBRANCH  28  29
BRANCH  28  36
HETATM   36  O1  UNL     1      11.611  53.255  87.523  1.00  0.00    -0.390 OA
ATOM     37  H1  UNL     1      11.349  53.285  88.436  1.00  0.00     0.210 HD
ENDBRANCH  28  36
ENDBRANCH  27  28
ENDBRANCH  26  27
ENDBRANCH   1  26
TORSDOF 11
ENDMDL
MODEL 3
REMARK VINA RESULT: -6.492294120      3.615      6.498
REMARK  11 active torsions:
REMARK  status: ('A' for Active; 'I' for Inactive)
REMARK    1  A    between atoms: C2_2  and  C3_3 
REMARK    2  A    between atoms: C2_2  and  C27_35 
REMARK    3  A    between atoms: C4_4  and  C5_5 
REMARK    4  A    between atoms: C5_5  and  O1_6 
REMARK    5  A    between atoms: C5_5  and  C6_8 
REMARK    6  A    between atoms: C6_8  and  O2_9 
REMARK    7  A    between atoms: O2_9  and  C7_10 
REMARK    8  A    between atoms: C13_19  and  C15_21 
REMARK    9  A    between atoms: C19_26  and  C20_27 
REMARK   10  A    between atoms: C24_32  and  C26_34 
REMARK   11  A    between atoms: C27_35  and  O6_36 
ROOT
HETATM    1  C7  UNL     1      13.798  51.317  95.640  1.00  0.00     0.122 C 
HETATM    2  C8  UNL     1      12.397  50.843  95.905  1.00  0.00     0.033 C 
HETATM    3  C9  UNL     1      11.914  50.702  94.445  1.00  0.00     0.022 C 
HETATM    4  C10 UNL     1      12.390  51.837  93.702  1.00  0.00     0.050 C 
HETATM    5  C11 UNL     1      13.563  52.345  94.558  1.00  0.00     0.051 C 
HETATM    6  C12 UNL     1      13.030  51.355  92.421  1.00  0.00     0.227 C 
HETATM    7  O3  UNL     1      13.907  50.427  92.391  1.00  0.00    -0.273 OA
HETATM    8  N1  UNL     1      12.477  52.109  91.351  1.00  0.00    -0.351 N 
ATOM      9  H1  UNL     1      12.342  51.809  90.385  1.00  0.00     0.163 HD
HETATM   10  C13 UNL     1      12.151  53.378  91.922  1.00  0.00     0.039 C 
HETATM   11  C14 UNL     1      13.482  54.116  92.137  1.00  0.00     0.039 C 
HETATM   12  C26 UNL     1      11.539  52.939  93.259  1.00  0.00     0.040 C 
ENDROOT
BRANCH  12  13
HETATM   13  C24 UNL     1      10.084  52.810  93.280  1.00  0.00    -0.025 C 
HETATM   14  C20 UNL     1       9.551  53.403  94.602  1.00  0.00     0.075 C 
HETATM   15  C21 UNL     1       8.162  52.939  94.564  1.00  0.00     0.132 C 
HETATM   16  O5  UNL     1       7.139  53.466  94.894  1.00  0.00    -0.298 OA
HETATM   17  C22 UNL     1       8.219  51.555  93.989  1.00  0.00     0.079 C 
HETATM   18  C23 UNL     1       9.683  51.354  93.575  1.00  0.00     0.018 C 
HETATM   19  C25 UNL     1       9.265  53.405  92.208  1.00  0.00     0.016 C 
BRANCH  14  20
HETATM   20  C19 UNL     1       9.779  54.840  94.549  1.00  0.00     0.073 C 
HETATM   21  C15 UNL     1      11.251  55.031  94.947  1.00  0.00     0.026 C 
HETATM   22  C16 UNL     1      11.334  56.505  94.964  1.00  0.00     0.015 C 
HETATM   23  C17 UNL     1      10.029  56.893  95.677  1.00  0.00     0.079 C 
HETATM   24  C18 UNL     1       9.142  55.682  95.556  1.00  0.00     0.132 C 
HETATM   25  O4  UNL     1       8.140  55.522  96.193  1.00  0.00    -0.298 OA
ENDBRANCH  14  20
ENDBRANCH  12  13
BRANCH   1  26
HETATM   26  O2  UNL     1      14.661  50.313  95.259  1.00  0.00    -0.383 OA
BRANCH  26  27
HETATM   27  C6  UNL     1      14.842  49.402  96.325  1.00  0.00     0.203 C 
BRANCH  27  28
HETATM   28  C5  UNL     1      16.338  49.391  96.677  1.00  0.00     0.164 C 
BRANCH  28  29
HETATM   29  C4  UNL     1      16.851  50.764  96.547  1.00  0.00     0.003 C 
HETATM   30  C3  UNL     1      17.164  51.476  97.612  1.00  0.00    -0.022 C 
BRANCH  30  31
HETATM   31  C2  UNL     1      17.003  50.900  98.961  1.00  0.00     0.027 C 
HETATM   32  C1  UNL     1      15.620  51.288  99.494  1.00  0.00     0.016 C 
BRANCH  31  33
HETATM   33  C27 UNL     1      18.079  51.514  99.843  1.00  0.00     0.172 C 
BRANCH  33  34
HETATM   34  O6  UNL     1      19.114  51.925  99.036  1.00  0.00    -0.400 OA
ATOM     35  H6  UNL     1      19.294  52.838  99.227  1.00  0.00     0.209 HD
ENDBRANCH  33  34
ENDBRANCH  31  33
ENDBRANCH  30  31
ENDBRANCH  28  29
BRANCH  28  36
HETATM   36  O1  UNL     1      16.948  48.521  95.744  1.00  0.00    -0.390 OA
ATOM     37  H1  UNL     1      17.398  49.003  95.060  1.00  0.00     0.210 HD
ENDBRANCH  28  36
ENDBRANCH  27  28
ENDBRANCH  26  27
ENDBRANCH   1  26
TORSDOF 11
ENDMDL
MODEL 4
REMARK VINA RESULT: -6.454768206      7.307     13.374
REMARK  11 active torsions:
REMARK  status: ('A' for Active; 'I' for Inactive)
REMARK    1  A    between atoms: C2_2  and  C3_3 
REMARK    2  A    between atoms: C2_2  and  C27_35 
REMARK    3  A    between atoms: C4_4  and  C5_5 
REMARK    4  A    between atoms: C5_5  and  O1_6 
REMARK    5  A    between atoms: C5_5  and  C6_8 
REMARK    6  A    between atoms: C6_8  and  O2_9 
REMARK    7  A    between atoms: O2_9  and  C7_10 
REMARK    8  A    between atoms: C13_19  and  C15_21 
REMARK    9  A    between atoms: C19_26  and  C20_27 
REMARK   10  A    between atoms: C24_32  and  C26_34 
REMARK   11  A    between atoms: C27_35  and  O6_36 
ROOT
HETATM    1  C7  UNL     1      10.972  50.506  85.596  1.00  0.00     0.122 C 
HETATM    2  C8  UNL     1      12.252  50.545  84.810  1.00  0.00     0.033 C 
HETATM    3  C9  UNL     1      11.838  51.568  83.730  1.00  0.00     0.022 C 
HETATM    4  C10 UNL     1      10.495  51.263  83.313  1.00  0.00     0.050 C 
HETATM    5  C11 UNL     1       9.947  50.434  84.488  1.00  0.00     0.051 C 
HETATM    6  C12 UNL     1       9.676  52.532  83.322  1.00  0.00     0.227 C 
HETATM    7  O3  UNL     1       9.641  53.328  84.320  1.00  0.00    -0.273 OA
HETATM    8  N1  UNL     1       9.010  52.625  82.070  1.00  0.00    -0.351 N 
ATOM      9  H1  UNL     1       8.738  53.473  81.573  1.00  0.00     0.163 HD
HETATM   10  C13 UNL     1       8.804  51.272  81.660  1.00  0.00     0.039 C 
HETATM   11  C14 UNL     1       7.678  50.712  82.545  1.00  0.00     0.039 C 
HETATM   12  C26 UNL     1      10.158  50.653  82.029  1.00  0.00     0.040 C 
ENDROOT
BRANCH  12  13
HETATM   13  C24 UNL     1      11.144  50.591  80.953  1.00  0.00    -0.025 C 
HETATM   14  C20 UNL     1      11.716  49.160  80.884  1.00  0.00     0.075 C 
HETATM   15  C21 UNL     1      12.847  49.365  79.975  1.00  0.00     0.132 C 
HETATM   16  O5  UNL     1      13.296  48.684  79.099  1.00  0.00    -0.298 OA
HETATM   17  C22 UNL     1      13.418  50.702  80.345  1.00  0.00     0.079 C 
HETATM   18  C23 UNL     1      12.451  51.275  81.390  1.00  0.00     0.018 C 
HETATM   19  C25 UNL     1      10.766  50.945  79.572  1.00  0.00     0.016 C 
BRANCH  14  20
HETATM   20  C19 UNL     1      10.641  48.290  80.431  1.00  0.00     0.073 C 
HETATM   21  C15 UNL     1       9.816  47.976  81.689  1.00  0.00     0.026 C 
HETATM   22  C16 UNL     1       8.838  47.019  81.135  1.00  0.00     0.015 C 
HETATM   23  C17 UNL     1       9.725  46.127  80.252  1.00  0.00     0.079 C 
HETATM   24  C18 UNL     1      10.974  46.932  80.012  1.00  0.00     0.132 C 
HETATM   25  O4  UNL     1      11.989  46.475  79.568  1.00  0.00    -0.298 OA
ENDBRANCH  14  20
ENDBRANCH  12  13
BRANCH   1  26
HETATM   26  O2  UNL     1      10.799  51.590  86.429  1.00  0.00    -0.383 OA
BRANCH  26  27
HETATM   27  C6  UNL     1      11.308  51.296  87.715  1.00  0.00     0.203 C 
BRANCH  27  28
HETATM   28  C5  UNL     1      12.088  52.529  88.198  1.00  0.00     0.164 C 
BRANCH  28  29
HETATM   29  C4  UNL     1      11.280  53.213  89.219  1.00  0.00     0.003 C 
HETATM   30  C3  UNL     1      11.844  53.979  90.132  1.00  0.00    -0.022 C 
BRANCH  30  31
HETATM   31  C2  UNL     1      13.309  54.161  90.142  1.00  0.00     0.027 C 
HETATM   32  C1  UNL     1      13.811  53.985  91.579  1.00  0.00     0.016 C 
BRANCH  31  33
HETATM   33  C27 UNL     1      13.588  55.581  89.676  1.00  0.00     0.172 C 
BRANCH  33  34
HETATM   34  O6  UNL     1      14.881  55.900  90.019  1.00  0.00    -0.400 OA
ATOM     35  H6  UNL     1      15.451  55.636  89.306  1.00  0.00     0.209 HD
ENDBRANCH  33  34
ENDBRANCH  31  33
ENDBRANCH  30  31
ENDBRANCH  28  29
BRANCH  28  36
HETATM   36  O1  UNL     1      12.274  53.340  87.055  1.00  0.00    -0.390 OA
ATOM     37  H1  UNL     1      12.611  52.838  86.322  1.00  0.00     0.210 HD
ENDBRANCH  28  36
ENDBRANCH  27  28
ENDBRANCH  26  27
ENDBRANCH   1  26
TORSDOF 11
ENDMDL
MODEL 5
REMARK VINA RESULT: -6.384884133      5.800     11.996
REMARK  11 active torsions:
REMARK  status: ('A' for Active; 'I' for Inactive)
REMARK    1  A    between atoms: C2_2  and  C3_3 
REMARK    2  A    between atoms: C2_2  and  C27_35 
REMARK    3  A    between atoms: C4_4  and  C5_5 
REMARK    4  A    between atoms: C5_5  and  O1_6 
REMARK    5  A    between atoms: C5_5  and  C6_8 
REMARK    6  A    between atoms: C6_8  and  O2_9 
REMARK    7  A    between atoms: O2_9  and  C7_10 
REMARK    8  A    between atoms: C13_19  and  C15_21 
REMARK    9  A    between atoms: C19_26  and  C20_27 
REMARK   10  A    between atoms: C24_32  and  C26_34 
REMARK   11  A    between atoms: C27_35  and  O6_36 
ROOT
HETATM    1  C7  UNL     1      10.964  52.103  86.836  1.00  0.00     0.122 C 
HETATM    2  C8  UNL     1      10.332  52.477  85.525  1.00  0.00     0.033 C 
HETATM    3  C9  UNL     1       9.781  51.092  85.123  1.00  0.00     0.022 C 
HETATM    4  C10 UNL     1      10.780  50.104  85.428  1.00  0.00     0.050 C 
HETATM    5  C11 UNL     1      11.663  50.814  86.470  1.00  0.00     0.051 C 
HETATM    6  C12 UNL     1      10.135  48.966  86.182  1.00  0.00     0.227 C 
HETATM    7  O3  UNL     1       9.388  49.146  87.203  1.00  0.00    -0.273 OA
HETATM    8  N1  UNL     1      10.519  47.754  85.548  1.00  0.00    -0.351 N 
ATOM      9  H1  UNL     1       9.989  46.884  85.498  1.00  0.00     0.163 HD
HETATM   10  C13 UNL     1      11.811  48.019  84.996  1.00  0.00     0.039 C 
HETATM   11  C14 UNL     1      12.794  48.051  86.178  1.00  0.00     0.039 C 
HETATM   12  C26 UNL     1      11.591  49.424  84.421  1.00  0.00     0.040 C 
ENDROOT
BRANCH  12  13
HETATM   13  C24 UNL     1      11.225  49.482  83.007  1.00  0.00    -0.025 C 
HETATM   14  C20 UNL     1      11.825  50.763  82.390  1.00  0.00     0.075 C 
HETATM   15  C21 UNL     1      11.136  50.788  81.098  1.00  0.00     0.132 C 
HETATM   16  O5  UNL     1      11.511  51.094  80.003  1.00  0.00    -0.298 OA
HETATM   17  C22 UNL     1       9.739  50.322  81.382  1.00  0.00     0.079 C 
HETATM   18  C23 UNL     1       9.751  49.898  82.857  1.00  0.00     0.018 C 
HETATM   19  C25 UNL     1      11.588  48.382  82.095  1.00  0.00     0.016 C 
BRANCH  14  20
HETATM   20  C19 UNL     1      13.271  50.594  82.376  1.00  0.00     0.073 C 
HETATM   21  C15 UNL     1      13.834  51.864  83.032  1.00  0.00     0.026 C 
HETATM   22  C16 UNL     1      15.283  51.631  82.865  1.00  0.00     0.015 C 
HETATM   23  C17 UNL     1      15.361  51.113  81.420  1.00  0.00     0.079 C 
HETATM   24  C18 UNL     1      13.965  50.654  81.093  1.00  0.00     0.132 C 
HETATM   25  O4  UNL     1      13.584  50.411  79.984  1.00  0.00    -0.298 OA
ENDBRANCH  14  20
ENDBRANCH  12  13
BRANCH   1  26
HETATM   26  O2  UNL     1      10.061  51.959  87.867  1.00  0.00    -0.383 OA
BRANCH  26  27
HETATM   27  C6  UNL     1       9.385  53.181  88.090  1.00  0.00     0.203 C 
BRANCH  27  28
HETATM   28  C5  UNL     1       9.900  53.760  89.418  1.00  0.00     0.164 C 
BRANCH  28  29
HETATM   29  C4  UNL     1      10.790  52.766  90.038  1.00  0.00     0.003 C 
HETATM   30  C3  UNL     1      12.063  53.034  90.253  1.00  0.00    -0.022 C 
BRANCH  30  31
HETATM   31  C2  UNL     1      12.618  54.346  89.870  1.00  0.00     0.027 C 
HETATM   32  C1  UNL     1      13.438  54.173  88.587  1.00  0.00     0.016 C 
BRANCH  31  33
HETATM   33  C27 UNL     1      13.530  54.795  91.000  1.00  0.00     0.172 C 
BRANCH  33  34
HETATM   34  O6  UNL     1      14.656  55.359  90.446  1.00  0.00    -0.400 OA
ATOM     35  H6  UNL     1      15.317  55.431  91.125  1.00  0.00     0.209 HD
ENDBRANCH  33  34
ENDBRANCH  31  33
ENDBRANCH  30  31
ENDBRANCH  28  29
BRANCH  28  36
HETATM   36  O1  UNL     1       8.752  53.992  90.209  1.00  0.00    -0.390 OA
ATOM     37  H1  UNL     1       7.998  54.211  89.673  1.00  0.00     0.210 HD
ENDBRANCH  28  36
ENDBRANCH  27  28
ENDBRANCH  26  27
ENDBRANCH   1  26
TORSDOF 11
ENDMDL
