MODEL 1
REMARK VINA RESULT: -7.481632659      0.000      0.000
REMARK  6 active torsions:
REMARK  status: ('A' for Active; 'I' for Inactive)
REMARK    1  A    between atoms: C1_4  and  C2_6 
REMARK    2  A    between atoms: C7_12  and  S1_13 
REMARK    3  A    between atoms: S1_13  and  C8_14 
REMARK    4  A    between atoms: C8_14  and  C9_15 
REMARK    5  A    between atoms: C15_21  and  C16_22 
REMARK    6  A    between atoms: C16_22  and  N4_23 
REMARK       I    between atoms: N4_23  and  C17_24 
REMARK       I    between atoms: C17_24  and  N5_26 
ROOT
HETATM    1  C9  UNL     1      11.445  52.524  88.595  1.00  0.00    -0.030 C 
HETATM    2  C10 UNL     1       9.995  52.944  88.802  1.00  0.00     0.015 C 
HETATM    3  C11 UNL     1       9.652  52.780  90.236  1.00  0.00    -0.012 C 
HETATM    4  C12 UNL     1       9.776  51.328  90.694  1.00  0.00     0.009 C 
HETATM    5  C13 UNL     1      11.216  50.944  90.504  1.00  0.00    -0.012 C 
HETATM    6  C14 UNL     1      12.144  51.846  91.291  1.00  0.00     0.020 C 
HETATM    7  C15 UNL     1      11.969  53.295  90.883  1.00  0.00     0.006 C 
HETATM    8  C22 UNL     1      10.507  53.604  91.171  1.00  0.00     0.020 C 
HETATM    9  C23 UNL     1      12.308  53.406  89.424  1.00  0.00     0.026 C 
HETATM   10  C24 UNL     1      11.556  51.066  89.043  1.00  0.00     0.015 C 
ENDROOT
BRANCH   1  11
HETATM   11  C8  UNL     1      11.790  52.566  87.138  1.00  0.00     0.086 C 
BRANCH  11  12
HETATM   12  S1  UNL     1      10.886  51.334  86.178  1.00  0.00    -0.134 SA
BRANCH  12  13
HETATM   13  C7  UNL     1      11.925  50.729  84.845  1.00  0.00     0.210 C 
HETATM   14  C6  UNL     1      11.250  50.584  83.519  1.00  0.00     0.174 C 
HETATM   15  N3  UNL     1      12.387  50.626  82.597  1.00  0.00    -0.334 N 
HETATM   16  C4  UNL     1      13.381  51.323  83.211  1.00  0.00     0.146 A 
HETATM   17  C5  UNL     1      12.831  50.251  81.381  1.00  0.00     0.108 A 
HETATM   18  C3  UNL     1      14.449  51.365  82.338  1.00  0.00     0.072 A 
HETATM   19  O3  UNL     1      12.927  51.720  84.489  1.00  0.00    -0.318 OA
HETATM   20  C2  UNL     1      14.118  50.692  81.174  1.00  0.00     0.024 A 
BRANCH  20  21
HETATM   21  C1  UNL     1      14.972  50.498  79.984  1.00  0.00     0.121 C 
HETATM   22  N1  UNL     1      16.057  51.150  79.827  1.00  0.00    -0.387 N 
ATOM     23  H12 UNL     1      16.647  51.016  79.005  1.00  0.00     0.157 HD
ATOM     24  H11 UNL     1      16.357  51.824  80.531  1.00  0.00     0.157 HD
HETATM   25  N2  UNL     1      14.557  49.566  79.012  1.00  0.00    -0.082 NA
ENDBRANCH  20  21
ENDBRANCH  12  13
ENDBRANCH  11  12
ENDBRANCH   1  11
BRANCH   7  26
HETATM   26  C16 UNL     1      12.885  54.133  91.749  1.00  0.00     0.170 C 
BRANCH  26  27
HETATM   27  N4  UNL     1      12.730  54.000  93.103  1.00  0.00    -0.368 NA
HETATM   28  C17 UNL     1      12.574  53.867  94.457  1.00  0.00     0.395 C 
HETATM   29  O1  UNL     1      13.097  52.978  95.172  1.00  0.00    -0.230 OA
HETATM   30  N5  UNL     1      11.743  54.793  95.229  1.00  0.00    -0.318 N 
HETATM   31  C18 UNL     1      11.557  54.638  96.652  1.00  0.00     0.155 C 
HETATM   32  C21 UNL     1      11.072  55.917  94.614  1.00  0.00     0.155 C 
HETATM   33  C19 UNL     1      10.128  55.020  96.939  1.00  0.00     0.187 C 
HETATM   34  O2  UNL     1       9.809  56.321  96.631  1.00  0.00    -0.388 OA
HETATM   35  C20 UNL     1      10.600  56.908  95.656  1.00  0.00     0.187 C 
ENDBRANCH  26  27
ENDBRANCH   7  26
TORSDOF 6
ENDMDL
MODEL 2
REMARK VINA RESULT: -7.245483814      3.614      6.101
REMARK  6 active torsions:
REMARK  status: ('A' for Active; 'I' for Inactive)
REMARK    1  A    between atoms: C1_4  and  C2_6 
REMARK    2  A    between atoms: C7_12  and  S1_13 
REMARK    3  A    between atoms: S1_13  and  C8_14 
REMARK    4  A    between atoms: C8_14  and  C9_15 
REMARK    5  A    between atoms: C15_21  and  C16_22 
REMARK    6  A    between atoms: C16_22  and  N4_23 
REMARK       I    between atoms: N4_23  and  C17_24 
REMARK       I    between atoms: C17_24  and  N5_26 
ROOT
HETATM    1  C9  UNL     1      12.467  53.359  93.505  1.00  0.00    -0.030 C 
HETATM    2  C10 UNL     1      12.857  54.700  94.114  1.00  0.00     0.015 C 
HETATM    3  C11 UNL     1      11.865  55.053  95.161  1.00  0.00    -0.012 C 
HETATM    4  C12 UNL     1      10.457  55.204  94.588  1.00  0.00     0.009 C 
HETATM    5  C13 UNL     1      10.085  53.866  94.016  1.00  0.00    -0.012 C 
HETATM    6  C14 UNL     1      10.134  52.775  95.065  1.00  0.00     0.020 C 
HETATM    7  C15 UNL     1      11.516  52.674  95.680  1.00  0.00     0.006 C 
HETATM    8  C22 UNL     1      11.771  54.047  96.284  1.00  0.00     0.020 C 
HETATM    9  C23 UNL     1      12.484  52.335  94.583  1.00  0.00     0.026 C 
HETATM   10  C24 UNL     1      11.063  53.524  92.923  1.00  0.00     0.015 C 
ENDROOT
BRANCH   1  11
HETATM   11  C8  UNL     1      13.381  53.027  92.365  1.00  0.00     0.086 C 
BRANCH  11  12
HETATM   12  S1  UNL     1      13.789  54.471  91.364  1.00  0.00    -0.134 SA
BRANCH  12  13
HETATM   13  C7  UNL     1      12.992  54.335  89.760  1.00  0.00     0.210 C 
HETATM   14  C6  UNL     1      13.911  54.372  88.581  1.00  0.00     0.174 C 
HETATM   15  N3  UNL     1      13.103  53.716  87.550  1.00  0.00    -0.334 N 
HETATM   16  C4  UNL     1      12.224  52.895  88.186  1.00  0.00     0.146 A 
HETATM   17  C5  UNL     1      12.894  53.605  86.224  1.00  0.00     0.108 A 
HETATM   18  C3  UNL     1      11.469  52.275  87.211  1.00  0.00     0.072 A 
HETATM   19  O3  UNL     1      12.434  53.005  89.579  1.00  0.00    -0.318 OA
HETATM   20  C2  UNL     1      11.879  52.712  85.964  1.00  0.00     0.024 A 
BRANCH  20  21
HETATM   21  C1  UNL     1      11.335  52.303  84.652  1.00  0.00     0.121 C 
HETATM   22  N1  UNL     1      11.937  51.452  83.916  1.00  0.00    -0.387 N 
ATOM     23  H12 UNL     1      11.562  51.169  83.011  1.00  0.00     0.157 HD
ATOM     24  H11 UNL     1      12.816  51.037  84.225  1.00  0.00     0.157 HD
HETATM   25  N2  UNL     1      10.121  52.877  84.226  1.00  0.00    -0.082 NA
ENDBRANCH  20  21
ENDBRANCH  12  13
ENDBRANCH  11  12
ENDBRANCH   1  11
BRANCH   7  26
HETATM   26  C16 UNL     1      11.468  51.606  96.752  1.00  0.00     0.170 C 
BRANCH  26  27
HETATM   27  N4  UNL     1      12.548  51.541  97.592  1.00  0.00    -0.368 NA
HETATM   28  C17 UNL     1      13.627  51.476  98.433  1.00  0.00     0.395 C 
HETATM   29  O1  UNL     1      13.644  51.838  99.634  1.00  0.00    -0.230 OA
HETATM   30  N5  UNL     1      14.919  50.954  97.984  1.00  0.00    -0.318 N 
HETATM   31  C18 UNL     1      16.064  50.910  98.863  1.00  0.00     0.155 C 
HETATM   32  C21 UNL     1      15.119  50.447  96.645  1.00  0.00     0.155 C 
HETATM   33  C19 UNL     1      17.265  51.237  98.014  1.00  0.00     0.187 C 
HETATM   34  O2  UNL     1      17.506  50.347  96.993  1.00  0.00    -0.388 OA
HETATM   35  C20 UNL     1      16.397  49.642  96.551  1.00  0.00     0.187 C 
ENDBRANCH  26  27
ENDBRANCH   7  26
TORSDOF 6
ENDMDL
MODEL 3
REMARK VINA RESULT: -7.208122998      2.162     11.190
REMARK  6 active torsions:
REMARK  status: ('A' for Active; 'I' for Inactive)
REMARK    1  A    between atoms: C1_4  and  C2_6 
REMARK    2  A    between atoms: C7_12  and  S1_13 
REMARK    3  A    between atoms: S1_13  and  C8_14 
REMARK    4  A    between atoms: C8_14  and  C9_15 
REMARK    5  A    between atoms: C15_21  and  C16_22 
REMARK    6  A    between atoms: C16_22  and  N4_23 
REMARK       I    between atoms: N4_23  and  C17_24 
REMARK       I    between atoms: C17_24  and  N5_26 
ROOT
HETATM    1  C9  UNL     1      10.435  51.790  87.613  1.00  0.00    -0.030 C 
HETATM    2  C10 UNL     1      10.654  50.317  87.287  1.00  0.00     0.015 C 
HETATM    3  C11 UNL     1      10.816  50.175  85.818  1.00  0.00    -0.012 C 
HETATM    4  C12 UNL     1       9.572  50.632  85.057  1.00  0.00     0.009 C 
HETATM    5  C13 UNL     1       9.391  52.089  85.374  1.00  0.00    -0.012 C 
HETATM    6  C14 UNL     1      10.604  52.904  84.977  1.00  0.00     0.020 C 
HETATM    7  C15 UNL     1      11.849  52.403  85.683  1.00  0.00     0.006 C 
HETATM    8  C22 UNL     1      11.981  50.951  85.249  1.00  0.00     0.020 C 
HETATM    9  C23 UNL     1      11.631  52.549  87.161  1.00  0.00     0.026 C 
HETATM   10  C24 UNL     1       9.182  52.234  86.858  1.00  0.00     0.015 C 
ENDROOT
BRANCH   1  11
HETATM   11  C8  UNL     1      10.153  51.956  89.075  1.00  0.00     0.086 C 
BRANCH  11  12
HETATM   12  S1  UNL     1      11.364  51.113  90.113  1.00  0.00    -0.134 SA
BRANCH  12  13
HETATM   13  C7  UNL     1      11.554  52.004  91.661  1.00  0.00     0.210 C 
HETATM   14  C6  UNL     1      12.469  53.185  91.614  1.00  0.00     0.174 C 
HETATM   15  N3  UNL     1      12.006  53.969  92.761  1.00  0.00    -0.334 N 
HETATM   16  C4  UNL     1      10.702  53.645  92.973  1.00  0.00     0.146 A 
HETATM   17  C5  UNL     1      12.363  54.886  93.682  1.00  0.00     0.108 A 
HETATM   18  C3  UNL     1      10.267  54.390  94.051  1.00  0.00     0.072 A 
HETATM   19  O3  UNL     1      10.317  52.682  92.014  1.00  0.00    -0.318 OA
HETATM   20  C2  UNL     1      11.305  55.181  94.512  1.00  0.00     0.024 A 
BRANCH  20  21
HETATM   21  C1  UNL     1      11.269  56.126  95.647  1.00  0.00     0.121 C 
HETATM   22  N1  UNL     1      11.226  55.717  96.855  1.00  0.00    -0.387 N 
ATOM     23  H12 UNL     1      11.201  56.369  97.639  1.00  0.00     0.157 HD
ATOM     24  H11 UNL     1      11.216  54.717  97.059  1.00  0.00     0.157 HD
HETATM   25  N2  UNL     1      11.283  57.506  95.365  1.00  0.00    -0.082 NA
ENDBRANCH  20  21
ENDBRANCH  12  13
ENDBRANCH  11  12
ENDBRANCH   1  11
BRANCH   7  26
HETATM   26  C16 UNL     1      13.021  53.228  85.193  1.00  0.00     0.170 C 
BRANCH  26  27
HETATM   27  N4  UNL     1      13.808  52.653  84.231  1.00  0.00    -0.368 NA
HETATM   28  C17 UNL     1      14.596  52.078  83.269  1.00  0.00     0.395 C 
HETATM   29  O1  UNL     1      15.834  52.238  83.142  1.00  0.00    -0.230 OA
HETATM   30  N5  UNL     1      14.038  51.183  82.253  1.00  0.00    -0.318 N 
HETATM   31  C18 UNL     1      14.863  50.598  81.224  1.00  0.00     0.155 C 
HETATM   32  C21 UNL     1      12.636  50.828  82.231  1.00  0.00     0.155 C 
HETATM   33  C19 UNL     1      14.026  50.571  79.971  1.00  0.00     0.187 C 
HETATM   34  O2  UNL     1      12.887  49.806  80.058  1.00  0.00    -0.388 OA
HETATM   35  C20 UNL     1      12.391  49.629  81.340  1.00  0.00     0.187 C 
ENDBRANCH  26  27
ENDBRANCH   7  26
TORSDOF 6
ENDMDL
MODEL 4
REMARK VINA RESULT: -7.182823069      1.198      1.769
REMARK  6 active torsions:
REMARK  status: ('A' for Active; 'I' for Inactive)
REMARK    1  A    between atoms: C1_4  and  C2_6 
REMARK    2  A    between atoms: C7_12  and  S1_13 
REMARK    3  A    between atoms: S1_13  and  C8_14 
REMARK    4  A    between atoms: C8_14  and  C9_15 
REMARK    5  A    between atoms: C15_21  and  C16_22 
REMARK    6  A    between atoms: C16_22  and  N4_23 
REMARK       I    between atoms: N4_23  and  C17_24 
REMARK       I    between atoms: C17_24  and  N5_26 
ROOT
HETATM    1  C9  UNL     1      11.114  51.489  89.059  1.00  0.00    -0.030 C 
HETATM    2  C10 UNL     1      11.884  52.727  88.614  1.00  0.00     0.015 C 
HETATM    3  C11 UNL     1      11.613  53.826  89.573  1.00  0.00    -0.012 C 
HETATM    4  C12 UNL     1      10.133  54.201  89.613  1.00  0.00     0.009 C 
HETATM    5  C13 UNL     1       9.397  52.976  90.077  1.00  0.00    -0.012 C 
HETATM    6  C14 UNL     1       9.880  52.513  91.435  1.00  0.00     0.020 C 
HETATM    7  C15 UNL     1      11.365  52.208  91.409  1.00  0.00     0.006 C 
HETATM    8  C22 UNL     1      12.021  53.517  90.995  1.00  0.00     0.020 C 
HETATM    9  C23 UNL     1      11.591  51.106  90.414  1.00  0.00     0.026 C 
HETATM   10  C24 UNL     1       9.633  51.870  89.083  1.00  0.00     0.015 C 
ENDROOT
BRANCH   1  11
HETATM   11  C8  UNL     1      11.272  50.394  88.049  1.00  0.00     0.086 C 
BRANCH  11  12
HETATM   12  S1  UNL     1      10.555  50.821  86.449  1.00  0.00    -0.134 SA
BRANCH  12  13
HETATM   13  C7  UNL     1      11.698  50.372  85.139  1.00  0.00     0.210 C 
HETATM   14  C6  UNL     1      11.075  50.110  83.805  1.00  0.00     0.174 C 
HETATM   15  N3  UNL     1      12.206  50.320  82.899  1.00  0.00    -0.334 N 
HETATM   16  C4  UNL     1      13.070  51.169  83.519  1.00  0.00     0.146 A 
HETATM   17  C5  UNL     1      12.723  50.006  81.695  1.00  0.00     0.108 A 
HETATM   18  C3  UNL     1      14.132  51.369  82.661  1.00  0.00     0.072 A 
HETATM   19  O3  UNL     1      12.539  51.503  84.785  1.00  0.00    -0.318 OA
HETATM   20  C2  UNL     1      13.929  50.641  81.501  1.00  0.00     0.024 A 
BRANCH  20  21
HETATM   21  C1  UNL     1      14.822  50.570  80.326  1.00  0.00     0.121 C 
HETATM   22  N1  UNL     1      15.911  51.232  80.275  1.00  0.00    -0.387 N 
ATOM     23  H12 UNL     1      16.528  51.183  79.463  1.00  0.00     0.157 HD
ATOM     24  H11 UNL     1      16.187  51.828  81.055  1.00  0.00     0.157 HD
HETATM   25  N2  UNL     1      14.440  49.746  79.249  1.00  0.00    -0.082 NA
ENDBRANCH  20  21
ENDBRANCH  12  13
ENDBRANCH  11  12
ENDBRANCH   1  11
BRANCH   7  26
HETATM   26  C16 UNL     1      11.780  51.809  92.809  1.00  0.00     0.170 C 
BRANCH  26  27
HETATM   27  N4  UNL     1      11.080  52.383  93.837  1.00  0.00    -0.368 NA
HETATM   28  C17 UNL     1      10.380  52.957  94.864  1.00  0.00     0.395 C 
HETATM   29  O1  UNL     1       9.622  52.355  95.663  1.00  0.00    -0.230 OA
HETATM   30  N5  UNL     1      10.455  54.394  95.136  1.00  0.00    -0.318 N 
HETATM   31  C18 UNL     1       9.697  55.004  96.202  1.00  0.00     0.155 C 
HETATM   32  C21 UNL     1      11.297  55.278  94.361  1.00  0.00     0.155 C 
HETATM   33  C19 UNL     1       9.253  56.350  95.692  1.00  0.00     0.187 C 
HETATM   34  O2  UNL     1      10.277  57.213  95.382  1.00  0.00    -0.388 OA
HETATM   35  C20 UNL     1      11.482  56.607  95.060  1.00  0.00     0.187 C 
ENDBRANCH  26  27
ENDBRANCH   7  26
TORSDOF 6
ENDMDL
MODEL 5
REMARK VINA RESULT: -7.163277131      1.149      1.531
REMARK  6 active torsions:
REMARK  status: ('A' for Active; 'I' for Inactive)
REMARK    1  A    between atoms: C1_4  and  C2_6 
REMARK    2  A    between atoms: C7_12  and  S1_13 
REMARK    3  A    between atoms: S1_13  and  C8_14 
REMARK    4  A    between atoms: C8_14  and  C9_15 
REMARK    5  A    between atoms: C15_21  and  C16_22 
REMARK    6  A    between atoms: C16_22  and  N4_23 
REMARK       I    between atoms: N4_23  and  C17_24 
REMARK       I    between atoms: C17_24  and  N5_26 
ROOT
HETATM    1  C9  UNL     1      11.489  52.799  89.225  1.00  0.00    -0.030 C 
HETATM    2  C10 UNL     1      10.050  53.245  89.460  1.00  0.00     0.015 C 
HETATM    3  C11 UNL     1       9.698  52.984  90.878  1.00  0.00    -0.012 C 
HETATM    4  C12 UNL     1       9.778  51.499  91.225  1.00  0.00     0.009 C 
HETATM    5  C13 UNL     1      11.207  51.088  91.010  1.00  0.00    -0.012 C 
HETATM    6  C14 UNL     1      12.158  51.901  91.863  1.00  0.00     0.020 C 
HETATM    7  C15 UNL     1      12.026  53.382  91.565  1.00  0.00     0.006 C 
HETATM    8  C22 UNL     1      10.573  53.711  91.873  1.00  0.00     0.020 C 
HETATM    9  C23 UNL     1      12.373  53.592  90.119  1.00  0.00     0.026 C 
HETATM   10  C24 UNL     1      11.555  51.309  89.562  1.00  0.00     0.015 C 
ENDROOT
BRANCH   1  11
HETATM   11  C8  UNL     1      11.840  52.940  87.775  1.00  0.00     0.086 C 
BRANCH  11  12
HETATM   12  S1  UNL     1      10.843  51.872  86.716  1.00  0.00    -0.134 SA
BRANCH  12  13
HETATM   13  C7  UNL     1      11.869  51.200  85.404  1.00  0.00     0.210 C 
HETATM   14  C6  UNL     1      11.178  50.985  84.096  1.00  0.00     0.174 C 
HETATM   15  N3  UNL     1      12.304  50.981  83.159  1.00  0.00    -0.334 N 
HETATM   16  C4  UNL     1      13.304  51.712  83.724  1.00  0.00     0.146 A 
HETATM   17  C5  UNL     1      12.735  50.544  81.959  1.00  0.00     0.108 A 
HETATM   18  C3  UNL     1      14.360  51.711  82.837  1.00  0.00     0.072 A 
HETATM   19  O3  UNL     1      12.863  52.174  84.985  1.00  0.00    -0.318 OA
HETATM   20  C2  UNL     1      14.018  50.977  81.714  1.00  0.00     0.024 A 
BRANCH  20  21
HETATM   21  C1  UNL     1      14.858  50.722  80.526  1.00  0.00     0.121 C 
HETATM   22  N1  UNL     1      15.990  51.292  80.374  1.00  0.00    -0.387 N 
ATOM     23  H12 UNL     1      16.570  51.116  79.553  1.00  0.00     0.157 HD
ATOM     24  H11 UNL     1      16.337  51.941  81.080  1.00  0.00     0.157 HD
HETATM   25  N2  UNL     1      14.378  49.827  79.551  1.00  0.00    -0.082 NA
ENDBRANCH  20  21
ENDBRANCH  12  13
ENDBRANCH  11  12
ENDBRANCH   1  11
BRANCH   7  26
HETATM   26  C16 UNL     1      12.963  54.126  92.492  1.00  0.00     0.170 C 
BRANCH  26  27
HETATM   27  N4  UNL     1      12.385  54.751  93.565  1.00  0.00    -0.368 NA
HETATM   28  C17 UNL     1      11.809  55.376  94.638  1.00  0.00     0.395 C 
HETATM   29  O1  UNL     1      11.597  56.609  94.744  1.00  0.00    -0.230 OA
HETATM   30  N5  UNL     1      11.366  54.627  95.817  1.00  0.00    -0.318 N 
HETATM   31  C18 UNL     1      10.781  55.289  96.959  1.00  0.00     0.155 C 
HETATM   32  C21 UNL     1      11.480  53.188  95.898  1.00  0.00     0.155 C 
HETATM   33  C19 UNL     1      11.280  54.556  98.177  1.00  0.00     0.187 C 
HETATM   34  O2  UNL     1      10.909  53.234  98.244  1.00  0.00    -0.388 OA
HETATM   35  C20 UNL     1      10.632  52.637  97.024  1.00  0.00     0.187 C 
ENDBRANCH  26  27
ENDBRANCH   7  26
TORSDOF 6
ENDMDL
