MODEL 1
REMARK VINA RESULT: -7.810435339      0.000      0.000
REMARK  8 active torsions:
REMARK  status: ('A' for Active; 'I' for Inactive)
REMARK    1  A    between atoms: N1_4  and  C4_5 
REMARK    2  A    between atoms: C10_11  and  N2_12 
REMARK    3  A    between atoms: N2_12  and  C11_14 
REMARK    4  A    between atoms: C14_17  and  C15_18 
REMARK    5  A    between atoms: C16_19  and  C17_20 
REMARK    6  A    between atoms: C17_20  and  N3_21 
REMARK    7  A    between atoms: N4_24  and  C20_25 
REMARK    8  A    between atoms: C20_25  and  C21_26 
ROOT
HETATM    1  C11 UNL     1      11.063  53.245  89.290  1.00  0.00     0.052 A 
HETATM    2  C12 UNL     1      11.908  52.441  88.590  1.00  0.00     0.032 A 
HETATM    3  C13 UNL     1      11.435  51.671  87.522  1.00  0.00     0.023 A 
HETATM    4  C14 UNL     1      10.123  51.691  87.138  1.00  0.00     0.020 A 
HETATM    5  C28 UNL     1       9.249  52.517  87.855  1.00  0.00     0.049 A 
HETATM    6  C29 UNL     1       9.720  53.271  88.903  1.00  0.00     0.074 A 
HETATM    7  N6  UNL     1       8.803  54.101  89.611  1.00  0.00    -0.100 NA
ENDROOT
BRANCH   4   8
HETATM    8  C15 UNL     1       9.608  50.915  86.045  1.00  0.00    -0.061 C 
HETATM    9  C16 UNL     1       9.171  50.237  85.130  1.00  0.00    -0.056 C 
BRANCH   9  10
HETATM   10  C17 UNL     1       8.653  49.413  84.067  1.00  0.00     0.155 C 
BRANCH  10  11
HETATM   11  N3  UNL     1       8.830  49.992  82.813  1.00  0.00    -0.359 N 
HETATM   12  C18 UNL     1       8.789  49.205  81.650  1.00  0.00     0.094 C 
HETATM   13  C19 UNL     1      10.175  49.044  81.096  1.00  0.00     0.317 C 
HETATM   14  N4  UNL     1      10.988  50.284  81.206  1.00  0.00     0.095 N 
HETATM   15  C26 UNL     1      10.100  51.405  81.389  1.00  0.00     0.293 C 
HETATM   16  C27 UNL     1       9.291  51.313  82.688  1.00  0.00     0.158 C 
BRANCH  14  17
HETATM   17  C20 UNL     1      12.023  50.109  82.154  1.00  0.00     0.277 C 
BRANCH  17  18
HETATM   18  C21 UNL     1      13.405  50.504  81.856  1.00  0.00     0.017 C 
HETATM   19  C22 UNL     1      14.037  51.611  82.605  1.00  0.00     0.034 C 
HETATM   20  C23 UNL     1      15.568  51.487  82.598  1.00  0.00     0.232 C 
HETATM   21  N5  UNL     1      15.905  50.835  81.356  1.00  0.00    -0.075 N 
HETATM   22  C24 UNL     1      15.071  51.238  80.252  1.00  0.00     0.232 C 
ATOM     23  H52 UNL     1      16.890  50.969  81.133  1.00  0.00     0.277 HD
ATOM     24  H51 UNL     1      15.893  49.821  81.466  1.00  0.00     0.277 HD
HETATM   25  C25 UNL     1      13.647  50.730  80.358  1.00  0.00     0.034 C 
ENDBRANCH  17  18
ENDBRANCH  14  17
ENDBRANCH  10  11
ENDBRANCH   9  10
ENDBRANCH   4   8
BRANCH   1  26
HETATM   26  N2  UNL     1      11.532  54.040  90.354  1.00  0.00    -0.382 N 
ATOM     27  H2  UNL     1      11.689  55.038  90.208  1.00  0.00     0.160 HD
BRANCH  26  28
HETATM   28  C10 UNL     1      11.793  53.460  91.642  1.00  0.00     0.115 C 
HETATM   29  C2  UNL     1      13.198  53.767  92.124  1.00  0.00     0.034 C 
HETATM   30  C1  UNL     1      14.060  54.434  91.108  1.00  0.00     0.014 C 
HETATM   31  C3  UNL     1      13.021  54.554  93.394  1.00  0.00     0.279 C 
HETATM   32  N1  UNL     1      11.770  54.024  93.884  1.00  0.00     0.095 N 
HETATM   33  C9  UNL     1      10.938  54.148  92.699  1.00  0.00     0.298 C 
BRANCH  32  34
HETATM   34  C4  UNL     1      11.167  54.819  94.927  1.00  0.00     0.223 C 
HETATM   35  C5  UNL     1       9.685  54.969  94.812  1.00  0.00     0.036 C 
HETATM   36  C6  UNL     1       9.413  56.077  95.836  1.00  0.00     0.002 C 
HETATM   37  C7  UNL     1      10.557  57.041  95.599  1.00  0.00     0.002 C 
HETATM   38  C8  UNL     1      11.655  56.245  94.916  1.00  0.00     0.036 C 
ENDBRANCH  32  34
ENDBRANCH  26  28
ENDBRANCH   1  26
TORSDOF 8
ENDMDL
MODEL 2
REMARK VINA RESULT: -7.602139703      1.278      1.514
REMARK  8 active torsions:
REMARK  status: ('A' for Active; 'I' for Inactive)
REMARK    1  A    between atoms: N1_4  and  C4_5 
REMARK    2  A    between atoms: C10_11  and  N2_12 
REMARK    3  A    between atoms: N2_12  and  C11_14 
REMARK    4  A    between atoms: C14_17  and  C15_18 
REMARK    5  A    between atoms: C16_19  and  C17_20 
REMARK    6  A    between atoms: C17_20  and  N3_21 
REMARK    7  A    between atoms: N4_24  and  C20_25 
REMARK    8  A    between atoms: C20_25  and  C21_26 
ROOT
HETATM    1  C11 UNL     1      11.023  53.109  89.224  1.00  0.00     0.052 A 
HETATM    2  C12 UNL     1      11.744  52.149  88.584  1.00  0.00     0.032 A 
HETATM    3  C13 UNL     1      11.159  51.375  87.576  1.00  0.00     0.023 A 
HETATM    4  C14 UNL     1       9.857  51.545  87.194  1.00  0.00     0.020 A 
HETATM    5  C28 UNL     1       9.111  52.532  87.850  1.00  0.00     0.049 A 
HETATM    6  C29 UNL     1       9.692  53.289  88.838  1.00  0.00     0.074 A 
HETATM    7  N6  UNL     1       8.904  54.284  89.486  1.00  0.00    -0.100 NA
ENDROOT
BRANCH   4   8
HETATM    8  C15 UNL     1       9.229  50.769  86.162  1.00  0.00    -0.061 C 
HETATM    9  C16 UNL     1       8.717  50.103  85.277  1.00  0.00    -0.056 C 
BRANCH   9  10
HETATM   10  C17 UNL     1       8.138  49.306  84.225  1.00  0.00     0.155 C 
BRANCH  10  11
HETATM   11  N3  UNL     1       8.948  49.250  83.094  1.00  0.00    -0.359 N 
HETATM   12  C18 UNL     1       9.451  48.021  82.634  1.00  0.00     0.094 C 
HETATM   13  C19 UNL     1      10.917  47.925  82.941  1.00  0.00     0.317 C 
HETATM   14  N4  UNL     1      11.633  49.215  82.751  1.00  0.00     0.095 N 
HETATM   15  C26 UNL     1      10.835  50.067  81.905  1.00  0.00     0.293 C 
HETATM   16  C27 UNL     1       9.482  50.423  82.532  1.00  0.00     0.158 C 
BRANCH  14  17
HETATM   17  C20 UNL     1      12.045  49.735  84.000  1.00  0.00     0.277 C 
BRANCH  17  18
HETATM   18  C21 UNL     1      12.862  50.952  84.087  1.00  0.00     0.017 C 
HETATM   19  C22 UNL     1      12.217  52.263  84.311  1.00  0.00     0.034 C 
HETATM   20  C23 UNL     1      13.192  53.263  84.950  1.00  0.00     0.232 C 
HETATM   21  N5  UNL     1      14.503  52.891  84.477  1.00  0.00    -0.075 N 
HETATM   22  C24 UNL     1      14.512  52.438  83.110  1.00  0.00     0.232 C 
ATOM     23  H52 UNL     1      15.165  53.656  84.609  1.00  0.00     0.277 HD
ATOM     24  H51 UNL     1      14.924  52.195  85.091  1.00  0.00     0.277 HD
HETATM   25  C25 UNL     1      13.848  51.089  82.920  1.00  0.00     0.034 C 
ENDBRANCH  17  18
ENDBRANCH  14  17
ENDBRANCH  10  11
ENDBRANCH   9  10
ENDBRANCH   4   8
BRANCH   1  26
HETATM   26  N2  UNL     1      11.609  53.908  90.226  1.00  0.00    -0.382 N 
ATOM     27  H2  UNL     1      11.824  54.886  90.031  1.00  0.00     0.160 HD
BRANCH  26  28
HETATM   28  C10 UNL     1      11.906  53.359  91.520  1.00  0.00     0.115 C 
HETATM   29  C2  UNL     1      13.288  53.761  91.997  1.00  0.00     0.034 C 
HETATM   30  C1  UNL     1      14.105  54.472  90.974  1.00  0.00     0.014 C 
HETATM   31  C3  UNL     1      13.061  54.548  93.259  1.00  0.00     0.279 C 
HETATM   32  N1  UNL     1      11.847  53.943  93.755  1.00  0.00     0.095 N 
HETATM   33  C9  UNL     1      11.008  54.000  92.570  1.00  0.00     0.298 C 
BRANCH  32  34
HETATM   34  C4  UNL     1      11.194  54.708  94.791  1.00  0.00     0.223 C 
HETATM   35  C5  UNL     1       9.718  54.854  94.614  1.00  0.00     0.036 C 
HETATM   36  C6  UNL     1       9.394  55.934  95.653  1.00  0.00     0.002 C 
HETATM   37  C7  UNL     1      10.542  56.909  95.493  1.00  0.00     0.002 C 
HETATM   38  C8  UNL     1      11.674  56.136  94.839  1.00  0.00     0.036 C 
ENDBRANCH  32  34
ENDBRANCH  26  28
ENDBRANCH   1  26
TORSDOF 8
ENDMDL
MODEL 3
REMARK VINA RESULT: -7.555227148      1.769     11.702
REMARK  8 active torsions:
REMARK  status: ('A' for Active; 'I' for Inactive)
REMARK    1  A    between atoms: N1_4  and  C4_5 
REMARK    2  A    between atoms: C10_11  and  N2_12 
REMARK    3  A    between atoms: N2_12  and  C11_14 
REMARK    4  A    between atoms: C14_17  and  C15_18 
REMARK    5  A    between atoms: C16_19  and  C17_20 
REMARK    6  A    between atoms: C17_20  and  N3_21 
REMARK    7  A    between atoms: N4_24  and  C20_25 
REMARK    8  A    between atoms: C20_25  and  C21_26 
ROOT
HETATM    1  C11 UNL     1      10.377  50.847  84.835  1.00  0.00     0.052 A 
HETATM    2  C12 UNL     1      10.402  49.668  85.514  1.00  0.00     0.032 A 
HETATM    3  C13 UNL     1      10.670  49.642  86.886  1.00  0.00     0.023 A 
HETATM    4  C14 UNL     1      10.915  50.784  87.599  1.00  0.00     0.020 A 
HETATM    5  C28 UNL     1      10.890  52.000  86.906  1.00  0.00     0.049 A 
HETATM    6  C29 UNL     1      10.626  52.017  85.557  1.00  0.00     0.074 A 
HETATM    7  N6  UNL     1      10.609  53.273  84.883  1.00  0.00    -0.100 NA
ENDROOT
BRANCH   4   8
HETATM    8  C15 UNL     1      11.189  50.792  89.008  1.00  0.00    -0.061 C 
HETATM    9  C16 UNL     1      11.418  50.775  90.206  1.00  0.00    -0.056 C 
BRANCH   9  10
HETATM   10  C17 UNL     1      11.686  50.726  91.621  1.00  0.00     0.155 C 
BRANCH  10  11
HETATM   11  N3  UNL     1      12.659  51.642  92.009  1.00  0.00    -0.359 N 
HETATM   12  C18 UNL     1      13.477  51.389  93.124  1.00  0.00     0.094 C 
HETATM   13  C19 UNL     1      13.062  52.268  94.268  1.00  0.00     0.317 C 
HETATM   14  N4  UNL     1      12.685  53.640  93.835  1.00  0.00     0.095 N 
HETATM   15  C26 UNL     1      13.246  53.884  92.530  1.00  0.00     0.293 C 
HETATM   16  C27 UNL     1      12.690  52.936  91.461  1.00  0.00     0.158 C 
BRANCH  14  17
HETATM   17  C20 UNL     1      11.295  53.841  93.997  1.00  0.00     0.277 C 
BRANCH  17  18
HETATM   18  C21 UNL     1      10.771  55.015  94.706  1.00  0.00     0.017 C 
HETATM   19  C22 UNL     1      11.689  56.091  95.136  1.00  0.00     0.034 C 
HETATM   20  C23 UNL     1      10.949  57.426  95.295  1.00  0.00     0.232 C 
HETATM   21  N5  UNL     1       9.600  57.086  95.678  1.00  0.00    -0.075 N 
HETATM   22  C24 UNL     1       9.525  55.952  96.564  1.00  0.00     0.232 C 
ATOM     23  H52 UNL     1       9.125  57.892  96.082  1.00  0.00     0.277 HD
ATOM     24  H51 UNL     1       9.017  56.940  94.855  1.00  0.00     0.277 HD
HETATM   25  C25 UNL     1       9.873  54.640  95.892  1.00  0.00     0.034 C 
ENDBRANCH  17  18
ENDBRANCH  14  17
ENDBRANCH  10  11
ENDBRANCH   9  10
ENDBRANCH   4   8
BRANCH   1  26
HETATM   26  N2  UNL     1      10.088  50.885  83.457  1.00  0.00    -0.382 N 
ATOM     27  H2  UNL     1       9.375  51.525  83.108  1.00  0.00     0.160 HD
BRANCH  26  28
HETATM   28  C10 UNL     1      10.789  50.031  82.538  1.00  0.00     0.115 C 
HETATM   29  C2  UNL     1      10.561  50.448  81.098  1.00  0.00     0.034 C 
HETATM   30  C1  UNL     1       9.536  51.516  80.926  1.00  0.00     0.014 C 
HETATM   31  C3  UNL     1      11.921  50.810  80.567  1.00  0.00     0.279 C 
HETATM   32  N1  UNL     1      12.771  49.944  81.351  1.00  0.00     0.095 N 
HETATM   33  C9  UNL     1      12.291  50.233  82.692  1.00  0.00     0.298 C 
BRANCH  32  34
HETATM   34  C4  UNL     1      14.170  50.297  81.301  1.00  0.00     0.223 C 
HETATM   35  C5  UNL     1      14.611  51.230  82.380  1.00  0.00     0.036 C 
HETATM   36  C6  UNL     1      16.001  51.639  81.877  1.00  0.00     0.002 C 
HETATM   37  C7  UNL     1      15.778  51.829  80.392  1.00  0.00     0.002 C 
HETATM   38  C8  UNL     1      14.529  51.040  80.040  1.00  0.00     0.036 C 
ENDBRANCH  32  34
ENDBRANCH  26  28
ENDBRANCH   1  26
TORSDOF 8
ENDMDL
MODEL 4
REMARK VINA RESULT: -7.496754929      2.058     10.126
REMARK  8 active torsions:
REMARK  status: ('A' for Active; 'I' for Inactive)
REMARK    1  A    between atoms: N1_4  and  C4_5 
REMARK    2  A    between atoms: C10_11  and  N2_12 
REMARK    3  A    between atoms: N2_12  and  C11_14 
REMARK    4  A    between atoms: C14_17  and  C15_18 
REMARK    5  A    between atoms: C16_19  and  C17_20 
REMARK    6  A    between atoms: C17_20  and  N3_21 
REMARK    7  A    between atoms: N4_24  and  C20_25 
REMARK    8  A    between atoms: C20_25  and  C21_26 
ROOT
HETATM    1  C11 UNL     1       9.792  52.349  85.120  1.00  0.00     0.052 A 
HETATM    2  C12 UNL     1      10.630  52.105  86.164  1.00  0.00     0.032 A 
HETATM    3  C13 UNL     1      10.160  52.163  87.481  1.00  0.00     0.023 A 
HETATM    4  C14 UNL     1       8.858  52.462  87.774  1.00  0.00     0.020 A 
HETATM    5  C28 UNL     1       7.992  52.713  86.703  1.00  0.00     0.049 A 
HETATM    6  C29 UNL     1       8.460  52.654  85.412  1.00  0.00     0.074 A 
HETATM    7  N6  UNL     1       7.551  52.916  84.346  1.00  0.00    -0.100 NA
ENDROOT
BRANCH   4   8
HETATM    8  C15 UNL     1       8.345  52.526  89.113  1.00  0.00    -0.061 C 
HETATM    9  C16 UNL     1       7.921  52.560  90.257  1.00  0.00    -0.056 C 
BRANCH   9  10
HETATM   10  C17 UNL     1       7.439  52.580  91.615  1.00  0.00     0.155 C 
BRANCH  10  11
HETATM   11  N3  UNL     1       8.444  52.308  92.539  1.00  0.00    -0.359 N 
HETATM   12  C18 UNL     1       8.896  53.306  93.419  1.00  0.00     0.094 C 
HETATM   13  C19 UNL     1      10.256  53.779  92.995  1.00  0.00     0.317 C 
HETATM   14  N4  UNL     1      11.125  52.676  92.506  1.00  0.00     0.095 N 
HETATM   15  C26 UNL     1      10.601  51.424  92.993  1.00  0.00     0.293 C 
HETATM   16  C27 UNL     1       9.196  51.123  92.458  1.00  0.00     0.158 C 
BRANCH  14  17
HETATM   17  C20 UNL     1      11.338  52.799  91.113  1.00  0.00     0.277 C 
BRANCH  17  18
HETATM   18  C21 UNL     1      12.333  53.732  90.573  1.00  0.00     0.017 C 
HETATM   19  C22 UNL     1      12.860  53.544  89.205  1.00  0.00     0.034 C 
HETATM   20  C23 UNL     1      13.382  54.864  88.620  1.00  0.00     0.232 C 
HETATM   21  N5  UNL     1      13.851  55.635  89.747  1.00  0.00    -0.075 N 
HETATM   22  C24 UNL     1      14.486  54.836  90.764  1.00  0.00     0.232 C 
ATOM     23  H52 UNL     1      14.468  56.385  89.439  1.00  0.00     0.277 HD
ATOM     24  H51 UNL     1      13.094  56.190  90.144  1.00  0.00     0.277 HD
HETATM   25  C25 UNL     1      13.518  53.951  91.523  1.00  0.00     0.034 C 
ENDBRANCH  17  18
ENDBRANCH  14  17
ENDBRANCH  10  11
ENDBRANCH   9  10
ENDBRANCH   4   8
BRANCH   1  26
HETATM   26  N2  UNL     1      10.250  52.273  83.790  1.00  0.00    -0.382 N 
ATOM     27  H2  UNL     1      10.195  53.095  83.189  1.00  0.00     0.160 HD
BRANCH  26  28
HETATM   28  C10 UNL     1      10.795  51.048  83.272  1.00  0.00     0.115 C 
HETATM   29  C2  UNL     1      10.391  50.819  81.829  1.00  0.00     0.034 C 
HETATM   30  C1  UNL     1       9.387  51.792  81.313  1.00  0.00     0.014 C 
HETATM   31  C3  UNL     1      11.679  50.795  81.052  1.00  0.00     0.279 C 
HETATM   32  N1  UNL     1      12.597  50.284  82.043  1.00  0.00     0.095 N 
HETATM   33  C9  UNL     1      12.310  51.165  83.163  1.00  0.00     0.298 C 
BRANCH  32  34
HETATM   34  C4  UNL     1      13.988  50.456  81.696  1.00  0.00     0.223 C 
HETATM   35  C5  UNL     1      14.740  51.379  82.598  1.00  0.00     0.036 C 
HETATM   36  C6  UNL     1      16.037  51.586  81.806  1.00  0.00     0.002 C 
HETATM   37  C7  UNL     1      15.541  51.731  80.383  1.00  0.00     0.002 C 
HETATM   38  C8  UNL     1      14.166  51.088  80.339  1.00  0.00     0.036 C 
ENDBRANCH  32  34
ENDBRANCH  26  28
ENDBRANCH   1  26
TORSDOF 8
ENDMDL
MODEL 5
REMARK VINA RESULT: -7.384524546      2.351     11.197
REMARK  8 active torsions:
REMARK  status: ('A' for Active; 'I' for Inactive)
REMARK    1  A    between atoms: N1_4  and  C4_5 
REMARK    2  A    between atoms: C10_11  and  N2_12 
REMARK    3  A    between atoms: N2_12  and  C11_14 
REMARK    4  A    between atoms: C14_17  and  C15_18 
REMARK    5  A    between atoms: C16_19  and  C17_20 
REMARK    6  A    between atoms: C17_20  and  N3_21 
REMARK    7  A    between atoms: N4_24  and  C20_25 
REMARK    8  A    between atoms: C20_25  and  C21_26 
ROOT
HETATM    1  C11 UNL     1      10.496  52.460  85.687  1.00  0.00     0.052 A 
HETATM    2  C12 UNL     1      11.637  52.433  86.427  1.00  0.00     0.032 A 
HETATM    3  C13 UNL     1      11.582  52.519  87.822  1.00  0.00     0.023 A 
HETATM    4  C14 UNL     1      10.397  52.631  88.496  1.00  0.00     0.020 A 
HETATM    5  C28 UNL     1       9.220  52.659  87.739  1.00  0.00     0.049 A 
HETATM    6  C29 UNL     1       9.281  52.573  86.369  1.00  0.00     0.074 A 
HETATM    7  N6  UNL     1       8.063  52.605  85.630  1.00  0.00    -0.100 NA
ENDROOT
BRANCH   4   8
HETATM    8  C15 UNL     1      10.307  52.718  89.926  1.00  0.00    -0.061 C 
HETATM    9  C16 UNL     1      10.209  52.781  91.140  1.00  0.00    -0.056 C 
BRANCH   9  10
HETATM   10  C17 UNL     1      10.069  52.841  92.573  1.00  0.00     0.155 C 
BRANCH  10  11
HETATM   11  N3  UNL     1      10.790  53.892  93.134  1.00  0.00    -0.359 N 
HETATM   12  C18 UNL     1      12.001  54.316  92.561  1.00  0.00     0.094 C 
HETATM   13  C19 UNL     1      13.151  53.874  93.418  1.00  0.00     0.317 C 
HETATM   14  N4  UNL     1      12.862  53.983  94.873  1.00  0.00     0.095 N 
HETATM   15  C26 UNL     1      11.758  54.891  95.059  1.00  0.00     0.293 C 
HETATM   16  C27 UNL     1      10.464  54.390  94.407  1.00  0.00     0.158 C 
BRANCH  14  17
HETATM   17  C20 UNL     1      12.754  52.696  95.449  1.00  0.00     0.277 C 
BRANCH  17  18
HETATM   18  C21 UNL     1      13.403  51.530  94.838  1.00  0.00     0.017 C 
HETATM   19  C22 UNL     1      12.584  50.452  94.244  1.00  0.00     0.034 C 
HETATM   20  C23 UNL     1      13.370  49.675  93.179  1.00  0.00     0.232 C 
HETATM   21  N5  UNL     1      14.752  49.734  93.590  1.00  0.00    -0.075 N 
HETATM   22  C24 UNL     1      14.931  49.654  95.017  1.00  0.00     0.232 C 
ATOM     23  H52 UNL     1      15.301  49.016  93.116  1.00  0.00     0.277 HD
ATOM     24  H51 UNL     1      15.205  50.567  93.215  1.00  0.00     0.277 HD
HETATM   25  C25 UNL     1      14.457  50.892  95.752  1.00  0.00     0.034 C 
ENDBRANCH  17  18
ENDBRANCH  14  17
ENDBRANCH  10  11
ENDBRANCH   9  10
ENDBRANCH   4   8
BRANCH   1  26
HETATM   26  N2  UNL     1      10.539  52.353  84.283  1.00  0.00    -0.382 N 
ATOM     27  H2  UNL     1      10.277  53.154  83.707  1.00  0.00     0.160 HD
BRANCH  26  28
HETATM   28  C10 UNL     1      10.949  51.128  83.654  1.00  0.00     0.115 C 
HETATM   29  C2  UNL     1      10.359  50.985  82.264  1.00  0.00     0.034 C 
HETATM   30  C1  UNL     1       9.354  52.029  81.916  1.00  0.00     0.014 C 
HETATM   31  C3  UNL     1      11.540  50.933  81.333  1.00  0.00     0.279 C 
HETATM   32  N1  UNL     1      12.543  50.333  82.181  1.00  0.00     0.095 N 
HETATM   33  C9  UNL     1      12.443  51.175  83.361  1.00  0.00     0.298 C 
BRANCH  32  34
HETATM   34  C4  UNL     1      13.888  50.452  81.671  1.00  0.00     0.223 C 
HETATM   35  C5  UNL     1      14.750  51.416  82.419  1.00  0.00     0.036 C 
HETATM   36  C6  UNL     1      15.952  51.542  81.476  1.00  0.00     0.002 C 
HETATM   37  C7  UNL     1      15.301  51.604  80.109  1.00  0.00     0.002 C 
HETATM   38  C8  UNL     1      13.922  50.988  80.262  1.00  0.00     0.036 C 
ENDBRANCH  32  34
ENDBRANCH  26  28
ENDBRANCH   1  26
TORSDOF 8
ENDMDL
