MODEL 1
REMARK VINA RESULT: -6.963323768      0.000      0.000
REMARK  8 active torsions:
REMARK  status: ('A' for Active; 'I' for Inactive)
REMARK    1  A    between atoms: C2_2  and  S1_3 
REMARK    2  A    between atoms: S1_3  and  N1_6 
REMARK    3  A    between atoms: C10_14  and  O3_15 
REMARK    4  A    between atoms: C11_17  and  N2_18 
REMARK    5  A    between atoms: N2_18  and  C12_20 
REMARK    6  A    between atoms: C15_25  and  N4_26 
REMARK    7  A    between atoms: N4_26  and  C16_28 
REMARK    8  A    between atoms: C16_28  and  C17_29 
ROOT
HETATM    1  N1  UNL     1       9.570  53.009  86.197  1.00  0.00    -0.206 NA
HETATM    2  C3  UNL     1       8.791  52.365  87.239  1.00  0.00     0.112 C 
HETATM    3  C4  UNL     1       9.279  52.634  88.619  1.00  0.00     0.057 C 
HETATM    4  C5  UNL     1      10.693  53.105  88.633  1.00  0.00    -0.015 A 
HETATM    5  C6  UNL     1      11.505  53.041  87.524  1.00  0.00    -0.032 A 
HETATM    6  C7  UNL     1      12.810  53.485  87.564  1.00  0.00     0.046 A 
HETATM    7  C8  UNL     1      13.361  54.015  88.721  1.00  0.00     0.080 A 
HETATM    8  C9  UNL     1      12.549  54.079  89.830  1.00  0.00     0.034 A 
HETATM    9  C10 UNL     1      11.244  53.633  89.784  1.00  0.00     0.083 A 
HETATM   10  C11 UNL     1      13.382  54.674  90.910  1.00  0.00     0.146 C 
HETATM   11  C21 UNL     1      14.384  55.462  90.111  1.00  0.00     0.206 C 
HETATM   12  O5  UNL     1      14.631  54.531  89.043  1.00  0.00    -0.348 OA
HETATM   13  C22 UNL     1      10.916  52.476  86.290  1.00  0.00     0.146 C 
ENDROOT
BRANCH  10  14
HETATM   14  N2  UNL     1      13.959  53.611  91.664  1.00  0.00    -0.365 N 
ATOM     15  H2  UNL     1      14.933  53.387  91.460  1.00  0.00     0.162 HD
BRANCH  14  16
HETATM   16  C12 UNL     1      13.389  52.904  92.574  1.00  0.00     0.118 A 
HETATM   17  C13 UNL     1      13.690  51.579  92.809  1.00  0.00     0.066 A 
HETATM   18  C14 UNL     1      13.045  50.876  93.803  1.00  0.00     0.110 A 
HETATM   19  N3  UNL     1      12.104  51.469  94.570  1.00  0.00    -0.202 N 
HETATM   20  C15 UNL     1      11.821  52.761  94.330  1.00  0.00     0.679 A 
ATOM     21  H3  UNL     1      11.623  50.952  95.307  1.00  0.00     0.183 HD
HETATM   22  N5  UNL     1      12.449  53.463  93.356  1.00  0.00    -0.177 N 
ATOM     23  H5  UNL     1      12.201  54.442  93.212  1.00  0.00     0.185 HD
BRANCH  20  24
HETATM   24  N4  UNL     1      10.913  53.347  95.068  1.00  0.00    -0.226 N 
ATOM     25  H4  UNL     1      10.665  52.904  95.952  1.00  0.00     0.177 HD
BRANCH  24  26
HETATM   26  C16 UNL     1      10.245  54.563  94.724  1.00  0.00     0.144 C 
BRANCH  26  27
HETATM   27  C17 UNL     1      10.651  55.663  95.662  1.00  0.00     0.030 C 
HETATM   28  C18 UNL     1      11.582  56.663  94.983  1.00  0.00     0.034 C 
HETATM   29  C19 UNL     1      11.129  57.955  95.675  1.00  0.00     0.168 C 
HETATM   30  O4  UNL     1       9.742  57.817  95.568  1.00  0.00    -0.391 OA
HETATM   31  C20 UNL     1       9.457  56.538  95.968  1.00  0.00     0.173 C 
ENDBRANCH  26  27
ENDBRANCH  24  26
ENDBRANCH  20  24
ENDBRANCH  14  16
ENDBRANCH  10  14
BRANCH   9  32
HETATM   32  O3  UNL     1      10.427  53.705  90.928  1.00  0.00    -0.359 OA
ATOM     33  H3  UNL     1      10.302  54.557  91.331  1.00  0.00     0.217 HD
ENDBRANCH   9  32
BRANCH   1  34
HETATM   34  S1  UNL     1       8.921  52.577  84.665  1.00  0.00     0.211 S 
HETATM   35  O1  UNL     1       7.622  51.838  84.824  1.00  0.00    -0.211 OA
HETATM   36  O2  UNL     1       8.638  53.803  83.844  1.00  0.00    -0.211 OA
BRANCH  34  37
HETATM   37  C2  UNL     1      10.029  51.536  83.749  1.00  0.00     0.153 C 
HETATM   38  C1  UNL     1      10.182  52.021  82.318  1.00  0.00     0.022 C 
ENDBRANCH  34  37
ENDBRANCH   1  34
TORSDOF 8
ENDMDL
MODEL 2
REMARK VINA RESULT: -6.825898885      4.505     10.074
REMARK  8 active torsions:
REMARK  status: ('A' for Active; 'I' for Inactive)
REMARK    1  A    between atoms: C2_2  and  S1_3 
REMARK    2  A    between atoms: S1_3  and  N1_6 
REMARK    3  A    between atoms: C10_14  and  O3_15 
REMARK    4  A    between atoms: C11_17  and  N2_18 
REMARK    5  A    between atoms: N2_18  and  C12_20 
REMARK    6  A    between atoms: C15_25  and  N4_26 
REMARK    7  A    between atoms: N4_26  and  C16_28 
REMARK    8  A    between atoms: C16_28  and  C17_29 
ROOT
HETATM    1  N1  UNL     1      12.571  52.855  87.523  1.00  0.00    -0.206 NA
HETATM    2  C3  UNL     1      11.254  52.314  87.245  1.00  0.00     0.112 C 
HETATM    3  C4  UNL     1      11.166  51.544  85.974  1.00  0.00     0.057 C 
HETATM    4  C5  UNL     1      12.283  51.869  85.043  1.00  0.00    -0.015 A 
HETATM    5  C6  UNL     1      13.128  52.936  85.244  1.00  0.00    -0.032 A 
HETATM    6  C7  UNL     1      14.155  53.214  84.367  1.00  0.00     0.046 A 
HETATM    7  C8  UNL     1      14.382  52.431  83.245  1.00  0.00     0.080 A 
HETATM    8  C9  UNL     1      13.538  51.363  83.044  1.00  0.00     0.034 A 
HETATM    9  C10 UNL     1      12.511  51.091  83.925  1.00  0.00     0.083 A 
HETATM   10  C11 UNL     1      13.999  50.711  81.788  1.00  0.00     0.146 C 
HETATM   11  C21 UNL     1      15.448  51.115  81.760  1.00  0.00     0.206 C 
HETATM   12  O5  UNL     1      15.330  52.477  82.205  1.00  0.00    -0.348 OA
HETATM   13  C22 UNL     1      12.884  53.771  86.441  1.00  0.00     0.146 C 
ENDROOT
BRANCH  10  14
HETATM   14  N2  UNL     1      13.236  51.238  80.706  1.00  0.00    -0.365 N 
ATOM     15  H2  UNL     1      13.673  51.981  80.162  1.00  0.00     0.162 HD
BRANCH  14  16
HETATM   16  C12 UNL     1      12.056  50.880  80.340  1.00  0.00     0.118 A 
HETATM   17  C13 UNL     1      11.765  49.635  79.822  1.00  0.00     0.066 A 
HETATM   18  C14 UNL     1      10.479  49.310  79.450  1.00  0.00     0.110 A 
HETATM   19  N3  UNL     1       9.474  50.204  79.585  1.00  0.00    -0.202 N 
HETATM   20  C15 UNL     1       9.773  51.413  80.091  1.00  0.00     0.679 A 
ATOM     21  H3  UNL     1       8.520  49.969  79.311  1.00  0.00     0.183 HD
HETATM   22  N5  UNL     1      11.034  51.743  80.460  1.00  0.00    -0.177 N 
ATOM     23  H5  UNL     1      11.212  52.673  80.841  1.00  0.00     0.185 HD
BRANCH  20  24
HETATM   24  N4  UNL     1       8.808  52.286  80.229  1.00  0.00    -0.226 N 
ATOM     25  H4  UNL     1       8.879  53.157  79.704  1.00  0.00     0.177 HD
BRANCH  24  26
HETATM   26  C16 UNL     1       7.661  52.106  81.063  1.00  0.00     0.144 C 
BRANCH  26  27
HETATM   27  C17 UNL     1       8.080  51.930  82.494  1.00  0.00     0.030 C 
HETATM   28  C18 UNL     1       8.859  53.138  83.004  1.00  0.00     0.034 C 
HETATM   29  C19 UNL     1       8.387  53.159  84.462  1.00  0.00     0.168 C 
HETATM   30  O4  UNL     1       7.009  53.003  84.276  1.00  0.00    -0.391 OA
HETATM   31  C20 UNL     1       6.863  51.968  83.389  1.00  0.00     0.173 C 
ENDBRANCH  26  27
ENDBRANCH  24  26
ENDBRANCH  20  24
ENDBRANCH  14  16
ENDBRANCH  10  14
BRANCH   9  32
HETATM   32  O3  UNL     1      11.656  49.994  83.704  1.00  0.00    -0.359 OA
ATOM     33  H3  UNL     1      11.542  49.371  84.412  1.00  0.00     0.217 HD
ENDBRANCH   9  32
BRANCH   1  34
HETATM   34  S1  UNL     1      12.512  53.749  88.989  1.00  0.00     0.211 S 
HETATM   35  O1  UNL     1      11.132  54.293  89.228  1.00  0.00    -0.211 OA
HETATM   36  O2  UNL     1      12.853  52.871  90.160  1.00  0.00    -0.211 OA
BRANCH  34  37
HETATM   37  C2  UNL     1      13.639  55.120  88.973  1.00  0.00     0.153 C 
HETATM   38  C1  UNL     1      14.735  54.943  90.009  1.00  0.00     0.022 C 
ENDBRANCH  34  37
ENDBRANCH   1  34
TORSDOF 8
ENDMDL
MODEL 3
REMARK VINA RESULT: -6.697922739      3.518      9.321
REMARK  8 active torsions:
REMARK  status: ('A' for Active; 'I' for Inactive)
REMARK    1  A    between atoms: C2_2  and  S1_3 
REMARK    2  A    between atoms: S1_3  and  N1_6 
REMARK    3  A    between atoms: C10_14  and  O3_15 
REMARK    4  A    between atoms: C11_17  and  N2_18 
REMARK    5  A    between atoms: N2_18  and  C12_20 
REMARK    6  A    between atoms: C15_25  and  N4_26 
REMARK    7  A    between atoms: N4_26  and  C16_28 
REMARK    8  A    between atoms: C16_28  and  C17_29 
ROOT
HETATM    1  N1  UNL     1       9.377  54.724  97.474  1.00  0.00    -0.206 NA
HETATM    2  C3  UNL     1       8.967  55.672  96.454  1.00  0.00     0.112 C 
HETATM    3  C4  UNL     1       9.453  55.345  95.086  1.00  0.00     0.057 C 
HETATM    4  C5  UNL     1      10.612  54.408  95.111  1.00  0.00    -0.015 A 
HETATM    5  C6  UNL     1      11.292  54.103  96.268  1.00  0.00    -0.032 A 
HETATM    6  C7  UNL     1      12.361  53.232  96.263  1.00  0.00     0.046 A 
HETATM    7  C8  UNL     1      12.796  52.624  95.095  1.00  0.00     0.080 A 
HETATM    8  C9  UNL     1      12.115  52.927  93.938  1.00  0.00     0.034 A 
HETATM    9  C10 UNL     1      11.046  53.801  93.950  1.00  0.00     0.083 A 
HETATM   10  C11 UNL     1      12.784  52.153  92.858  1.00  0.00     0.146 C 
HETATM   11  C21 UNL     1      13.374  51.009  93.635  1.00  0.00     0.206 C 
HETATM   12  O5  UNL     1      13.832  51.716  94.801  1.00  0.00    -0.348 OA
HETATM   13  C22 UNL     1      10.828  54.753  97.513  1.00  0.00     0.146 C 
ENDROOT
BRANCH  10  14
HETATM   14  N2  UNL     1      13.758  52.994  92.245  1.00  0.00    -0.365 N 
ATOM     15  H2  UNL     1      14.665  53.048  92.708  1.00  0.00     0.162 HD
BRANCH  14  16
HETATM   16  C12 UNL     1      13.621  53.691  91.174  1.00  0.00     0.118 A 
HETATM   17  C13 UNL     1      14.271  54.887  90.956  1.00  0.00     0.066 A 
HETATM   18  C14 UNL     1      14.085  55.586  89.783  1.00  0.00     0.110 A 
HETATM   19  N3  UNL     1      13.261  55.116  88.822  1.00  0.00    -0.202 N 
HETATM   20  C15 UNL     1      12.633  53.949  89.048  1.00  0.00     0.679 A 
ATOM     21  H3  UNL     1      13.119  55.630  87.952  1.00  0.00     0.183 HD
HETATM   22  N5  UNL     1      12.809  53.252  90.196  1.00  0.00    -0.177 N 
ATOM     23  H5  UNL     1      12.312  52.370  90.323  1.00  0.00     0.185 HD
BRANCH  20  24
HETATM   24  N4  UNL     1      11.835  53.481  88.123  1.00  0.00    -0.226 N 
ATOM     25  H4  UNL     1      11.360  54.156  87.523  1.00  0.00     0.177 HD
BRANCH  24  26
HETATM   26  C16 UNL     1      11.579  52.094  87.892  1.00  0.00     0.144 C 
BRANCH  26  27
HETATM   27  C17 UNL     1      10.960  51.896  86.540  1.00  0.00     0.030 C 
HETATM   28  C18 UNL     1       9.585  52.552  86.451  1.00  0.00     0.034 C 
HETATM   29  C19 UNL     1       9.602  52.999  84.984  1.00  0.00     0.168 C 
HETATM   30  O4  UNL     1      10.872  53.581  84.919  1.00  0.00    -0.391 OA
HETATM   31  C20 UNL     1      11.728  52.686  85.506  1.00  0.00     0.173 C 
ENDBRANCH  26  27
ENDBRANCH  24  26
ENDBRANCH  20  24
ENDBRANCH  14  16
ENDBRANCH  10  14
BRANCH   9  32
HETATM   32  O3  UNL     1      10.361  54.101  92.757  1.00  0.00    -0.359 OA
ATOM     33  H3  UNL     1       9.495  53.728  92.638  1.00  0.00     0.217 HD
ENDBRANCH   9  32
BRANCH   1  34
HETATM   34  S1  UNL     1       8.784  55.249  98.998  1.00  0.00     0.211 S 
HETATM   35  O1  UNL     1       9.903  55.769  99.858  1.00  0.00    -0.211 OA
HETATM   36  O2  UNL     1       7.798  56.370  98.827  1.00  0.00    -0.211 OA
BRANCH  34  37
HETATM   37  C2  UNL     1       7.986  53.935  99.885  1.00  0.00     0.153 C 
HETATM   38  C1  UNL     1       8.305  52.584  99.271  1.00  0.00     0.022 C 
ENDBRANCH  34  37
ENDBRANCH   1  34
TORSDOF 8
ENDMDL
MODEL 4
REMARK VINA RESULT: -6.689065001      1.107      1.359
REMARK  8 active torsions:
REMARK  status: ('A' for Active; 'I' for Inactive)
REMARK    1  A    between atoms: C2_2  and  S1_3 
REMARK    2  A    between atoms: S1_3  and  N1_6 
REMARK    3  A    between atoms: C10_14  and  O3_15 
REMARK    4  A    between atoms: C11_17  and  N2_18 
REMARK    5  A    between atoms: N2_18  and  C12_20 
REMARK    6  A    between atoms: C15_25  and  N4_26 
REMARK    7  A    between atoms: N4_26  and  C16_28 
REMARK    8  A    between atoms: C16_28  and  C17_29 
ROOT
HETATM    1  N1  UNL     1       9.979  53.056  85.695  1.00  0.00    -0.206 NA
HETATM    2  C3  UNL     1       9.159  52.379  86.683  1.00  0.00     0.112 C 
HETATM    3  C4  UNL     1       9.555  52.647  88.093  1.00  0.00     0.057 C 
HETATM    4  C5  UNL     1      10.952  53.158  88.195  1.00  0.00    -0.015 A 
HETATM    5  C6  UNL     1      11.830  53.130  87.136  1.00  0.00    -0.032 A 
HETATM    6  C7  UNL     1      13.117  53.610  87.258  1.00  0.00     0.046 A 
HETATM    7  C8  UNL     1      13.582  54.143  88.451  1.00  0.00     0.080 A 
HETATM    8  C9  UNL     1      12.704  54.173  89.510  1.00  0.00     0.034 A 
HETATM    9  C10 UNL     1      11.417  53.690  89.382  1.00  0.00     0.083 A 
HETATM   10  C11 UNL     1      13.453  54.780  90.643  1.00  0.00     0.146 C 
HETATM   11  C21 UNL     1      14.477  55.605  89.912  1.00  0.00     0.206 C 
HETATM   12  O5  UNL     1      14.815  54.693  88.853  1.00  0.00    -0.348 OA
HETATM   13  C22 UNL     1      11.333  52.560  85.864  1.00  0.00     0.146 C 
ENDROOT
BRANCH  10  14
HETATM   14  N2  UNL     1      14.015  53.727  91.421  1.00  0.00    -0.365 N 
ATOM     15  H2  UNL     1      14.868  53.301  91.060  1.00  0.00     0.162 HD
BRANCH  14  16
HETATM   16  C12 UNL     1      13.565  53.253  92.529  1.00  0.00     0.118 A 
HETATM   17  C13 UNL     1      13.581  51.911  92.845  1.00  0.00     0.066 A 
HETATM   18  C14 UNL     1      13.087  51.466  94.052  1.00  0.00     0.110 A 
HETATM   19  N3  UNL     1      12.577  52.335  94.952  1.00  0.00    -0.202 N 
HETATM   20  C15 UNL     1      12.568  53.640  94.630  1.00  0.00     0.679 A 
ATOM     21  H3  UNL     1      12.209  52.011  95.847  1.00  0.00     0.183 HD
HETATM   22  N5  UNL     1      13.051  54.089  93.447  1.00  0.00    -0.177 N 
ATOM     23  H5  UNL     1      13.025  55.089  93.248  1.00  0.00     0.185 HD
BRANCH  20  24
HETATM   24  N4  UNL     1      12.079  54.491  95.495  1.00  0.00    -0.226 N 
ATOM     25  H4  UNL     1      12.044  54.204  96.473  1.00  0.00     0.177 HD
BRANCH  24  26
HETATM   26  C16 UNL     1      11.590  55.794  95.169  1.00  0.00     0.144 C 
BRANCH  26  27
HETATM   27  C17 UNL     1      10.387  56.124  96.004  1.00  0.00     0.030 C 
HETATM   28  C18 UNL     1       9.984  57.587  95.853  1.00  0.00     0.034 C 
HETATM   29  C19 UNL     1       8.461  57.453  95.971  1.00  0.00     0.168 C 
HETATM   30  O4  UNL     1       8.242  56.376  95.106  1.00  0.00    -0.391 OA
HETATM   31  C20 UNL     1       9.170  55.426  95.444  1.00  0.00     0.173 C 
ENDBRANCH  26  27
ENDBRANCH  24  26
ENDBRANCH  20  24
ENDBRANCH  14  16
ENDBRANCH  10  14
BRANCH   9  32
HETATM   32  O3  UNL     1      10.531  53.727  90.476  1.00  0.00    -0.359 OA
ATOM     33  H3  UNL     1      10.904  53.697  91.349  1.00  0.00     0.217 HD
ENDBRANCH   9  32
BRANCH   1  34
HETATM   34  S1  UNL     1       9.436  52.621  84.124  1.00  0.00     0.211 S 
HETATM   35  O1  UNL     1       8.701  53.762  83.478  1.00  0.00    -0.211 OA
HETATM   36  O2  UNL     1      10.599  52.281  83.236  1.00  0.00    -0.211 OA
BRANCH  34  37
HETATM   37  C2  UNL     1       8.340  51.226  84.166  1.00  0.00     0.153 C 
HETATM   38  C1  UNL     1       6.966  51.589  83.632  1.00  0.00     0.022 C 
ENDBRANCH  34  37
ENDBRANCH   1  34
TORSDOF 8
ENDMDL
MODEL 5
REMARK VINA RESULT: -6.592529847      3.738      9.993
REMARK  8 active torsions:
REMARK  status: ('A' for Active; 'I' for Inactive)
REMARK    1  A    between atoms: C2_2  and  S1_3 
REMARK    2  A    between atoms: S1_3  and  N1_6 
REMARK    3  A    between atoms: C10_14  and  O3_15 
REMARK    4  A    between atoms: C11_17  and  N2_18 
REMARK    5  A    between atoms: N2_18  and  C12_20 
REMARK    6  A    between atoms: C15_25  and  N4_26 
REMARK    7  A    between atoms: N4_26  and  C16_28 
REMARK    8  A    between atoms: C16_28  and  C17_29 
ROOT
HETATM    1  N1  UNL     1      10.935  54.896  93.961  1.00  0.00    -0.206 NA
HETATM    2  C3  UNL     1      12.355  54.601  93.916  1.00  0.00     0.112 C 
HETATM    3  C4  UNL     1      12.850  54.189  92.574  1.00  0.00     0.057 C 
HETATM    4  C5  UNL     1      11.746  53.723  91.687  1.00  0.00    -0.015 A 
HETATM    5  C6  UNL     1      10.479  53.468  92.156  1.00  0.00    -0.032 A 
HETATM    6  C7  UNL     1       9.475  53.038  91.313  1.00  0.00     0.046 A 
HETATM    7  C8  UNL     1       9.698  52.846  89.958  1.00  0.00     0.080 A 
HETATM    8  C9  UNL     1      10.966  53.102  89.489  1.00  0.00     0.034 A 
HETATM    9  C10 UNL     1      11.967  53.531  90.338  1.00  0.00     0.083 A 
HETATM   10  C11 UNL     1      10.926  52.814  88.030  1.00  0.00     0.146 C 
HETATM   11  C21 UNL     1       9.469  53.032  87.725  1.00  0.00     0.206 C 
HETATM   12  O5  UNL     1       8.883  52.425  88.890  1.00  0.00    -0.348 OA
HETATM   13  C22 UNL     1      10.241  53.673  93.602  1.00  0.00     0.146 C 
ENDROOT
BRANCH  10  14
HETATM   14  N2  UNL     1      11.359  51.471  87.828  1.00  0.00    -0.365 N 
ATOM     15  H2  UNL     1      11.621  50.949  88.664  1.00  0.00     0.162 HD
BRANCH  14  16
HETATM   16  C12 UNL     1      11.455  50.844  86.710  1.00  0.00     0.118 A 
HETATM   17  C13 UNL     1      11.074  49.530  86.539  1.00  0.00     0.066 A 
HETATM   18  C14 UNL     1      11.199  48.914  85.312  1.00  0.00     0.110 A 
HETATM   19  N3  UNL     1      11.698  49.585  84.251  1.00  0.00    -0.202 N 
HETATM   20  C15 UNL     1      12.066  50.865  84.433  1.00  0.00     0.679 A 
ATOM     21  H3  UNL     1      11.793  49.133  83.340  1.00  0.00     0.183 HD
HETATM   22  N5  UNL     1      11.947  51.481  85.633  1.00  0.00    -0.177 N 
ATOM     23  H5  UNL     1      12.238  52.454  85.723  1.00  0.00     0.185 HD
BRANCH  20  24
HETATM   24  N4  UNL     1      12.548  51.526  83.411  1.00  0.00    -0.226 N 
ATOM     25  H4  UNL     1      11.914  51.732  82.639  1.00  0.00     0.177 HD
BRANCH  24  26
HETATM   26  C16 UNL     1      13.899  51.979  83.298  1.00  0.00     0.144 C 
BRANCH  26  27
HETATM   27  C17 UNL     1      14.659  51.116  82.334  1.00  0.00     0.030 C 
HETATM   28  C18 UNL     1      13.892  50.920  81.030  1.00  0.00     0.034 C 
HETATM   29  C19 UNL     1      15.062  50.872  80.041  1.00  0.00     0.168 C 
HETATM   30  O4  UNL     1      15.801  51.975  80.482  1.00  0.00    -0.391 OA
HETATM   31  C20 UNL     1      15.883  51.854  81.844  1.00  0.00     0.173 C 
ENDBRANCH  26  27
ENDBRANCH  24  26
ENDBRANCH  20  24
ENDBRANCH  14  16
ENDBRANCH  10  14
BRANCH   9  32
HETATM   32  O3  UNL     1      13.259  53.788  89.841  1.00  0.00    -0.359 OA
ATOM     33  H3  UNL     1      13.458  54.674  89.561  1.00  0.00     0.217 HD
ENDBRANCH   9  32
BRANCH   1  34
HETATM   34  S1  UNL     1      10.501  55.312  95.571  1.00  0.00     0.211 S 
HETATM   35  O1  UNL     1       9.296  54.532  96.018  1.00  0.00    -0.211 OA
HETATM   36  O2  UNL     1      11.618  54.989  96.522  1.00  0.00    -0.211 OA
BRANCH  34  37
HETATM   37  C2  UNL     1      10.116  57.038  95.726  1.00  0.00     0.153 C 
HETATM   38  C1  UNL     1      11.330  57.900  95.429  1.00  0.00     0.022 C 
ENDBRANCH  34  37
ENDBRANCH   1  34
TORSDOF 8
ENDMDL
