MODEL 1
REMARK VINA RESULT: -7.348202991      0.000      0.000
REMARK  7 active torsions:
REMARK  status: ('A' for Active; 'I' for Inactive)
REMARK    1  A    between atoms: O1_2  and  C2_3 
REMARK    2  A    between atoms: C7_8  and  O2_9 
REMARK    3  A    between atoms: N1_13  and  C10_14 
REMARK    4  A    between atoms: C10_14  and  C11_15 
REMARK    5  A    between atoms: C11_15  and  C12_16 
REMARK    6  A    between atoms: C13_17  and  C14_18 
REMARK    7  A    between atoms: C17_23  and  N3_24 
REMARK       I    between atoms: C18_26  and  N5_28 
ROOT
HETATM    1  C11 UNL     1      10.249  52.115  86.153  1.00  0.00     0.196 C 
HETATM    2  N6  UNL     1      10.325  53.073  85.100  1.00  0.00    -0.313 N 
ATOM      3  H6  UNL     1      11.163  53.576  84.811  1.00  0.00     0.166 HD
HETATM    4  C22 UNL     1       9.039  53.206  84.526  1.00  0.00     0.324 C 
HETATM    5  O4  UNL     1       8.705  53.766  83.446  1.00  0.00    -0.247 OA
HETATM    6  N7  UNL     1       8.101  52.565  85.418  1.00  0.00    -0.276 N 
ATOM      7  H7  UNL     1       7.094  52.497  85.275  1.00  0.00     0.173 HD
HETATM    8  C23 UNL     1       8.812  52.052  86.518  1.00  0.00     0.268 C 
HETATM    9  O5  UNL     1       8.353  51.632  87.579  1.00  0.00    -0.269 OA
ENDROOT
BRANCH   1  10
HETATM   10  C10 UNL     1      10.841  50.782  85.880  1.00  0.00     0.181 C 
BRANCH  10  11
HETATM   11  N1  UNL     1      11.458  50.598  84.596  1.00  0.00    -0.340 N 
HETATM   12  C9  UNL     1      12.558  51.333  84.085  1.00  0.00     0.254 A 
HETATM   13  C5  UNL     1      12.848  50.794  82.765  1.00  0.00     0.043 A 
HETATM   14  O3  UNL     1      13.206  52.273  84.602  1.00  0.00    -0.267 OA
HETATM   15  C4  UNL     1      11.976  49.776  82.459  1.00  0.00    -0.022 A 
HETATM   16  C6  UNL     1      13.841  51.143  81.838  1.00  0.00     0.057 A 
HETATM   17  C3  UNL     1      12.070  49.098  81.252  1.00  0.00     0.049 A 
HETATM   18  C24 UNL     1      11.038  49.638  83.603  1.00  0.00     0.165 A 
HETATM   19  C2  UNL     1      13.054  49.470  80.375  1.00  0.00     0.102 A 
HETATM   20  C7  UNL     1      13.947  50.480  80.635  1.00  0.00     0.102 A 
BRANCH  19  21
HETATM   21  O1  UNL     1      13.166  48.794  79.147  1.00  0.00    -0.353 OA
HETATM   22  C1  UNL     1      12.675  47.478  78.981  1.00  0.00     0.210 C 
ENDBRANCH  19  21
BRANCH  20  23
HETATM   23  O2  UNL     1      14.935  50.838  79.732  1.00  0.00    -0.353 OA
HETATM   24  C8  UNL     1      15.831  51.891  79.934  1.00  0.00     0.210 C 
ENDBRANCH  20  23
ENDBRANCH  10  11
ENDBRANCH   1  10
BRANCH   1  25
HETATM   25  C12 UNL     1      11.019  52.641  87.331  1.00  0.00    -0.057 C 
HETATM   26  C13 UNL     1      11.657  53.058  88.265  1.00  0.00    -0.062 C 
BRANCH  26  27
HETATM   27  C14 UNL     1      12.438  53.542  89.370  1.00  0.00     0.035 A 
HETATM   28  C15 UNL     1      13.367  54.556  89.257  1.00  0.00     0.108 A 
HETATM   29  N2  UNL     1      14.088  54.992  90.303  1.00  0.00    -0.372 N 
HETATM   30  C16 UNL     1      13.955  54.472  91.533  1.00  0.00     0.117 A 
ATOM     31  H2  UNL     1      14.761  55.746  90.158  1.00  0.00     0.164 HD
HETATM   32  C17 UNL     1      13.047  53.455  91.730  1.00  0.00     0.051 A 
HETATM   33  C21 UNL     1      12.298  53.004  90.631  1.00  0.00     0.053 A 
BRANCH  32  34
HETATM   34  N3  UNL     1      12.886  52.899  93.005  1.00  0.00    -0.329 N 
HETATM   35  C18 UNL     1      13.371  51.780  93.379  1.00  0.00     0.190 C 
HETATM   36  N4  UNL     1      14.137  50.987  92.503  1.00  0.00    -0.063 NA
HETATM   37  N5  UNL     1      13.109  51.360  94.716  1.00  0.00    -0.364 N 
HETATM   38  C19 UNL     1      12.044  50.445  95.009  1.00  0.00     0.151 C 
HETATM   39  C20 UNL     1      13.956  51.891  95.757  1.00  0.00     0.151 C 
ATOM     40  H3  UNL     1      12.341  53.428  93.686  1.00  0.00     0.168 HD
ENDBRANCH  32  34
ENDBRANCH  26  27
ENDBRANCH   1  25
TORSDOF 7
ENDMDL
MODEL 2
REMARK VINA RESULT: -7.174281611      0.816      1.910
REMARK  7 active torsions:
REMARK  status: ('A' for Active; 'I' for Inactive)
REMARK    1  A    between atoms: O1_2  and  C2_3 
REMARK    2  A    between atoms: C7_8  and  O2_9 
REMARK    3  A    between atoms: N1_13  and  C10_14 
REMARK    4  A    between atoms: C10_14  and  C11_15 
REMARK    5  A    between atoms: C11_15  and  C12_16 
REMARK    6  A    between atoms: C13_17  and  C14_18 
REMARK    7  A    between atoms: C17_23  and  N3_24 
REMARK       I    between atoms: C18_26  and  N5_28 
ROOT
HETATM    1  C11 UNL     1      10.240  52.116  86.327  1.00  0.00     0.196 C 
HETATM    2  N6  UNL     1      10.323  53.068  85.269  1.00  0.00    -0.313 N 
ATOM      3  H6  UNL     1      11.165  53.562  84.976  1.00  0.00     0.166 HD
HETATM    4  C22 UNL     1       9.038  53.209  84.695  1.00  0.00     0.324 C 
HETATM    5  O4  UNL     1       8.708  53.766  83.612  1.00  0.00    -0.247 OA
HETATM    6  N7  UNL     1       8.095  52.581  85.591  1.00  0.00    -0.276 N 
ATOM      7  H7  UNL     1       7.087  52.520  85.449  1.00  0.00     0.173 HD
HETATM    8  C23 UNL     1       8.803  52.067  86.693  1.00  0.00     0.268 C 
HETATM    9  O5  UNL     1       8.341  51.656  87.757  1.00  0.00    -0.269 OA
ENDROOT
BRANCH   1  10
HETATM   10  C10 UNL     1      10.821  50.777  86.061  1.00  0.00     0.181 C 
BRANCH  10  11
HETATM   11  N1  UNL     1      11.466  50.592  84.791  1.00  0.00    -0.340 N 
HETATM   12  C9  UNL     1      11.009  49.764  83.734  1.00  0.00     0.254 A 
HETATM   13  C5  UNL     1      11.966  49.901  82.647  1.00  0.00     0.043 A 
HETATM   14  O3  UNL     1       9.995  49.030  83.670  1.00  0.00    -0.267 OA
HETATM   15  C4  UNL     1      12.974  50.767  83.000  1.00  0.00    -0.022 A 
HETATM   16  C6  UNL     1      11.983  49.318  81.372  1.00  0.00     0.057 A 
HETATM   17  C3  UNL     1      13.998  51.065  82.113  1.00  0.00     0.049 A 
HETATM   18  C24 UNL     1      12.707  51.211  84.392  1.00  0.00     0.165 A 
HETATM   19  C2  UNL     1      13.977  50.476  80.877  1.00  0.00     0.102 A 
HETATM   20  C7  UNL     1      12.992  49.604  80.479  1.00  0.00     0.102 A 
BRANCH  19  21
HETATM   21  O1  UNL     1      15.006  50.767  79.964  1.00  0.00    -0.353 OA
HETATM   22  C1  UNL     1      15.831  51.904  80.119  1.00  0.00     0.210 C 
ENDBRANCH  19  21
BRANCH  20  23
HETATM   23  O2  UNL     1      12.993  49.021  79.222  1.00  0.00    -0.353 OA
HETATM   24  C8  UNL     1      12.788  47.657  78.998  1.00  0.00     0.210 C 
ENDBRANCH  20  23
ENDBRANCH  10  11
ENDBRANCH   1  10
BRANCH   1  25
HETATM   25  C12 UNL     1      11.015  52.642  87.501  1.00  0.00    -0.057 C 
HETATM   26  C13 UNL     1      11.656  53.051  88.437  1.00  0.00    -0.062 C 
BRANCH  26  27
HETATM   27  C14 UNL     1      12.435  53.518  89.550  1.00  0.00     0.035 A 
HETATM   28  C15 UNL     1      13.288  54.602  89.479  1.00  0.00     0.108 A 
HETATM   29  N2  UNL     1      14.009  55.021  90.532  1.00  0.00    -0.372 N 
HETATM   30  C16 UNL     1      13.951  54.417  91.728  1.00  0.00     0.117 A 
ATOM     31  H2  UNL     1      14.623  55.829  90.418  1.00  0.00     0.164 HD
HETATM   32  C17 UNL     1      13.123  53.326  91.883  1.00  0.00     0.051 A 
HETATM   33  C21 UNL     1      12.373  52.894  90.776  1.00  0.00     0.053 A 
BRANCH  32  34
HETATM   34  N3  UNL     1      13.041  52.681  93.122  1.00  0.00    -0.329 N 
HETATM   35  C18 UNL     1      13.575  51.555  93.395  1.00  0.00     0.190 C 
HETATM   36  N4  UNL     1      14.320  50.848  92.431  1.00  0.00    -0.063 NA
HETATM   37  N5  UNL     1      13.392  51.038  94.710  1.00  0.00    -0.364 N 
HETATM   38  C19 UNL     1      12.369  50.072  94.989  1.00  0.00     0.151 C 
HETATM   39  C20 UNL     1      14.273  51.524  95.744  1.00  0.00     0.151 C 
ATOM     40  H3  UNL     1      12.515  53.145  93.863  1.00  0.00     0.168 HD
ENDBRANCH  32  34
ENDBRANCH  26  27
ENDBRANCH   1  25
TORSDOF 7
ENDMDL
MODEL 3
REMARK VINA RESULT: -7.058673638      0.820      1.204
REMARK  7 active torsions:
REMARK  status: ('A' for Active; 'I' for Inactive)
REMARK    1  A    between atoms: O1_2  and  C2_3 
REMARK    2  A    between atoms: C7_8  and  O2_9 
REMARK    3  A    between atoms: N1_13  and  C10_14 
REMARK    4  A    between atoms: C10_14  and  C11_15 
REMARK    5  A    between atoms: C11_15  and  C12_16 
REMARK    6  A    between atoms: C13_17  and  C14_18 
REMARK    7  A    between atoms: C17_23  and  N3_24 
REMARK       I    between atoms: C18_26  and  N5_28 
ROOT
HETATM    1  C11 UNL     1      10.279  52.115  86.240  1.00  0.00     0.196 C 
HETATM    2  N6  UNL     1      10.339  53.082  85.194  1.00  0.00    -0.313 N 
ATOM      3  H6  UNL     1      11.169  53.598  84.906  1.00  0.00     0.166 HD
HETATM    4  C22 UNL     1       9.050  53.202  84.625  1.00  0.00     0.324 C 
HETATM    5  O4  UNL     1       8.705  53.766  83.550  1.00  0.00    -0.247 OA
HETATM    6  N7  UNL     1       8.123  52.542  85.515  1.00  0.00    -0.276 N 
ATOM      7  H7  UNL     1       7.116  52.461  85.374  1.00  0.00     0.173 HD
HETATM    8  C23 UNL     1       8.844  52.030  86.608  1.00  0.00     0.268 C 
HETATM    9  O5  UNL     1       8.394  51.595  87.668  1.00  0.00    -0.269 OA
ENDROOT
BRANCH   1  10
HETATM   10  C10 UNL     1      10.888  50.792  85.954  1.00  0.00     0.181 C 
BRANCH  10  11
HETATM   11  N1  UNL     1      11.484  50.619  84.659  1.00  0.00    -0.340 N 
HETATM   12  C9  UNL     1      12.560  51.373  84.128  1.00  0.00     0.254 A 
HETATM   13  C5  UNL     1      12.835  50.840  82.802  1.00  0.00     0.043 A 
HETATM   14  O3  UNL     1      13.201  52.325  84.632  1.00  0.00    -0.267 OA
HETATM   15  C4  UNL     1      11.977  49.806  82.512  1.00  0.00    -0.022 A 
HETATM   16  C6  UNL     1      13.804  51.207  81.857  1.00  0.00     0.057 A 
HETATM   17  C3  UNL     1      12.060  49.129  81.304  1.00  0.00     0.049 A 
HETATM   18  C24 UNL     1      11.063  49.652  83.674  1.00  0.00     0.165 A 
HETATM   19  C2  UNL     1      13.021  49.519  80.409  1.00  0.00     0.102 A 
HETATM   20  C7  UNL     1      13.900  50.545  80.652  1.00  0.00     0.102 A 
BRANCH  19  21
HETATM   21  O1  UNL     1      13.121  48.845  79.179  1.00  0.00    -0.353 OA
HETATM   22  C1  UNL     1      12.655  47.519  79.023  1.00  0.00     0.210 C 
ENDBRANCH  19  21
BRANCH  20  23
HETATM   23  O2  UNL     1      14.864  50.921  79.730  1.00  0.00    -0.353 OA
HETATM   24  C8  UNL     1      15.838  51.892  79.974  1.00  0.00     0.210 C 
ENDBRANCH  20  23
ENDBRANCH  10  11
ENDBRANCH   1  10
BRANCH   1  25
HETATM   25  C12 UNL     1      11.046  52.642  87.419  1.00  0.00    -0.057 C 
HETATM   26  C13 UNL     1      11.642  53.065  88.378  1.00  0.00    -0.062 C 
BRANCH  26  27
HETATM   27  C14 UNL     1      12.329  53.577  89.531  1.00  0.00     0.035 A 
HETATM   28  C15 UNL     1      13.206  54.643  89.482  1.00  0.00     0.108 A 
HETATM   29  N2  UNL     1      13.839  55.105  90.572  1.00  0.00    -0.372 N 
HETATM   30  C16 UNL     1      13.664  54.565  91.788  1.00  0.00     0.117 A 
ATOM     31  H2  UNL     1      14.476  55.896  90.473  1.00  0.00     0.164 HD
HETATM   32  C17 UNL     1      12.804  53.497  91.922  1.00  0.00     0.051 A 
HETATM   33  C21 UNL     1      12.146  53.018  90.777  1.00  0.00     0.053 A 
BRANCH  32  34
HETATM   34  N3  UNL     1      12.600  52.918  93.181  1.00  0.00    -0.329 N 
HETATM   35  C18 UNL     1      11.632  53.198  93.963  1.00  0.00     0.190 C 
HETATM   36  N4  UNL     1      10.655  54.147  93.607  1.00  0.00    -0.063 NA
HETATM   37  N5  UNL     1      11.575  52.514  95.213  1.00  0.00    -0.364 N 
HETATM   38  C19 UNL     1      12.081  53.120  96.411  1.00  0.00     0.151 C 
HETATM   39  C20 UNL     1      10.989  51.196  95.223  1.00  0.00     0.151 C 
ATOM     40  H3  UNL     1      13.275  52.220  93.495  1.00  0.00     0.168 HD
ENDBRANCH  32  34
ENDBRANCH  26  27
ENDBRANCH   1  25
TORSDOF 7
ENDMDL
MODEL 4
REMARK VINA RESULT: -6.952402686      1.392      2.404
REMARK  7 active torsions:
REMARK  status: ('A' for Active; 'I' for Inactive)
REMARK    1  A    between atoms: O1_2  and  C2_3 
REMARK    2  A    between atoms: C7_8  and  O2_9 
REMARK    3  A    between atoms: N1_13  and  C10_14 
REMARK    4  A    between atoms: C10_14  and  C11_15 
REMARK    5  A    between atoms: C11_15  and  C12_16 
REMARK    6  A    between atoms: C13_17  and  C14_18 
REMARK    7  A    between atoms: C17_23  and  N3_24 
REMARK       I    between atoms: C18_26  and  N5_28 
ROOT
HETATM    1  C11 UNL     1      10.231  52.112  86.561  1.00  0.00     0.196 C 
HETATM    2  N6  UNL     1      10.318  53.085  85.523  1.00  0.00    -0.313 N 
ATOM      3  H6  UNL     1      11.151  53.615  85.271  1.00  0.00     0.166 HD
HETATM    4  C22 UNL     1       9.051  53.189  84.903  1.00  0.00     0.324 C 
HETATM    5  O4  UNL     1       8.741  53.753  83.818  1.00  0.00    -0.247 OA
HETATM    6  N7  UNL     1       8.099  52.510  85.752  1.00  0.00    -0.276 N 
ATOM      7  H7  UNL     1       7.100  52.415  85.570  1.00  0.00     0.173 HD
HETATM    8  C23 UNL     1       8.784  52.003  86.871  1.00  0.00     0.268 C 
HETATM    9  O5  UNL     1       8.298  51.555  87.909  1.00  0.00    -0.269 OA
ENDROOT
BRANCH   1  10
HETATM   10  C10 UNL     1      10.871  50.799  86.294  1.00  0.00     0.181 C 
BRANCH  10  11
HETATM   11  N1  UNL     1      11.482  50.627  85.006  1.00  0.00    -0.340 N 
HETATM   12  C9  UNL     1      10.999  49.805  83.956  1.00  0.00     0.254 A 
HETATM   13  C5  UNL     1      11.925  49.955  82.843  1.00  0.00     0.043 A 
HETATM   14  O3  UNL     1       9.987  49.066  83.915  1.00  0.00    -0.267 OA
HETATM   15  C4  UNL     1      12.938  50.823  83.175  1.00  0.00    -0.022 A 
HETATM   16  C6  UNL     1      11.908  49.382  81.564  1.00  0.00     0.057 A 
HETATM   17  C3  UNL     1      13.935  51.133  82.262  1.00  0.00     0.049 A 
HETATM   18  C24 UNL     1      12.708  51.255  84.577  1.00  0.00     0.165 A 
HETATM   19  C2  UNL     1      13.883  50.553  81.022  1.00  0.00     0.102 A 
HETATM   20  C7  UNL     1      12.892  49.679  80.645  1.00  0.00     0.102 A 
BRANCH  19  21
HETATM   21  O1  UNL     1      14.884  50.855  80.083  1.00  0.00    -0.353 OA
HETATM   22  C1  UNL     1      15.823  51.887  80.312  1.00  0.00     0.210 C 
ENDBRANCH  19  21
BRANCH  20  23
HETATM   23  O2  UNL     1      12.860  49.105  79.385  1.00  0.00    -0.353 OA
HETATM   24  C8  UNL     1      12.521  47.771  79.146  1.00  0.00     0.210 C 
ENDBRANCH  20  23
ENDBRANCH  10  11
ENDBRANCH   1  10
BRANCH   1  25
HETATM   25  C12 UNL     1      10.941  52.643  87.773  1.00  0.00    -0.057 C 
HETATM   26  C13 UNL     1      11.497  53.088  88.746  1.00  0.00    -0.062 C 
BRANCH  26  27
HETATM   27  C14 UNL     1      12.148  53.642  89.901  1.00  0.00     0.035 A 
HETATM   28  C15 UNL     1      13.072  54.666  89.835  1.00  0.00     0.108 A 
HETATM   29  N2  UNL     1      13.670  55.168  90.927  1.00  0.00    -0.372 N 
HETATM   30  C16 UNL     1      13.412  54.710  92.161  1.00  0.00     0.117 A 
ATOM     31  H2  UNL     1      14.345  55.925  90.815  1.00  0.00     0.164 HD
HETATM   32  C17 UNL     1      12.501  53.688  92.314  1.00  0.00     0.051 A 
HETATM   33  C21 UNL     1      11.880  53.167  91.166  1.00  0.00     0.053 A 
BRANCH  32  34
HETATM   34  N3  UNL     1      12.210  53.195  93.592  1.00  0.00    -0.329 N 
HETATM   35  C18 UNL     1      11.210  53.550  94.300  1.00  0.00     0.190 C 
HETATM   36  N4  UNL     1      10.283  54.500  93.831  1.00  0.00    -0.063 NA
HETATM   37  N5  UNL     1      11.064  52.949  95.584  1.00  0.00    -0.364 N 
HETATM   38  C19 UNL     1      11.521  53.615  96.769  1.00  0.00     0.151 C 
HETATM   39  C20 UNL     1      10.439  51.650  95.642  1.00  0.00     0.151 C 
ATOM     40  H3  UNL     1      12.846  52.501  93.987  1.00  0.00     0.168 HD
ENDBRANCH  32  34
ENDBRANCH  26  27
ENDBRANCH   1  25
TORSDOF 7
ENDMDL
MODEL 5
REMARK VINA RESULT: -6.741943921      6.286     10.318
REMARK  7 active torsions:
REMARK  status: ('A' for Active; 'I' for Inactive)
REMARK    1  A    between atoms: O1_2  and  C2_3 
REMARK    2  A    between atoms: C7_8  and  O2_9 
REMARK    3  A    between atoms: N1_13  and  C10_14 
REMARK    4  A    between atoms: C10_14  and  C11_15 
REMARK    5  A    between atoms: C11_15  and  C12_16 
REMARK    6  A    between atoms: C13_17  and  C14_18 
REMARK    7  A    between atoms: C17_23  and  N3_24 
REMARK       I    between atoms: C18_26  and  N5_28 
ROOT
HETATM    1  C11 UNL     1      10.112  54.449  97.187  1.00  0.00     0.196 C 
HETATM    2  N6  UNL     1      10.333  55.056  98.457  1.00  0.00    -0.313 N 
ATOM      3  H6  UNL     1      11.213  55.457  98.781  1.00  0.00     0.166 HD
HETATM    4  C22 UNL     1       9.125  55.007  99.190  1.00  0.00     0.324 C 
HETATM    5  O4  UNL     1       8.814  55.615 100.251  1.00  0.00    -0.247 OA
HETATM    6  N7  UNL     1       8.239  54.098  98.501  1.00  0.00    -0.276 N 
ATOM      7  H7  UNL     1       7.291  53.856  98.789  1.00  0.00     0.173 HD
HETATM    8  C23 UNL     1       8.906  53.603  97.365  1.00  0.00     0.268 C 
HETATM    9  O5  UNL     1       8.572  52.658  96.651  1.00  0.00    -0.269 OA
ENDROOT
BRANCH   1  10
HETATM   10  C10 UNL     1      10.016  55.364  96.022  1.00  0.00     0.181 C 
BRANCH  10  11
HETATM   11  N1  UNL     1      10.723  54.976  94.834  1.00  0.00    -0.340 N 
HETATM   12  C9  UNL     1      10.206  54.188  93.775  1.00  0.00     0.254 A 
HETATM   13  C5  UNL     1      11.266  54.066  92.784  1.00  0.00     0.043 A 
HETATM   14  O3  UNL     1       9.076  53.662  93.642  1.00  0.00    -0.267 OA
HETATM   15  C4  UNL     1      12.390  54.740  93.198  1.00  0.00    -0.022 A 
HETATM   16  C6  UNL     1      11.280  53.411  91.544  1.00  0.00     0.057 A 
HETATM   17  C3  UNL     1      13.529  54.776  92.406  1.00  0.00     0.049 A 
HETATM   18  C24 UNL     1      12.094  55.315  94.535  1.00  0.00     0.165 A 
HETATM   19  C2  UNL     1      13.501  54.124  91.202  1.00  0.00     0.102 A 
HETATM   20  C7  UNL     1      12.403  53.437  90.746  1.00  0.00     0.102 A 
BRANCH  19  21
HETATM   21  O1  UNL     1      14.645  54.150  90.385  1.00  0.00    -0.353 OA
HETATM   22  C1  UNL     1      15.010  55.310  89.662  1.00  0.00     0.210 C 
ENDBRANCH  19  21
BRANCH  20  23
HETATM   23  O2  UNL     1      12.400  52.785  89.523  1.00  0.00    -0.353 OA
HETATM   24  C8  UNL     1      11.283  52.706  88.687  1.00  0.00     0.210 C 
ENDBRANCH  20  23
ENDBRANCH  10  11
ENDBRANCH   1  10
BRANCH   1  25
HETATM   25  C12 UNL     1      11.280  53.557  96.876  1.00  0.00    -0.057 C 
HETATM   26  C13 UNL     1      12.208  52.824  96.640  1.00  0.00    -0.062 C 
BRANCH  26  27
HETATM   27  C14 UNL     1      13.308  51.938  96.381  1.00  0.00     0.035 A 
HETATM   28  C15 UNL     1      13.645  51.493  95.118  1.00  0.00     0.108 A 
HETATM   29  N2  UNL     1      14.677  50.662  94.898  1.00  0.00    -0.372 N 
HETATM   30  C16 UNL     1      15.456  50.206  95.890  1.00  0.00     0.117 A 
ATOM     31  H2  UNL     1      14.876  50.368  93.941  1.00  0.00     0.164 HD
HETATM   32  C17 UNL     1      15.187  50.604  97.182  1.00  0.00     0.051 A 
HETATM   33  C21 UNL     1      14.105  51.472  97.404  1.00  0.00     0.053 A 
BRANCH  32  34
HETATM   34  N3  UNL     1      15.988  50.146  98.235  1.00  0.00    -0.329 N 
HETATM   35  C18 UNL     1      17.101  50.664  98.583  1.00  0.00     0.190 C 
HETATM   36  N4  UNL     1      17.629  51.781  97.908  1.00  0.00    -0.063 NA
HETATM   37  N5  UNL     1      17.791  50.070  99.680  1.00  0.00    -0.364 N 
HETATM   38  C19 UNL     1      18.851  49.129  99.464  1.00  0.00     0.151 C 
HETATM   39  C20 UNL     1      17.382  50.455 101.009  1.00  0.00     0.151 C 
ATOM     40  H3  UNL     1      15.658  49.338  98.763  1.00  0.00     0.168 HD
ENDBRANCH  32  34
ENDBRANCH  26  27
ENDBRANCH   1  25
TORSDOF 7
ENDMDL
