MODEL 1
REMARK VINA RESULT: -8.206660068      0.000      0.000
REMARK  10 active torsions:
REMARK  status: ('A' for Active; 'I' for Inactive)
REMARK    1  A    between atoms: N3_4  and  C2_6 
REMARK    2  A    between atoms: C2_6  and  C3_7 
REMARK    3  A    between atoms: C3_7  and  C4_8 
REMARK    4  A    between atoms: C4_8  and  C5_9 
REMARK    5  A    between atoms: C15_23  and  O3_24 
REMARK    6  A    between atoms: O3_24  and  C16_25 
REMARK    7  A    between atoms: C16_25  and  C17_26 
REMARK    8  A    between atoms: C17_26  and  C18_27 
REMARK    9  A    between atoms: C18_27  and  N5_28 
REMARK   10  A    between atoms: N6_31  and  C21_32 
ROOT
HETATM    1  C5  UNL     1      11.123  53.911  89.491  1.00  0.00     0.177 C 
HETATM    2  N4  UNL     1      10.209  54.620  88.653  1.00  0.00    -0.344 N 
ATOM      3  H4  UNL     1      10.562  55.044  87.795  1.00  0.00     0.163 HD
HETATM    4  C6  UNL     1       8.809  54.763  88.967  1.00  0.00     0.255 C 
HETATM    5  O1  UNL     1       8.233  55.905  88.886  1.00  0.00    -0.268 OA
HETATM    6  C7  UNL     1       7.953  53.647  89.394  1.00  0.00     0.065 A 
HETATM    7  C8  UNL     1       7.216  53.863  90.569  1.00  0.00     0.020 A 
HETATM    8  C9  UNL     1       6.394  52.921  91.127  1.00  0.00     0.001 A 
HETATM    9  C10 UNL     1       6.293  51.705  90.496  1.00  0.00     0.003 A 
HETATM   10  C11 UNL     1       7.001  51.484  89.353  1.00  0.00     0.038 A 
HETATM   11  C12 UNL     1       7.853  52.442  88.760  1.00  0.00     0.091 A 
HETATM   12  O2  UNL     1       8.465  52.053  87.626  1.00  0.00    -0.307 OA
HETATM   13  C13 UNL     1       9.159  52.464  86.566  1.00  0.00     0.105 A 
HETATM   14  C14 UNL     1       8.592  52.896  85.356  1.00  0.00     0.076 A 
HETATM   15  C15 UNL     1       9.273  53.323  84.246  1.00  0.00     0.071 A 
HETATM   16  C29 UNL     1      10.667  53.320  84.342  1.00  0.00     0.039 A 
HETATM   17  C30 UNL     1      11.266  52.908  85.497  1.00  0.00     0.035 A 
HETATM   18  C31 UNL     1      10.568  52.483  86.610  1.00  0.00     0.069 A 
HETATM   19  N7  UNL     1      11.353  52.077  87.715  1.00  0.00    -0.323 N 
ATOM     20  H7  UNL     1      12.113  51.429  87.510  1.00  0.00     0.169 HD
HETATM   21  C32 UNL     1      11.215  52.462  89.075  1.00  0.00     0.245 C 
HETATM   22  O4  UNL     1      11.165  51.578  89.975  1.00  0.00    -0.271 OA
ENDROOT
BRANCH  15  23
HETATM   23  O3  UNL     1       8.676  53.748  83.073  1.00  0.00    -0.351 OA
BRANCH  23  24
HETATM   24  C16 UNL     1       8.974  53.295  81.814  1.00  0.00     0.177 C 
BRANCH  24  25
HETATM   25  C17 UNL     1       8.074  52.268  81.208  1.00  0.00     0.046 C 
BRANCH  25  26
HETATM   26  C18 UNL     1       8.303  50.926  81.917  1.00  0.00     0.119 C 
BRANCH  26  27
HETATM   27  N5  UNL     1       9.021  50.002  81.113  1.00  0.00    -0.409 N 
HETATM   28  C19 UNL     1       9.428  50.472  79.838  1.00  0.00     0.136 C 
HETATM   29  C20 UNL     1      10.927  50.536  79.660  1.00  0.00     0.142 C 
HETATM   30  N6  UNL     1      11.666  50.619  80.886  1.00  0.00    -0.378 N 
HETATM   31  C27 UNL     1      11.140  50.167  82.157  1.00  0.00     0.142 C 
HETATM   32  C28 UNL     1       9.985  49.218  81.831  1.00  0.00     0.136 C 
BRANCH  30  33
HETATM   33  C21 UNL     1      12.976  51.168  80.847  1.00  0.00     0.030 A 
HETATM   34  C22 UNL     1      13.601  51.655  81.968  1.00  0.00     0.029 A 
HETATM   35  C23 UNL     1      14.879  52.178  81.891  1.00  0.00     0.002 A 
HETATM   36  C24 UNL     1      15.565  52.230  80.708  1.00  0.00     0.000 A 
HETATM   37  C25 UNL     1      14.963  51.750  79.573  1.00  0.00     0.002 A 
HETATM   38  C26 UNL     1      13.678  51.226  79.656  1.00  0.00     0.029 A 
ENDBRANCH  30  33
ENDBRANCH  26  27
ENDBRANCH  25  26
ENDBRANCH  24  25
ENDBRANCH  23  24
ENDBRANCH  15  23
BRANCH   1  39
HETATM   39  C4  UNL     1      12.535  54.470  89.437  1.00  0.00     0.036 C 
BRANCH  39  40
HETATM   40  C3  UNL     1      12.920  55.144  90.725  1.00  0.00     0.022 C 
BRANCH  40  41
HETATM   41  C2  UNL     1      13.182  54.185  91.838  1.00  0.00     0.122 C 
BRANCH  41  42
HETATM   42  N3  UNL     1      13.681  52.902  91.409  1.00  0.00    -0.367 N 
HETATM   43  C1  UNL     1      13.626  51.847  92.145  1.00  0.00     0.196 C 
HETATM   44  N1  UNL     1      13.049  51.949  93.436  1.00  0.00    -0.067 NA
HETATM   45  N2  UNL     1      14.128  50.606  91.680  1.00  0.00    -0.067 NA
ATOM     46  H3  UNL     1      14.097  52.827  90.481  1.00  0.00     0.161 HD
ENDBRANCH  41  42
ENDBRANCH  40  41
ENDBRANCH  39  40
ENDBRANCH   1  39
TORSDOF 10
ENDMDL
MODEL 2
REMARK VINA RESULT: -8.075201173      1.351      1.674
REMARK  10 active torsions:
REMARK  status: ('A' for Active; 'I' for Inactive)
REMARK    1  A    between atoms: N3_4  and  C2_6 
REMARK    2  A    between atoms: C2_6  and  C3_7 
REMARK    3  A    between atoms: C3_7  and  C4_8 
REMARK    4  A    between atoms: C4_8  and  C5_9 
REMARK    5  A    between atoms: C15_23  and  O3_24 
REMARK    6  A    between atoms: O3_24  and  C16_25 
REMARK    7  A    between atoms: C16_25  and  C17_26 
REMARK    8  A    between atoms: C17_26  and  C18_27 
REMARK    9  A    between atoms: C18_27  and  N5_28 
REMARK   10  A    between atoms: N6_31  and  C21_32 
ROOT
HETATM    1  C5  UNL     1      11.266  53.995  89.722  1.00  0.00     0.177 C 
HETATM    2  N4  UNL     1      10.407  54.657  88.792  1.00  0.00    -0.344 N 
ATOM      3  H4  UNL     1      10.822  55.092  87.968  1.00  0.00     0.163 HD
HETATM    4  C6  UNL     1       8.978  54.736  88.966  1.00  0.00     0.255 C 
HETATM    5  O1  UNL     1       8.360  55.849  88.819  1.00  0.00    -0.268 OA
HETATM    6  C7  UNL     1       8.136  53.583  89.318  1.00  0.00     0.065 A 
HETATM    7  C8  UNL     1       7.278  53.770  90.414  1.00  0.00     0.020 A 
HETATM    8  C9  UNL     1       6.450  52.794  90.899  1.00  0.00     0.001 A 
HETATM    9  C10 UNL     1       6.468  51.572  90.272  1.00  0.00     0.003 A 
HETATM   10  C11 UNL     1       7.294  51.377  89.206  1.00  0.00     0.038 A 
HETATM   11  C12 UNL     1       8.154  52.372  88.690  1.00  0.00     0.091 A 
HETATM   12  O2  UNL     1       8.892  52.006  87.625  1.00  0.00    -0.307 OA
HETATM   13  C13 UNL     1       9.667  52.443  86.634  1.00  0.00     0.105 A 
HETATM   14  C14 UNL     1       9.202  52.842  85.370  1.00  0.00     0.076 A 
HETATM   15  C15 UNL     1       9.968  53.294  84.328  1.00  0.00     0.071 A 
HETATM   16  C29 UNL     1      11.345  53.357  84.559  1.00  0.00     0.039 A 
HETATM   17  C30 UNL     1      11.846  52.979  85.771  1.00  0.00     0.035 A 
HETATM   18  C31 UNL     1      11.062  52.528  86.815  1.00  0.00     0.069 A 
HETATM   19  N7  UNL     1      11.753  52.165  87.996  1.00  0.00    -0.323 N 
ATOM     20  H7  UNL     1      12.559  51.552  87.872  1.00  0.00     0.169 HD
HETATM   21  C32 UNL     1      11.464  52.550  89.332  1.00  0.00     0.245 C 
HETATM   22  O4  UNL     1      11.368  51.670  90.231  1.00  0.00    -0.271 OA
ENDROOT
BRANCH  15  23
HETATM   23  O3  UNL     1       9.470  53.685  83.098  1.00  0.00    -0.351 OA
BRANCH  23  24
HETATM   24  C16 UNL     1       8.275  53.289  82.556  1.00  0.00     0.177 C 
BRANCH  24  25
HETATM   25  C17 UNL     1       8.301  52.245  81.488  1.00  0.00     0.046 C 
BRANCH  25  26
HETATM   26  C18 UNL     1       8.443  50.865  82.146  1.00  0.00     0.119 C 
BRANCH  26  27
HETATM   27  N5  UNL     1       9.144  49.941  81.326  1.00  0.00    -0.409 N 
HETATM   28  C19 UNL     1       9.504  50.405  80.035  1.00  0.00     0.136 C 
HETATM   29  C20 UNL     1      10.995  50.483  79.807  1.00  0.00     0.142 C 
HETATM   30  N6  UNL     1      11.773  50.585  81.007  1.00  0.00    -0.378 N 
HETATM   31  C27 UNL     1      11.295  50.138  82.298  1.00  0.00     0.142 C 
HETATM   32  C28 UNL     1      10.140  49.174  82.019  1.00  0.00     0.136 C 
BRANCH  30  33
HETATM   33  C21 UNL     1      13.076  51.147  80.920  1.00  0.00     0.030 A 
HETATM   34  C22 UNL     1      13.718  51.682  82.009  1.00  0.00     0.029 A 
HETATM   35  C23 UNL     1      14.987  52.217  81.886  1.00  0.00     0.002 A 
HETATM   36  C24 UNL     1      15.647  52.234  80.688  1.00  0.00     0.000 A 
HETATM   37  C25 UNL     1      15.027  51.706  79.584  1.00  0.00     0.002 A 
HETATM   38  C26 UNL     1      13.752  51.171  79.713  1.00  0.00     0.029 A 
ENDBRANCH  30  33
ENDBRANCH  26  27
ENDBRANCH  25  26
ENDBRANCH  24  25
ENDBRANCH  23  24
ENDBRANCH  15  23
BRANCH   1  39
HETATM   39  C4  UNL     1      12.650  54.619  89.800  1.00  0.00     0.036 C 
BRANCH  39  40
HETATM   40  C3  UNL     1      13.272  54.431  91.157  1.00  0.00     0.022 C 
BRANCH  40  41
HETATM   41  C2  UNL     1      12.273  54.399  92.265  1.00  0.00     0.122 C 
BRANCH  41  42
HETATM   42  N3  UNL     1      12.329  55.540  93.145  1.00  0.00    -0.367 N 
HETATM   43  C1  UNL     1      11.350  55.884  93.909  1.00  0.00     0.196 C 
HETATM   44  N1  UNL     1      10.164  55.108  93.884  1.00  0.00    -0.067 NA
HETATM   45  N2  UNL     1      11.451  57.013  94.760  1.00  0.00    -0.067 NA
ATOM     46  H3  UNL     1      13.181  56.100  93.164  1.00  0.00     0.161 HD
ENDBRANCH  41  42
ENDBRANCH  40  41
ENDBRANCH  39  40
ENDBRANCH   1  39
TORSDOF 10
ENDMDL
MODEL 3
REMARK VINA RESULT: -8.062427658      3.789      5.600
REMARK  10 active torsions:
REMARK  status: ('A' for Active; 'I' for Inactive)
REMARK    1  A    between atoms: N3_4  and  C2_6 
REMARK    2  A    between atoms: C2_6  and  C3_7 
REMARK    3  A    between atoms: C3_7  and  C4_8 
REMARK    4  A    between atoms: C4_8  and  C5_9 
REMARK    5  A    between atoms: C15_23  and  O3_24 
REMARK    6  A    between atoms: O3_24  and  C16_25 
REMARK    7  A    between atoms: C16_25  and  C17_26 
REMARK    8  A    between atoms: C17_26  and  C18_27 
REMARK    9  A    between atoms: C18_27  and  N5_28 
REMARK   10  A    between atoms: N6_31  and  C21_32 
ROOT
HETATM    1  C5  UNL     1      10.767  55.084  95.051  1.00  0.00     0.177 C 
HETATM    2  N4  UNL     1      10.107  55.069  93.784  1.00  0.00    -0.344 N 
ATOM      3  H4  UNL     1      10.442  55.694  93.051  1.00  0.00     0.163 HD
HETATM    4  C6  UNL     1       8.987  54.208  93.496  1.00  0.00     0.255 C 
HETATM    5  O1  UNL     1       7.934  54.669  92.931  1.00  0.00    -0.268 OA
HETATM    6  C7  UNL     1       8.960  52.774  93.817  1.00  0.00     0.065 A 
HETATM    7  C8  UNL     1       7.835  52.333  94.534  1.00  0.00     0.020 A 
HETATM    8  C9  UNL     1       7.662  51.038  94.944  1.00  0.00     0.001 A 
HETATM    9  C10 UNL     1       8.646  50.132  94.632  1.00  0.00     0.003 A 
HETATM   10  C11 UNL     1       9.741  50.545  93.935  1.00  0.00     0.038 A 
HETATM   11  C12 UNL     1       9.938  51.875  93.502  1.00  0.00     0.091 A 
HETATM   12  O2  UNL     1      11.075  52.100  92.816  1.00  0.00    -0.307 OA
HETATM   13  C13 UNL     1      11.724  52.963  92.036  1.00  0.00     0.105 A 
HETATM   14  C14 UNL     1      11.625  53.009  90.636  1.00  0.00     0.076 A 
HETATM   15  C15 UNL     1      12.278  53.879  89.803  1.00  0.00     0.071 A 
HETATM   16  C29 UNL     1      13.125  54.802  90.421  1.00  0.00     0.039 A 
HETATM   17  C30 UNL     1      13.256  54.798  91.779  1.00  0.00     0.035 A 
HETATM   18  C31 UNL     1      12.590  53.917  92.608  1.00  0.00     0.069 A 
HETATM   19  N7  UNL     1      12.858  54.046  93.992  1.00  0.00    -0.323 N 
ATOM     20  H7  UNL     1      13.842  54.097  94.254  1.00  0.00     0.169 HD
HETATM   21  C32 UNL     1      11.926  54.115  95.061  1.00  0.00     0.245 C 
HETATM   22  O4  UNL     1      12.056  53.351  96.058  1.00  0.00    -0.271 OA
ENDROOT
BRANCH  15  23
HETATM   23  O3  UNL     1      12.147  53.896  88.426  1.00  0.00    -0.351 OA
BRANCH  23  24
HETATM   24  C16 UNL     1      11.613  52.893  87.660  1.00  0.00     0.177 C 
BRANCH  24  25
HETATM   25  C17 UNL     1      10.188  53.021  87.232  1.00  0.00     0.046 C 
BRANCH  25  26
HETATM   26  C18 UNL     1       9.688  51.651  86.752  1.00  0.00     0.119 C 
BRANCH  26  27
HETATM   27  N5  UNL     1       9.369  51.643  85.368  1.00  0.00    -0.409 N 
HETATM   28  C19 UNL     1       9.480  52.888  84.698  1.00  0.00     0.136 C 
HETATM   29  C20 UNL     1      10.534  52.908  83.617  1.00  0.00     0.142 C 
HETATM   30  N6  UNL     1      11.560  51.918  83.771  1.00  0.00    -0.378 N 
HETATM   31  C27 UNL     1      11.373  50.700  84.530  1.00  0.00     0.142 C 
HETATM   32  C28 UNL     1       9.862  50.498  84.656  1.00  0.00     0.136 C 
BRANCH  30  33
HETATM   33  C21 UNL     1      12.815  52.145  83.144  1.00  0.00     0.030 A 
HETATM   34  C22 UNL     1      13.635  53.187  83.500  1.00  0.00     0.029 A 
HETATM   35  C23 UNL     1      14.851  53.374  82.869  1.00  0.00     0.002 A 
HETATM   36  C24 UNL     1      15.282  52.537  81.876  1.00  0.00     0.000 A 
HETATM   37  C25 UNL     1      14.482  51.488  81.501  1.00  0.00     0.002 A 
HETATM   38  C26 UNL     1      13.260  51.306  82.138  1.00  0.00     0.029 A 
ENDBRANCH  30  33
ENDBRANCH  26  27
ENDBRANCH  25  26
ENDBRANCH  24  25
ENDBRANCH  23  24
ENDBRANCH  15  23
BRANCH   1  39
HETATM   39  C4  UNL     1      11.337  56.448  95.408  1.00  0.00     0.036 C 
BRANCH  39  40
HETATM   40  C3  UNL     1      10.552  57.564  94.776  1.00  0.00     0.022 C 
BRANCH  40  41
HETATM   41  C2  UNL     1       9.446  58.072  95.640  1.00  0.00     0.122 C 
BRANCH  41  42
HETATM   42  N3  UNL     1       8.131  57.649  95.229  1.00  0.00    -0.367 N 
HETATM   43  C1  UNL     1       7.409  56.835  95.918  1.00  0.00     0.196 C 
HETATM   44  N1  UNL     1       7.930  56.331  97.136  1.00  0.00    -0.067 NA
HETATM   45  N2  UNL     1       6.120  56.448  95.474  1.00  0.00    -0.067 NA
ATOM     46  H3  UNL     1       7.755  58.010  94.352  1.00  0.00     0.161 HD
ENDBRANCH  41  42
ENDBRANCH  40  41
ENDBRANCH  39  40
ENDBRANCH   1  39
TORSDOF 10
ENDMDL
MODEL 4
REMARK VINA RESULT: -7.978059686      4.157      6.170
REMARK  10 active torsions:
REMARK  status: ('A' for Active; 'I' for Inactive)
REMARK    1  A    between atoms: N3_4  and  C2_6 
REMARK    2  A    between atoms: C2_6  and  C3_7 
REMARK    3  A    between atoms: C3_7  and  C4_8 
REMARK    4  A    between atoms: C4_8  and  C5_9 
REMARK    5  A    between atoms: C15_23  and  O3_24 
REMARK    6  A    between atoms: O3_24  and  C16_25 
REMARK    7  A    between atoms: C16_25  and  C17_26 
REMARK    8  A    between atoms: C17_26  and  C18_27 
REMARK    9  A    between atoms: C18_27  and  N5_28 
REMARK   10  A    between atoms: N6_31  and  C21_32 
ROOT
HETATM    1  C5  UNL     1      10.088  55.850  94.829  1.00  0.00     0.177 C 
HETATM    2  N4  UNL     1       9.557  55.358  93.597  1.00  0.00    -0.344 N 
ATOM      3  H4  UNL     1       9.853  55.800  92.728  1.00  0.00     0.163 HD
HETATM    4  C6  UNL     1       8.621  54.264  93.530  1.00  0.00     0.255 C 
HETATM    5  O1  UNL     1       7.564  54.349  92.812  1.00  0.00    -0.268 OA
HETATM    6  C7  UNL     1       8.796  52.999  94.258  1.00  0.00     0.065 A 
HETATM    7  C8  UNL     1       7.696  52.583  95.027  1.00  0.00     0.020 A 
HETATM    8  C9  UNL     1       7.696  51.448  95.792  1.00  0.00     0.001 A 
HETATM    9  C10 UNL     1       8.837  50.684  95.801  1.00  0.00     0.003 A 
HETATM   10  C11 UNL     1       9.911  51.074  95.059  1.00  0.00     0.038 A 
HETATM   11  C12 UNL     1       9.930  52.240  94.261  1.00  0.00     0.091 A 
HETATM   12  O2  UNL     1      11.074  52.463  93.587  1.00  0.00    -0.307 OA
HETATM   13  C13 UNL     1      11.644  53.172  92.615  1.00  0.00     0.105 A 
HETATM   14  C14 UNL     1      11.668  52.802  91.259  1.00  0.00     0.076 A 
HETATM   15  C15 UNL     1      12.246  53.504  90.235  1.00  0.00     0.071 A 
HETATM   16  C29 UNL     1      12.873  54.701  90.588  1.00  0.00     0.039 A 
HETATM   17  C30 UNL     1      12.879  55.105  91.891  1.00  0.00     0.035 A 
HETATM   18  C31 UNL     1      12.290  54.389  92.915  1.00  0.00     0.069 A 
HETATM   19  N7  UNL     1      12.406  54.951  94.209  1.00  0.00    -0.323 N 
ATOM     20  H7  UNL     1      13.341  55.249  94.484  1.00  0.00     0.169 HD
HETATM   21  C32 UNL     1      11.381  55.150  95.172  1.00  0.00     0.245 C 
HETATM   22  O4  UNL     1      11.540  54.735  96.353  1.00  0.00    -0.271 OA
ENDROOT
BRANCH  15  23
HETATM   23  O3  UNL     1      12.240  53.107  88.910  1.00  0.00    -0.351 OA
BRANCH  23  24
HETATM   24  C16 UNL     1      11.382  52.197  88.351  1.00  0.00     0.177 C 
BRANCH  24  25
HETATM   25  C17 UNL     1      10.277  52.713  87.488  1.00  0.00     0.046 C 
BRANCH  25  26
HETATM   26  C18 UNL     1       9.623  51.531  86.757  1.00  0.00     0.119 C 
BRANCH  26  27
HETATM   27  N5  UNL     1       9.287  51.842  85.413  1.00  0.00    -0.409 N 
HETATM   28  C19 UNL     1       9.585  53.162  84.987  1.00  0.00     0.136 C 
HETATM   29  C20 UNL     1      10.612  53.230  83.882  1.00  0.00     0.142 C 
HETATM   30  N6  UNL     1      11.469  52.083  83.798  1.00  0.00    -0.378 N 
HETATM   31  C27 UNL     1      11.102  50.784  84.320  1.00  0.00     0.142 C 
HETATM   32  C28 UNL     1       9.579  50.796  84.474  1.00  0.00     0.136 C 
BRANCH  30  33
HETATM   33  C21 UNL     1      12.735  52.232  83.169  1.00  0.00     0.030 A 
HETATM   34  C22 UNL     1      13.612  53.229  83.515  1.00  0.00     0.029 A 
HETATM   35  C23 UNL     1      14.837  53.340  82.883  1.00  0.00     0.002 A 
HETATM   36  C24 UNL     1      15.220  52.470  81.899  1.00  0.00     0.000 A 
HETATM   37  C25 UNL     1      14.361  51.464  81.534  1.00  0.00     0.002 A 
HETATM   38  C26 UNL     1      13.131  51.359  82.173  1.00  0.00     0.029 A 
ENDBRANCH  30  33
ENDBRANCH  26  27
ENDBRANCH  25  26
ENDBRANCH  24  25
ENDBRANCH  23  24
ENDBRANCH  15  23
BRANCH   1  39
HETATM   39  C4  UNL     1      10.395  57.338  94.792  1.00  0.00     0.036 C 
BRANCH  39  40
HETATM   40  C3  UNL     1       9.519  58.115  95.736  1.00  0.00     0.022 C 
BRANCH  40  41
HETATM   41  C2  UNL     1       8.131  57.574  95.832  1.00  0.00     0.122 C 
BRANCH  41  42
HETATM   42  N3  UNL     1       7.257  57.994  94.765  1.00  0.00    -0.367 N 
HETATM   43  C1  UNL     1       6.244  58.768  94.951  1.00  0.00     0.196 C 
HETATM   44  N1  UNL     1       5.976  59.229  96.265  1.00  0.00    -0.067 NA
HETATM   45  N2  UNL     1       5.414  59.156  93.871  1.00  0.00    -0.067 NA
ATOM     46  H3  UNL     1       7.448  57.662  93.820  1.00  0.00     0.161 HD
ENDBRANCH  41  42
ENDBRANCH  40  41
ENDBRANCH  39  40
ENDBRANCH   1  39
TORSDOF 10
ENDMDL
MODEL 5
REMARK VINA RESULT: -7.905153671      3.699      5.387
REMARK  10 active torsions:
REMARK  status: ('A' for Active; 'I' for Inactive)
REMARK    1  A    between atoms: N3_4  and  C2_6 
REMARK    2  A    between atoms: C2_6  and  C3_7 
REMARK    3  A    between atoms: C3_7  and  C4_8 
REMARK    4  A    between atoms: C4_8  and  C5_9 
REMARK    5  A    between atoms: C15_23  and  O3_24 
REMARK    6  A    between atoms: O3_24  and  C16_25 
REMARK    7  A    between atoms: C16_25  and  C17_26 
REMARK    8  A    between atoms: C17_26  and  C18_27 
REMARK    9  A    between atoms: C18_27  and  N5_28 
REMARK   10  A    between atoms: N6_31  and  C21_32 
ROOT
HETATM    1  C5  UNL     1      10.555  55.361  94.429  1.00  0.00     0.177 C 
HETATM    2  N4  UNL     1       9.976  55.085  93.153  1.00  0.00    -0.344 N 
ATOM      3  H4  UNL     1      10.246  55.666  92.359  1.00  0.00     0.163 HD
HETATM    4  C6  UNL     1       9.026  54.022  92.937  1.00  0.00     0.255 C 
HETATM    5  O1  UNL     1       7.945  54.232  92.283  1.00  0.00    -0.268 OA
HETATM    6  C7  UNL     1       9.212  52.652  93.437  1.00  0.00     0.065 A 
HETATM    7  C8  UNL     1       8.136  52.120  94.164  1.00  0.00     0.020 A 
HETATM    8  C9  UNL     1       8.151  50.872  94.728  1.00  0.00     0.001 A 
HETATM    9  C10 UNL     1       9.283  50.111  94.568  1.00  0.00     0.003 A 
HETATM   10  C11 UNL     1      10.334  50.615  93.862  1.00  0.00     0.038 A 
HETATM   11  C12 UNL     1      10.338  51.898  93.271  1.00  0.00     0.091 A 
HETATM   12  O2  UNL     1      11.459  52.225  92.601  1.00  0.00    -0.307 OA
HETATM   13  C13 UNL     1      12.003  53.085  91.742  1.00  0.00     0.105 A 
HETATM   14  C14 UNL     1      11.974  52.947  90.344  1.00  0.00     0.076 A 
HETATM   15  C15 UNL     1      12.524  53.808  89.431  1.00  0.00     0.071 A 
HETATM   16  C29 UNL     1      13.176  54.926  89.956  1.00  0.00     0.039 A 
HETATM   17  C30 UNL     1      13.233  55.105  91.308  1.00  0.00     0.035 A 
HETATM   18  C31 UNL     1      12.672  54.231  92.218  1.00  0.00     0.069 A 
HETATM   19  N7  UNL     1      12.840  54.567  93.583  1.00  0.00    -0.323 N 
ATOM     20  H7  UNL     1      13.787  54.810  93.869  1.00  0.00     0.169 HD
HETATM   21  C32 UNL     1      11.852  54.607  94.602  1.00  0.00     0.245 C 
HETATM   22  O4  UNL     1      12.049  53.998  95.691  1.00  0.00    -0.271 OA
ENDROOT
BRANCH  15  23
HETATM   23  O3  UNL     1      12.467  53.639  88.059  1.00  0.00    -0.351 OA
BRANCH  23  24
HETATM   24  C16 UNL     1      11.756  52.670  87.401  1.00  0.00     0.177 C 
BRANCH  24  25
HETATM   25  C17 UNL     1      10.318  52.938  87.097  1.00  0.00     0.046 C 
BRANCH  25  26
HETATM   26  C18 UNL     1       9.667  51.643  86.593  1.00  0.00     0.119 C 
BRANCH  26  27
HETATM   27  N5  UNL     1       9.350  51.697  85.209  1.00  0.00    -0.409 N 
HETATM   28  C19 UNL     1       9.524  52.956  84.581  1.00  0.00     0.136 C 
HETATM   29  C20 UNL     1      10.579  52.958  83.500  1.00  0.00     0.142 C 
HETATM   30  N6  UNL     1      11.553  51.913  83.620  1.00  0.00    -0.378 N 
HETATM   31  C27 UNL     1      11.304  50.681  84.339  1.00  0.00     0.142 C 
HETATM   32  C28 UNL     1       9.784  50.553  84.459  1.00  0.00     0.136 C 
BRANCH  30  33
HETATM   33  C21 UNL     1      12.819  52.096  83.000  1.00  0.00     0.030 A 
HETATM   34  C22 UNL     1      13.690  53.083  83.390  1.00  0.00     0.029 A 
HETATM   35  C23 UNL     1      14.914  53.229  82.765  1.00  0.00     0.002 A 
HETATM   36  C24 UNL     1      15.304  52.404  81.745  1.00  0.00     0.000 A 
HETATM   37  C25 UNL     1      14.452  51.410  81.337  1.00  0.00     0.002 A 
HETATM   38  C26 UNL     1      13.222  51.269  81.968  1.00  0.00     0.029 A 
ENDBRANCH  30  33
ENDBRANCH  26  27
ENDBRANCH  25  26
ENDBRANCH  24  25
ENDBRANCH  23  24
ENDBRANCH  15  23
BRANCH   1  39
HETATM   39  C4  UNL     1      10.878  56.833  94.630  1.00  0.00     0.036 C 
BRANCH  39  40
HETATM   40  C3  UNL     1       9.867  57.512  95.514  1.00  0.00     0.022 C 
BRANCH  40  41
HETATM   41  C2  UNL     1       9.429  56.669  96.665  1.00  0.00     0.122 C 
BRANCH  41  42
HETATM   42  N3  UNL     1      10.503  56.230  97.520  1.00  0.00    -0.367 N 
HETATM   43  C1  UNL     1      10.309  55.557  98.601  1.00  0.00     0.196 C 
HETATM   44  N1  UNL     1       8.978  55.234  98.968  1.00  0.00    -0.067 NA
HETATM   45  N2  UNL     1      11.397  55.145  99.410  1.00  0.00    -0.067 NA
ATOM     46  H3  UNL     1      11.461  56.462  97.257  1.00  0.00     0.161 HD
ENDBRANCH  41  42
ENDBRANCH  40  41
ENDBRANCH  39  40
ENDBRANCH   1  39
TORSDOF 10
ENDMDL
