MODEL 1
REMARK VINA RESULT: -8.120973386      0.000      0.000
REMARK  10 active torsions:
REMARK  status: ('A' for Active; 'I' for Inactive)
REMARK    1  A    between atoms: S1_2  and  C1_4 
REMARK    2  A    between atoms: S1_2  and  N1_11 
REMARK    3  A    between atoms: C1_4  and  C2_5 
REMARK    4  A    between atoms: N1_11  and  C8_13 
REMARK    5  A    between atoms: C8_13  and  C9_14 
REMARK    6  A    between atoms: C9_14  and  N2_15 
REMARK    7  A    between atoms: N2_15  and  C10_17 
REMARK    8  A    between atoms: N4_21  and  C12_23 
REMARK    9  A    between atoms: N6_32  and  C19_34 
REMARK   10  A    between atoms: C21_36  and  C22_37 
ROOT
HETATM    1  C10 UNL     1       8.324  54.017  88.190  1.00  0.00     0.711 A 
HETATM    2  N3  UNL     1       9.464  54.014  88.877  1.00  0.00    -0.021 N 
ATOM      3  H3  UNL     1       9.443  54.323  89.849  1.00  0.00     0.203 HD
HETATM    4  C11 UNL     1      10.662  53.619  88.349  1.00  0.00     0.711 A 
HETATM    5  N4  UNL     1      11.691  53.502  89.021  1.00  0.00    -0.191 N 
ATOM      6  H4  UNL     1      12.435  53.207  88.389  1.00  0.00     0.184 HD
HETATM    7  N5  UNL     1      10.680  53.203  87.029  1.00  0.00    -0.021 N 
ATOM      8  H5  UNL     1      11.562  52.910  86.606  1.00  0.00     0.203 HD
HETATM    9  C18 UNL     1       9.577  53.181  86.310  1.00  0.00     0.711 A 
HETATM   10  N6  UNL     1       9.544  52.841  85.063  1.00  0.00    -0.191 N 
ATOM     11  H6  UNL     1       8.642  52.853  84.588  1.00  0.00     0.184 HD
HETATM   12  N9  UNL     1       8.384  53.583  86.881  1.00  0.00    -0.021 N 
ATOM     13  H9  UNL     1       7.530  53.559  86.323  1.00  0.00     0.203 HD
ENDROOT
BRANCH  10  14
HETATM   14  C19 UNL     1      10.663  52.460  84.328  1.00  0.00     0.051 A 
HETATM   15  C20 UNL     1      10.632  51.336  83.457  1.00  0.00     0.045 A 
HETATM   16  C21 UNL     1      11.691  51.013  82.652  1.00  0.00     0.009 A 
HETATM   17  C25 UNL     1      12.856  51.802  82.666  1.00  0.00     0.054 A 
HETATM   18  N8  UNL     1      13.890  51.445  81.871  1.00  0.00    -0.365 N 
HETATM   19  C29 UNL     1      12.915  52.888  83.505  1.00  0.00    -0.006 A 
HETATM   20  C26 UNL     1      15.031  52.114  81.853  1.00  0.00     0.088 A 
ATOM     21  H8  UNL     1      13.787  50.631  81.264  1.00  0.00     0.165 HD
HETATM   22  C27 UNL     1      15.134  53.213  82.687  1.00  0.00     0.018 A 
HETATM   23  C28 UNL     1      14.077  53.604  83.517  1.00  0.00     0.015 A 
HETATM   24  C30 UNL     1      11.840  53.190  84.305  1.00  0.00     0.043 A 
BRANCH  16  25
HETATM   25  C22 UNL     1      11.654  49.953  81.581  1.00  0.00     0.099 C 
HETATM   26  N7  UNL     1      11.058  50.406  80.467  1.00  0.00    -0.386 N 
HETATM   27  C23 UNL     1      10.638  49.813  79.253  1.00  0.00     0.142 A 
HETATM   28  C24 UNL     1      11.015  51.292  79.416  1.00  0.00     0.142 A 
ENDBRANCH  16  25
ENDBRANCH  10  14
BRANCH   1  29
HETATM   29  N2  UNL     1       7.243  54.671  88.527  1.00  0.00    -0.203 N 
ATOM     30  H2  UNL     1       7.015  55.522  88.013  1.00  0.00     0.183 HD
BRANCH  29  31
HETATM   31  C9  UNL     1       6.393  54.273  89.545  1.00  0.00     0.099 C 
BRANCH  31  32
HETATM   32  C8  UNL     1       6.626  53.431  90.707  1.00  0.00     0.176 C 
BRANCH  32  33
HETATM   33  N1  UNL     1       6.954  54.122  91.914  1.00  0.00    -0.315 N 
ATOM     34  H1  UNL     1       6.346  54.751  92.440  1.00  0.00     0.172 HD
BRANCH  33  35
HETATM   35  S1  UNL     1       8.606  53.680  92.320  1.00  0.00     0.230 S 
HETATM   36  O1  UNL     1       8.922  52.345  91.734  1.00  0.00    -0.206 OA
HETATM   37  O2  UNL     1       9.452  54.729  91.584  1.00  0.00    -0.206 OA
BRANCH  35  38
HETATM   38  C1  UNL     1       8.917  53.806  94.038  1.00  0.00     0.201 C 
BRANCH  38  39
HETATM   39  C2  UNL     1       9.304  55.173  94.399  1.00  0.00    -0.043 A 
HETATM   40  C3  UNL     1      10.587  55.600  94.396  1.00  0.00     0.008 A 
HETATM   41  C4  UNL     1      10.916  56.908  94.768  1.00  0.00     0.001 A 
HETATM   42  C5  UNL     1       9.881  57.759  95.138  1.00  0.00     0.000 A 
HETATM   43  C6  UNL     1       8.569  57.365  95.154  1.00  0.00     0.001 A 
HETATM   44  C7  UNL     1       8.291  56.054  94.778  1.00  0.00     0.008 A 
ENDBRANCH  38  39
ENDBRANCH  35  38
ENDBRANCH  33  35
ENDBRANCH  32  33
ENDBRANCH  31  32
ENDBRANCH  29  31
ENDBRANCH   1  29
BRANCH   5  45
HETATM   45  C12 UNL     1      12.229  53.609  90.262  1.00  0.00     0.049 A 
HETATM   46  C13 UNL     1      12.751  54.760  90.810  1.00  0.00     0.030 A 
HETATM   47  C14 UNL     1      13.257  54.718  92.109  1.00  0.00     0.002 A 
HETATM   48  C15 UNL     1      13.252  53.583  92.859  1.00  0.00     0.000 A 
HETATM   49  C16 UNL     1      12.718  52.416  92.291  1.00  0.00     0.002 A 
HETATM   50  C17 UNL     1      12.224  52.421  91.040  1.00  0.00     0.030 A 
ENDBRANCH   5  45
TORSDOF 10
ENDMDL
MODEL 2
REMARK VINA RESULT: -8.090720068      1.104      1.440
REMARK  10 active torsions:
REMARK  status: ('A' for Active; 'I' for Inactive)
REMARK    1  A    between atoms: S1_2  and  C1_4 
REMARK    2  A    between atoms: S1_2  and  N1_11 
REMARK    3  A    between atoms: C1_4  and  C2_5 
REMARK    4  A    between atoms: N1_11  and  C8_13 
REMARK    5  A    between atoms: C8_13  and  C9_14 
REMARK    6  A    between atoms: C9_14  and  N2_15 
REMARK    7  A    between atoms: N2_15  and  C10_17 
REMARK    8  A    between atoms: N4_21  and  C12_23 
REMARK    9  A    between atoms: N6_32  and  C19_34 
REMARK   10  A    between atoms: C21_36  and  C22_37 
ROOT
HETATM    1  C10 UNL     1       8.657  54.288  88.882  1.00  0.00     0.711 A 
HETATM    2  N3  UNL     1       9.741  53.900  89.551  1.00  0.00    -0.021 N 
ATOM      3  H3  UNL     1       9.762  54.042  90.561  1.00  0.00     0.203 HD
HETATM    4  C11 UNL     1      10.828  53.322  88.957  1.00  0.00     0.711 A 
HETATM    5  N4  UNL     1      11.777  52.854  89.592  1.00  0.00    -0.191 N 
ATOM      6  H4  UNL     1      12.450  52.497  88.915  1.00  0.00     0.184 HD
HETATM    7  N5  UNL     1      10.791  53.135  87.585  1.00  0.00    -0.021 N 
ATOM      8  H5  UNL     1      11.591  52.712  87.113  1.00  0.00     0.203 HD
HETATM    9  C18 UNL     1       9.737  53.495  86.880  1.00  0.00     0.711 A 
HETATM   10  N6  UNL     1       9.666  53.381  85.594  1.00  0.00    -0.191 N 
ATOM     11  H6  UNL     1       8.808  53.685  85.134  1.00  0.00     0.184 HD
HETATM   12  N9  UNL     1       8.656  54.072  87.519  1.00  0.00    -0.021 N 
ATOM     13  H9  UNL     1       7.839  54.344  86.971  1.00  0.00     0.203 HD
ENDROOT
BRANCH  10  14
HETATM   14  C19 UNL     1      10.686  52.868  84.799  1.00  0.00     0.051 A 
HETATM   15  C20 UNL     1      10.504  51.688  84.025  1.00  0.00     0.045 A 
HETATM   16  C21 UNL     1      11.461  51.233  83.160  1.00  0.00     0.009 A 
HETATM   17  C25 UNL     1      12.671  51.936  83.011  1.00  0.00     0.054 A 
HETATM   18  N8  UNL     1      13.604  51.448  82.161  1.00  0.00    -0.365 N 
HETATM   19  C29 UNL     1      12.876  53.073  83.753  1.00  0.00    -0.006 A 
HETATM   20  C26 UNL     1      14.779  52.032  81.992  1.00  0.00     0.088 A 
ATOM     21  H8  UNL     1      13.393  50.602  81.632  1.00  0.00     0.165 HD
HETATM   22  C27 UNL     1      15.028  53.178  82.724  1.00  0.00     0.018 A 
HETATM   23  C28 UNL     1      14.078  53.704  83.608  1.00  0.00     0.015 A 
HETATM   24  C30 UNL     1      11.901  53.509  84.617  1.00  0.00     0.043 A 
BRANCH  16  25
HETATM   25  C22 UNL     1      11.259  50.102  82.184  1.00  0.00     0.099 C 
HETATM   26  N7  UNL     1      11.188  48.919  82.816  1.00  0.00    -0.386 N 
HETATM   27  C23 UNL     1      11.153  47.569  82.396  1.00  0.00     0.142 A 
HETATM   28  C24 UNL     1      10.567  48.087  83.718  1.00  0.00     0.142 A 
ENDBRANCH  16  25
ENDBRANCH  10  14
BRANCH   1  29
HETATM   29  N2  UNL     1       7.752  55.117  89.331  1.00  0.00    -0.203 N 
ATOM     30  H2  UNL     1       7.915  56.118  89.217  1.00  0.00     0.183 HD
BRANCH  29  31
HETATM   31  C9  UNL     1       6.583  54.713  89.955  1.00  0.00     0.099 C 
BRANCH  31  32
HETATM   32  C8  UNL     1       6.368  53.987  91.196  1.00  0.00     0.176 C 
BRANCH  32  33
HETATM   33  N1  UNL     1       6.608  54.727  92.395  1.00  0.00    -0.315 N 
ATOM     34  H1  UNL     1       6.056  55.509  92.748  1.00  0.00     0.172 HD
BRANCH  33  35
HETATM   35  S1  UNL     1       8.038  54.033  93.144  1.00  0.00     0.230 S 
HETATM   36  O1  UNL     1       7.962  52.544  93.077  1.00  0.00    -0.206 OA
HETATM   37  O2  UNL     1       9.183  54.488  92.227  1.00  0.00    -0.206 OA
BRANCH  35  38
HETATM   38  C1  UNL     1       8.313  54.669  94.751  1.00  0.00     0.201 C 
BRANCH  38  39
HETATM   39  C2  UNL     1       9.317  55.736  94.724  1.00  0.00    -0.043 A 
HETATM   40  C3  UNL     1      10.613  55.521  94.405  1.00  0.00     0.008 A 
HETATM   41  C4  UNL     1      11.545  56.565  94.412  1.00  0.00     0.001 A 
HETATM   42  C5  UNL     1      11.097  57.835  94.754  1.00  0.00     0.000 A 
HETATM   43  C6  UNL     1       9.793  58.095  95.085  1.00  0.00     0.001 A 
HETATM   44  C7  UNL     1       8.903  57.025  95.066  1.00  0.00     0.008 A 
ENDBRANCH  38  39
ENDBRANCH  35  38
ENDBRANCH  33  35
ENDBRANCH  32  33
ENDBRANCH  31  32
ENDBRANCH  29  31
ENDBRANCH   1  29
BRANCH   5  45
HETATM   45  C12 UNL     1      12.283  52.625  90.830  1.00  0.00     0.049 A 
HETATM   46  C13 UNL     1      12.714  53.595  91.709  1.00  0.00     0.030 A 
HETATM   47  C14 UNL     1      13.198  53.205  92.957  1.00  0.00     0.002 A 
HETATM   48  C15 UNL     1      13.259  51.902  93.343  1.00  0.00     0.000 A 
HETATM   49  C16 UNL     1      12.818  50.923  92.440  1.00  0.00     0.002 A 
HETATM   50  C17 UNL     1      12.348  51.264  91.227  1.00  0.00     0.030 A 
ENDBRANCH   5  45
TORSDOF 10
ENDMDL
MODEL 3
REMARK VINA RESULT: -8.062262011      1.691      2.087
REMARK  10 active torsions:
REMARK  status: ('A' for Active; 'I' for Inactive)
REMARK    1  A    between atoms: S1_2  and  C1_4 
REMARK    2  A    between atoms: S1_2  and  N1_11 
REMARK    3  A    between atoms: C1_4  and  C2_5 
REMARK    4  A    between atoms: N1_11  and  C8_13 
REMARK    5  A    between atoms: C8_13  and  C9_14 
REMARK    6  A    between atoms: C9_14  and  N2_15 
REMARK    7  A    between atoms: N2_15  and  C10_17 
REMARK    8  A    between atoms: N4_21  and  C12_23 
REMARK    9  A    between atoms: N6_32  and  C19_34 
REMARK   10  A    between atoms: C21_36  and  C22_37 
ROOT
HETATM    1  C10 UNL     1       9.403  53.379  88.528  1.00  0.00     0.711 A 
HETATM    2  N3  UNL     1      10.190  52.438  89.047  1.00  0.00    -0.021 N 
ATOM      3  H3  UNL     1      10.107  52.235  90.043  1.00  0.00     0.203 HD
HETATM    4  C11 UNL     1      11.105  51.731  88.316  1.00  0.00     0.711 A 
HETATM    5  N4  UNL     1      11.744  50.780  88.772  1.00  0.00    -0.191 N 
ATOM      6  H4  UNL     1      12.356  50.441  88.031  1.00  0.00     0.184 HD
HETATM    7  N5  UNL     1      11.211  52.017  86.966  1.00  0.00    -0.021 N 
ATOM      8  H5  UNL     1      11.890  51.510  86.397  1.00  0.00     0.203 HD
HETATM    9  C18 UNL     1      10.449  52.933  86.404  1.00  0.00     0.711 A 
HETATM   10  N6  UNL     1      10.534  53.267  85.158  1.00  0.00    -0.191 N 
ATOM     11  H6  UNL     1       9.901  53.987  84.812  1.00  0.00     0.184 HD
HETATM   12  N9  UNL     1       9.533  53.623  87.176  1.00  0.00    -0.021 N 
ATOM     13  H9  UNL     1       8.940  54.328  86.737  1.00  0.00     0.203 HD
ENDROOT
BRANCH  10  14
HETATM   14  C19 UNL     1      11.438  52.705  84.260  1.00  0.00     0.051 A 
HETATM   15  C20 UNL     1      11.062  51.636  83.400  1.00  0.00     0.045 A 
HETATM   16  C21 UNL     1      11.907  51.145  82.442  1.00  0.00     0.009 A 
HETATM   17  C25 UNL     1      13.190  51.699  82.281  1.00  0.00     0.054 A 
HETATM   18  N8  UNL     1      14.007  51.178  81.336  1.00  0.00    -0.365 N 
HETATM   19  C29 UNL     1      13.581  52.726  83.104  1.00  0.00    -0.006 A 
HETATM   20  C26 UNL     1      15.240  51.620  81.146  1.00  0.00     0.088 A 
ATOM     21  H8  UNL     1      13.661  50.419  80.749  1.00  0.00     0.165 HD
HETATM   22  C27 UNL     1      15.674  52.652  81.958  1.00  0.00     0.018 A 
HETATM   23  C28 UNL     1      14.848  53.209  82.941  1.00  0.00     0.015 A 
HETATM   24  C30 UNL     1      12.716  53.200  84.060  1.00  0.00     0.043 A 
BRANCH  16  25
HETATM   25  C22 UNL     1      11.509  50.147  81.386  1.00  0.00     0.099 C 
HETATM   26  N7  UNL     1      10.730  50.713  80.449  1.00  0.00    -0.386 N 
HETATM   27  C23 UNL     1       9.982  50.225  79.352  1.00  0.00     0.142 A 
HETATM   28  C24 UNL     1      10.552  51.647  79.456  1.00  0.00     0.142 A 
ENDBRANCH  16  25
ENDBRANCH  10  14
BRANCH   1  29
HETATM   29  N2  UNL     1       8.763  54.288  89.216  1.00  0.00    -0.203 N 
ATOM     30  H2  UNL     1       9.050  55.261  89.113  1.00  0.00     0.183 HD
BRANCH  29  31
HETATM   31  C9  UNL     1       7.716  54.002  90.076  1.00  0.00     0.099 C 
BRANCH  31  32
HETATM   32  C8  UNL     1       7.715  53.553  91.458  1.00  0.00     0.176 C 
BRANCH  32  33
HETATM   33  N1  UNL     1       8.399  54.400  92.384  1.00  0.00    -0.315 N 
ATOM     34  H1  UNL     1       8.033  55.247  92.819  1.00  0.00     0.172 HD
BRANCH  33  35
HETATM   35  S1  UNL     1       9.994  53.704  92.627  1.00  0.00     0.230 S 
HETATM   36  O1  UNL     1       9.950  52.243  92.327  1.00  0.00    -0.206 OA
HETATM   37  O2  UNL     1      10.852  54.381  91.548  1.00  0.00    -0.206 OA
BRANCH  35  38
HETATM   38  C1  UNL     1      10.650  54.097  94.202  1.00  0.00     0.201 C 
BRANCH  38  39
HETATM   39  C2  UNL     1      10.528  55.532  94.473  1.00  0.00    -0.043 A 
HETATM   40  C3  UNL     1      11.556  56.399  94.328  1.00  0.00     0.008 A 
HETATM   41  C4  UNL     1      11.402  57.759  94.619  1.00  0.00     0.001 A 
HETATM   42  C5  UNL     1      10.158  58.195  95.059  1.00  0.00     0.000 A 
HETATM   43  C6  UNL     1       9.093  57.349  95.220  1.00  0.00     0.001 A 
HETATM   44  C7  UNL     1       9.293  56.005  94.920  1.00  0.00     0.008 A 
ENDBRANCH  38  39
ENDBRANCH  35  38
ENDBRANCH  33  35
ENDBRANCH  32  33
ENDBRANCH  31  32
ENDBRANCH  29  31
ENDBRANCH   1  29
BRANCH   5  45
HETATM   45  C12 UNL     1      11.960  50.004  89.865  1.00  0.00     0.049 A 
HETATM   46  C13 UNL     1      12.585  50.412  91.024  1.00  0.00     0.030 A 
HETATM   47  C14 UNL     1      12.721  49.502  92.071  1.00  0.00     0.002 A 
HETATM   48  C15 UNL     1      12.256  48.225  91.996  1.00  0.00     0.000 A 
HETATM   49  C16 UNL     1      11.621  47.821  90.812  1.00  0.00     0.002 A 
HETATM   50  C17 UNL     1      11.476  48.673  89.781  1.00  0.00     0.030 A 
ENDBRANCH   5  45
TORSDOF 10
ENDMDL
MODEL 4
REMARK VINA RESULT: -8.019396046      2.048      3.907
REMARK  10 active torsions:
REMARK  status: ('A' for Active; 'I' for Inactive)
REMARK    1  A    between atoms: S1_2  and  C1_4 
REMARK    2  A    between atoms: S1_2  and  N1_11 
REMARK    3  A    between atoms: C1_4  and  C2_5 
REMARK    4  A    between atoms: N1_11  and  C8_13 
REMARK    5  A    between atoms: C8_13  and  C9_14 
REMARK    6  A    between atoms: C9_14  and  N2_15 
REMARK    7  A    between atoms: N2_15  and  C10_17 
REMARK    8  A    between atoms: N4_21  and  C12_23 
REMARK    9  A    between atoms: N6_32  and  C19_34 
REMARK   10  A    between atoms: C21_36  and  C22_37 
ROOT
HETATM    1  C10 UNL     1      12.668  54.817  88.137  1.00  0.00     0.711 A 
HETATM    2  N3  UNL     1      11.753  53.863  88.298  1.00  0.00    -0.021 N 
ATOM      3  H3  UNL     1      11.265  53.807  89.192  1.00  0.00     0.203 HD
HETATM    4  C11 UNL     1      11.432  52.954  87.328  1.00  0.00     0.711 A 
HETATM    5  N4  UNL     1      10.502  52.151  87.435  1.00  0.00    -0.191 N 
ATOM      6  H4  UNL     1      10.485  51.587  86.585  1.00  0.00     0.184 HD
HETATM    7  N5  UNL     1      12.101  53.037  86.118  1.00  0.00    -0.021 N 
ATOM      8  H5  UNL     1      11.887  52.367  85.379  1.00  0.00     0.203 HD
HETATM    9  C18 UNL     1      13.009  53.968  85.908  1.00  0.00     0.711 A 
HETATM   10  N6  UNL     1      13.691  54.067  84.814  1.00  0.00    -0.191 N 
ATOM     11  H6  UNL     1      14.372  54.822  84.742  1.00  0.00     0.184 HD
HETATM   12  N9  UNL     1      13.302  54.872  86.912  1.00  0.00    -0.021 N 
ATOM     13  H9  UNL     1      14.001  55.596  86.744  1.00  0.00     0.203 HD
ENDROOT
BRANCH  10  14
HETATM   14  C19 UNL     1      13.553  53.206  83.729  1.00  0.00     0.051 A 
HETATM   15  C20 UNL     1      12.337  52.510  83.482  1.00  0.00     0.045 A 
HETATM   16  C21 UNL     1      12.154  51.744  82.364  1.00  0.00     0.009 A 
HETATM   17  C25 UNL     1      13.184  51.626  81.412  1.00  0.00     0.054 A 
HETATM   18  N8  UNL     1      12.976  50.846  80.326  1.00  0.00    -0.365 N 
HETATM   19  C29 UNL     1      14.371  52.280  81.630  1.00  0.00    -0.006 A 
HETATM   20  C26 UNL     1      13.906  50.657  79.404  1.00  0.00     0.088 A 
ATOM     21  H8  UNL     1      12.071  50.389  80.213  1.00  0.00     0.165 HD
HETATM   22  C27 UNL     1      15.119  51.295  79.589  1.00  0.00     0.018 A 
HETATM   23  C28 UNL     1      15.358  52.109  80.702  1.00  0.00     0.015 A 
HETATM   24  C30 UNL     1      14.532  53.042  82.762  1.00  0.00     0.043 A 
BRANCH  16  25
HETATM   25  C22 UNL     1      10.838  51.135  81.955  1.00  0.00     0.099 C 
HETATM   26  N7  UNL     1      10.362  50.316  82.908  1.00  0.00    -0.386 N 
HETATM   27  C23 UNL     1       9.282  49.407  82.988  1.00  0.00     0.142 A 
HETATM   28  C24 UNL     1       9.912  50.122  84.193  1.00  0.00     0.142 A 
ENDBRANCH  16  25
ENDBRANCH  10  14
BRANCH   1  29
HETATM   29  N2  UNL     1      13.234  55.487  89.106  1.00  0.00    -0.203 N 
ATOM     30  H2  UNL     1      13.062  56.491  89.163  1.00  0.00     0.183 HD
BRANCH  29  31
HETATM   31  C9  UNL     1      14.056  54.909  90.060  1.00  0.00     0.099 C 
BRANCH  31  32
HETATM   32  C8  UNL     1      13.750  54.342  91.362  1.00  0.00     0.176 C 
BRANCH  32  33
HETATM   33  N1  UNL     1      13.205  53.021  91.348  1.00  0.00    -0.315 N 
ATOM     34  H1  UNL     1      13.694  52.164  91.088  1.00  0.00     0.172 HD
BRANCH  33  35
HETATM   35  S1  UNL     1      11.531  53.155  91.866  1.00  0.00     0.230 S 
HETATM   36  O1  UNL     1      10.868  54.265  91.120  1.00  0.00    -0.206 OA
HETATM   37  O2  UNL     1      10.902  51.834  91.401  1.00  0.00    -0.206 OA
BRANCH  35  38
HETATM   38  C1  UNL     1      11.388  53.270  93.606  1.00  0.00     0.201 C 
BRANCH  38  39
HETATM   39  C2  UNL     1      11.034  54.633  94.011  1.00  0.00    -0.043 A 
HETATM   40  C3  UNL     1      11.941  55.631  94.109  1.00  0.00     0.008 A 
HETATM   41  C4  UNL     1      11.564  56.915  94.520  1.00  0.00     0.001 A 
HETATM   42  C5  UNL     1      10.226  57.135  94.823  1.00  0.00     0.000 A 
HETATM   43  C6  UNL     1       9.277  56.151  94.737  1.00  0.00     0.001 A 
HETATM   44  C7  UNL     1       9.698  54.890  94.326  1.00  0.00     0.008 A 
ENDBRANCH  38  39
ENDBRANCH  35  38
ENDBRANCH  33  35
ENDBRANCH  32  33
ENDBRANCH  31  32
ENDBRANCH  29  31
ENDBRANCH   1  29
BRANCH   5  45
HETATM   45  C12 UNL     1       9.492  51.716  88.231  1.00  0.00     0.049 A 
HETATM   46  C13 UNL     1       8.499  52.507  88.766  1.00  0.00     0.030 A 
HETATM   47  C14 UNL     1       7.517  51.912  89.556  1.00  0.00     0.002 A 
HETATM   48  C15 UNL     1       7.498  50.577  89.818  1.00  0.00     0.000 A 
HETATM   49  C16 UNL     1       8.514  49.780  89.268  1.00  0.00     0.002 A 
HETATM   50  C17 UNL     1       9.478  50.323  88.504  1.00  0.00     0.030 A 
ENDBRANCH   5  45
TORSDOF 10
ENDMDL
MODEL 5
REMARK VINA RESULT: -7.983413099      1.796      2.289
REMARK  10 active torsions:
REMARK  status: ('A' for Active; 'I' for Inactive)
REMARK    1  A    between atoms: S1_2  and  C1_4 
REMARK    2  A    between atoms: S1_2  and  N1_11 
REMARK    3  A    between atoms: C1_4  and  C2_5 
REMARK    4  A    between atoms: N1_11  and  C8_13 
REMARK    5  A    between atoms: C8_13  and  C9_14 
REMARK    6  A    between atoms: C9_14  and  N2_15 
REMARK    7  A    between atoms: N2_15  and  C10_17 
REMARK    8  A    between atoms: N4_21  and  C12_23 
REMARK    9  A    between atoms: N6_32  and  C19_34 
REMARK   10  A    between atoms: C21_36  and  C22_37 
ROOT
HETATM    1  C10 UNL     1       9.500  53.466  88.489  1.00  0.00     0.711 A 
HETATM    2  N3  UNL     1      10.260  52.503  89.009  1.00  0.00    -0.021 N 
ATOM      3  H3  UNL     1      10.177  52.310  90.007  1.00  0.00     0.203 HD
HETATM    4  C11 UNL     1      11.144  51.760  88.277  1.00  0.00     0.711 A 
HETATM    5  N4  UNL     1      11.755  50.792  88.735  1.00  0.00    -0.191 N 
ATOM      6  H4  UNL     1      12.349  50.426  87.991  1.00  0.00     0.184 HD
HETATM    7  N5  UNL     1      11.249  52.032  86.923  1.00  0.00    -0.021 N 
ATOM      8  H5  UNL     1      11.906  51.499  86.353  1.00  0.00     0.203 HD
HETATM    9  C18 UNL     1      10.514  52.969  86.361  1.00  0.00     0.711 A 
HETATM   10  N6  UNL     1      10.601  53.291  85.111  1.00  0.00    -0.191 N 
ATOM     11  H6  UNL     1       9.989  54.030  84.764  1.00  0.00     0.184 HD
HETATM   12  N9  UNL     1       9.628  53.696  87.134  1.00  0.00    -0.021 N 
ATOM     13  H9  UNL     1       9.055  54.417  86.694  1.00  0.00     0.203 HD
ENDROOT
BRANCH  10  14
HETATM   14  C19 UNL     1      11.477  52.693  84.211  1.00  0.00     0.051 A 
HETATM   15  C20 UNL     1      11.072  51.603  83.392  1.00  0.00     0.045 A 
HETATM   16  C21 UNL     1      11.889  51.074  82.431  1.00  0.00     0.009 A 
HETATM   17  C25 UNL     1      13.174  51.609  82.224  1.00  0.00     0.054 A 
HETATM   18  N8  UNL     1      13.964  51.051  81.277  1.00  0.00    -0.365 N 
HETATM   19  C29 UNL     1      13.594  52.656  83.007  1.00  0.00    -0.006 A 
HETATM   20  C26 UNL     1      15.196  51.474  81.047  1.00  0.00     0.088 A 
ATOM     21  H8  UNL     1      13.596  50.279  80.722  1.00  0.00     0.165 HD
HETATM   22  C27 UNL     1      15.660  52.524  81.817  1.00  0.00     0.018 A 
HETATM   23  C28 UNL     1      14.861  53.120  82.801  1.00  0.00     0.015 A 
HETATM   24  C30 UNL     1      12.756  53.168  83.967  1.00  0.00     0.043 A 
BRANCH  16  25
HETATM   25  C22 UNL     1      11.457  50.048  81.415  1.00  0.00     0.099 C 
HETATM   26  N7  UNL     1      11.325  48.834  81.973  1.00  0.00    -0.386 N 
HETATM   27  C23 UNL     1      11.093  47.531  81.474  1.00  0.00     0.142 A 
HETATM   28  C24 UNL     1      10.717  48.004  82.886  1.00  0.00     0.142 A 
ENDBRANCH  16  25
ENDBRANCH  10  14
BRANCH   1  29
HETATM   29  N2  UNL     1       8.896  54.401  89.174  1.00  0.00    -0.203 N 
ATOM     30  H2  UNL     1       9.250  55.355  89.105  1.00  0.00     0.183 HD
BRANCH  29  31
HETATM   31  C9  UNL     1       7.801  54.167  89.990  1.00  0.00     0.099 C 
BRANCH  31  32
HETATM   32  C8  UNL     1       7.713  53.602  91.326  1.00  0.00     0.176 C 
BRANCH  32  33
HETATM   33  N1  UNL     1       8.333  54.367  92.363  1.00  0.00    -0.315 N 
ATOM     34  H1  UNL     1       7.933  55.169  92.849  1.00  0.00     0.172 HD
BRANCH  33  35
HETATM   35  S1  UNL     1       9.918  53.659  92.638  1.00  0.00     0.230 S 
HETATM   36  O1  UNL     1       9.871  52.199  92.332  1.00  0.00    -0.206 OA
HETATM   37  O2  UNL     1      10.804  54.334  91.581  1.00  0.00    -0.206 OA
BRANCH  35  38
HETATM   38  C1  UNL     1      10.542  54.042  94.228  1.00  0.00     0.201 C 
BRANCH  38  39
HETATM   39  C2  UNL     1      10.466  55.484  94.484  1.00  0.00    -0.043 A 
HETATM   40  C3  UNL     1      11.520  56.316  94.324  1.00  0.00     0.008 A 
HETATM   41  C4  UNL     1      11.410  57.684  94.600  1.00  0.00     0.001 A 
HETATM   42  C5  UNL     1      10.183  58.163  95.040  1.00  0.00     0.000 A 
HETATM   43  C6  UNL     1       9.092  57.353  95.215  1.00  0.00     0.001 A 
HETATM   44  C7  UNL     1       9.249  56.000  94.930  1.00  0.00     0.008 A 
ENDBRANCH  38  39
ENDBRANCH  35  38
ENDBRANCH  33  35
ENDBRANCH  32  33
ENDBRANCH  31  32
ENDBRANCH  29  31
ENDBRANCH   1  29
BRANCH   5  45
HETATM   45  C12 UNL     1      11.953  50.017  89.832  1.00  0.00     0.049 A 
HETATM   46  C13 UNL     1      12.486  50.447  91.028  1.00  0.00     0.030 A 
HETATM   47  C14 UNL     1      12.615  49.534  92.073  1.00  0.00     0.002 A 
HETATM   48  C15 UNL     1      12.231  48.233  91.961  1.00  0.00     0.000 A 
HETATM   49  C16 UNL     1      11.689  47.807  90.739  1.00  0.00     0.002 A 
HETATM   50  C17 UNL     1      11.553  48.660  89.709  1.00  0.00     0.030 A 
ENDBRANCH   5  45
TORSDOF 10
ENDMDL
