MODEL 1
REMARK VINA RESULT: -7.544512332      0.000      0.000
REMARK  11 active torsions:
REMARK  status: ('A' for Active; 'I' for Inactive)
REMARK    1  A    between atoms: C2_2  and  N1_4 
REMARK       I    between atoms: N2_7  and  C6_8 
REMARK    2  A    between atoms: C6_8  and  C7_10 
REMARK    3  A    between atoms: C7_10  and  C8_11 
REMARK    4  A    between atoms: C8_11  and  C9_12 
REMARK    5  A    between atoms: C9_12  and  C10_13 
REMARK    6  A    between atoms: C10_13  and  C11_14 
REMARK    7  A    between atoms: C11_14  and  C12_15 
REMARK    8  A    between atoms: C14_20  and  C15_21 
REMARK    9  A    between atoms: C15_21  and  O3_22 
REMARK   10  A    between atoms: C19_31  and  C20_32 
REMARK   11  A    between atoms: C20_32  and  C21_33 
ROOT
HETATM    1  C12 UNL     1      11.885  53.327  90.415  1.00  0.00     0.176 C 
HETATM    2  N3  UNL     1      12.409  51.987  90.248  1.00  0.00    -0.346 N 
ATOM      3  H3  UNL     1      13.392  51.903  89.991  1.00  0.00     0.163 HD
HETATM    4  C13 UNL     1      11.684  50.790  90.408  1.00  0.00     0.243 C 
HETATM    5  O2  UNL     1      11.887  49.775  89.654  1.00  0.00    -0.271 OA
HETATM    6  C14 UNL     1      10.633  50.585  91.442  1.00  0.00     0.200 C 
HETATM    7  N4  UNL     1      11.109  49.628  92.420  1.00  0.00    -0.337 N 
ATOM      8  H4  UNL     1      10.987  48.635  92.225  1.00  0.00     0.164 HD
HETATM    9  C16 UNL     1      11.735  50.002  93.633  1.00  0.00     0.280 C 
HETATM   10  O4  UNL     1      11.427  49.379  94.677  1.00  0.00    -0.260 OA
HETATM   11  S1  UNL     1      12.925  51.303  93.730  1.00  0.00    -0.069 SA
HETATM   12  C17 UNL     1      12.676  52.423  95.119  1.00  0.00     0.086 C 
HETATM   13  C18 UNL     1      12.935  53.828  94.617  1.00  0.00     0.036 C 
HETATM   14  C19 UNL     1      12.081  54.102  93.429  1.00  0.00     0.085 C 
HETATM   15  N5  UNL     1      12.908  54.637  92.377  1.00  0.00    -0.355 N 
ATOM     16  H5  UNL     1      13.476  55.456  92.591  1.00  0.00     0.162 HD
HETATM   17  C27 UNL     1      12.987  54.105  91.071  1.00  0.00     0.240 C 
HETATM   18  O5  UNL     1      14.028  54.259  90.352  1.00  0.00    -0.271 OA
ENDROOT
BRANCH   1  19
HETATM   19  C11 UNL     1      11.784  53.948  89.013  1.00  0.00     0.035 C 
BRANCH  19  20
HETATM   20  C10 UNL     1      10.361  54.021  88.556  1.00  0.00     0.002 C 
BRANCH  20  21
HETATM   21  C9  UNL     1      10.056  53.027  87.465  1.00  0.00     0.001 C 
BRANCH  21  22
HETATM   22  C8  UNL     1      11.305  52.642  86.699  1.00  0.00     0.009 C 
BRANCH  22  23
HETATM   23  C7  UNL     1      11.148  52.879  85.216  1.00  0.00     0.103 C 
BRANCH  23  24
HETATM   24  C6  UNL     1      12.416  53.354  84.636  1.00  0.00     0.220 C 
HETATM   25  N2  UNL     1      13.071  52.641  83.606  1.00  0.00    -0.346 N 
HETATM   26  C5  UNL     1      12.501  51.420  83.112  1.00  0.00     0.146 C 
HETATM   27  C28 UNL     1      14.306  53.115  83.042  1.00  0.00     0.169 C 
HETATM   28  C4  UNL     1      12.569  51.417  81.622  1.00  0.00     0.142 C 
HETATM   29  N1  UNL     1      13.882  51.602  81.135  1.00  0.00    -0.386 N 
HETATM   30  C29 UNL     1      14.829  52.241  81.955  1.00  0.00     0.078 C 
HETATM   31  O1  UNL     1      12.917  54.440  85.092  1.00  0.00    -0.273 OA
BRANCH  29  32
HETATM   32  C2  UNL     1      14.049  51.663  79.731  1.00  0.00     0.075 C 
HETATM   33  C1  UNL     1      15.318  52.328  79.283  1.00  0.00     0.032 C 
HETATM   34  C3  UNL     1      13.982  50.244  79.193  1.00  0.00     0.032 C 
ENDBRANCH  29  32
ENDBRANCH  23  24
ENDBRANCH  22  23
ENDBRANCH  21  22
ENDBRANCH  20  21
ENDBRANCH  19  20
ENDBRANCH   1  19
BRANCH   6  35
HETATM   35  C15 UNL     1       9.393  49.932  90.809  1.00  0.00     0.199 C 
BRANCH  35  36
HETATM   36  O3  UNL     1       9.050  50.499  89.607  1.00  0.00    -0.398 OA
ATOM     37  H3  UNL     1       9.106  49.887  88.883  1.00  0.00     0.209 HD
ENDBRANCH  35  36
ENDBRANCH   6  35
BRANCH  14  38
HETATM   38  C20 UNL     1      10.846  54.840  93.635  1.00  0.00     0.029 C 
BRANCH  38  39
HETATM   39  C21 UNL     1      10.702  55.818  94.739  1.00  0.00    -0.013 C 
HETATM   40  C22 UNL     1       9.197  55.786  95.074  1.00  0.00     0.005 C 
HETATM   41  C23 UNL     1       8.815  56.816  96.074  1.00  0.00     0.000 C 
HETATM   42  C24 UNL     1       9.002  58.163  95.355  1.00  0.00     0.000 C 
HETATM   43  C25 UNL     1      10.472  58.305  95.196  1.00  0.00     0.000 C 
HETATM   44  C26 UNL     1      11.149  57.200  94.424  1.00  0.00     0.005 C 
ENDBRANCH  38  39
ENDBRANCH  14  38
TORSDOF 11
ENDMDL
MODEL 2
REMARK VINA RESULT: -7.426712148      2.623     10.078
REMARK  11 active torsions:
REMARK  status: ('A' for Active; 'I' for Inactive)
REMARK    1  A    between atoms: C2_2  and  N1_4 
REMARK       I    between atoms: N2_7  and  C6_8 
REMARK    2  A    between atoms: C6_8  and  C7_10 
REMARK    3  A    between atoms: C7_10  and  C8_11 
REMARK    4  A    between atoms: C8_11  and  C9_12 
REMARK    5  A    between atoms: C9_12  and  C10_13 
REMARK    6  A    between atoms: C10_13  and  C11_14 
REMARK    7  A    between atoms: C11_14  and  C12_15 
REMARK    8  A    between atoms: C14_20  and  C15_21 
REMARK    9  A    between atoms: C15_21  and  O3_22 
REMARK   10  A    between atoms: C19_31  and  C20_32 
REMARK   11  A    between atoms: C20_32  and  C21_33 
ROOT
HETATM    1  C12 UNL     1      11.137  52.187  87.391  1.00  0.00     0.176 C 
HETATM    2  N3  UNL     1      10.252  51.547  88.341  1.00  0.00    -0.346 N 
ATOM      3  H3  UNL     1       9.346  51.988  88.500  1.00  0.00     0.163 HD
HETATM    4  C13 UNL     1      10.529  50.372  89.067  1.00  0.00     0.243 C 
HETATM    5  O2  UNL     1      10.139  50.221  90.277  1.00  0.00    -0.271 OA
HETATM    6  C14 UNL     1      11.283  49.213  88.517  1.00  0.00     0.200 C 
HETATM    7  N4  UNL     1      10.382  48.090  88.361  1.00  0.00    -0.337 N 
ATOM      8  H4  UNL     1      10.215  47.487  89.166  1.00  0.00     0.164 HD
HETATM    9  C16 UNL     1       9.721  47.785  87.146  1.00  0.00     0.280 C 
HETATM   10  O4  UNL     1       9.648  46.585  86.795  1.00  0.00    -0.260 OA
HETATM   11  S1  UNL     1       9.001  49.027  86.117  1.00  0.00    -0.069 SA
HETATM   12  C17 UNL     1       9.366  48.829  84.364  1.00  0.00     0.086 C 
HETATM   13  C18 UNL     1       9.645  50.207  83.803  1.00  0.00     0.036 C 
HETATM   14  C19 UNL     1      10.719  50.864  84.597  1.00  0.00     0.085 C 
HETATM   15  N5  UNL     1      10.279  52.187  84.966  1.00  0.00    -0.355 N 
ATOM     16  H5  UNL     1       9.971  52.809  84.219  1.00  0.00     0.162 HD
HETATM   17  C27 UNL     1      10.246  52.680  86.288  1.00  0.00     0.240 C 
HETATM   18  O5  UNL     1       9.434  53.600  86.634  1.00  0.00    -0.271 OA
ENDROOT
BRANCH   1  19
HETATM   19  C11 UNL     1      11.649  53.477  88.050  1.00  0.00     0.035 C 
BRANCH  19  20
HETATM   20  C10 UNL     1      12.882  53.980  87.367  1.00  0.00     0.002 C 
BRANCH  20  21
HETATM   21  C9  UNL     1      13.639  54.976  88.207  1.00  0.00     0.001 C 
BRANCH  21  22
HETATM   22  C8  UNL     1      13.024  55.123  89.583  1.00  0.00     0.009 C 
BRANCH  22  23
HETATM   23  C7  UNL     1      13.945  54.613  90.666  1.00  0.00     0.103 C 
BRANCH  23  24
HETATM   24  C6  UNL     1      13.255  53.610  91.495  1.00  0.00     0.220 C 
HETATM   25  N2  UNL     1      12.771  53.923  92.785  1.00  0.00    -0.346 N 
HETATM   26  C5  UNL     1      12.957  55.244  93.313  1.00  0.00     0.146 C 
HETATM   27  C28 UNL     1      12.093  52.939  93.584  1.00  0.00     0.169 C 
HETATM   28  C4  UNL     1      11.687  55.699  93.951  1.00  0.00     0.142 C 
HETATM   29  N1  UNL     1      11.228  54.809  94.948  1.00  0.00    -0.386 N 
HETATM   30  C29 UNL     1      11.637  53.464  94.902  1.00  0.00     0.078 C 
HETATM   31  O1  UNL     1      13.103  52.433  91.014  1.00  0.00    -0.273 OA
BRANCH  29  32
HETATM   32  C2  UNL     1      10.003  55.125  95.583  1.00  0.00     0.075 C 
HETATM   33  C1  UNL     1      10.139  55.563  97.013  1.00  0.00     0.032 C 
HETATM   34  C3  UNL     1       9.320  56.207  94.765  1.00  0.00     0.032 C 
ENDBRANCH  29  32
ENDBRANCH  23  24
ENDBRANCH  22  23
ENDBRANCH  21  22
ENDBRANCH  20  21
ENDBRANCH  19  20
ENDBRANCH   1  19
BRANCH   6  35
HETATM   35  C15 UNL     1      12.340  48.744  89.533  1.00  0.00     0.199 C 
BRANCH  35  36
HETATM   36  O3  UNL     1      13.125  49.771  89.993  1.00  0.00    -0.398 OA
ATOM     37  H3  UNL     1      12.745  50.215  90.744  1.00  0.00     0.209 HD
ENDBRANCH  35  36
ENDBRANCH   6  35
BRANCH  14  38
HETATM   38  C20 UNL     1      12.074  50.822  84.074  1.00  0.00     0.029 C 
BRANCH  38  39
HETATM   39  C21 UNL     1      12.607  51.904  83.213  1.00  0.00    -0.013 C 
HETATM   40  C22 UNL     1      13.548  51.174  82.233  1.00  0.00     0.005 C 
HETATM   41  C23 UNL     1      14.304  52.112  81.364  1.00  0.00     0.000 C 
HETATM   42  C24 UNL     1      15.262  52.854  82.311  1.00  0.00     0.000 C 
HETATM   43  C25 UNL     1      14.381  53.717  83.139  1.00  0.00     0.000 C 
HETATM   44  C26 UNL     1      13.321  52.992  83.929  1.00  0.00     0.005 C 
ENDBRANCH  38  39
ENDBRANCH  14  38
TORSDOF 11
ENDMDL
MODEL 3
REMARK VINA RESULT: -7.348412892      3.603     10.927
REMARK  11 active torsions:
REMARK  status: ('A' for Active; 'I' for Inactive)
REMARK    1  A    between atoms: C2_2  and  N1_4 
REMARK       I    between atoms: N2_7  and  C6_8 
REMARK    2  A    between atoms: C6_8  and  C7_10 
REMARK    3  A    between atoms: C7_10  and  C8_11 
REMARK    4  A    between atoms: C8_11  and  C9_12 
REMARK    5  A    between atoms: C9_12  and  C10_13 
REMARK    6  A    between atoms: C10_13  and  C11_14 
REMARK    7  A    between atoms: C11_14  and  C12_15 
REMARK    8  A    between atoms: C14_20  and  C15_21 
REMARK    9  A    between atoms: C15_21  and  O3_22 
REMARK   10  A    between atoms: C19_31  and  C20_32 
REMARK   11  A    between atoms: C20_32  and  C21_33 
ROOT
HETATM    1  C12 UNL     1      10.387  51.799  83.280  1.00  0.00     0.176 C 
HETATM    2  N3  UNL     1       9.269  51.217  83.991  1.00  0.00    -0.346 N 
ATOM      3  H3  UNL     1       8.349  51.622  83.818  1.00  0.00     0.163 HD
HETATM    4  C13 UNL     1       9.334  50.142  84.898  1.00  0.00     0.243 C 
HETATM    5  O2  UNL     1       8.599  50.099  85.946  1.00  0.00    -0.271 OA
HETATM    6  C14 UNL     1      10.242  48.973  84.740  1.00  0.00     0.200 C 
HETATM    7  N4  UNL     1       9.452  47.793  84.453  1.00  0.00    -0.337 N 
ATOM      8  H4  UNL     1       9.060  47.271  85.237  1.00  0.00     0.164 HD
HETATM    9  C16 UNL     1       9.196  47.327  83.141  1.00  0.00     0.280 C 
HETATM   10  O4  UNL     1       9.255  46.094  82.927  1.00  0.00    -0.260 OA
HETATM   11  S1  UNL     1       8.799  48.412  81.806  1.00  0.00    -0.069 SA
HETATM   12  C17 UNL     1       9.681  48.049  80.278  1.00  0.00     0.086 C 
HETATM   13  C18 UNL     1      10.091  49.373  79.668  1.00  0.00     0.036 C 
HETATM   14  C19 UNL     1      10.861  50.167  80.665  1.00  0.00     0.085 C 
HETATM   15  N5  UNL     1      10.305  51.496  80.727  1.00  0.00    -0.355 N 
ATOM     16  H5  UNL     1      10.226  52.018  79.855  1.00  0.00     0.162 HD
HETATM   17  C27 UNL     1       9.863  52.124  81.912  1.00  0.00     0.240 C 
HETATM   18  O5  UNL     1       8.967  53.031  81.889  1.00  0.00    -0.271 OA
ENDROOT
BRANCH   1  19
HETATM   19  C11 UNL     1      10.651  53.177  83.907  1.00  0.00     0.035 C 
BRANCH  19  20
HETATM   20  C10 UNL     1      11.623  53.077  85.040  1.00  0.00     0.002 C 
BRANCH  20  21
HETATM   21  C9  UNL     1      12.833  53.953  84.838  1.00  0.00     0.001 C 
BRANCH  21  22
HETATM   22  C8  UNL     1      13.479  54.320  86.158  1.00  0.00     0.009 C 
BRANCH  22  23
HETATM   23  C7  UNL     1      12.636  53.886  87.334  1.00  0.00     0.103 C 
BRANCH  23  24
HETATM   24  C6  UNL     1      13.046  54.606  88.552  1.00  0.00     0.220 C 
HETATM   25  N2  UNL     1      12.544  54.253  89.824  1.00  0.00    -0.346 N 
HETATM   26  C5  UNL     1      11.604  53.175  89.945  1.00  0.00     0.146 C 
HETATM   27  C28 UNL     1      12.955  54.958  91.009  1.00  0.00     0.169 C 
HETATM   28  C4  UNL     1      11.991  52.316  91.101  1.00  0.00     0.142 C 
HETATM   29  N1  UNL     1      12.095  53.041  92.309  1.00  0.00    -0.386 N 
HETATM   30  C29 UNL     1      12.335  54.426  92.254  1.00  0.00     0.078 C 
HETATM   31  O1  UNL     1      13.879  55.571  88.429  1.00  0.00    -0.273 OA
BRANCH  29  32
HETATM   32  C2  UNL     1      12.503  52.326  93.460  1.00  0.00     0.075 C 
HETATM   33  C1  UNL     1      13.612  51.343  93.222  1.00  0.00     0.032 C 
HETATM   34  C3  UNL     1      12.917  53.339  94.514  1.00  0.00     0.032 C 
ENDBRANCH  29  32
ENDBRANCH  23  24
ENDBRANCH  22  23
ENDBRANCH  21  22
ENDBRANCH  20  21
ENDBRANCH  19  20
ENDBRANCH   1  19
BRANCH   6  35
HETATM   35  C15 UNL     1      10.950  48.671  86.072  1.00  0.00     0.199 C 
BRANCH  35  36
HETATM   36  O3  UNL     1      11.349  49.808  86.729  1.00  0.00    -0.398 OA
ATOM     37  H3  UNL     1      12.232  50.073  86.500  1.00  0.00     0.209 HD
ENDBRANCH  35  36
ENDBRANCH   6  35
BRANCH  14  38
HETATM   38  C20 UNL     1      12.311  50.142  80.579  1.00  0.00     0.029 C 
BRANCH  38  39
HETATM   39  C21 UNL     1      13.117  51.380  80.701  1.00  0.00    -0.013 C 
HETATM   40  C22 UNL     1      14.217  51.218  79.633  1.00  0.00     0.005 C 
HETATM   41  C23 UNL     1      15.230  52.303  79.690  1.00  0.00     0.000 C 
HETATM   42  C24 UNL     1      15.974  52.089  81.019  1.00  0.00     0.000 C 
HETATM   43  C25 UNL     1      14.979  52.432  82.068  1.00  0.00     0.000 C 
HETATM   44  C26 UNL     1      13.708  51.623  82.043  1.00  0.00     0.005 C 
ENDBRANCH  38  39
ENDBRANCH  14  38
TORSDOF 11
ENDMDL
MODEL 4
REMARK VINA RESULT: -7.290295153      4.355     11.430
REMARK  11 active torsions:
REMARK  status: ('A' for Active; 'I' for Inactive)
REMARK    1  A    between atoms: C2_2  and  N1_4 
REMARK       I    between atoms: N2_7  and  C6_8 
REMARK    2  A    between atoms: C6_8  and  C7_10 
REMARK    3  A    between atoms: C7_10  and  C8_11 
REMARK    4  A    between atoms: C8_11  and  C9_12 
REMARK    5  A    between atoms: C9_12  and  C10_13 
REMARK    6  A    between atoms: C10_13  and  C11_14 
REMARK    7  A    between atoms: C11_14  and  C12_15 
REMARK    8  A    between atoms: C14_20  and  C15_21 
REMARK    9  A    between atoms: C15_21  and  O3_22 
REMARK   10  A    between atoms: C19_31  and  C20_32 
REMARK   11  A    between atoms: C20_32  and  C21_33 
ROOT
HETATM    1  C12 UNL     1      11.247  48.468  82.980  1.00  0.00     0.176 C 
HETATM    2  N3  UNL     1      10.331  47.807  82.074  1.00  0.00    -0.346 N 
ATOM      3  H3  UNL     1       9.419  47.543  82.448  1.00  0.00     0.163 HD
HETATM    4  C13 UNL     1      10.584  47.495  80.724  1.00  0.00     0.243 C 
HETATM    5  O2  UNL     1      10.154  46.413  80.191  1.00  0.00    -0.271 OA
HETATM    6  C14 UNL     1      11.359  48.367  79.799  1.00  0.00     0.200 C 
HETATM    7  N4  UNL     1      10.464  48.910  78.797  1.00  0.00    -0.337 N 
ATOM      8  H4  UNL     1      10.270  48.351  77.967  1.00  0.00     0.164 HD
HETATM    9  C16 UNL     1       9.846  50.178  78.911  1.00  0.00     0.280 C 
HETATM   10  O4  UNL     1       9.786  50.904  77.892  1.00  0.00    -0.260 OA
HETATM   11  S1  UNL     1       9.160  50.770  80.427  1.00  0.00    -0.069 SA
HETATM   12  C17 UNL     1       9.585  52.479  80.807  1.00  0.00     0.086 C 
HETATM   13  C18 UNL     1       9.881  52.552  82.290  1.00  0.00     0.036 C 
HETATM   14  C19 UNL     1      10.927  51.552  82.642  1.00  0.00     0.085 C 
HETATM   15  N5  UNL     1      10.473  50.787  83.777  1.00  0.00    -0.355 N 
ATOM     16  H5  UNL     1      10.190  51.300  84.612  1.00  0.00     0.162 HD
HETATM   17  C27 UNL     1      10.394  49.378  83.814  1.00  0.00     0.240 C 
HETATM   18  O5  UNL     1       9.569  48.778  84.579  1.00  0.00    -0.271 OA
ENDROOT
BRANCH   1  19
HETATM   19  C11 UNL     1      11.735  47.407  83.979  1.00  0.00     0.035 C 
BRANCH  19  20
HETATM   20  C10 UNL     1      12.639  48.011  85.008  1.00  0.00     0.002 C 
BRANCH  20  21
HETATM   21  C9  UNL     1      12.229  47.654  86.414  1.00  0.00     0.001 C 
BRANCH  21  22
HETATM   22  C8  UNL     1      12.635  48.730  87.400  1.00  0.00     0.009 C 
BRANCH  22  23
HETATM   23  C7  UNL     1      11.433  49.396  88.027  1.00  0.00     0.103 C 
BRANCH  23  24
HETATM   24  C6  UNL     1      11.378  50.818  87.647  1.00  0.00     0.220 C 
HETATM   25  N2  UNL     1      11.283  51.841  88.617  1.00  0.00    -0.346 N 
HETATM   26  C5  UNL     1      11.229  51.497  90.010  1.00  0.00     0.146 C 
HETATM   27  C28 UNL     1      11.237  53.227  88.237  1.00  0.00     0.169 C 
HETATM   28  C4  UNL     1      12.136  52.404  90.772  1.00  0.00     0.142 C 
HETATM   29  N1  UNL     1      11.839  53.770  90.571  1.00  0.00    -0.386 N 
HETATM   30  C29 UNL     1      11.160  54.154  89.400  1.00  0.00     0.078 C 
HETATM   31  O1  UNL     1      11.420  51.110  86.401  1.00  0.00    -0.273 OA
BRANCH  29  32
HETATM   32  C2  UNL     1      12.672  54.716  91.213  1.00  0.00     0.075 C 
HETATM   33  C1  UNL     1      12.881  54.467  92.679  1.00  0.00     0.032 C 
HETATM   34  C3  UNL     1      14.006  54.729  90.488  1.00  0.00     0.032 C 
ENDBRANCH  29  32
ENDBRANCH  23  24
ENDBRANCH  22  23
ENDBRANCH  21  22
ENDBRANCH  20  21
ENDBRANCH  19  20
ENDBRANCH   1  19
BRANCH   6  35
HETATM   35  C15 UNL     1      12.380  47.525  79.015  1.00  0.00     0.199 C 
BRANCH  35  36
HETATM   36  O3  UNL     1      12.865  48.176  77.909  1.00  0.00    -0.398 OA
ATOM     37  H3  UNL     1      13.761  48.473  78.021  1.00  0.00     0.209 HD
ENDBRANCH  35  36
ENDBRANCH   6  35
BRANCH  14  38
HETATM   38  C20 UNL     1      12.299  52.016  82.759  1.00  0.00     0.029 C 
BRANCH  38  39
HETATM   39  C21 UNL     1      13.394  51.408  81.968  1.00  0.00    -0.013 C 
HETATM   40  C22 UNL     1      14.561  52.405  82.114  1.00  0.00     0.005 C 
HETATM   41  C23 UNL     1      15.726  52.046  81.265  1.00  0.00     0.000 C 
HETATM   42  C24 UNL     1      15.247  52.251  79.818  1.00  0.00     0.000 C 
HETATM   43  C25 UNL     1      14.255  51.168  79.592  1.00  0.00     0.000 C 
HETATM   44  C26 UNL     1      13.080  51.160  80.537  1.00  0.00     0.005 C 
ENDBRANCH  38  39
ENDBRANCH  14  38
TORSDOF 11
ENDMDL
MODEL 5
REMARK VINA RESULT: -7.284439050      4.668     11.379
REMARK  11 active torsions:
REMARK  status: ('A' for Active; 'I' for Inactive)
REMARK    1  A    between atoms: C2_2  and  N1_4 
REMARK       I    between atoms: N2_7  and  C6_8 
REMARK    2  A    between atoms: C6_8  and  C7_10 
REMARK    3  A    between atoms: C7_10  and  C8_11 
REMARK    4  A    between atoms: C8_11  and  C9_12 
REMARK    5  A    between atoms: C9_12  and  C10_13 
REMARK    6  A    between atoms: C10_13  and  C11_14 
REMARK    7  A    between atoms: C11_14  and  C12_15 
REMARK    8  A    between atoms: C14_20  and  C15_21 
REMARK    9  A    between atoms: C15_21  and  O3_22 
REMARK   10  A    between atoms: C19_31  and  C20_32 
REMARK   11  A    between atoms: C20_32  and  C21_33 
ROOT
HETATM    1  C12 UNL     1      10.150  51.049  81.499  1.00  0.00     0.176 C 
HETATM    2  N3  UNL     1       9.014  50.292  81.982  1.00  0.00    -0.346 N 
ATOM      3  H3  UNL     1       8.101  50.531  81.596  1.00  0.00     0.163 HD
HETATM    4  C13 UNL     1       9.055  49.258  82.937  1.00  0.00     0.243 C 
HETATM    5  O2  UNL     1       8.125  49.104  83.803  1.00  0.00    -0.271 OA
HETATM    6  C14 UNL     1      10.156  48.260  83.037  1.00  0.00     0.200 C 
HETATM    7  N4  UNL     1       9.654  46.958  82.648  1.00  0.00    -0.337 N 
ATOM      8  H4  UNL     1       9.190  46.387  83.356  1.00  0.00     0.164 HD
HETATM    9  C16 UNL     1       9.774  46.437  81.338  1.00  0.00     0.280 C 
HETATM   10  O4  UNL     1      10.081  45.229  81.205  1.00  0.00    -0.260 OA
HETATM   11  S1  UNL     1       9.506  47.418  79.895  1.00  0.00    -0.069 SA
HETATM   12  C17 UNL     1      10.751  47.191  78.612  1.00  0.00     0.086 C 
HETATM   13  C18 UNL     1      11.060  48.558  78.037  1.00  0.00     0.036 C 
HETATM   14  C19 UNL     1      11.450  49.486  79.134  1.00  0.00     0.085 C 
HETATM   15  N5  UNL     1      10.683  50.700  79.007  1.00  0.00    -0.355 N 
ATOM     16  H5  UNL     1      10.713  51.189  78.113  1.00  0.00     0.162 HD
HETATM   17  C27 UNL     1       9.893  51.259  80.035  1.00  0.00     0.240 C 
HETATM   18  O5  UNL     1       8.887  51.998  79.774  1.00  0.00    -0.271 OA
ENDROOT
BRANCH   1  19
HETATM   19  C11 UNL     1      10.038  52.460  82.096  1.00  0.00     0.035 C 
BRANCH  19  20
HETATM   20  C10 UNL     1      10.940  52.619  83.279  1.00  0.00     0.002 C 
BRANCH  20  21
HETATM   21  C9  UNL     1      10.372  53.557  84.313  1.00  0.00     0.001 C 
BRANCH  21  22
HETATM   22  C8  UNL     1       8.937  53.210  84.649  1.00  0.00     0.009 C 
BRANCH  22  23
HETATM   23  C7  UNL     1       8.848  52.297  85.849  1.00  0.00     0.103 C 
BRANCH  23  24
HETATM   24  C6  UNL     1       8.653  53.084  87.079  1.00  0.00     0.220 C 
HETATM   25  N2  UNL     1       9.682  53.228  88.036  1.00  0.00    -0.346 N 
HETATM   26  C5  UNL     1      10.949  52.589  87.820  1.00  0.00     0.146 C 
HETATM   27  C28 UNL     1       9.485  54.003  89.231  1.00  0.00     0.169 C 
HETATM   28  C4  UNL     1      12.043  53.548  88.152  1.00  0.00     0.142 C 
HETATM   29  N1  UNL     1      11.944  54.056  89.466  1.00  0.00    -0.386 N 
HETATM   30  C29 UNL     1      10.690  54.056  90.104  1.00  0.00     0.078 C 
HETATM   31  O1  UNL     1       7.515  53.642  87.262  1.00  0.00    -0.273 OA
BRANCH  29  32
HETATM   32  C2  UNL     1      12.908  55.012  89.865  1.00  0.00     0.075 C 
HETATM   33  C1  UNL     1      13.544  54.736  91.196  1.00  0.00     0.032 C 
HETATM   34  C3  UNL     1      13.970  55.082  88.781  1.00  0.00     0.032 C 
ENDBRANCH  29  32
ENDBRANCH  23  24
ENDBRANCH  22  23
ENDBRANCH  21  22
ENDBRANCH  20  21
ENDBRANCH  19  20
ENDBRANCH   1  19
BRANCH   6  35
HETATM   35  C15 UNL     1      10.592  48.104  84.503  1.00  0.00     0.199 C 
BRANCH  35  36
HETATM   36  O3  UNL     1      10.773  49.310  85.134  1.00  0.00    -0.398 OA
ATOM     37  H3  UNL     1      11.676  49.603  85.113  1.00  0.00     0.209 HD
ENDBRANCH  35  36
ENDBRANCH   6  35
BRANCH  14  38
HETATM   38  C20 UNL     1      12.868  49.711  79.362  1.00  0.00     0.029 C 
BRANCH  38  39
HETATM   39  C21 UNL     1      13.374  51.000  79.888  1.00  0.00    -0.013 C 
HETATM   40  C22 UNL     1      14.713  51.206  79.151  1.00  0.00     0.005 C 
HETATM   41  C23 UNL     1      15.460  52.389  79.650  1.00  0.00     0.000 C 
HETATM   42  C24 UNL     1      15.883  52.023  81.082  1.00  0.00     0.000 C 
HETATM   43  C25 UNL     1      14.616  52.011  81.858  1.00  0.00     0.000 C 
HETATM   44  C26 UNL     1      13.562  51.054  81.361  1.00  0.00     0.005 C 
ENDBRANCH  38  39
ENDBRANCH  14  38
TORSDOF 11
ENDMDL
