MODEL 1
REMARK VINA RESULT: -6.825842100      0.000      0.000
REMARK  14 active torsions:
REMARK  status: ('A' for Active; 'I' for Inactive)
REMARK    1  A    between atoms: C2_2  and  O1_3 
REMARK    2  A    between atoms: O1_3  and  C3_4 
REMARK       I    between atoms: C3_4  and  N1_6 
REMARK       I    between atoms: C4_8  and  N2_9 
REMARK       I    between atoms: C4_8  and  N7_38 
REMARK    3  A    between atoms: N2_9  and  C5_11 
REMARK    4  A    between atoms: C5_11  and  C6_12 
REMARK    5  A    between atoms: C6_12  and  C7_13 
REMARK    6  A    between atoms: C7_13  and  N3_14 
REMARK    7  A    between atoms: N4_17  and  C10_18 
REMARK    8  A    between atoms: C10_18  and  N5_20 
REMARK    9  A    between atoms: N5_20  and  C11_22 
REMARK   10  A    between atoms: C19_31  and  O4_32 
REMARK   11  A    between atoms: O4_32  and  C20_33 
REMARK   12  A    between atoms: N7_38  and  C23_40 
REMARK   13  A    between atoms: C23_40  and  C24_41 
REMARK   14  A    between atoms: C24_41  and  C25_42 
ROOT
HETATM    1  N3  UNL     1      12.660  50.118  89.377  1.00  0.00     0.091 N 
HETATM    2  C8  UNL     1      11.595  51.018  88.922  1.00  0.00     0.292 C 
HETATM    3  C9  UNL     1      11.463  51.033  87.413  1.00  0.00     0.155 C 
HETATM    4  N4  UNL     1      10.810  49.747  87.117  1.00  0.00    -0.355 N 
HETATM    5  C21 UNL     1      11.185  48.705  88.053  1.00  0.00     0.155 C 
HETATM    6  C22 UNL     1      12.639  48.985  88.453  1.00  0.00     0.292 C 
ENDROOT
BRANCH   1   7
HETATM    7  C7  UNL     1      12.347  49.726  90.709  1.00  0.00     0.274 C 
BRANCH   7   8
HETATM    8  C6  UNL     1      13.255  50.037  91.818  1.00  0.00     0.050 C 
BRANCH   8   9
HETATM    9  C5  UNL     1      13.012  51.120  92.778  1.00  0.00     0.140 C 
BRANCH   9  10
HETATM   10  N2  UNL     1      13.978  52.169  92.885  1.00  0.00    -0.226 N 
HETATM   11  C4  UNL     1      13.833  53.452  92.275  1.00  0.00     0.678 C 
HETATM   12  N1  UNL     1      14.210  53.708  91.084  1.00  0.00    -0.136 N 
HETATM   13  N7  UNL     1      13.237  54.484  93.047  1.00  0.00    -0.226 N 
HETATM   14  C3  UNL     1      14.056  54.977  90.504  1.00  0.00     0.379 C 
ATOM     15  H1  UNL     1      14.638  52.964  90.533  1.00  0.00     0.189 HD
HETATM   16  O2  UNL     1      15.089  55.671  90.222  1.00  0.00    -0.238 OA
ATOM     17  H7  UNL     1      13.639  55.421  93.061  1.00  0.00     0.177 HD
ATOM     18  H2  UNL     1      14.822  51.991  93.430  1.00  0.00     0.177 HD
BRANCH  14  19
HETATM   19  O1  UNL     1      12.829  55.550  90.209  1.00  0.00    -0.304 OA
BRANCH  19  20
HETATM   20  C2  UNL     1      11.876  54.831  89.457  1.00  0.00     0.176 C 
HETATM   21  C1  UNL     1      10.752  54.303  90.288  1.00  0.00     0.034 C 
ENDBRANCH  19  20
ENDBRANCH  14  19
BRANCH  13  22
HETATM   22  C23 UNL     1      12.054  54.180  93.810  1.00  0.00     0.138 C 
BRANCH  22  23
HETATM   23  C24 UNL     1      11.274  55.469  93.988  1.00  0.00     0.025 C 
BRANCH  23  24
HETATM   24  C25 UNL     1      11.646  56.185  95.249  1.00  0.00    -0.013 C 
HETATM   25  C26 UNL     1      11.584  57.674  94.994  1.00  0.00     0.005 C 
HETATM   26  C27 UNL     1      10.405  58.297  95.735  1.00  0.00     0.000 C 
HETATM   27  C28 UNL     1       9.161  57.488  95.563  1.00  0.00     0.000 C 
HETATM   28  C29 UNL     1       9.327  56.071  96.053  1.00  0.00     0.000 C 
HETATM   29  C30 UNL     1      10.773  55.853  96.413  1.00  0.00     0.005 C 
ENDBRANCH  23  24
ENDBRANCH  22  23
ENDBRANCH  13  22
ENDBRANCH   9  10
ENDBRANCH   8   9
ENDBRANCH   7   8
ENDBRANCH   1   7
BRANCH   4  30
HETATM   30  C10 UNL     1       9.917  49.583  86.048  1.00  0.00     0.170 C 
HETATM   31  S1  UNL     1       8.922  48.313  86.161  1.00  0.00    -0.041 SA
BRANCH  30  32
HETATM   32  N5  UNL     1       9.867  50.464  84.987  1.00  0.00    -0.357 N 
ATOM     33  H5  UNL     1       9.157  51.182  85.134  1.00  0.00     0.162 HD
BRANCH  32  34
HETATM   34  C11 UNL     1      10.528  50.643  83.762  1.00  0.00     0.046 C 
HETATM   35  C12 UNL     1       9.687  49.852  82.720  1.00  0.00     0.040 C 
HETATM   36  C13 UNL     1      11.987  50.316  83.665  1.00  0.00     0.068 C 
HETATM   37  C14 UNL     1      12.186  49.956  82.178  1.00  0.00     0.177 C 
HETATM   38  C19 UNL     1      12.774  51.624  83.805  1.00  0.00     0.142 C 
HETATM   39  O3  UNL     1      11.797  50.953  81.364  1.00  0.00    -0.390 OA
HETATM   40  C15 UNL     1      10.994  51.951  81.733  1.00  0.00     0.179 C 
HETATM   41  C16 UNL     1      10.573  52.041  83.194  1.00  0.00     0.005 C 
HETATM   42  C17 UNL     1       9.306  52.793  83.243  1.00  0.00     0.020 C 
HETATM   43  C18 UNL     1      11.746  52.704  83.893  1.00  0.00     0.047 C 
BRANCH  38  44
HETATM   44  O4  UNL     1      13.526  51.907  82.605  1.00  0.00    -0.300 OA
BRANCH  44  45
HETATM   45  C20 UNL     1      14.774  52.473  82.602  1.00  0.00     0.373 C 
HETATM   46  N6  UNL     1      15.834  52.021  81.773  1.00  0.00    -0.032 NA
HETATM   47  O5  UNL     1      14.995  53.443  83.371  1.00  0.00    -0.242 OA
ENDBRANCH  44  45
ENDBRANCH  38  44
ENDBRANCH  32  34
ENDBRANCH  30  32
ENDBRANCH   4  30
TORSDOF 14
ENDMDL
MODEL 2
REMARK VINA RESULT: -6.716907605      2.959     11.414
REMARK  14 active torsions:
REMARK  status: ('A' for Active; 'I' for Inactive)
REMARK    1  A    between atoms: C2_2  and  O1_3 
REMARK    2  A    between atoms: O1_3  and  C3_4 
REMARK       I    between atoms: C3_4  and  N1_6 
REMARK       I    between atoms: C4_8  and  N2_9 
REMARK       I    between atoms: C4_8  and  N7_38 
REMARK    3  A    between atoms: N2_9  and  C5_11 
REMARK    4  A    between atoms: C5_11  and  C6_12 
REMARK    5  A    between atoms: C6_12  and  C7_13 
REMARK    6  A    between atoms: C7_13  and  N3_14 
REMARK    7  A    between atoms: N4_17  and  C10_18 
REMARK    8  A    between atoms: C10_18  and  N5_20 
REMARK    9  A    between atoms: N5_20  and  C11_22 
REMARK   10  A    between atoms: C19_31  and  O4_32 
REMARK   11  A    between atoms: O4_32  and  C20_33 
REMARK   12  A    between atoms: N7_38  and  C23_40 
REMARK   13  A    between atoms: C23_40  and  C24_41 
REMARK   14  A    between atoms: C24_41  and  C25_42 
ROOT
HETATM    1  N3  UNL     1      10.660  51.937  87.613  1.00  0.00     0.091 N 
HETATM    2  C8  UNL     1      10.278  51.744  89.016  1.00  0.00     0.292 C 
HETATM    3  C9  UNL     1      11.482  51.575  89.920  1.00  0.00     0.155 C 
HETATM    4  N4  UNL     1      12.025  52.940  90.021  1.00  0.00    -0.355 N 
HETATM    5  C21 UNL     1      11.813  53.714  88.814  1.00  0.00     0.155 C 
HETATM    6  C22 UNL     1      11.893  52.722  87.645  1.00  0.00     0.292 C 
ENDROOT
BRANCH   1   7
HETATM    7  C7  UNL     1       9.597  52.637  86.974  1.00  0.00     0.274 C 
BRANCH   7   8
HETATM    8  C6  UNL     1       9.829  53.389  85.737  1.00  0.00     0.050 C 
BRANCH   8   9
HETATM    9  C5  UNL     1       9.910  52.761  84.415  1.00  0.00     0.140 C 
BRANCH   9  10
HETATM   10  N2  UNL     1       9.453  51.413  84.268  1.00  0.00    -0.226 N 
HETATM   11  C4  UNL     1       9.885  50.533  83.229  1.00  0.00     0.678 C 
HETATM   12  N1  UNL     1       9.325  50.472  82.085  1.00  0.00    -0.136 N 
HETATM   13  N7  UNL     1      10.994  49.690  83.501  1.00  0.00    -0.226 N 
HETATM   14  C3  UNL     1       9.768  49.600  81.079  1.00  0.00     0.379 C 
ATOM     15  H1  UNL     1       8.528  51.079  81.895  1.00  0.00     0.189 HD
HETATM   16  O2  UNL     1       9.020  48.635  80.707  1.00  0.00    -0.238 OA
ATOM     17  H7  UNL     1      10.977  48.706  83.234  1.00  0.00     0.177 HD
ATOM     18  H2  UNL     1       8.779  51.059  84.946  1.00  0.00     0.177 HD
BRANCH  14  19
HETATM   19  O1  UNL     1      10.994  49.710  80.441  1.00  0.00    -0.304 OA
BRANCH  19  20
HETATM   20  C2  UNL     1      11.749  48.553  80.158  1.00  0.00     0.176 C 
HETATM   21  C1  UNL     1      12.673  48.727  78.997  1.00  0.00     0.034 C 
ENDBRANCH  19  20
ENDBRANCH  14  19
BRANCH  13  22
HETATM   22  C23 UNL     1      12.145  50.253  84.160  1.00  0.00     0.138 C 
BRANCH  22  23
HETATM   23  C24 UNL     1      13.235  50.427  83.120  1.00  0.00     0.025 C 
BRANCH  23  24
HETATM   24  C25 UNL     1      13.231  51.799  82.522  1.00  0.00    -0.013 C 
HETATM   25  C26 UNL     1      14.128  52.690  83.352  1.00  0.00     0.005 C 
HETATM   26  C27 UNL     1      15.395  53.044  82.580  1.00  0.00     0.000 C 
HETATM   27  C28 UNL     1      15.990  51.842  81.923  1.00  0.00     0.000 C 
HETATM   28  C29 UNL     1      15.030  51.178  80.967  1.00  0.00     0.000 C 
HETATM   29  C30 UNL     1      13.684  51.841  81.100  1.00  0.00     0.005 C 
ENDBRANCH  23  24
ENDBRANCH  22  23
ENDBRANCH  13  22
ENDBRANCH   9  10
ENDBRANCH   8   9
ENDBRANCH   7   8
ENDBRANCH   1   7
BRANCH   4  30
HETATM   30  C10 UNL     1      12.659  53.415  91.179  1.00  0.00     0.170 C 
HETATM   31  S1  UNL     1      13.758  54.577  90.943  1.00  0.00    -0.041 SA
BRANCH  30  32
HETATM   32  N5  UNL     1      12.342  52.946  92.437  1.00  0.00    -0.357 N 
ATOM     33  H5  UNL     1      12.643  51.979  92.559  1.00  0.00     0.162 HD
BRANCH  32  34
HETATM   34  C11 UNL     1      11.719  53.437  93.595  1.00  0.00     0.046 C 
HETATM   35  C12 UNL     1      10.931  52.233  94.184  1.00  0.00     0.040 C 
HETATM   36  C13 UNL     1      10.870  54.668  93.502  1.00  0.00     0.068 C 
HETATM   37  C14 UNL     1       9.861  54.509  94.659  1.00  0.00     0.177 C 
HETATM   38  C19 UNL     1      11.718  55.863  93.954  1.00  0.00     0.142 C 
HETATM   39  O3  UNL     1      10.477  54.362  95.845  1.00  0.00    -0.390 OA
HETATM   40  C15 UNL     1      11.755  54.009  95.986  1.00  0.00     0.179 C 
HETATM   41  C16 UNL     1      12.611  53.867  94.735  1.00  0.00     0.005 C 
HETATM   42  C17 UNL     1      13.720  52.951  95.060  1.00  0.00     0.020 C 
HETATM   43  C18 UNL     1      13.025  55.286  94.388  1.00  0.00     0.047 C 
BRANCH  38  44
HETATM   44  O4  UNL     1      11.159  56.477  95.134  1.00  0.00    -0.300 OA
BRANCH  44  45
HETATM   45  C20 UNL     1      10.894  57.817  95.245  1.00  0.00     0.373 C 
HETATM   46  N6  UNL     1      11.885  58.824  95.099  1.00  0.00    -0.032 NA
HETATM   47  O5  UNL     1       9.714  58.179  95.486  1.00  0.00    -0.242 OA
ENDBRANCH  44  45
ENDBRANCH  38  44
ENDBRANCH  32  34
ENDBRANCH  30  32
ENDBRANCH   4  30
TORSDOF 14
ENDMDL
MODEL 3
REMARK VINA RESULT: -6.695020266      1.490      1.862
REMARK  14 active torsions:
REMARK  status: ('A' for Active; 'I' for Inactive)
REMARK    1  A    between atoms: C2_2  and  O1_3 
REMARK    2  A    between atoms: O1_3  and  C3_4 
REMARK       I    between atoms: C3_4  and  N1_6 
REMARK       I    between atoms: C4_8  and  N2_9 
REMARK       I    between atoms: C4_8  and  N7_38 
REMARK    3  A    between atoms: N2_9  and  C5_11 
REMARK    4  A    between atoms: C5_11  and  C6_12 
REMARK    5  A    between atoms: C6_12  and  C7_13 
REMARK    6  A    between atoms: C7_13  and  N3_14 
REMARK    7  A    between atoms: N4_17  and  C10_18 
REMARK    8  A    between atoms: C10_18  and  N5_20 
REMARK    9  A    between atoms: N5_20  and  C11_22 
REMARK   10  A    between atoms: C19_31  and  O4_32 
REMARK   11  A    between atoms: O4_32  and  C20_33 
REMARK   12  A    between atoms: N7_38  and  C23_40 
REMARK   13  A    between atoms: C23_40  and  C24_41 
REMARK   14  A    between atoms: C24_41  and  C25_42 
ROOT
HETATM    1  N3  UNL     1      12.273  48.788  89.699  1.00  0.00     0.091 N 
HETATM    2  C8  UNL     1      12.750  49.206  88.376  1.00  0.00     0.292 C 
HETATM    3  C9  UNL     1      12.240  48.303  87.272  1.00  0.00     0.155 C 
HETATM    4  N4  UNL     1      10.828  48.696  87.136  1.00  0.00    -0.355 N 
HETATM    5  C21 UNL     1      10.246  49.122  88.394  1.00  0.00     0.155 C 
HETATM    6  C22 UNL     1      10.918  48.282  89.488  1.00  0.00     0.292 C 
ENDROOT
BRANCH   1   7
HETATM    7  C7  UNL     1      12.290  49.936  90.541  1.00  0.00     0.274 C 
BRANCH   7   8
HETATM    8  C6  UNL     1      13.281  50.068  91.613  1.00  0.00     0.050 C 
BRANCH   8   9
HETATM    9  C5  UNL     1      13.078  50.907  92.799  1.00  0.00     0.140 C 
BRANCH   9  10
HETATM   10  N2  UNL     1      13.944  52.027  93.002  1.00  0.00    -0.226 N 
HETATM   11  C4  UNL     1      13.747  53.307  92.400  1.00  0.00     0.678 C 
HETATM   12  N1  UNL     1      14.199  53.617  91.249  1.00  0.00    -0.136 N 
HETATM   13  N7  UNL     1      13.008  54.272  93.135  1.00  0.00    -0.226 N 
HETATM   14  C3  UNL     1      13.992  54.882  90.677  1.00  0.00     0.379 C 
ATOM     15  H1  UNL     1      14.730  52.921  90.725  1.00  0.00     0.189 HD
HETATM   16  O2  UNL     1      14.985  55.661  90.493  1.00  0.00    -0.238 OA
ATOM     17  H7  UNL     1      13.331  55.237  93.196  1.00  0.00     0.177 HD
ATOM     18  H2  UNL     1      14.751  51.905  93.614  1.00  0.00     0.177 HD
BRANCH  14  19
HETATM   19  O1  UNL     1      12.751  55.362  90.288  1.00  0.00    -0.304 OA
BRANCH  19  20
HETATM   20  C2  UNL     1      11.932  54.593  89.434  1.00  0.00     0.176 C 
HETATM   21  C1  UNL     1      10.733  54.031  90.125  1.00  0.00     0.034 C 
ENDBRANCH  19  20
ENDBRANCH  14  19
BRANCH  13  22
HETATM   22  C23 UNL     1      11.794  53.859  93.791  1.00  0.00     0.138 C 
BRANCH  22  23
HETATM   23  C24 UNL     1      11.010  55.110  94.142  1.00  0.00     0.025 C 
BRANCH  23  24
HETATM   24  C25 UNL     1      11.681  55.916  95.210  1.00  0.00    -0.013 C 
HETATM   25  C26 UNL     1      11.834  57.338  94.716  1.00  0.00     0.005 C 
HETATM   26  C27 UNL     1      10.901  58.274  95.477  1.00  0.00     0.000 C 
HETATM   27  C28 UNL     1       9.527  57.701  95.594  1.00  0.00     0.000 C 
HETATM   28  C29 UNL     1       9.521  56.365  96.293  1.00  0.00     0.000 C 
HETATM   29  C30 UNL     1      10.946  55.929  96.510  1.00  0.00     0.005 C 
ENDBRANCH  23  24
ENDBRANCH  22  23
ENDBRANCH  13  22
ENDBRANCH   9  10
ENDBRANCH   8   9
ENDBRANCH   7   8
ENDBRANCH   1   7
BRANCH   4  30
HETATM   30  C10 UNL     1      10.152  48.666  85.908  1.00  0.00     0.170 C 
HETATM   31  S1  UNL     1      10.278  47.285  85.076  1.00  0.00    -0.041 SA
BRANCH  30  32
HETATM   32  N5  UNL     1       9.402  49.731  85.453  1.00  0.00    -0.357 N 
ATOM     33  H5  UNL     1       8.403  49.537  85.520  1.00  0.00     0.162 HD
BRANCH  32  34
HETATM   34  C11 UNL     1       9.640  51.010  84.925  1.00  0.00     0.046 C 
HETATM   35  C12 UNL     1       8.394  51.335  84.053  1.00  0.00     0.040 C 
HETATM   36  C13 UNL     1      10.919  51.270  84.191  1.00  0.00     0.068 C 
HETATM   37  C14 UNL     1      10.560  52.414  83.218  1.00  0.00     0.177 C 
HETATM   38  C19 UNL     1      11.893  51.946  85.163  1.00  0.00     0.142 C 
HETATM   39  O3  UNL     1      10.076  53.489  83.865  1.00  0.00    -0.390 OA
HETATM   40  C15 UNL     1       9.598  53.461  85.110  1.00  0.00     0.179 C 
HETATM   41  C16 UNL     1       9.701  52.163  85.898  1.00  0.00     0.005 C 
HETATM   42  C17 UNL     1       8.647  52.187  86.930  1.00  0.00     0.020 C 
HETATM   43  C18 UNL     1      11.124  52.146  86.428  1.00  0.00     0.047 C 
BRANCH  38  44
HETATM   44  O4  UNL     1      12.239  53.272  84.711  1.00  0.00    -0.300 OA
BRANCH  44  45
HETATM   45  C20 UNL     1      13.476  53.838  84.879  1.00  0.00     0.373 C 
HETATM   46  N6  UNL     1      14.486  53.818  83.881  1.00  0.00    -0.032 NA
HETATM   47  O5  UNL     1      13.734  54.405  85.972  1.00  0.00    -0.242 OA
ENDBRANCH  44  45
ENDBRANCH  38  44
ENDBRANCH  32  34
ENDBRANCH  30  32
ENDBRANCH   4  30
TORSDOF 14
ENDMDL
MODEL 4
REMARK VINA RESULT: -6.621863840      1.364      1.788
REMARK  14 active torsions:
REMARK  status: ('A' for Active; 'I' for Inactive)
REMARK    1  A    between atoms: C2_2  and  O1_3 
REMARK    2  A    between atoms: O1_3  and  C3_4 
REMARK       I    between atoms: C3_4  and  N1_6 
REMARK       I    between atoms: C4_8  and  N2_9 
REMARK       I    between atoms: C4_8  and  N7_38 
REMARK    3  A    between atoms: N2_9  and  C5_11 
REMARK    4  A    between atoms: C5_11  and  C6_12 
REMARK    5  A    between atoms: C6_12  and  C7_13 
REMARK    6  A    between atoms: C7_13  and  N3_14 
REMARK    7  A    between atoms: N4_17  and  C10_18 
REMARK    8  A    between atoms: C10_18  and  N5_20 
REMARK    9  A    between atoms: N5_20  and  C11_22 
REMARK   10  A    between atoms: C19_31  and  O4_32 
REMARK   11  A    between atoms: O4_32  and  C20_33 
REMARK   12  A    between atoms: N7_38  and  C23_40 
REMARK   13  A    between atoms: C23_40  and  C24_41 
REMARK   14  A    between atoms: C24_41  and  C25_42 
ROOT
HETATM    1  N3  UNL     1      10.580  49.888  90.604  1.00  0.00     0.091 N 
HETATM    2  C8  UNL     1      11.601  48.964  90.097  1.00  0.00     0.292 C 
HETATM    3  C9  UNL     1      11.275  48.456  88.708  1.00  0.00     0.155 C 
HETATM    4  N4  UNL     1      11.571  49.612  87.845  1.00  0.00    -0.355 N 
HETATM    5  C21 UNL     1      11.317  50.878  88.506  1.00  0.00     0.155 C 
HETATM    6  C22 UNL     1      10.123  50.646  89.441  1.00  0.00     0.292 C 
ENDROOT
BRANCH   1   7
HETATM    7  C7  UNL     1      11.204  50.723  91.574  1.00  0.00     0.274 C 
BRANCH   7   8
HETATM    8  C6  UNL     1      12.570  50.451  92.032  1.00  0.00     0.050 C 
BRANCH   8   9
HETATM    9  C5  UNL     1      13.325  51.362  92.900  1.00  0.00     0.140 C 
BRANCH   9  10
HETATM   10  N2  UNL     1      14.126  52.380  92.293  1.00  0.00    -0.226 N 
HETATM   11  C4  UNL     1      13.591  53.510  91.603  1.00  0.00     0.678 C 
HETATM   12  N1  UNL     1      13.297  53.498  90.362  1.00  0.00    -0.136 N 
HETATM   13  N7  UNL     1      13.383  54.699  92.351  1.00  0.00    -0.226 N 
HETATM   14  C3  UNL     1      12.772  54.621  89.705  1.00  0.00     0.379 C 
ATOM     15  H1  UNL     1      13.449  52.642  89.829  1.00  0.00     0.189 HD
HETATM   16  O2  UNL     1      13.464  55.208  88.808  1.00  0.00    -0.238 OA
ATOM     17  H7  UNL     1      13.661  55.605  91.974  1.00  0.00     0.177 HD
ATOM     18  H2  UNL     1      15.140  52.294  92.358  1.00  0.00     0.177 HD
BRANCH  14  19
HETATM   19  O1  UNL     1      11.520  55.158  89.967  1.00  0.00    -0.304 OA
BRANCH  19  20
HETATM   20  C2  UNL     1      10.373  54.339  89.904  1.00  0.00     0.176 C 
HETATM   21  C1  UNL     1       9.267  54.942  89.102  1.00  0.00     0.034 C 
ENDBRANCH  19  20
ENDBRANCH  14  19
BRANCH  13  22
HETATM   22  C23 UNL     1      12.772  54.599  93.651  1.00  0.00     0.138 C 
BRANCH  22  23
HETATM   23  C24 UNL     1      11.819  55.769  93.805  1.00  0.00     0.025 C 
BRANCH  23  24
HETATM   24  C25 UNL     1      11.964  56.445  95.133  1.00  0.00    -0.013 C 
HETATM   25  C26 UNL     1      11.502  57.879  94.997  1.00  0.00     0.005 C 
HETATM   26  C27 UNL     1      10.189  58.093  95.741  1.00  0.00     0.000 C 
HETATM   27  C28 UNL     1       9.214  56.997  95.458  1.00  0.00     0.000 C 
HETATM   28  C29 UNL     1       9.751  55.640  95.838  1.00  0.00     0.000 C 
HETATM   29  C30 UNL     1      11.197  55.789  96.233  1.00  0.00     0.005 C 
ENDBRANCH  23  24
ENDBRANCH  22  23
ENDBRANCH  13  22
ENDBRANCH   9  10
ENDBRANCH   8   9
ENDBRANCH   7   8
ENDBRANCH   1   7
BRANCH   4  30
HETATM   30  C10 UNL     1      12.060  49.472  86.538  1.00  0.00     0.170 C 
HETATM   31  S1  UNL     1      12.590  47.996  86.147  1.00  0.00    -0.041 SA
BRANCH  30  32
HETATM   32  N5  UNL     1      12.059  50.516  85.636  1.00  0.00    -0.357 N 
ATOM     33  H5  UNL     1      12.379  51.382  86.070  1.00  0.00     0.162 HD
BRANCH  32  34
HETATM   34  C11 UNL     1      11.737  50.712  84.283  1.00  0.00     0.046 C 
HETATM   35  C12 UNL     1      10.235  50.329  84.156  1.00  0.00     0.040 C 
HETATM   36  C13 UNL     1      12.574  50.050  83.231  1.00  0.00     0.068 C 
HETATM   37  C14 UNL     1      11.606  49.886  82.040  1.00  0.00     0.177 C 
HETATM   38  C19 UNL     1      13.581  51.081  82.710  1.00  0.00     0.142 C 
HETATM   39  O3  UNL     1      11.080  51.063  81.656  1.00  0.00    -0.390 OA
HETATM   40  C15 UNL     1      11.068  52.161  82.413  1.00  0.00     0.179 C 
HETATM   41  C16 UNL     1      11.789  52.125  83.754  1.00  0.00     0.005 C 
HETATM   42  C17 UNL     1      11.173  53.153  84.614  1.00  0.00     0.020 C 
HETATM   43  C18 UNL     1      13.250  52.356  83.414  1.00  0.00     0.047 C 
BRANCH  38  44
HETATM   44  O4  UNL     1      13.369  51.350  81.308  1.00  0.00    -0.300 OA
BRANCH  44  45
HETATM   45  C20 UNL     1      14.376  51.401  80.380  1.00  0.00     0.373 C 
HETATM   46  N6  UNL     1      15.490  52.275  80.483  1.00  0.00    -0.032 NA
HETATM   47  O5  UNL     1      14.315  50.635  79.385  1.00  0.00    -0.242 OA
ENDBRANCH  44  45
ENDBRANCH  38  44
ENDBRANCH  32  34
ENDBRANCH  30  32
ENDBRANCH   4  30
TORSDOF 14
ENDMDL
MODEL 5
REMARK VINA RESULT: -6.545364180      3.193     10.321
REMARK  14 active torsions:
REMARK  status: ('A' for Active; 'I' for Inactive)
REMARK    1  A    between atoms: C2_2  and  O1_3 
REMARK    2  A    between atoms: O1_3  and  C3_4 
REMARK       I    between atoms: C3_4  and  N1_6 
REMARK       I    between atoms: C4_8  and  N2_9 
REMARK       I    between atoms: C4_8  and  N7_38 
REMARK    3  A    between atoms: N2_9  and  C5_11 
REMARK    4  A    between atoms: C5_11  and  C6_12 
REMARK    5  A    between atoms: C6_12  and  C7_13 
REMARK    6  A    between atoms: C7_13  and  N3_14 
REMARK    7  A    between atoms: N4_17  and  C10_18 
REMARK    8  A    between atoms: C10_18  and  N5_20 
REMARK    9  A    between atoms: N5_20  and  C11_22 
REMARK   10  A    between atoms: C19_31  and  O4_32 
REMARK   11  A    between atoms: O4_32  and  C20_33 
REMARK   12  A    between atoms: N7_38  and  C23_40 
REMARK   13  A    between atoms: C23_40  and  C24_41 
REMARK   14  A    between atoms: C24_41  and  C25_42 
ROOT
HETATM    1  N3  UNL     1       8.892  53.282  87.294  1.00  0.00     0.091 N 
HETATM    2  C8  UNL     1       9.435  54.220  88.282  1.00  0.00     0.292 C 
HETATM    3  C9  UNL     1       8.559  54.324  89.514  1.00  0.00     0.155 C 
HETATM    4  N4  UNL     1       8.827  53.066  90.229  1.00  0.00    -0.355 N 
HETATM    5  C21 UNL     1       9.117  51.966  89.330  1.00  0.00     0.155 C 
HETATM    6  C22 UNL     1       8.277  52.206  88.069  1.00  0.00     0.292 C 
ENDROOT
BRANCH   1   7
HETATM    7  C7  UNL     1       9.982  52.816  86.505  1.00  0.00     0.274 C 
BRANCH   7   8
HETATM    8  C6  UNL     1      10.300  53.442  85.218  1.00  0.00     0.050 C 
BRANCH   8   9
HETATM    9  C5  UNL     1      10.006  52.818  83.923  1.00  0.00     0.140 C 
BRANCH   9  10
HETATM   10  N2  UNL     1       9.499  51.480  83.907  1.00  0.00    -0.226 N 
HETATM   11  C4  UNL     1       9.994  50.450  83.051  1.00  0.00     0.678 C 
HETATM   12  N1  UNL     1       9.558  50.251  81.870  1.00  0.00    -0.136 N 
HETATM   13  N7  UNL     1      11.023  49.613  83.557  1.00  0.00    -0.226 N 
HETATM   14  C3  UNL     1      10.060  49.232  81.046  1.00  0.00     0.379 C 
ATOM     15  H1  UNL     1       8.818  50.855  81.511  1.00  0.00     0.189 HD
HETATM   16  O2  UNL     1       9.308  48.253  80.724  1.00  0.00    -0.238 OA
ATOM     17  H7  UNL     1      10.984  48.603  83.424  1.00  0.00     0.177 HD
ATOM     18  H2  UNL     1       8.738  51.248  84.546  1.00  0.00     0.177 HD
BRANCH  14  19
HETATM   19  O1  UNL     1      11.352  49.209  80.542  1.00  0.00    -0.304 OA
BRANCH  19  20
HETATM   20  C2  UNL     1      11.570  49.319  79.153  1.00  0.00     0.176 C 
HETATM   21  C1  UNL     1      12.778  48.572  78.689  1.00  0.00     0.034 C 
ENDBRANCH  19  20
ENDBRANCH  14  19
BRANCH  13  22
HETATM   22  C23 UNL     1      12.123  50.220  84.262  1.00  0.00     0.138 C 
BRANCH  22  23
HETATM   23  C24 UNL     1      13.243  50.446  83.264  1.00  0.00     0.025 C 
BRANCH  23  24
HETATM   24  C25 UNL     1      13.194  51.815  82.660  1.00  0.00    -0.013 C 
HETATM   25  C26 UNL     1      14.130  52.716  83.433  1.00  0.00     0.005 C 
HETATM   26  C27 UNL     1      15.348  53.076  82.589  1.00  0.00     0.000 C 
HETATM   27  C28 UNL     1      15.913  51.876  81.904  1.00  0.00     0.000 C 
HETATM   28  C29 UNL     1      14.906  51.200  81.008  1.00  0.00     0.000 C 
HETATM   29  C30 UNL     1      13.564  51.853  81.214  1.00  0.00     0.005 C 
ENDBRANCH  23  24
ENDBRANCH  22  23
ENDBRANCH  13  22
ENDBRANCH   9  10
ENDBRANCH   8   9
ENDBRANCH   7   8
ENDBRANCH   1   7
BRANCH   4  30
HETATM   30  C10 UNL     1       8.811  52.976  91.629  1.00  0.00     0.170 C 
HETATM   31  S1  UNL     1       7.425  53.412  92.339  1.00  0.00    -0.041 SA
BRANCH  30  32
HETATM   32  N5  UNL     1       9.894  52.516  92.350  1.00  0.00    -0.357 N 
ATOM     33  H5  UNL     1       9.670  51.651  92.844  1.00  0.00     0.162 HD
BRANCH  32  34
HETATM   34  C11 UNL     1      11.219  52.912  92.588  1.00  0.00     0.046 C 
HETATM   35  C12 UNL     1      11.538  52.442  94.036  1.00  0.00     0.040 C 
HETATM   36  C13 UNL     1      11.603  54.344  92.368  1.00  0.00     0.068 C 
HETATM   37  C14 UNL     1      12.793  54.557  93.328  1.00  0.00     0.177 C 
HETATM   38  C19 UNL     1      12.259  54.450  90.987  1.00  0.00     0.142 C 
HETATM   39  O3  UNL     1      13.789  53.685  93.093  1.00  0.00    -0.390 OA
HETATM   40  C15 UNL     1      13.644  52.548  92.411  1.00  0.00     0.179 C 
HETATM   41  C16 UNL     1      12.299  52.261  91.758  1.00  0.00     0.005 C 
HETATM   42  C17 UNL     1      12.189  50.799  91.598  1.00  0.00     0.020 C 
HETATM   43  C18 UNL     1      12.322  53.053  90.463  1.00  0.00     0.047 C 
BRANCH  38  44
HETATM   44  O4  UNL     1      13.632  54.881  91.097  1.00  0.00    -0.300 OA
BRANCH  44  45
HETATM   45  C20 UNL     1      14.381  55.322  90.038  1.00  0.00     0.373 C 
HETATM   46  N6  UNL     1      14.184  56.582  89.413  1.00  0.00    -0.032 NA
HETATM   47  O5  UNL     1      15.291  54.577  89.594  1.00  0.00    -0.242 OA
ENDBRANCH  44  45
ENDBRANCH  38  44
ENDBRANCH  32  34
ENDBRANCH  30  32
ENDBRANCH   4  30
TORSDOF 14
ENDMDL
