MODEL 1
REMARK VINA RESULT: -6.082798827      0.000      0.000
REMARK  10 active torsions:
REMARK  status: ('A' for Active; 'I' for Inactive)
REMARK    1  A    between atoms: C2_2  and  C3_3 
REMARK    2  A    between atoms: C3_3  and  C5_5 
REMARK    3  A    between atoms: C7_10  and  C8_11 
REMARK    4  A    between atoms: C8_11  and  C10_13 
REMARK    5  A    between atoms: C13_18  and  C14_19 
REMARK    6  A    between atoms: C14_19  and  C15_20 
REMARK    7  A    between atoms: C19_27  and  C20_28 
REMARK    8  A    between atoms: C20_28  and  C21_29 
REMARK    9  A    between atoms: C25_36  and  C26_37 
REMARK   10  A    between atoms: C26_37  and  C27_38 
ROOT
HETATM    1  C5  UNL     1      13.659  50.177  93.981  1.00  0.00     0.164 C 
HETATM    2  N1  UNL     1      12.736  51.105  94.554  1.00  0.00    -0.347 N 
ATOM      3  H1  UNL     1      12.787  51.127  95.572  1.00  0.00     0.163 HD
HETATM    4  C6  UNL     1      11.794  51.976  94.055  1.00  0.00     0.248 C 
HETATM    5  O1  UNL     1      10.548  51.679  94.280  1.00  0.00    -0.271 OA
HETATM    6  C7  UNL     1      11.924  53.239  93.282  1.00  0.00     0.227 C 
HETATM    7  O2  UNL     1      10.990  53.190  92.269  1.00  0.00    -0.304 OA
HETATM    8  C12 UNL     1      10.498  54.005  91.344  1.00  0.00     0.282 C 
HETATM    9  O3  UNL     1       9.266  54.379  91.427  1.00  0.00    -0.263 OA
HETATM   10  C13 UNL     1      11.170  54.594  90.155  1.00  0.00     0.184 C 
HETATM   11  N2  UNL     1      10.261  54.758  89.041  1.00  0.00    -0.345 N 
ATOM     12  H2  UNL     1      10.358  55.613  88.496  1.00  0.00     0.163 HD
HETATM   13  C18 UNL     1       9.253  53.857  88.630  1.00  0.00     0.241 C 
HETATM   14  O4  UNL     1       8.052  54.265  88.433  1.00  0.00    -0.271 OA
HETATM   15  C19 UNL     1       9.449  52.391  88.384  1.00  0.00     0.177 C 
HETATM   16  N3  UNL     1       8.535  51.608  89.148  1.00  0.00    -0.346 N 
ATOM     17  H3  UNL     1       7.543  51.729  88.943  1.00  0.00     0.163 HD
HETATM   18  C24 UNL     1       8.871  50.678  90.164  1.00  0.00     0.241 C 
HETATM   19  O5  UNL     1       8.019  50.569  91.113  1.00  0.00    -0.271 OA
HETATM   20  C25 UNL     1      10.069  49.846  90.243  1.00  0.00     0.178 C 
HETATM   21  N4  UNL     1      10.292  49.391  91.623  1.00  0.00    -0.330 N 
ATOM     22  H4  UNL     1       9.640  49.677  92.353  1.00  0.00     0.165 HD
HETATM   23  C30 UNL     1      11.413  48.548  91.970  1.00  0.00     0.321 C 
HETATM   24  O6  UNL     1      11.130  47.684  92.845  1.00  0.00    -0.247 OA
HETATM   25  N5  UNL     1      12.662  48.661  91.412  1.00  0.00    -0.309 N 
ATOM     26  H5  UNL     1      12.738  48.020  90.622  1.00  0.00     0.170 HD
HETATM   27  C31 UNL     1      13.724  49.275  91.541  1.00  0.00     0.057 C 
HETATM   28  C32 UNL     1      14.835  48.946  90.541  1.00  0.00     0.072 C 
HETATM   29  C33 UNL     1      14.001  50.273  92.574  1.00  0.00     0.194 C 
HETATM   30  O7  UNL     1      14.598  51.299  92.154  1.00  0.00    -0.289 OA
ENDROOT
BRANCH   1  31
HETATM   31  C3  UNL     1      14.914  50.160  94.876  1.00  0.00     0.012 C 
HETATM   32  C4  UNL     1      14.784  48.899  95.715  1.00  0.00     0.012 C 
BRANCH  31  33
HETATM   33  C2  UNL     1      14.998  51.334  95.792  1.00  0.00     0.002 C 
HETATM   34  C1  UNL     1      16.392  51.280  96.439  1.00  0.00     0.005 C 
ENDBRANCH  31  33
ENDBRANCH   1  31
BRANCH   6  35
HETATM   35  C8  UNL     1      11.766  54.394  94.253  1.00  0.00     0.020 C 
HETATM   36  C9  UNL     1      12.244  54.092  95.639  1.00  0.00     0.013 C 
BRANCH  35  37
HETATM   37  C10 UNL     1      12.289  55.700  93.777  1.00  0.00     0.003 C 
HETATM   38  C11 UNL     1      11.886  56.756  94.823  1.00  0.00     0.005 C 
ENDBRANCH  35  37
ENDBRANCH   6  35
BRANCH  10  39
HETATM   39  C14 UNL     1      12.480  53.982  89.807  1.00  0.00     0.039 C 
BRANCH  39  40
HETATM   40  C15 UNL     1      13.470  55.113  89.609  1.00  0.00    -0.020 C 
HETATM   41  C16 UNL     1      14.163  54.951  88.276  1.00  0.00     0.009 C 
HETATM   42  C17 UNL     1      14.538  54.950  90.681  1.00  0.00     0.009 C 
ENDBRANCH  39  40
ENDBRANCH  10  39
BRANCH  20  43
HETATM   43  C26 UNL     1      10.064  48.710  89.292  1.00  0.00     0.038 C 
BRANCH  43  44
HETATM   44  C27 UNL     1      10.958  48.715  88.118  1.00  0.00    -0.020 C 
HETATM   45  C28 UNL     1      11.687  47.329  88.171  1.00  0.00     0.009 C 
HETATM   46  C29 UNL     1      12.091  49.702  88.149  1.00  0.00     0.009 C 
ENDBRANCH  43  44
ENDBRANCH  20  43
BRANCH  15  47
HETATM   47  C20 UNL     1       9.596  52.064  86.952  1.00  0.00     0.038 C 
BRANCH  47  48
HETATM   48  C21 UNL     1      10.256  53.030  86.053  1.00  0.00    -0.020 C 
HETATM   49  C22 UNL     1       9.868  52.947  84.596  1.00  0.00     0.009 C 
HETATM   50  C23 UNL     1      11.760  52.701  86.088  1.00  0.00     0.009 C 
ENDBRANCH  47  48
ENDBRANCH  15  47
TORSDOF 10
ENDMDL
MODEL 2
REMARK VINA RESULT: -5.640955778      1.047      1.222
REMARK  10 active torsions:
REMARK  status: ('A' for Active; 'I' for Inactive)
REMARK    1  A    between atoms: C2_2  and  C3_3 
REMARK    2  A    between atoms: C3_3  and  C5_5 
REMARK    3  A    between atoms: C7_10  and  C8_11 
REMARK    4  A    between atoms: C8_11  and  C10_13 
REMARK    5  A    between atoms: C13_18  and  C14_19 
REMARK    6  A    between atoms: C14_19  and  C15_20 
REMARK    7  A    between atoms: C19_27  and  C20_28 
REMARK    8  A    between atoms: C20_28  and  C21_29 
REMARK    9  A    between atoms: C25_36  and  C26_37 
REMARK   10  A    between atoms: C26_37  and  C27_38 
ROOT
HETATM    1  C5  UNL     1      13.447  49.530  93.542  1.00  0.00     0.164 C 
HETATM    2  N1  UNL     1      12.366  50.313  94.053  1.00  0.00    -0.347 N 
ATOM      3  H1  UNL     1      12.251  50.207  95.061  1.00  0.00     0.163 HD
HETATM    4  C6  UNL     1      11.445  51.178  93.507  1.00  0.00     0.248 C 
HETATM    5  O1  UNL     1      10.210  50.774  93.480  1.00  0.00    -0.271 OA
HETATM    6  C7  UNL     1      11.589  52.536  92.920  1.00  0.00     0.227 C 
HETATM    7  O2  UNL     1      10.838  52.558  91.765  1.00  0.00    -0.304 OA
HETATM    8  C12 UNL     1      10.433  53.453  90.871  1.00  0.00     0.282 C 
HETATM    9  O3  UNL     1       9.176  53.731  90.786  1.00  0.00    -0.263 OA
HETATM   10  C13 UNL     1      11.234  54.234  89.891  1.00  0.00     0.184 C 
HETATM   11  N2  UNL     1      10.506  54.480  88.666  1.00  0.00    -0.345 N 
ATOM     12  H2  UNL     1      10.615  55.404  88.249  1.00  0.00     0.163 HD
HETATM   13  C18 UNL     1       9.659  53.577  87.986  1.00  0.00     0.241 C 
HETATM   14  O4  UNL     1       8.475  53.928  87.637  1.00  0.00    -0.271 OA
HETATM   15  C19 UNL     1      10.017  52.171  87.607  1.00  0.00     0.177 C 
HETATM   16  N3  UNL     1       9.063  51.237  88.107  1.00  0.00    -0.346 N 
ATOM     17  H3  UNL     1       8.110  51.318  87.752  1.00  0.00     0.163 HD
HETATM   18  C24 UNL     1       9.309  50.207  89.050  1.00  0.00     0.241 C 
HETATM   19  O5  UNL     1       8.328  49.921  89.821  1.00  0.00    -0.271 OA
HETATM   20  C25 UNL     1      10.547  49.452  89.234  1.00  0.00     0.178 C 
HETATM   21  N4  UNL     1      10.583  48.838  90.569  1.00  0.00    -0.330 N 
ATOM     22  H4  UNL     1       9.799  48.984  91.205  1.00  0.00     0.165 HD
HETATM   23  C30 UNL     1      11.702  48.032  91.001  1.00  0.00     0.321 C 
HETATM   24  O6  UNL     1      11.357  47.045  91.708  1.00  0.00    -0.247 OA
HETATM   25  N5  UNL     1      13.010  48.298  90.681  1.00  0.00    -0.309 N 
ATOM     26  H5  UNL     1      13.267  47.771  89.846  1.00  0.00     0.170 HD
HETATM   27  C31 UNL     1      13.981  48.958  91.060  1.00  0.00     0.057 C 
HETATM   28  C32 UNL     1      15.262  48.835  90.233  1.00  0.00     0.072 C 
HETATM   29  C33 UNL     1      14.001  49.830  92.235  1.00  0.00     0.194 C 
HETATM   30  O7  UNL     1      14.567  50.938  92.046  1.00  0.00    -0.289 OA
ENDROOT
BRANCH   1  31
HETATM   31  C3  UNL     1      14.537  49.479  94.630  1.00  0.00     0.012 C 
HETATM   32  C4  UNL     1      14.567  48.032  95.092  1.00  0.00     0.012 C 
BRANCH  31  33
HETATM   33  C2  UNL     1      14.237  50.348  95.803  1.00  0.00     0.002 C 
HETATM   34  C1  UNL     1      15.288  51.471  95.790  1.00  0.00     0.005 C 
ENDBRANCH  31  33
ENDBRANCH   1  31
BRANCH   6  35
HETATM   35  C8  UNL     1      11.178  53.543  93.978  1.00  0.00     0.020 C 
HETATM   36  C9  UNL     1      11.901  53.386  95.280  1.00  0.00     0.013 C 
BRANCH  35  37
HETATM   37  C10 UNL     1      11.170  54.962  93.537  1.00  0.00     0.003 C 
HETATM   38  C11 UNL     1      12.285  55.682  94.317  1.00  0.00     0.005 C 
ENDBRANCH  35  37
ENDBRANCH   6  35
BRANCH  10  39
HETATM   39  C14 UNL     1      12.631  53.759  89.703  1.00  0.00     0.039 C 
BRANCH  39  40
HETATM   40  C15 UNL     1      13.553  54.910  90.055  1.00  0.00    -0.020 C 
HETATM   41  C16 UNL     1      14.688  54.973  89.060  1.00  0.00     0.009 C 
HETATM   42  C17 UNL     1      14.171  54.575  91.405  1.00  0.00     0.009 C 
ENDBRANCH  39  40
ENDBRANCH  10  39
BRANCH  20  43
HETATM   43  C26 UNL     1      10.793  48.452  88.170  1.00  0.00     0.038 C 
BRANCH  43  44
HETATM   44  C27 UNL     1      11.729  48.747  87.068  1.00  0.00    -0.020 C 
HETATM   45  C28 UNL     1      11.116  48.019  85.824  1.00  0.00     0.009 C 
HETATM   46  C29 UNL     1      13.100  48.140  87.181  1.00  0.00     0.009 C 
ENDBRANCH  43  44
ENDBRANCH  20  43
BRANCH  15  47
HETATM   47  C20 UNL     1      10.420  52.043  86.193  1.00  0.00     0.038 C 
BRANCH  47  48
HETATM   48  C21 UNL     1      11.853  52.081  85.842  1.00  0.00    -0.020 C 
HETATM   49  C22 UNL     1      12.446  53.454  85.638  1.00  0.00     0.009 C 
HETATM   50  C23 UNL     1      11.986  51.377  84.478  1.00  0.00     0.009 C 
ENDBRANCH  47  48
ENDBRANCH  15  47
TORSDOF 10
ENDMDL
MODEL 3
REMARK VINA RESULT: -5.433774539      4.519      8.349
REMARK  10 active torsions:
REMARK  status: ('A' for Active; 'I' for Inactive)
REMARK    1  A    between atoms: C2_2  and  C3_3 
REMARK    2  A    between atoms: C3_3  and  C5_5 
REMARK    3  A    between atoms: C7_10  and  C8_11 
REMARK    4  A    between atoms: C8_11  and  C10_13 
REMARK    5  A    between atoms: C13_18  and  C14_19 
REMARK    6  A    between atoms: C14_19  and  C15_20 
REMARK    7  A    between atoms: C19_27  and  C20_28 
REMARK    8  A    between atoms: C20_28  and  C21_29 
REMARK    9  A    between atoms: C25_36  and  C26_37 
REMARK   10  A    between atoms: C26_37  and  C27_38 
ROOT
HETATM    1  C5  UNL     1      11.236  53.099  87.743  1.00  0.00     0.164 C 
HETATM    2  N1  UNL     1      11.566  53.548  86.427  1.00  0.00    -0.347 N 
ATOM      3  H1  UNL     1      12.099  54.417  86.435  1.00  0.00     0.163 HD
HETATM    4  C6  UNL     1      11.333  53.085  85.152  1.00  0.00     0.248 C 
HETATM    5  O1  UNL     1      10.512  53.778  84.421  1.00  0.00    -0.271 OA
HETATM    6  C7  UNL     1      11.856  51.903  84.417  1.00  0.00     0.227 C 
HETATM    7  O2  UNL     1      10.786  51.323  83.771  1.00  0.00    -0.304 OA
HETATM    8  C12 UNL     1      10.579  50.366  82.874  1.00  0.00     0.282 C 
HETATM    9  O3  UNL     1      10.131  50.685  81.707  1.00  0.00    -0.263 OA
HETATM   10  C13 UNL     1      10.786  48.899  82.999  1.00  0.00     0.184 C 
HETATM   11  N2  UNL     1       9.820  48.145  82.231  1.00  0.00    -0.345 N 
ATOM     12  H2  UNL     1      10.169  47.323  81.740  1.00  0.00     0.163 HD
HETATM   13  C18 UNL     1       8.443  48.427  82.089  1.00  0.00     0.241 C 
HETATM   14  O4  UNL     1       7.902  48.478  80.926  1.00  0.00    -0.271 OA
HETATM   15  C19 UNL     1       7.491  48.688  83.219  1.00  0.00     0.177 C 
HETATM   16  N3  UNL     1       6.810  49.929  83.050  1.00  0.00    -0.346 N 
ATOM     17  H3  UNL     1       6.203  50.014  82.235  1.00  0.00     0.163 HD
HETATM   18  C24 UNL     1       6.894  51.057  83.905  1.00  0.00     0.241 C 
HETATM   19  O5  UNL     1       6.776  52.193  83.329  1.00  0.00    -0.271 OA
HETATM   20  C25 UNL     1       7.103  51.058  85.352  1.00  0.00     0.178 C 
HETATM   21  N4  UNL     1       7.602  52.366  85.800  1.00  0.00    -0.330 N 
ATOM     22  H4  UNL     1       7.752  53.104  85.112  1.00  0.00     0.165 HD
HETATM   23  C30 UNL     1       7.887  52.631  87.192  1.00  0.00     0.321 C 
HETATM   24  O6  UNL     1       7.580  53.803  87.545  1.00  0.00    -0.247 OA
HETATM   25  N5  UNL     1       8.430  51.711  88.054  1.00  0.00    -0.309 N 
ATOM     26  H5  UNL     1       7.681  51.230  88.551  1.00  0.00     0.170 HD
HETATM   27  C31 UNL     1       9.518  51.270  88.432  1.00  0.00     0.057 C 
HETATM   28  C32 UNL     1       9.483  50.168  89.493  1.00  0.00     0.072 C 
HETATM   29  C33 UNL     1      10.825  51.724  87.955  1.00  0.00     0.194 C 
HETATM   30  O7  UNL     1      11.641  50.794  87.720  1.00  0.00    -0.289 OA
ENDROOT
BRANCH   1  31
HETATM   31  C3  UNL     1      12.397  53.500  88.674  1.00  0.00     0.012 C 
HETATM   32  C4  UNL     1      11.757  54.348  89.761  1.00  0.00     0.012 C 
BRANCH  31  33
HETATM   33  C2  UNL     1      13.443  54.313  87.990  1.00  0.00     0.002 C 
HETATM   34  C1  UNL     1      13.880  55.393  88.995  1.00  0.00     0.005 C 
ENDBRANCH  31  33
ENDBRANCH   1  31
BRANCH   6  35
HETATM   35  C8  UNL     1      12.977  52.381  83.513  1.00  0.00     0.020 C 
HETATM   36  C9  UNL     1      13.879  53.394  84.146  1.00  0.00     0.013 C 
BRANCH  35  37
HETATM   37  C10 UNL     1      13.760  51.306  82.850  1.00  0.00     0.003 C 
HETATM   38  C11 UNL     1      15.003  51.971  82.230  1.00  0.00     0.005 C 
ENDBRANCH  35  37
ENDBRANCH   6  35
BRANCH  10  39
HETATM   39  C14 UNL     1      10.998  48.411  84.388  1.00  0.00     0.039 C 
BRANCH  39  40
HETATM   40  C15 UNL     1      12.376  47.780  84.442  1.00  0.00    -0.020 C 
HETATM   41  C16 UNL     1      12.258  46.347  84.907  1.00  0.00     0.009 C 
HETATM   42  C17 UNL     1      13.155  48.526  85.515  1.00  0.00     0.009 C 
ENDBRANCH  39  40
ENDBRANCH  10  39
BRANCH  20  43
HETATM   43  C26 UNL     1       5.908  50.641  86.121  1.00  0.00     0.038 C 
BRANCH  43  44
HETATM   44  C27 UNL     1       5.875  49.332  86.801  1.00  0.00    -0.020 C 
HETATM   45  C28 UNL     1       5.476  49.665  88.279  1.00  0.00     0.009 C 
HETATM   46  C29 UNL     1       7.195  48.628  86.951  1.00  0.00     0.009 C 
ENDBRANCH  43  44
ENDBRANCH  20  43
BRANCH  15  47
HETATM   47  C20 UNL     1       6.678  47.506  83.569  1.00  0.00     0.038 C 
BRANCH  47  48
HETATM   48  C21 UNL     1       5.207  47.593  83.499  1.00  0.00    -0.020 C 
HETATM   49  C22 UNL     1       4.449  46.789  84.528  1.00  0.00     0.009 C 
HETATM   50  C23 UNL     1       4.800  46.993  82.139  1.00  0.00     0.009 C 
ENDBRANCH  47  48
ENDBRANCH  15  47
TORSDOF 10
ENDMDL
MODEL 4
REMARK VINA RESULT: -5.327542536      3.698      6.816
REMARK  10 active torsions:
REMARK  status: ('A' for Active; 'I' for Inactive)
REMARK    1  A    between atoms: C2_2  and  C3_3 
REMARK    2  A    between atoms: C3_3  and  C5_5 
REMARK    3  A    between atoms: C7_10  and  C8_11 
REMARK    4  A    between atoms: C8_11  and  C10_13 
REMARK    5  A    between atoms: C13_18  and  C14_19 
REMARK    6  A    between atoms: C14_19  and  C15_20 
REMARK    7  A    between atoms: C19_27  and  C20_28 
REMARK    8  A    between atoms: C20_28  and  C21_29 
REMARK    9  A    between atoms: C25_36  and  C26_37 
REMARK   10  A    between atoms: C26_37  and  C27_38 
ROOT
HETATM    1  C5  UNL     1      11.620  52.319  85.452  1.00  0.00     0.164 C 
HETATM    2  N1  UNL     1      12.301  52.514  86.694  1.00  0.00    -0.347 N 
ATOM      3  H1  UNL     1      13.315  52.533  86.583  1.00  0.00     0.163 HD
HETATM    4  C6  UNL     1      11.912  52.683  88.003  1.00  0.00     0.248 C 
HETATM    5  O1  UNL     1      12.176  51.708  88.820  1.00  0.00    -0.271 OA
HETATM    6  C7  UNL     1      11.223  53.805  88.694  1.00  0.00     0.227 C 
HETATM    7  O2  UNL     1      10.256  53.248  89.503  1.00  0.00    -0.304 OA
HETATM    8  C12 UNL     1       9.415  53.647  90.450  1.00  0.00     0.282 C 
HETATM    9  O3  UNL     1       9.584  53.227  91.658  1.00  0.00    -0.263 OA
HETATM   10  C13 UNL     1       8.239  54.551  90.344  1.00  0.00     0.184 C 
HETATM   11  N2  UNL     1       7.185  54.183  91.265  1.00  0.00    -0.345 N 
ATOM     12  H2  UNL     1       6.697  54.949  91.728  1.00  0.00     0.163 HD
HETATM   13  C18 UNL     1       6.762  52.875  91.590  1.00  0.00     0.241 C 
HETATM   14  O4  UNL     1       6.653  52.509  92.816  1.00  0.00    -0.271 OA
HETATM   15  C19 UNL     1       6.404  51.808  90.599  1.00  0.00     0.177 C 
HETATM   16  N3  UNL     1       7.155  50.618  90.822  1.00  0.00    -0.346 N 
ATOM     17  H3  UNL     1       7.008  50.141  91.712  1.00  0.00     0.163 HD
HETATM   18  C24 UNL     1       8.086  50.031  89.928  1.00  0.00     0.241 C 
HETATM   19  O5  UNL     1       9.066  49.418  90.478  1.00  0.00    -0.271 OA
HETATM   20  C25 UNL     1       8.048  50.056  88.467  1.00  0.00     0.178 C 
HETATM   21  N4  UNL     1       9.380  49.778  87.911  1.00  0.00    -0.330 N 
ATOM     22  H4  UNL     1      10.160  49.608  88.547  1.00  0.00     0.165 HD
HETATM   23  C30 UNL     1       9.613  49.741  86.486  1.00  0.00     0.321 C 
HETATM   24  O6  UNL     1      10.438  48.850  86.142  1.00  0.00    -0.247 OA
HETATM   25  N5  UNL     1       9.003  50.579  85.585  1.00  0.00    -0.309 N 
ATOM     26  H5  UNL     1       8.168  50.126  85.215  1.00  0.00     0.170 HD
HETATM   27  C31 UNL     1       9.123  51.694  85.071  1.00  0.00     0.057 C 
HETATM   28  C32 UNL     1       8.050  52.106  84.062  1.00  0.00     0.072 C 
HETATM   29  C33 UNL     1      10.209  52.636  85.345  1.00  0.00     0.194 C 
HETATM   30  O7  UNL     1       9.833  53.829  85.492  1.00  0.00    -0.289 OA
ENDROOT
BRANCH   1  31
HETATM   31  C3  UNL     1      12.450  53.013  84.355  1.00  0.00     0.012 C 
HETATM   32  C4  UNL     1      13.007  51.883  83.505  1.00  0.00     0.012 C 
BRANCH  31  33
HETATM   33  C2  UNL     1      13.589  53.809  84.895  1.00  0.00     0.002 C 
HETATM   34  C1  UNL     1      14.693  53.768  83.825  1.00  0.00     0.005 C 
ENDBRANCH  31  33
ENDBRANCH   1  31
BRANCH   6  35
HETATM   35  C8  UNL     1      12.279  54.621  89.415  1.00  0.00     0.020 C 
HETATM   36  C9  UNL     1      12.657  54.075  90.757  1.00  0.00     0.013 C 
BRANCH  35  37
HETATM   37  C10 UNL     1      13.484  54.953  88.612  1.00  0.00     0.003 C 
HETATM   38  C11 UNL     1      14.621  55.250  89.608  1.00  0.00     0.005 C 
ENDBRANCH  35  37
ENDBRANCH   6  35
BRANCH  10  39
HETATM   39  C14 UNL     1       7.786  54.831  88.955  1.00  0.00     0.039 C 
BRANCH  39  40
HETATM   40  C15 UNL     1       6.489  55.610  89.051  1.00  0.00    -0.020 C 
HETATM   41  C16 UNL     1       5.650  55.349  87.821  1.00  0.00     0.009 C 
HETATM   42  C17 UNL     1       6.863  57.085  89.021  1.00  0.00     0.009 C 
ENDBRANCH  39  40
ENDBRANCH  10  39
BRANCH  20  43
HETATM   43  C26 UNL     1       7.021  49.159  87.887  1.00  0.00     0.038 C 
BRANCH  43  44
HETATM   44  C27 UNL     1       5.730  49.703  87.424  1.00  0.00    -0.020 C 
HETATM   45  C28 UNL     1       4.666  48.660  87.908  1.00  0.00     0.009 C 
HETATM   46  C29 UNL     1       5.522  49.742  85.935  1.00  0.00     0.009 C 
ENDBRANCH  43  44
ENDBRANCH  20  43
BRANCH  15  47
HETATM   47  C20 UNL     1       4.947  51.670  90.405  1.00  0.00     0.038 C 
BRANCH  47  48
HETATM   48  C21 UNL     1       4.217  52.701  89.644  1.00  0.00    -0.020 C 
HETATM   49  C22 UNL     1       3.438  53.700  90.466  1.00  0.00     0.009 C 
HETATM   50  C23 UNL     1       3.160  51.957  88.806  1.00  0.00     0.009 C 
ENDBRANCH  47  48
ENDBRANCH  15  47
TORSDOF 10
ENDMDL
MODEL 5
REMARK VINA RESULT: -5.258436708      4.014      9.648
REMARK  10 active torsions:
REMARK  status: ('A' for Active; 'I' for Inactive)
REMARK    1  A    between atoms: C2_2  and  C3_3 
REMARK    2  A    between atoms: C3_3  and  C5_5 
REMARK    3  A    between atoms: C7_10  and  C8_11 
REMARK    4  A    between atoms: C8_11  and  C10_13 
REMARK    5  A    between atoms: C13_18  and  C14_19 
REMARK    6  A    between atoms: C14_19  and  C15_20 
REMARK    7  A    between atoms: C19_27  and  C20_28 
REMARK    8  A    between atoms: C20_28  and  C21_29 
REMARK    9  A    between atoms: C25_36  and  C26_37 
REMARK   10  A    between atoms: C26_37  and  C27_38 
ROOT
HETATM    1  C5  UNL     1      11.477  51.518  82.188  1.00  0.00     0.164 C 
HETATM    2  N1  UNL     1      10.603  50.396  82.334  1.00  0.00    -0.347 N 
ATOM      3  H1  UNL     1      10.065  50.209  81.488  1.00  0.00     0.163 HD
HETATM    4  C6  UNL     1      10.316  49.509  83.346  1.00  0.00     0.248 C 
HETATM    5  O1  UNL     1       9.138  49.603  83.887  1.00  0.00    -0.271 OA
HETATM    6  C7  UNL     1      11.118  48.422  83.967  1.00  0.00     0.227 C 
HETATM    7  O2  UNL     1      10.946  48.522  85.331  1.00  0.00    -0.304 OA
HETATM    8  C12 UNL     1      11.250  47.818  86.415  1.00  0.00     0.282 C 
HETATM    9  O3  UNL     1      10.299  47.282  87.103  1.00  0.00    -0.263 OA
HETATM   10  C13 UNL     1      12.583  47.529  87.006  1.00  0.00     0.184 C 
HETATM   11  N2  UNL     1      12.532  47.441  88.449  1.00  0.00    -0.345 N 
ATOM     12  H2  UNL     1      13.094  46.709  88.882  1.00  0.00     0.163 HD
HETATM   13  C18 UNL     1      11.784  48.262  89.323  1.00  0.00     0.241 C 
HETATM   14  O4  UNL     1      11.025  47.744  90.219  1.00  0.00    -0.271 OA
HETATM   15  C19 UNL     1      11.784  49.762  89.314  1.00  0.00     0.177 C 
HETATM   16  N3  UNL     1      10.462  50.282  89.196  1.00  0.00    -0.346 N 
ATOM     17  H3  UNL     1       9.815  50.072  89.956  1.00  0.00     0.163 HD
HETATM   18  C24 UNL     1       9.958  51.062  88.124  1.00  0.00     0.241 C 
HETATM   19  O5  UNL     1       8.716  50.899  87.862  1.00  0.00    -0.271 OA
HETATM   20  C25 UNL     1      10.697  52.015  87.299  1.00  0.00     0.178 C 
HETATM   21  N4  UNL     1       9.992  52.255  86.032  1.00  0.00    -0.330 N 
ATOM     22  H4  UNL     1       9.114  51.769  85.850  1.00  0.00     0.165 HD
HETATM   23  C30 UNL     1      10.513  53.163  85.036  1.00  0.00     0.321 C 
HETATM   24  O6  UNL     1       9.612  53.824  84.449  1.00  0.00    -0.247 OA
HETATM   25  N5  UNL     1      11.848  53.306  84.749  1.00  0.00    -0.309 N 
ATOM     26  H5  UNL     1      12.230  54.076  85.299  1.00  0.00     0.170 HD
HETATM   27  C31 UNL     1      12.742  52.820  84.052  1.00  0.00     0.057 C 
HETATM   28  C32 UNL     1      14.131  53.452  84.175  1.00  0.00     0.072 C 
HETATM   29  C33 UNL     1      12.573  51.705  83.120  1.00  0.00     0.194 C 
HETATM   30  O7  UNL     1      13.496  50.849  83.165  1.00  0.00    -0.289 OA
ENDROOT
BRANCH   1  31
HETATM   31  C3  UNL     1      11.957  51.544  80.724  1.00  0.00     0.012 C 
HETATM   32  C4  UNL     1      10.737  51.946  79.914  1.00  0.00     0.012 C 
BRANCH  31  33
HETATM   33  C2  UNL     1      12.435  50.216  80.240  1.00  0.00     0.002 C 
HETATM   34  C1  UNL     1      13.843  50.446  79.665  1.00  0.00     0.005 C 
ENDBRANCH  31  33
ENDBRANCH   1  31
BRANCH   6  35
HETATM   35  C8  UNL     1      10.671  47.109  83.352  1.00  0.00     0.020 C 
HETATM   36  C9  UNL     1      10.706  47.095  81.856  1.00  0.00     0.013 C 
BRANCH  35  37
HETATM   37  C10 UNL     1      11.312  45.893  83.915  1.00  0.00     0.003 C 
HETATM   38  C11 UNL     1      12.257  45.340  82.832  1.00  0.00     0.005 C 
ENDBRANCH  35  37
ENDBRANCH   6  35
BRANCH  10  39
HETATM   39  C14 UNL     1      13.699  48.353  86.470  1.00  0.00     0.039 C 
BRANCH  39  40
HETATM   40  C15 UNL     1      14.821  47.406  86.091  1.00  0.00    -0.020 C 
HETATM   41  C16 UNL     1      14.293  45.991  86.042  1.00  0.00     0.009 C 
HETATM   42  C17 UNL     1      15.836  47.457  87.224  1.00  0.00     0.009 C 
ENDBRANCH  39  40
ENDBRANCH  10  39
BRANCH  20  43
HETATM   43  C26 UNL     1      11.008  53.285  87.995  1.00  0.00     0.038 C 
BRANCH  43  44
HETATM   44  C27 UNL     1      12.328  53.490  88.621  1.00  0.00    -0.020 C 
HETATM   45  C28 UNL     1      12.059  54.499  89.789  1.00  0.00     0.009 C 
HETATM   46  C29 UNL     1      13.357  54.200  87.784  1.00  0.00     0.009 C 
ENDBRANCH  43  44
ENDBRANCH  20  43
BRANCH  15  47
HETATM   47  C20 UNL     1      12.654  50.342  90.356  1.00  0.00     0.038 C 
BRANCH  47  48
HETATM   48  C21 UNL     1      12.048  51.103  91.465  1.00  0.00    -0.020 C 
HETATM   49  C22 UNL     1      12.941  52.120  92.134  1.00  0.00     0.009 C 
HETATM   50  C23 UNL     1      11.710  50.077  92.564  1.00  0.00     0.009 C 
ENDBRANCH  47  48
ENDBRANCH  15  47
TORSDOF 10
ENDMDL
