MODEL 1
REMARK VINA RESULT: -5.608431545      0.000      0.000
REMARK  11 active torsions:
REMARK  status: ('A' for Active; 'I' for Inactive)
REMARK    1  A    between atoms: C2_2  and  C3_3 
REMARK    2  A    between atoms: C3_3  and  C5_5 
REMARK    3  A    between atoms: C6_8  and  O1_9 
REMARK    4  A    between atoms: C7_11  and  C8_12 
REMARK    5  A    between atoms: C8_12  and  C9_13 
REMARK    6  A    between atoms: C18_23  and  C19_24 
REMARK    7  A    between atoms: C19_24  and  O3_25 
REMARK    8  A    between atoms: C23_30  and  C24_31 
REMARK    9  A    between atoms: C25_36  and  O5_37 
REMARK   10  A    between atoms: C26_39  and  C27_40 
REMARK   11  A    between atoms: C27_40  and  C28_41 
ROOT
HETATM    1  C5  UNL     1      11.985  54.592  90.429  1.00  0.00     0.083 C 
HETATM    2  N1  UNL     1      11.015  54.892  89.438  1.00  0.00    -0.337 N 
ATOM      3  H1  UNL     1      11.191  55.805  89.020  1.00  0.00     0.167 HD
HETATM    4  C6  UNL     1       9.900  54.300  88.876  1.00  0.00     0.149 C 
HETATM    5  C7  UNL     1       8.508  54.043  89.303  1.00  0.00     0.218 C 
HETATM    6  O2  UNL     1       7.763  55.176  89.213  1.00  0.00    -0.374 OA
HETATM    7  C12 UNL     1       6.455  55.102  89.611  1.00  0.00     0.169 C 
HETATM    8  C13 UNL     1       6.161  54.309  90.842  1.00  0.00     0.026 C 
HETATM    9  C14 UNL     1       4.697  53.815  90.782  1.00  0.00     0.002 C 
HETATM   10  C15 UNL     1       3.753  54.918  91.091  1.00  0.00     0.000 C 
HETATM   11  C16 UNL     1       3.404  54.796  92.573  1.00  0.00     0.001 C 
HETATM   12  C17 UNL     1       3.133  56.183  93.091  1.00  0.00     0.017 C 
HETATM   13  C18 UNL     1       4.315  56.644  93.896  1.00  0.00     0.071 C 
HETATM   14  S1  UNL     1       4.831  55.381  95.087  1.00  0.00    -0.162 SA
HETATM   15  C21 UNL     1       6.436  55.976  95.756  1.00  0.00     0.080 C 
HETATM   16  C22 UNL     1       7.545  55.155  95.170  1.00  0.00     0.073 C 
HETATM   17  C23 UNL     1       8.890  55.508  95.623  1.00  0.00     0.077 C 
HETATM   18  N3  UNL     1       9.774  56.196  94.704  1.00  0.00    -0.338 N 
ATOM     19  H3  UNL     1       9.283  56.861  94.106  1.00  0.00     0.167 HD
HETATM   20  C25 UNL     1      11.124  56.155  94.455  1.00  0.00     0.139 C 
HETATM   21  C26 UNL     1      11.972  55.159  93.731  1.00  0.00     0.160 C 
HETATM   22  N4  UNL     1      11.231  54.272  92.875  1.00  0.00    -0.344 N 
ATOM     23  H4  UNL     1      10.323  53.951  93.212  1.00  0.00     0.163 HD
HETATM   24  C31 UNL     1      11.657  53.796  91.586  1.00  0.00     0.265 C 
HETATM   25  O6  UNL     1      11.762  52.522  91.470  1.00  0.00    -0.266 OA
ENDROOT
BRANCH   1  26
HETATM   26  C3  UNL     1      13.312  54.235  89.757  1.00  0.00     0.037 C 
HETATM   27  C4  UNL     1      13.330  54.817  88.347  1.00  0.00     0.016 C 
BRANCH  26  28
HETATM   28  C2  UNL     1      14.505  54.849  90.430  1.00  0.00     0.006 C 
HETATM   29  C1  UNL     1      15.187  55.780  89.450  1.00  0.00     0.006 C 
ENDBRANCH  26  28
ENDBRANCH   1  26
BRANCH   4  30
HETATM   30  O1  UNL     1      10.065  53.845  87.638  1.00  0.00    -0.347 OA
ATOM     31  H1  UNL     1       9.426  54.154  87.006  1.00  0.00     0.219 HD
ENDBRANCH   4  30
BRANCH   5  32
HETATM   32  C8  UNL     1       7.885  52.919  88.554  1.00  0.00     0.015 C 
BRANCH  32  33
HETATM   33  C9  UNL     1       7.756  51.570  89.065  1.00  0.00    -0.088 C 
HETATM   34  C10 UNL     1       8.478  51.000  90.191  1.00  0.00     0.042 C 
HETATM   35  C11 UNL     1       6.361  50.956  88.934  1.00  0.00     0.042 C 
ENDBRANCH  32  33
ENDBRANCH   5  32
BRANCH  21  36
HETATM   36  C27 UNL     1      13.010  54.520  94.577  1.00  0.00     0.037 C 
BRANCH  36  37
HETATM   37  C28 UNL     1      12.746  53.195  95.155  1.00  0.00    -0.020 C 
HETATM   38  C29 UNL     1      13.942  52.280  95.272  1.00  0.00     0.009 C 
HETATM   39  C30 UNL     1      12.120  53.380  96.523  1.00  0.00     0.009 C 
ENDBRANCH  36  37
ENDBRANCH  21  36
BRANCH  20  40
HETATM   40  O5  UNL     1      11.897  57.126  94.898  1.00  0.00    -0.348 OA
ATOM     41  H5  UNL     1      12.551  56.940  95.562  1.00  0.00     0.219 HD
ENDBRANCH  20  40
BRANCH  17  42
HETATM   42  C24 UNL     1       8.996  56.073  96.978  1.00  0.00     0.277 C 
HETATM   43  N2  UNL     1       8.906  55.269  98.152  1.00  0.00    -0.056 NA
HETATM   44  O4  UNL     1       9.161  57.331  97.194  1.00  0.00    -0.270 OA
ENDBRANCH  17  42
BRANCH  13  45
HETATM   45  C19 UNL     1       3.955  57.892  94.691  1.00  0.00     0.182 C 
BRANCH  45  46
HETATM   46  O3  UNL     1       4.050  59.026  93.885  1.00  0.00    -0.395 OA
HETATM   47  C20 UNL     1       5.421  59.285  93.711  1.00  0.00     0.201 C 
ENDBRANCH  45  46
ENDBRANCH  13  45
TORSDOF 11
ENDMDL
MODEL 2
REMARK VINA RESULT: -5.439664470      2.524      9.340
REMARK  11 active torsions:
REMARK  status: ('A' for Active; 'I' for Inactive)
REMARK    1  A    between atoms: C2_2  and  C3_3 
REMARK    2  A    between atoms: C3_3  and  C5_5 
REMARK    3  A    between atoms: C6_8  and  O1_9 
REMARK    4  A    between atoms: C7_11  and  C8_12 
REMARK    5  A    between atoms: C8_12  and  C9_13 
REMARK    6  A    between atoms: C18_23  and  C19_24 
REMARK    7  A    between atoms: C19_24  and  O3_25 
REMARK    8  A    between atoms: C23_30  and  C24_31 
REMARK    9  A    between atoms: C25_36  and  O5_37 
REMARK   10  A    between atoms: C26_39  and  C27_40 
REMARK   11  A    between atoms: C27_40  and  C28_41 
ROOT
HETATM    1  C5  UNL     1       5.170  57.416  93.982  1.00  0.00     0.083 C 
HETATM    2  N1  UNL     1       6.290  57.996  94.633  1.00  0.00    -0.337 N 
ATOM      3  H1  UNL     1       6.446  58.950  94.308  1.00  0.00     0.167 HD
HETATM    4  C6  UNL     1       7.229  57.639  95.582  1.00  0.00     0.149 C 
HETATM    5  C7  UNL     1       8.422  56.767  95.617  1.00  0.00     0.218 C 
HETATM    6  O2  UNL     1       9.479  57.377  95.021  1.00  0.00    -0.374 OA
HETATM    7  C12 UNL     1      10.651  56.672  94.945  1.00  0.00     0.169 C 
HETATM    8  C13 UNL     1      10.552  55.221  94.607  1.00  0.00     0.026 C 
HETATM    9  C14 UNL     1      11.795  54.491  95.168  1.00  0.00     0.002 C 
HETATM   10  C15 UNL     1      12.988  54.754  94.325  1.00  0.00     0.000 C 
HETATM   11  C16 UNL     1      13.116  53.575  93.362  1.00  0.00     0.001 C 
HETATM   12  C17 UNL     1      13.735  54.091  92.091  1.00  0.00     0.017 C 
HETATM   13  C18 UNL     1      12.665  54.216  91.043  1.00  0.00     0.071 C 
HETATM   14  S1  UNL     1      11.663  52.711  90.946  1.00  0.00    -0.162 SA
HETATM   15  C21 UNL     1      10.248  53.143  89.855  1.00  0.00     0.080 C 
HETATM   16  C22 UNL     1       9.016  53.305  90.692  1.00  0.00     0.073 C 
HETATM   17  C23 UNL     1       7.799  53.641  89.953  1.00  0.00     0.077 C 
HETATM   18  N3  UNL     1       7.272  54.987  90.056  1.00  0.00    -0.338 N 
ATOM     19  H3  UNL     1       8.005  55.694  90.113  1.00  0.00     0.167 HD
HETATM   20  C25 UNL     1       6.009  55.526  90.095  1.00  0.00     0.139 C 
HETATM   21  C26 UNL     1       4.987  55.584  91.184  1.00  0.00     0.160 C 
HETATM   22  N4  UNL     1       5.514  55.335  92.498  1.00  0.00    -0.344 N 
ATOM     23  H4  UNL     1       6.239  54.622  92.579  1.00  0.00     0.163 HD
HETATM   24  C31 UNL     1       5.111  56.001  93.707  1.00  0.00     0.265 C 
HETATM   25  O6  UNL     1       4.640  55.242  94.629  1.00  0.00    -0.266 OA
ENDROOT
BRANCH   1  26
HETATM   26  C3  UNL     1       3.881  58.016  94.546  1.00  0.00     0.037 C 
HETATM   27  C4  UNL     1       4.166  59.428  95.048  1.00  0.00     0.016 C 
BRANCH  26  28
HETATM   28  C2  UNL     1       2.807  58.196  93.514  1.00  0.00     0.006 C 
HETATM   29  C1  UNL     1       3.385  58.961  92.342  1.00  0.00     0.006 C 
ENDBRANCH  26  28
ENDBRANCH   1  26
BRANCH   4  30
HETATM   30  O1  UNL     1       7.073  58.209  96.773  1.00  0.00    -0.347 OA
ATOM     31  H1  UNL     1       6.974  57.606  97.500  1.00  0.00     0.219 HD
ENDBRANCH   4  30
BRANCH   5  32
HETATM   32  C8  UNL     1       8.754  56.319  96.996  1.00  0.00     0.015 C 
BRANCH  32  33
HETATM   33  C9  UNL     1       8.417  55.019  97.536  1.00  0.00    -0.088 C 
HETATM   34  C10 UNL     1       7.452  54.079  96.987  1.00  0.00     0.042 C 
HETATM   35  C11 UNL     1       9.564  54.289  98.237  1.00  0.00     0.042 C 
ENDBRANCH  32  33
ENDBRANCH   5  32
BRANCH  21  36
HETATM   36  C27 UNL     1       3.716  54.890  90.857  1.00  0.00     0.037 C 
BRANCH  36  37
HETATM   37  C28 UNL     1       2.448  55.623  90.983  1.00  0.00    -0.020 C 
HETATM   38  C29 UNL     1       1.624  55.729  89.722  1.00  0.00     0.009 C 
HETATM   39  C30 UNL     1       1.618  54.971  92.071  1.00  0.00     0.009 C 
ENDBRANCH  36  37
ENDBRANCH  21  36
BRANCH  20  40
HETATM   40  O5  UNL     1       5.522  56.119  89.023  1.00  0.00    -0.348 OA
ATOM     41  H5  UNL     1       5.345  57.052  89.043  1.00  0.00     0.219 HD
ENDBRANCH  20  40
BRANCH  17  42
HETATM   42  C24 UNL     1       7.718  53.148  88.569  1.00  0.00     0.277 C 
HETATM   43  N2  UNL     1       7.439  51.786  88.255  1.00  0.00    -0.056 NA
HETATM   44  O4  UNL     1       7.911  53.910  87.549  1.00  0.00    -0.270 OA
ENDBRANCH  17  42
BRANCH  13  45
HETATM   45  C19 UNL     1      13.294  54.425  89.672  1.00  0.00     0.182 C 
BRANCH  45  46
HETATM   46  O3  UNL     1      14.677  54.577  89.789  1.00  0.00    -0.395 OA
HETATM   47  C20 UNL     1      14.979  55.876  89.346  1.00  0.00     0.201 C 
ENDBRANCH  45  46
ENDBRANCH  13  45
TORSDOF 11
ENDMDL
MODEL 3
REMARK VINA RESULT: -5.435181304      2.658      9.256
REMARK  11 active torsions:
REMARK  status: ('A' for Active; 'I' for Inactive)
REMARK    1  A    between atoms: C2_2  and  C3_3 
REMARK    2  A    between atoms: C3_3  and  C5_5 
REMARK    3  A    between atoms: C6_8  and  O1_9 
REMARK    4  A    between atoms: C7_11  and  C8_12 
REMARK    5  A    between atoms: C8_12  and  C9_13 
REMARK    6  A    between atoms: C18_23  and  C19_24 
REMARK    7  A    between atoms: C19_24  and  O3_25 
REMARK    8  A    between atoms: C23_30  and  C24_31 
REMARK    9  A    between atoms: C25_36  and  O5_37 
REMARK   10  A    between atoms: C26_39  and  C27_40 
REMARK   11  A    between atoms: C27_40  and  C28_41 
ROOT
HETATM    1  C5  UNL     1       4.622  57.850  92.885  1.00  0.00     0.083 C 
HETATM    2  N1  UNL     1       5.502  58.492  93.794  1.00  0.00    -0.337 N 
ATOM      3  H1  UNL     1       5.741  59.429  93.469  1.00  0.00     0.167 HD
HETATM    4  C6  UNL     1       6.129  58.212  94.993  1.00  0.00     0.149 C 
HETATM    5  C7  UNL     1       7.265  57.370  95.424  1.00  0.00     0.218 C 
HETATM    6  O2  UNL     1       8.447  57.968  95.121  1.00  0.00    -0.374 OA
HETATM    7  C12 UNL     1       9.594  57.287  95.429  1.00  0.00     0.169 C 
HETATM    8  C13 UNL     1       9.604  55.816  95.168  1.00  0.00     0.026 C 
HETATM    9  C14 UNL     1      10.636  55.148  96.107  1.00  0.00     0.002 C 
HETATM   10  C15 UNL     1      12.020  55.389  95.629  1.00  0.00     0.000 C 
HETATM   11  C16 UNL     1      12.427  54.160  94.819  1.00  0.00     0.001 C 
HETATM   12  C17 UNL     1      13.384  54.616  93.750  1.00  0.00     0.017 C 
HETATM   13  C18 UNL     1      12.662  54.655  92.433  1.00  0.00     0.071 C 
HETATM   14  S1  UNL     1      11.738  53.126  92.144  1.00  0.00    -0.162 SA
HETATM   15  C21 UNL     1      10.697  53.462  90.667  1.00  0.00     0.080 C 
HETATM   16  C22 UNL     1       9.274  53.644  91.102  1.00  0.00     0.073 C 
HETATM   17  C23 UNL     1       8.321  53.909  90.025  1.00  0.00     0.077 C 
HETATM   18  N3  UNL     1       7.781  55.247  89.888  1.00  0.00    -0.338 N 
ATOM     19  H3  UNL     1       8.462  55.973  90.110  1.00  0.00     0.167 HD
HETATM   20  C25 UNL     1       6.558  55.759  89.528  1.00  0.00     0.139 C 
HETATM   21  C26 UNL     1       5.264  55.857  90.270  1.00  0.00     0.160 C 
HETATM   22  N4  UNL     1       5.391  55.695  91.693  1.00  0.00    -0.344 N 
ATOM     23  H4  UNL     1       6.065  55.004  92.024  1.00  0.00     0.163 HD
HETATM   24  C31 UNL     1       4.652  56.421  92.692  1.00  0.00     0.265 C 
HETATM   25  O6  UNL     1       3.938  55.706  93.484  1.00  0.00    -0.266 OA
ENDROOT
BRANCH   1  26
HETATM   26  C3  UNL     1       3.222  58.453  93.015  1.00  0.00     0.037 C 
HETATM   27  C4  UNL     1       3.346  59.924  93.398  1.00  0.00     0.016 C 
BRANCH  26  28
HETATM   28  C2  UNL     1       2.457  58.466  91.724  1.00  0.00     0.006 C 
HETATM   29  C1  UNL     1       3.255  59.241  90.697  1.00  0.00     0.006 C 
ENDBRANCH  26  28
ENDBRANCH   1  26
BRANCH   4  30
HETATM   30  O1  UNL     1       5.633  58.846  96.051  1.00  0.00    -0.347 OA
ATOM     31  H1  UNL     1       5.808  58.432  96.888  1.00  0.00     0.219 HD
ENDBRANCH   4  30
BRANCH   5  32
HETATM   32  C8  UNL     1       7.187  57.010  96.864  1.00  0.00     0.015 C 
BRANCH  32  33
HETATM   33  C9  UNL     1       6.711  55.737  97.364  1.00  0.00    -0.088 C 
HETATM   34  C10 UNL     1       5.923  54.760  96.628  1.00  0.00     0.042 C 
HETATM   35  C11 UNL     1       7.624  55.056  98.384  1.00  0.00     0.042 C 
ENDBRANCH  32  33
ENDBRANCH   5  32
BRANCH  21  36
HETATM   36  C27 UNL     1       4.145  55.117  89.635  1.00  0.00     0.037 C 
BRANCH  36  37
HETATM   37  C28 UNL     1       2.904  55.836  89.311  1.00  0.00    -0.020 C 
HETATM   38  C29 UNL     1       2.550  55.905  87.845  1.00  0.00     0.009 C 
HETATM   39  C30 UNL     1       1.762  55.195  90.074  1.00  0.00     0.009 C 
ENDBRANCH  36  37
ENDBRANCH  21  36
BRANCH  20  40
HETATM   40  O5  UNL     1       6.398  56.278  88.327  1.00  0.00    -0.348 OA
ATOM     41  H5  UNL     1       5.570  56.684  88.098  1.00  0.00     0.219 HD
ENDBRANCH  20  40
BRANCH  17  42
HETATM   42  C24 UNL     1       8.647  53.336  88.709  1.00  0.00     0.277 C 
HETATM   43  N2  UNL     1       8.461  51.955  88.407  1.00  0.00    -0.056 NA
HETATM   44  O4  UNL     1       9.136  54.040  87.748  1.00  0.00    -0.270 OA
ENDBRANCH  17  42
BRANCH  13  45
HETATM   45  C19 UNL     1      13.660  54.800  91.291  1.00  0.00     0.182 C 
BRANCH  45  46
HETATM   46  O3  UNL     1      13.388  55.951  90.551  1.00  0.00    -0.395 OA
HETATM   47  C20 UNL     1      13.765  55.677  89.225  1.00  0.00     0.201 C 
ENDBRANCH  45  46
ENDBRANCH  13  45
TORSDOF 11
ENDMDL
MODEL 4
REMARK VINA RESULT: -5.344645761      9.808     13.541
REMARK  11 active torsions:
REMARK  status: ('A' for Active; 'I' for Inactive)
REMARK    1  A    between atoms: C2_2  and  C3_3 
REMARK    2  A    between atoms: C3_3  and  C5_5 
REMARK    3  A    between atoms: C6_8  and  O1_9 
REMARK    4  A    between atoms: C7_11  and  C8_12 
REMARK    5  A    between atoms: C8_12  and  C9_13 
REMARK    6  A    between atoms: C18_23  and  C19_24 
REMARK    7  A    between atoms: C19_24  and  O3_25 
REMARK    8  A    between atoms: C23_30  and  C24_31 
REMARK    9  A    between atoms: C25_36  and  O5_37 
REMARK   10  A    between atoms: C26_39  and  C27_40 
REMARK   11  A    between atoms: C27_40  and  C28_41 
ROOT
HETATM    1  C5  UNL     1      12.829  51.090  81.061  1.00  0.00     0.083 C 
HETATM    2  N1  UNL     1      12.907  50.664  79.709  1.00  0.00    -0.337 N 
ATOM      3  H1  UNL     1      13.157  51.440  79.097  1.00  0.00     0.167 HD
HETATM    4  C6  UNL     1      12.742  49.498  78.986  1.00  0.00     0.149 C 
HETATM    5  C7  UNL     1      11.594  48.676  78.549  1.00  0.00     0.218 C 
HETATM    6  O2  UNL     1      10.975  49.246  77.483  1.00  0.00    -0.374 OA
HETATM    7  C12 UNL     1       9.866  48.612  76.987  1.00  0.00     0.169 C 
HETATM    8  C13 UNL     1       8.907  48.042  77.979  1.00  0.00     0.026 C 
HETATM    9  C14 UNL     1       8.126  46.885  77.313  1.00  0.00     0.002 C 
HETATM   10  C15 UNL     1       7.087  47.410  76.392  1.00  0.00     0.000 C 
HETATM   11  C16 UNL     1       5.775  47.430  77.174  1.00  0.00     0.001 C 
HETATM   12  C17 UNL     1       4.947  48.570  76.644  1.00  0.00     0.017 C 
HETATM   13  C18 UNL     1       4.997  49.706  77.626  1.00  0.00     0.071 C 
HETATM   14  S1  UNL     1       4.668  49.133  79.311  1.00  0.00    -0.162 SA
HETATM   15  C21 UNL     1       5.060  50.565  80.394  1.00  0.00     0.080 C 
HETATM   16  C22 UNL     1       6.357  50.305  81.100  1.00  0.00     0.073 C 
HETATM   17  C23 UNL     1       6.795  51.362  82.011  1.00  0.00     0.077 C 
HETATM   18  N3  UNL     1       7.911  52.199  81.620  1.00  0.00    -0.338 N 
ATOM     19  H3  UNL     1       7.923  52.398  80.619  1.00  0.00     0.167 HD
HETATM   20  C25 UNL     1       8.956  52.785  82.291  1.00  0.00     0.139 C 
HETATM   21  C26 UNL     1      10.226  52.220  82.841  1.00  0.00     0.160 C 
HETATM   22  N4  UNL     1      10.575  50.932  82.304  1.00  0.00    -0.344 N 
ATOM     23  H4  UNL     1       9.811  50.278  82.133  1.00  0.00     0.163 HD
HETATM   24  C31 UNL     1      11.905  50.484  81.988  1.00  0.00     0.265 C 
HETATM   25  O6  UNL     1      12.303  49.437  82.614  1.00  0.00    -0.266 OA
ENDROOT
BRANCH   1  26
HETATM   26  C3  UNL     1      14.239  51.313  81.611  1.00  0.00     0.037 C 
HETATM   27  C4  UNL     1      15.114  51.911  80.513  1.00  0.00     0.016 C 
BRANCH  26  28
HETATM   28  C2  UNL     1      14.292  52.320  82.722  1.00  0.00     0.006 C 
HETATM   29  C1  UNL     1      15.656  52.978  82.714  1.00  0.00     0.006 C 
ENDBRANCH  26  28
ENDBRANCH   1  26
BRANCH   4  30
HETATM   30  O1  UNL     1      13.866  48.950  78.534  1.00  0.00    -0.347 OA
ATOM     31  H1  UNL     1      14.259  49.391  77.791  1.00  0.00     0.219 HD
ENDBRANCH   4  30
BRANCH   5  32
HETATM   32  C8  UNL     1      11.982  47.268  78.268  1.00  0.00     0.015 C 
BRANCH  32  33
HETATM   33  C9  UNL     1      11.862  46.182  79.220  1.00  0.00    -0.088 C 
HETATM   34  C10 UNL     1      11.779  46.306  80.666  1.00  0.00     0.042 C 
HETATM   35  C11 UNL     1      11.078  44.967  78.722  1.00  0.00     0.042 C 
ENDBRANCH  32  33
ENDBRANCH   5  32
BRANCH  21  36
HETATM   36  C27 UNL     1      10.365  52.364  84.311  1.00  0.00     0.037 C 
BRANCH  36  37
HETATM   37  C28 UNL     1      11.680  52.141  84.931  1.00  0.00    -0.020 C 
HETATM   38  C29 UNL     1      12.320  53.353  85.564  1.00  0.00     0.009 C 
HETATM   39  C30 UNL     1      11.545  51.044  85.968  1.00  0.00     0.009 C 
ENDBRANCH  36  37
ENDBRANCH  21  36
BRANCH  20  40
HETATM   40  O5  UNL     1       8.922  54.078  82.547  1.00  0.00    -0.348 OA
ATOM     41  H5  UNL     1       9.619  54.638  82.227  1.00  0.00     0.219 HD
ENDBRANCH  20  40
BRANCH  17  42
HETATM   42  C24 UNL     1       5.732  52.161  82.643  1.00  0.00     0.277 C 
HETATM   43  N2  UNL     1       4.954  51.676  83.734  1.00  0.00    -0.056 NA
HETATM   44  O4  UNL     1       5.424  53.345  82.242  1.00  0.00    -0.270 OA
ENDBRANCH  17  42
BRANCH  13  45
HETATM   45  C19 UNL     1       3.931  50.740  77.287  1.00  0.00     0.182 C 
BRANCH  45  46
HETATM   46  O3  UNL     1       4.453  51.714  76.435  1.00  0.00    -0.395 OA
HETATM   47  C20 UNL     1       5.570  52.265  77.086  1.00  0.00     0.201 C 
ENDBRANCH  45  46
ENDBRANCH  13  45
TORSDOF 11
ENDMDL
MODEL 5
REMARK VINA RESULT: -5.324575973      1.153      1.299
REMARK  11 active torsions:
REMARK  status: ('A' for Active; 'I' for Inactive)
REMARK    1  A    between atoms: C2_2  and  C3_3 
REMARK    2  A    between atoms: C3_3  and  C5_5 
REMARK    3  A    between atoms: C6_8  and  O1_9 
REMARK    4  A    between atoms: C7_11  and  C8_12 
REMARK    5  A    between atoms: C8_12  and  C9_13 
REMARK    6  A    between atoms: C18_23  and  C19_24 
REMARK    7  A    between atoms: C19_24  and  O3_25 
REMARK    8  A    between atoms: C23_30  and  C24_31 
REMARK    9  A    between atoms: C25_36  and  O5_37 
REMARK   10  A    between atoms: C26_39  and  C27_40 
REMARK   11  A    between atoms: C27_40  and  C28_41 
ROOT
HETATM    1  C5  UNL     1      11.423  54.424  90.678  1.00  0.00     0.083 C 
HETATM    2  N1  UNL     1      10.680  54.946  89.587  1.00  0.00    -0.337 N 
ATOM      3  H1  UNL     1      11.052  55.849  89.293  1.00  0.00     0.167 HD
HETATM    4  C6  UNL     1       9.597  54.582  88.811  1.00  0.00     0.149 C 
HETATM    5  C7  UNL     1       8.132  54.518  88.998  1.00  0.00     0.218 C 
HETATM    6  O2  UNL     1       7.584  55.759  88.911  1.00  0.00    -0.374 OA
HETATM    7  C12 UNL     1       6.231  55.863  89.100  1.00  0.00     0.169 C 
HETATM    8  C13 UNL     1       5.630  55.038  90.190  1.00  0.00     0.026 C 
HETATM    9  C14 UNL     1       4.139  54.787  89.863  1.00  0.00     0.002 C 
HETATM   10  C15 UNL     1       3.327  56.000  90.136  1.00  0.00     0.000 C 
HETATM   11  C16 UNL     1       2.729  55.825  91.530  1.00  0.00     0.001 C 
HETATM   12  C17 UNL     1       2.581  57.195  92.136  1.00  0.00     0.017 C 
HETATM   13  C18 UNL     1       3.671  57.400  93.149  1.00  0.00     0.071 C 
HETATM   14  S1  UNL     1       3.799  55.987  94.273  1.00  0.00    -0.162 SA
HETATM   15  C21 UNL     1       5.343  56.267  95.230  1.00  0.00     0.080 C 
HETATM   16  C22 UNL     1       6.401  55.327  94.737  1.00  0.00     0.073 C 
HETATM   17  C23 UNL     1       7.692  55.428  95.417  1.00  0.00     0.077 C 
HETATM   18  N3  UNL     1       8.804  56.034  94.713  1.00  0.00    -0.338 N 
ATOM     19  H3  UNL     1       8.518  56.811  94.118  1.00  0.00     0.167 HD
HETATM   20  C25 UNL     1      10.156  55.798  94.665  1.00  0.00     0.139 C 
HETATM   21  C26 UNL     1      10.956  54.737  93.980  1.00  0.00     0.160 C 
HETATM   22  N4  UNL     1      10.244  54.045  92.941  1.00  0.00    -0.344 N 
ATOM     23  H4  UNL     1       9.256  53.848  93.106  1.00  0.00     0.163 HD
HETATM   24  C31 UNL     1      10.800  53.605  91.689  1.00  0.00     0.265 C 
HETATM   25  O6  UNL     1      10.736  52.343  91.465  1.00  0.00    -0.266 OA
ENDROOT
BRANCH   1  26
HETATM   26  C3  UNL     1      12.775  53.912  90.179  1.00  0.00     0.037 C 
HETATM   27  C4  UNL     1      12.927  54.263  88.702  1.00  0.00     0.016 C 
BRANCH  26  28
HETATM   28  C2  UNL     1      13.945  54.575  90.844  1.00  0.00     0.006 C 
HETATM   29  C1  UNL     1      14.737  55.326  89.794  1.00  0.00     0.006 C 
ENDBRANCH  26  28
ENDBRANCH   1  26
BRANCH   4  30
HETATM   30  O1  UNL     1       9.893  54.201  87.572  1.00  0.00    -0.347 OA
ATOM     31  H1  UNL     1      10.799  53.952  87.432  1.00  0.00     0.219 HD
ENDBRANCH   4  30
BRANCH   5  32
HETATM   32  C8  UNL     1       7.483  53.567  88.057  1.00  0.00     0.015 C 
BRANCH  32  33
HETATM   33  C9  UNL     1       7.105  52.211  88.399  1.00  0.00    -0.088 C 
HETATM   34  C10 UNL     1       7.590  51.438  89.532  1.00  0.00     0.042 C 
HETATM   35  C11 UNL     1       5.668  51.827  88.043  1.00  0.00     0.042 C 
ENDBRANCH  32  33
ENDBRANCH   5  32
BRANCH  21  36
HETATM   36  C27 UNL     1      11.740  53.880  94.905  1.00  0.00     0.037 C 
BRANCH  36  37
HETATM   37  C28 UNL     1      13.181  53.705  94.669  1.00  0.00    -0.020 C 
HETATM   38  C29 UNL     1      13.576  52.451  93.928  1.00  0.00     0.009 C 
HETATM   39  C30 UNL     1      13.699  54.916  93.919  1.00  0.00     0.009 C 
ENDBRANCH  36  37
ENDBRANCH  21  36
BRANCH  20  40
HETATM   40  O5  UNL     1      10.980  56.598  95.312  1.00  0.00    -0.348 OA
ATOM     41  H5  UNL     1      11.252  56.378  96.195  1.00  0.00     0.219 HD
ENDBRANCH  20  40
BRANCH  17  42
HETATM   42  C24 UNL     1       7.657  55.866  96.823  1.00  0.00     0.277 C 
HETATM   43  N2  UNL     1       8.204  57.109  97.252  1.00  0.00    -0.056 NA
HETATM   44  O4  UNL     1       7.144  55.147  97.760  1.00  0.00    -0.270 OA
ENDBRANCH  17  42
BRANCH  13  45
HETATM   45  C19 UNL     1       3.372  58.626  94.002  1.00  0.00     0.182 C 
BRANCH  45  46
HETATM   46  O3  UNL     1       4.037  59.744  93.496  1.00  0.00    -0.395 OA
HETATM   47  C20 UNL     1       5.411  59.451  93.541  1.00  0.00     0.201 C 
ENDBRANCH  45  46
ENDBRANCH  13  45
TORSDOF 11
ENDMDL
