MODEL 1
REMARK VINA RESULT: -6.967271398      0.000      0.000
REMARK  12 active torsions:
REMARK  status: ('A' for Active; 'I' for Inactive)
REMARK    1  A    between atoms: C2_2  and  C3_3 
REMARK    2  A    between atoms: C3_3  and  C5_5 
REMARK    3  A    between atoms: C5_5  and  C6_6 
REMARK    4  A    between atoms: C6_6  and  O1_7 
REMARK    5  A    between atoms: C6_6  and  C7_9 
REMARK    6  A    between atoms: C7_9  and  C8_10 
REMARK    7  A    between atoms: C7_9  and  N3_21 
REMARK    8  A    between atoms: C8_10  and  N1_11 
REMARK       I    between atoms: N1_11  and  C9_12 
REMARK    9  A    between atoms: C9_12  and  C10_14 
REMARK   10  A    between atoms: C10_14  and  N2_15 
REMARK       I    between atoms: N3_21  and  C15_23 
REMARK   11  A    between atoms: C15_23  and  C16_25 
REMARK   12  A    between atoms: C16_25  and  N4_26 
REMARK       I    between atoms: N4_26  and  C17_28 
REMARK       I    between atoms: C17_28  and  N5_30 
ROOT
HETATM    1  N3  UNL     1      10.903  52.120  85.456  1.00  0.00    -0.346 N 
ATOM      2  H3  UNL     1      11.409  51.239  85.546  1.00  0.00     0.163 HD
HETATM    3  C15 UNL     1      10.005  52.472  86.474  1.00  0.00     0.248 C 
HETATM    4  O4  UNL     1       9.399  53.602  86.278  1.00  0.00    -0.271 OA
ENDROOT
BRANCH   3   5
HETATM    5  C16 UNL     1       9.662  51.749  87.692  1.00  0.00     0.132 C 
HETATM    6  C28 UNL     1      10.170  50.327  87.597  1.00  0.00     0.053 C 
HETATM    7  C29 UNL     1       9.855  49.639  88.890  1.00  0.00     0.077 C 
HETATM    8  S1  UNL     1       8.411  50.557  89.531  1.00  0.00    -0.157 SA
HETATM    9  C30 UNL     1       8.196  51.631  88.016  1.00  0.00     0.035 C 
HETATM   10  C31 UNL     1       7.356  50.827  87.111  1.00  0.00     0.030 C 
HETATM   11  C32 UNL     1       7.595  52.903  88.476  1.00  0.00     0.030 C 
BRANCH   5  12
HETATM   12  N4  UNL     1      10.300  52.413  88.826  1.00  0.00    -0.323 N 
HETATM   13  C17 UNL     1      11.474  53.123  88.896  1.00  0.00     0.319 C 
HETATM   14  O5  UNL     1      12.256  53.335  87.956  1.00  0.00    -0.247 OA
HETATM   15  N5  UNL     1      11.849  53.686  90.184  1.00  0.00    -0.334 N 
HETATM   16  C18 UNL     1      13.079  54.399  90.317  1.00  0.00     0.128 C 
HETATM   17  C27 UNL     1      10.962  53.533  91.323  1.00  0.00     0.128 C 
HETATM   18  C19 UNL     1      13.828  54.036  91.582  1.00  0.00     0.029 C 
HETATM   19  C20 UNL     1      12.921  53.820  92.745  1.00  0.00    -0.037 C 
HETATM   20  C21 UNL     1      12.815  52.344  93.040  1.00  0.00     0.010 C 
HETATM   21  C25 UNL     1      13.420  54.557  93.942  1.00  0.00     0.010 C 
HETATM   22  C26 UNL     1      11.523  54.352  92.457  1.00  0.00     0.029 C 
HETATM   23  C22 UNL     1      13.897  51.869  93.995  1.00  0.00     0.001 C 
HETATM   24  C23 UNL     1      13.778  52.574  95.332  1.00  0.00     0.000 C 
HETATM   25  C24 UNL     1      12.945  53.840  95.169  1.00  0.00     0.001 C 
ATOM     26  H4  UNL     1       9.793  52.337  89.708  1.00  0.00     0.165 HD
ENDBRANCH   5  12
ENDBRANCH   3   5
BRANCH   1  27
HETATM   27  C7  UNL     1      11.158  52.953  84.256  1.00  0.00     0.165 C 
BRANCH  27  28
HETATM   28  C6  UNL     1      12.536  53.453  84.247  1.00  0.00     0.147 C 
BRANCH  28  29
HETATM   29  C5  UNL     1      13.523  52.395  83.867  1.00  0.00     0.038 C 
BRANCH  29  30
HETATM   30  C3  UNL     1      14.453  52.738  82.763  1.00  0.00    -0.016 C 
HETATM   31  C4  UNL     1      15.698  53.473  83.184  1.00  0.00     0.010 C 
BRANCH  30  32
HETATM   32  C2  UNL     1      14.720  51.593  81.837  1.00  0.00    -0.000 C 
HETATM   33  C1  UNL     1      15.708  52.000  80.730  1.00  0.00     0.005 C 
ENDBRANCH  30  32
ENDBRANCH  29  30
ENDBRANCH  28  29
BRANCH  28  34
HETATM   34  O1  UNL     1      12.961  54.238  85.288  1.00  0.00    -0.393 OA
ATOM     35  H1  UNL     1      12.703  55.148  85.200  1.00  0.00     0.210 HD
ENDBRANCH  28  34
ENDBRANCH  27  28
BRANCH  27  36
HETATM   36  C8  UNL     1      10.619  52.226  83.063  1.00  0.00     0.186 C 
BRANCH  36  37
HETATM   37  N1  UNL     1      10.810  50.886  82.924  1.00  0.00    -0.384 NA
HETATM   38  C9  UNL     1      11.001  49.537  82.786  1.00  0.00     0.319 C 
HETATM   39  O2  UNL     1      10.654  48.637  83.585  1.00  0.00    -0.255 OA
BRANCH  38  40
HETATM   40  C10 UNL     1      11.701  48.964  81.574  1.00  0.00     0.391 C 
BRANCH  40  41
HETATM   41  N2  UNL     1      11.500  49.719  80.377  1.00  0.00     0.102 N 
HETATM   42  C11 UNL     1      10.360  49.265  79.602  1.00  0.00     0.299 C 
HETATM   43  C12 UNL     1      10.702  49.439  78.132  1.00  0.00     0.198 C 
HETATM   44  O3  UNL     1      11.663  48.515  77.700  1.00  0.00    -0.388 OA
HETATM   45  C13 UNL     1      12.703  48.440  78.636  1.00  0.00     0.198 C 
HETATM   46  C14 UNL     1      12.712  49.646  79.554  1.00  0.00     0.299 C 
ENDBRANCH  40  41
ENDBRANCH  38  40
ENDBRANCH  36  37
ENDBRANCH  27  36
ENDBRANCH   1  27
TORSDOF 12
ENDMDL
MODEL 2
REMARK VINA RESULT: -6.961171199      1.772      2.126
REMARK  12 active torsions:
REMARK  status: ('A' for Active; 'I' for Inactive)
REMARK    1  A    between atoms: C2_2  and  C3_3 
REMARK    2  A    between atoms: C3_3  and  C5_5 
REMARK    3  A    between atoms: C5_5  and  C6_6 
REMARK    4  A    between atoms: C6_6  and  O1_7 
REMARK    5  A    between atoms: C6_6  and  C7_9 
REMARK    6  A    between atoms: C7_9  and  C8_10 
REMARK    7  A    between atoms: C7_9  and  N3_21 
REMARK    8  A    between atoms: C8_10  and  N1_11 
REMARK       I    between atoms: N1_11  and  C9_12 
REMARK    9  A    between atoms: C9_12  and  C10_14 
REMARK   10  A    between atoms: C10_14  and  N2_15 
REMARK       I    between atoms: N3_21  and  C15_23 
REMARK   11  A    between atoms: C15_23  and  C16_25 
REMARK   12  A    between atoms: C16_25  and  N4_26 
REMARK       I    between atoms: N4_26  and  C17_28 
REMARK       I    between atoms: C17_28  and  N5_30 
ROOT
HETATM    1  N3  UNL     1      11.403  51.984  85.102  1.00  0.00    -0.346 N 
ATOM      2  H3  UNL     1      11.924  51.120  85.251  1.00  0.00     0.163 HD
HETATM    3  C15 UNL     1      10.437  52.345  86.052  1.00  0.00     0.248 C 
HETATM    4  O4  UNL     1       9.819  53.453  85.783  1.00  0.00    -0.271 OA
ENDROOT
BRANCH   3   5
HETATM    5  C16 UNL     1      10.037  51.652  87.270  1.00  0.00     0.132 C 
HETATM    6  C28 UNL     1      10.591  50.244  87.257  1.00  0.00     0.053 C 
HETATM    7  C29 UNL     1      10.213  49.589  88.549  1.00  0.00     0.077 C 
HETATM    8  S1  UNL     1       8.704  50.481  89.064  1.00  0.00    -0.157 SA
HETATM    9  C30 UNL     1       8.557  51.499  87.503  1.00  0.00     0.035 C 
HETATM   10  C31 UNL     1       7.802  50.639  86.574  1.00  0.00     0.030 C 
HETATM   11  C32 UNL     1       7.891  52.765  87.879  1.00  0.00     0.030 C 
BRANCH   5  12
HETATM   12  N4  UNL     1      10.580  52.372  88.419  1.00  0.00    -0.323 N 
HETATM   13  C17 UNL     1      11.721  53.129  88.536  1.00  0.00     0.319 C 
HETATM   14  O5  UNL     1      12.550  53.345  87.639  1.00  0.00    -0.247 OA
HETATM   15  N5  UNL     1      11.996  53.742  89.827  1.00  0.00    -0.334 N 
HETATM   16  C18 UNL     1      13.188  54.507  90.010  1.00  0.00     0.128 C 
HETATM   17  C27 UNL     1      11.048  53.587  90.915  1.00  0.00     0.128 C 
HETATM   18  C19 UNL     1      13.872  54.209  91.328  1.00  0.00     0.029 C 
HETATM   19  C20 UNL     1      12.905  53.990  92.442  1.00  0.00    -0.037 C 
HETATM   20  C21 UNL     1      12.836  52.520  92.775  1.00  0.00     0.010 C 
HETATM   21  C25 UNL     1      13.303  54.780  93.643  1.00  0.00     0.010 C 
HETATM   22  C26 UNL     1      11.508  54.460  92.055  1.00  0.00     0.029 C 
HETATM   23  C22 UNL     1      13.875  52.115  93.807  1.00  0.00     0.001 C 
HETATM   24  C23 UNL     1      13.650  52.852  95.112  1.00  0.00     0.000 C 
HETATM   25  C24 UNL     1      12.782  54.080  94.861  1.00  0.00     0.001 C 
ATOM     26  H4  UNL     1      10.024  52.302  89.271  1.00  0.00     0.165 HD
ENDBRANCH   5  12
ENDBRANCH   3   5
BRANCH   1  27
HETATM   27  C7  UNL     1      11.713  52.787  83.894  1.00  0.00     0.165 C 
BRANCH  27  28
HETATM   28  C6  UNL     1      13.137  53.132  83.843  1.00  0.00     0.147 C 
BRANCH  28  29
HETATM   29  C5  UNL     1      13.963  52.049  83.225  1.00  0.00     0.038 C 
BRANCH  29  30
HETATM   30  C3  UNL     1      14.921  52.479  82.176  1.00  0.00    -0.016 C 
HETATM   31  C4  UNL     1      16.294  52.840  82.676  1.00  0.00     0.010 C 
BRANCH  30  32
HETATM   32  C2  UNL     1      14.939  51.573  80.984  1.00  0.00    -0.000 C 
HETATM   33  C1  UNL     1      15.719  52.211  79.821  1.00  0.00     0.005 C 
ENDBRANCH  30  32
ENDBRANCH  29  30
ENDBRANCH  28  29
BRANCH  28  34
HETATM   34  O1  UNL     1      13.721  53.691  84.950  1.00  0.00    -0.393 OA
ATOM     35  H1  UNL     1      13.155  54.307  85.400  1.00  0.00     0.210 HD
ENDBRANCH  28  34
ENDBRANCH  27  28
BRANCH  27  36
HETATM   36  C8  UNL     1      11.061  52.125  82.718  1.00  0.00     0.186 C 
BRANCH  36  37
HETATM   37  N1  UNL     1       9.806  52.483  82.331  1.00  0.00    -0.384 NA
HETATM   38  C9  UNL     1       8.545  52.844  81.941  1.00  0.00     0.319 C 
HETATM   39  O2  UNL     1       7.859  53.794  82.383  1.00  0.00    -0.255 OA
BRANCH  38  40
HETATM   40  C10 UNL     1       7.804  52.074  80.870  1.00  0.00     0.391 C 
BRANCH  40  41
HETATM   41  N2  UNL     1       8.546  51.904  79.660  1.00  0.00     0.102 N 
HETATM   42  C11 UNL     1       7.803  52.295  78.477  1.00  0.00     0.299 C 
HETATM   43  C12 UNL     1       8.205  51.360  77.349  1.00  0.00     0.198 C 
HETATM   44  O3  UNL     1       7.697  50.067  77.529  1.00  0.00    -0.388 OA
HETATM   45  C13 UNL     1       7.897  49.658  78.853  1.00  0.00     0.198 C 
HETATM   46  C14 UNL     1       8.954  50.500  79.541  1.00  0.00     0.299 C 
ENDBRANCH  40  41
ENDBRANCH  38  40
ENDBRANCH  36  37
ENDBRANCH  27  36
ENDBRANCH   1  27
TORSDOF 12
ENDMDL
MODEL 3
REMARK VINA RESULT: -6.913931506      2.239      3.801
REMARK  12 active torsions:
REMARK  status: ('A' for Active; 'I' for Inactive)
REMARK    1  A    between atoms: C2_2  and  C3_3 
REMARK    2  A    between atoms: C3_3  and  C5_5 
REMARK    3  A    between atoms: C5_5  and  C6_6 
REMARK    4  A    between atoms: C6_6  and  O1_7 
REMARK    5  A    between atoms: C6_6  and  C7_9 
REMARK    6  A    between atoms: C7_9  and  C8_10 
REMARK    7  A    between atoms: C7_9  and  N3_21 
REMARK    8  A    between atoms: C8_10  and  N1_11 
REMARK       I    between atoms: N1_11  and  C9_12 
REMARK    9  A    between atoms: C9_12  and  C10_14 
REMARK   10  A    between atoms: C10_14  and  N2_15 
REMARK       I    between atoms: N3_21  and  C15_23 
REMARK   11  A    between atoms: C15_23  and  C16_25 
REMARK   12  A    between atoms: C16_25  and  N4_26 
REMARK       I    between atoms: N4_26  and  C17_28 
REMARK       I    between atoms: C17_28  and  N5_30 
ROOT
HETATM    1  N3  UNL     1      11.409  51.890  85.260  1.00  0.00    -0.346 N 
ATOM      2  H3  UNL     1      11.960  51.035  85.331  1.00  0.00     0.163 HD
HETATM    3  C15 UNL     1      10.503  52.179  86.291  1.00  0.00     0.248 C 
HETATM    4  O4  UNL     1       9.840  53.281  86.119  1.00  0.00    -0.271 OA
ENDROOT
BRANCH   3   5
HETATM    5  C16 UNL     1      10.207  51.420  87.499  1.00  0.00     0.132 C 
HETATM    6  C28 UNL     1      10.891  50.072  87.430  1.00  0.00     0.053 C 
HETATM    7  C29 UNL     1      10.616  49.350  88.713  1.00  0.00     0.077 C 
HETATM    8  S1  UNL     1       9.045  50.081  89.295  1.00  0.00    -0.157 SA
HETATM    9  C30 UNL     1       8.756  51.120  87.769  1.00  0.00     0.035 C 
HETATM   10  C31 UNL     1       8.058  50.217  86.836  1.00  0.00     0.030 C 
HETATM   11  C32 UNL     1       7.985  52.307  88.199  1.00  0.00     0.030 C 
BRANCH   5  12
HETATM   12  N4  UNL     1      10.714  52.158  88.653  1.00  0.00    -0.323 N 
HETATM   13  C17 UNL     1      11.830  52.948  88.783  1.00  0.00     0.319 C 
HETATM   14  O5  UNL     1      12.664  53.187  87.896  1.00  0.00    -0.247 OA
HETATM   15  N5  UNL     1      12.070  53.573  90.076  1.00  0.00    -0.334 N 
HETATM   16  C18 UNL     1      13.237  54.373  90.272  1.00  0.00     0.128 C 
HETATM   17  C27 UNL     1      11.114  53.393  91.151  1.00  0.00     0.128 C 
HETATM   18  C19 UNL     1      13.913  54.098  91.599  1.00  0.00     0.029 C 
HETATM   19  C20 UNL     1      12.938  53.854  92.700  1.00  0.00    -0.037 C 
HETATM   20  C21 UNL     1      12.909  52.383  93.037  1.00  0.00     0.010 C 
HETATM   21  C25 UNL     1      13.297  54.658  93.905  1.00  0.00     0.010 C 
HETATM   22  C26 UNL     1      11.533  54.281  92.295  1.00  0.00     0.029 C 
HETATM   23  C22 UNL     1      13.946  52.011  94.083  1.00  0.00     0.001 C 
HETATM   24  C23 UNL     1      13.682  52.745  95.383  1.00  0.00     0.000 C 
HETATM   25  C24 UNL     1      12.781  53.946  95.118  1.00  0.00     0.001 C 
ATOM     26  H4  UNL     1      10.149  52.074  89.498  1.00  0.00     0.165 HD
ENDBRANCH   5  12
ENDBRANCH   3   5
BRANCH   1  27
HETATM   27  C7  UNL     1      11.612  52.756  84.074  1.00  0.00     0.165 C 
BRANCH  27  28
HETATM   28  C6  UNL     1      13.033  53.061  83.883  1.00  0.00     0.147 C 
BRANCH  28  29
HETATM   29  C5  UNL     1      13.786  51.915  83.283  1.00  0.00     0.038 C 
BRANCH  29  30
HETATM   30  C3  UNL     1      14.558  52.216  82.052  1.00  0.00    -0.016 C 
HETATM   31  C4  UNL     1      16.032  52.433  82.262  1.00  0.00     0.010 C 
BRANCH  30  32
HETATM   32  C2  UNL     1      14.246  51.292  80.917  1.00  0.00    -0.000 C 
HETATM   33  C1  UNL     1      15.297  51.418  79.800  1.00  0.00     0.005 C 
ENDBRANCH  30  32
ENDBRANCH  29  30
ENDBRANCH  28  29
BRANCH  28  34
HETATM   34  O1  UNL     1      13.717  53.684  84.895  1.00  0.00    -0.393 OA
ATOM     35  H1  UNL     1      13.147  54.053  85.559  1.00  0.00     0.210 HD
ENDBRANCH  28  34
ENDBRANCH  27  28
BRANCH  27  36
HETATM   36  C8  UNL     1      10.811  52.188  82.942  1.00  0.00     0.186 C 
BRANCH  36  37
HETATM   37  N1  UNL     1       9.546  52.627  82.701  1.00  0.00    -0.384 NA
HETATM   38  C9  UNL     1       8.274  53.071  82.457  1.00  0.00     0.319 C 
HETATM   39  O2  UNL     1       7.933  54.202  82.042  1.00  0.00    -0.255 OA
BRANCH  38  40
HETATM   40  C10 UNL     1       7.075  52.177  82.685  1.00  0.00     0.391 C 
BRANCH  40  41
HETATM   41  N2  UNL     1       6.048  52.775  83.479  1.00  0.00     0.102 N 
HETATM   42  C11 UNL     1       6.428  52.943  84.869  1.00  0.00     0.299 C 
HETATM   43  C12 UNL     1       5.185  52.730  85.717  1.00  0.00     0.198 C 
HETATM   44  O3  UNL     1       4.786  51.387  85.742  1.00  0.00    -0.388 OA
HETATM   45  C13 UNL     1       4.824  50.857  84.446  1.00  0.00     0.198 C 
HETATM   46  C14 UNL     1       4.837  51.952  83.398  1.00  0.00     0.299 C 
ENDBRANCH  40  41
ENDBRANCH  38  40
ENDBRANCH  36  37
ENDBRANCH  27  36
ENDBRANCH   1  27
TORSDOF 12
ENDMDL
MODEL 4
REMARK VINA RESULT: -6.875548551      1.647      2.637
REMARK  12 active torsions:
REMARK  status: ('A' for Active; 'I' for Inactive)
REMARK    1  A    between atoms: C2_2  and  C3_3 
REMARK    2  A    between atoms: C3_3  and  C5_5 
REMARK    3  A    between atoms: C5_5  and  C6_6 
REMARK    4  A    between atoms: C6_6  and  O1_7 
REMARK    5  A    between atoms: C6_6  and  C7_9 
REMARK    6  A    between atoms: C7_9  and  C8_10 
REMARK    7  A    between atoms: C7_9  and  N3_21 
REMARK    8  A    between atoms: C8_10  and  N1_11 
REMARK       I    between atoms: N1_11  and  C9_12 
REMARK    9  A    between atoms: C9_12  and  C10_14 
REMARK   10  A    between atoms: C10_14  and  N2_15 
REMARK       I    between atoms: N3_21  and  C15_23 
REMARK   11  A    between atoms: C15_23  and  C16_25 
REMARK   12  A    between atoms: C16_25  and  N4_26 
REMARK       I    between atoms: N4_26  and  C17_28 
REMARK       I    between atoms: C17_28  and  N5_30 
ROOT
HETATM    1  N3  UNL     1      10.836  52.168  85.532  1.00  0.00    -0.346 N 
ATOM      2  H3  UNL     1      11.343  51.289  85.630  1.00  0.00     0.163 HD
HETATM    3  C15 UNL     1       9.930  52.525  86.541  1.00  0.00     0.248 C 
HETATM    4  O4  UNL     1       9.325  53.653  86.335  1.00  0.00    -0.271 OA
ENDROOT
BRANCH   3   5
HETATM    5  C16 UNL     1       9.579  51.808  87.761  1.00  0.00     0.132 C 
HETATM    6  C28 UNL     1      10.061  50.377  87.664  1.00  0.00     0.053 C 
HETATM    7  C29 UNL     1       9.738  49.695  88.957  1.00  0.00     0.077 C 
HETATM    8  S1  UNL     1       8.314  50.638  89.604  1.00  0.00    -0.157 SA
HETATM    9  C30 UNL     1       8.112  51.717  88.091  1.00  0.00     0.035 C 
HETATM   10  C31 UNL     1       7.254  50.928  87.189  1.00  0.00     0.030 C 
HETATM   11  C32 UNL     1       7.538  52.999  88.553  1.00  0.00     0.030 C 
BRANCH   5  12
HETATM   12  N4  UNL     1      10.234  52.460  88.892  1.00  0.00    -0.323 N 
HETATM   13  C17 UNL     1      11.420  53.151  88.956  1.00  0.00     0.319 C 
HETATM   14  O5  UNL     1      12.200  53.352  88.013  1.00  0.00    -0.247 OA
HETATM   15  N5  UNL     1      11.811  53.706  90.244  1.00  0.00    -0.334 N 
HETATM   16  C18 UNL     1      13.053  54.400  90.370  1.00  0.00     0.128 C 
HETATM   17  C27 UNL     1      10.928  53.565  91.387  1.00  0.00     0.128 C 
HETATM   18  C19 UNL     1      13.803  54.022  91.630  1.00  0.00     0.029 C 
HETATM   19  C20 UNL     1      12.899  53.819  92.798  1.00  0.00    -0.037 C 
HETATM   20  C21 UNL     1      12.772  52.344  93.092  1.00  0.00     0.010 C 
HETATM   21  C25 UNL     1      13.416  54.546  93.993  1.00  0.00     0.010 C 
HETATM   22  C26 UNL     1      11.508  54.374  92.519  1.00  0.00     0.029 C 
HETATM   23  C22 UNL     1      13.851  51.851  94.040  1.00  0.00     0.001 C 
HETATM   24  C23 UNL     1      13.751  52.555  95.379  1.00  0.00     0.000 C 
HETATM   25  C24 UNL     1      12.938  53.835  95.222  1.00  0.00     0.001 C 
ATOM     26  H4  UNL     1       9.731  52.391  89.777  1.00  0.00     0.165 HD
ENDBRANCH   5  12
ENDBRANCH   3   5
BRANCH   1  27
HETATM   27  C7  UNL     1      11.099  52.995  84.329  1.00  0.00     0.165 C 
BRANCH  27  28
HETATM   28  C6  UNL     1      12.504  53.410  84.274  1.00  0.00     0.147 C 
BRANCH  28  29
HETATM   29  C5  UNL     1      13.406  52.307  83.821  1.00  0.00     0.038 C 
BRANCH  29  30
HETATM   30  C3  UNL     1      14.336  52.638  82.713  1.00  0.00    -0.016 C 
HETATM   31  C4  UNL     1      15.605  53.331  83.132  1.00  0.00     0.010 C 
BRANCH  30  32
HETATM   32  C2  UNL     1      14.561  51.499  81.769  1.00  0.00    -0.000 C 
HETATM   33  C1  UNL     1      15.581  51.880  80.682  1.00  0.00     0.005 C 
ENDBRANCH  30  32
ENDBRANCH  29  30
ENDBRANCH  28  29
BRANCH  28  34
HETATM   34  O1  UNL     1      13.020  54.135  85.318  1.00  0.00    -0.393 OA
ATOM     35  H1  UNL     1      12.420  54.215  86.050  1.00  0.00     0.210 HD
ENDBRANCH  28  34
ENDBRANCH  27  28
BRANCH  27  36
HETATM   36  C8  UNL     1      10.474  52.314  83.151  1.00  0.00     0.186 C 
BRANCH  36  37
HETATM   37  N1  UNL     1      10.320  50.961  83.135  1.00  0.00    -0.384 NA
HETATM   38  C9  UNL     1      10.165  49.601  83.118  1.00  0.00     0.319 C 
HETATM   39  O2  UNL     1       9.676  48.907  82.197  1.00  0.00    -0.255 OA
BRANCH  38  40
HETATM   40  C10 UNL     1      10.594  48.748  84.290  1.00  0.00     0.391 C 
BRANCH  40  41
HETATM   41  N2  UNL     1      11.913  48.211  84.165  1.00  0.00     0.102 N 
HETATM   42  C11 UNL     1      11.963  46.775  84.364  1.00  0.00     0.299 C 
HETATM   43  C12 UNL     1      13.279  46.450  85.053  1.00  0.00     0.198 C 
HETATM   44  O3  UNL     1      13.294  46.873  86.388  1.00  0.00    -0.388 OA
HETATM   45  C13 UNL     1      12.783  48.174  86.479  1.00  0.00     0.198 C 
HETATM   46  C14 UNL     1      12.794  48.871  85.133  1.00  0.00     0.299 C 
ENDBRANCH  40  41
ENDBRANCH  38  40
ENDBRANCH  36  37
ENDBRANCH  27  36
ENDBRANCH   1  27
TORSDOF 12
ENDMDL
MODEL 5
REMARK VINA RESULT: -6.866207734      2.724      3.274
REMARK  12 active torsions:
REMARK  status: ('A' for Active; 'I' for Inactive)
REMARK    1  A    between atoms: C2_2  and  C3_3 
REMARK    2  A    between atoms: C3_3  and  C5_5 
REMARK    3  A    between atoms: C5_5  and  C6_6 
REMARK    4  A    between atoms: C6_6  and  O1_7 
REMARK    5  A    between atoms: C6_6  and  C7_9 
REMARK    6  A    between atoms: C7_9  and  C8_10 
REMARK    7  A    between atoms: C7_9  and  N3_21 
REMARK    8  A    between atoms: C8_10  and  N1_11 
REMARK       I    between atoms: N1_11  and  C9_12 
REMARK    9  A    between atoms: C9_12  and  C10_14 
REMARK   10  A    between atoms: C10_14  and  N2_15 
REMARK       I    between atoms: N3_21  and  C15_23 
REMARK   11  A    between atoms: C15_23  and  C16_25 
REMARK   12  A    between atoms: C16_25  and  N4_26 
REMARK       I    between atoms: N4_26  and  C17_28 
REMARK       I    between atoms: C17_28  and  N5_30 
ROOT
HETATM    1  N3  UNL     1      11.286  52.036  85.176  1.00  0.00    -0.346 N 
ATOM      2  H3  UNL     1      11.793  51.159  85.297  1.00  0.00     0.163 HD
HETATM    3  C15 UNL     1      10.346  52.395  86.151  1.00  0.00     0.248 C 
HETATM    4  O4  UNL     1       9.743  53.520  85.916  1.00  0.00    -0.271 OA
ENDROOT
BRANCH   3   5
HETATM    5  C16 UNL     1       9.955  51.686  87.363  1.00  0.00     0.132 C 
HETATM    6  C28 UNL     1      10.498  50.274  87.319  1.00  0.00     0.053 C 
HETATM    7  C29 UNL     1      10.131  49.601  88.606  1.00  0.00     0.077 C 
HETATM    8  S1  UNL     1       8.636  50.497  89.156  1.00  0.00    -0.157 SA
HETATM    9  C30 UNL     1       8.477  51.541  87.614  1.00  0.00     0.035 C 
HETATM   10  C31 UNL     1       7.703  50.703  86.681  1.00  0.00     0.030 C 
HETATM   11  C32 UNL     1       7.827  52.807  88.019  1.00  0.00     0.030 C 
BRANCH   5  12
HETATM   12  N4  UNL     1      10.520  52.383  88.516  1.00  0.00    -0.323 N 
HETATM   13  C17 UNL     1      11.668  53.128  88.630  1.00  0.00     0.319 C 
HETATM   14  O5  UNL     1      12.486  53.353  87.725  1.00  0.00    -0.247 OA
HETATM   15  N5  UNL     1      11.966  53.718  89.927  1.00  0.00    -0.334 N 
HETATM   16  C18 UNL     1      13.166  54.470  90.106  1.00  0.00     0.128 C 
HETATM   17  C27 UNL     1      11.032  53.552  91.025  1.00  0.00     0.128 C 
HETATM   18  C19 UNL     1      13.866  54.145  91.410  1.00  0.00     0.029 C 
HETATM   19  C20 UNL     1      12.913  53.915  92.532  1.00  0.00    -0.037 C 
HETATM   20  C21 UNL     1      12.837  52.441  92.842  1.00  0.00     0.010 C 
HETATM   21  C25 UNL     1      13.333  54.682  93.741  1.00  0.00     0.010 C 
HETATM   22  C26 UNL     1      11.514  54.402  92.173  1.00  0.00     0.029 C 
HETATM   23  C22 UNL     1      13.887  52.010  93.852  1.00  0.00     0.001 C 
HETATM   24  C23 UNL     1      13.686  52.727  95.173  1.00  0.00     0.000 C 
HETATM   25  C24 UNL     1      12.824  53.966  94.954  1.00  0.00     0.001 C 
ATOM     26  H4  UNL     1       9.975  52.302  89.375  1.00  0.00     0.165 HD
ENDBRANCH   5  12
ENDBRANCH   3   5
BRANCH   1  27
HETATM   27  C7  UNL     1      11.587  52.856  83.978  1.00  0.00     0.165 C 
BRANCH  27  28
HETATM   28  C6  UNL     1      13.031  53.075  83.840  1.00  0.00     0.147 C 
BRANCH  28  29
HETATM   29  C5  UNL     1      13.735  51.887  83.268  1.00  0.00     0.038 C 
BRANCH  29  30
HETATM   30  C3  UNL     1      14.533  52.131  82.040  1.00  0.00    -0.016 C 
HETATM   31  C4  UNL     1      15.999  52.380  82.273  1.00  0.00     0.010 C 
BRANCH  30  32
HETATM   32  C2  UNL     1      14.261  51.141  80.951  1.00  0.00    -0.000 C 
HETATM   33  C1  UNL     1      15.188  51.380  79.747  1.00  0.00     0.005 C 
ENDBRANCH  30  32
ENDBRANCH  29  30
ENDBRANCH  28  29
BRANCH  28  34
HETATM   34  O1  UNL     1      13.712  53.658  84.878  1.00  0.00    -0.393 OA
ATOM     35  H1  UNL     1      14.254  54.389  84.605  1.00  0.00     0.210 HD
ENDBRANCH  28  34
ENDBRANCH  27  28
BRANCH  27  36
HETATM   36  C8  UNL     1      10.803  52.303  82.827  1.00  0.00     0.186 C 
BRANCH  36  37
HETATM   37  N1  UNL     1       9.495  52.639  82.657  1.00  0.00    -0.384 NA
HETATM   38  C9  UNL     1       8.179  52.977  82.487  1.00  0.00     0.319 C 
HETATM   39  O2  UNL     1       7.401  53.449  83.348  1.00  0.00    -0.255 OA
BRANCH  38  40
HETATM   40  C10 UNL     1       7.489  52.798  81.153  1.00  0.00     0.391 C 
BRANCH  40  41
HETATM   41  N2  UNL     1       6.134  53.250  81.135  1.00  0.00     0.102 N 
HETATM   42  C11 UNL     1       5.189  52.203  80.795  1.00  0.00     0.299 C 
HETATM   43  C12 UNL     1       4.067  52.837  79.990  1.00  0.00     0.198 C 
HETATM   44  O3  UNL     1       4.483  53.206  78.704  1.00  0.00    -0.388 OA
HETATM   45  C13 UNL     1       5.720  53.858  78.774  1.00  0.00     0.198 C 
HETATM   46  C14 UNL     1       6.008  54.353  80.178  1.00  0.00     0.299 C 
ENDBRANCH  40  41
ENDBRANCH  38  40
ENDBRANCH  36  37
ENDBRANCH  27  36
ENDBRANCH   1  27
TORSDOF 12
ENDMDL
