MODEL 1
REMARK VINA RESULT: -6.984994062      0.000      0.000
REMARK  8 active torsions:
REMARK  status: ('A' for Active; 'I' for Inactive)
REMARK    1  A    between atoms: C2_2  and  C3_3 
REMARK    2  A    between atoms: C5_7  and  C6_8 
REMARK    3  A    between atoms: C6_8  and  N2_9 
REMARK    4  A    between atoms: N2_9  and  C7_11 
REMARK    5  A    between atoms: C7_11  and  C8_12 
REMARK    6  A    between atoms: C8_12  and  N3_13 
REMARK    7  A    between atoms: C25_34  and  C26_35 
REMARK    8  A    between atoms: C26_35  and  C27_36 
ROOT
HETATM    1  C3  UNL     1      12.365  53.806  91.478  1.00  0.00     0.169 C 
HETATM    2  C4  UNL     1      11.772  53.205  92.719  1.00  0.00     0.088 C 
HETATM    3  N1  UNL     1      10.514  53.695  93.068  1.00  0.00    -0.389 N 
ATOM      4  H1  UNL     1      10.346  54.013  94.023  1.00  0.00     0.159 HD
HETATM    5  C5  UNL     1       9.484  53.757  92.136  1.00  0.00     0.136 C 
HETATM    6  C14 UNL     1       9.627  52.748  91.018  1.00  0.00     0.148 C 
HETATM    7  N4  UNL     1       9.972  53.322  89.764  1.00  0.00    -0.390 N 
HETATM    8  C15 UNL     1       8.915  53.971  89.064  1.00  0.00     0.118 C 
HETATM    9  C16 UNL     1       7.804  53.088  88.613  1.00  0.00     0.019 C 
HETATM   10  C17 UNL     1       7.188  53.581  87.295  1.00  0.00     0.002 C 
HETATM   11  C18 UNL     1       6.041  52.668  86.986  1.00  0.00     0.000 C 
HETATM   12  C19 UNL     1       5.388  52.944  85.661  1.00  0.00     0.000 C 
HETATM   13  C20 UNL     1       6.316  52.727  84.490  1.00  0.00     0.000 C 
HETATM   14  C21 UNL     1       6.557  51.255  84.354  1.00  0.00     0.002 C 
HETATM   15  C22 UNL     1       7.482  50.966  83.210  1.00  0.00     0.020 C 
HETATM   16  C23 UNL     1       8.812  50.484  83.801  1.00  0.00     0.122 C 
HETATM   17  N5  UNL     1       9.756  51.569  83.571  1.00  0.00    -0.359 N 
ATOM     18  H5  UNL     1      10.098  51.687  82.617  1.00  0.00     0.162 HD
HETATM   19  C24 UNL     1      10.236  52.459  84.525  1.00  0.00     0.240 C 
HETATM   20  O1  UNL     1      10.189  53.712  84.260  1.00  0.00    -0.271 OA
HETATM   21  C25 UNL     1      10.810  52.089  85.846  1.00  0.00     0.177 C 
HETATM   22  N6  UNL     1      11.423  53.213  86.511  1.00  0.00    -0.346 N 
ATOM     23  H6  UNL     1      11.819  53.947  85.924  1.00  0.00     0.163 HD
HETATM   24  C30 UNL     1      11.518  53.378  87.916  1.00  0.00     0.251 C 
HETATM   25  O2  UNL     1      12.231  54.317  88.342  1.00  0.00    -0.271 OA
HETATM   26  C31 UNL     1      10.843  52.531  88.933  1.00  0.00     0.273 C 
HETATM   27  C32 UNL     1      11.926  52.004  89.801  1.00  0.00     0.291 C 
HETATM   28  O3  UNL     1      12.089  50.758  89.871  1.00  0.00    -0.262 OA
HETATM   29  O4  UNL     1      12.703  52.896  90.490  1.00  0.00    -0.309 OA
ENDROOT
BRANCH   5  30
HETATM   30  C6  UNL     1       8.153  53.631  92.838  1.00  0.00     0.086 C 
BRANCH  30  31
HETATM   31  N2  UNL     1       7.456  54.787  93.147  1.00  0.00    -0.379 N 
ATOM     32  H2  UNL     1       7.145  55.364  92.365  1.00  0.00     0.164 HD
BRANCH  31  33
HETATM   33  C7  UNL     1       7.145  55.229  94.416  1.00  0.00     0.090 C 
BRANCH  33  34
HETATM   34  C8  UNL     1       7.744  56.436  95.007  1.00  0.00     0.316 C 
BRANCH  34  35
HETATM   35  N3  UNL     1       9.183  56.517  94.985  1.00  0.00     0.093 N 
HETATM   36  C9  UNL     1       9.611  57.851  95.472  1.00  0.00     0.273 C 
HETATM   37  C10 UNL     1      10.965  58.100  94.839  1.00  0.00     0.030 C 
HETATM   38  C11 UNL     1      11.777  56.817  94.859  1.00  0.00     0.003 C 
HETATM   39  C12 UNL     1      11.281  56.001  96.038  1.00  0.00     0.030 C 
HETATM   40  C13 UNL     1       9.841  55.558  95.817  1.00  0.00     0.273 C 
ENDBRANCH  34  35
ENDBRANCH  33  34
ENDBRANCH  31  33
ENDBRANCH  30  31
ENDBRANCH   5  30
BRANCH   1  41
HETATM   41  C2  UNL     1      13.670  54.557  91.811  1.00  0.00     0.033 C 
HETATM   42  C1  UNL     1      14.400  54.980  90.570  1.00  0.00     0.008 C 
ENDBRANCH   1  41
BRANCH  21  43
HETATM   43  C26 UNL     1      11.637  50.872  85.863  1.00  0.00     0.039 C 
BRANCH  43  44
HETATM   44  C27 UNL     1      11.192  49.669  86.572  1.00  0.00    -0.012 A 
HETATM   45  C28 UNL     1      12.265  48.660  86.998  1.00  0.00     0.005 A 
HETATM   46  C29 UNL     1      11.157  48.302  86.058  1.00  0.00     0.005 A 
ENDBRANCH  43  44
ENDBRANCH  21  43
TORSDOF 8
ENDMDL
MODEL 2
REMARK VINA RESULT: -6.927669829      2.945      5.923
REMARK  8 active torsions:
REMARK  status: ('A' for Active; 'I' for Inactive)
REMARK    1  A    between atoms: C2_2  and  C3_3 
REMARK    2  A    between atoms: C5_7  and  C6_8 
REMARK    3  A    between atoms: C6_8  and  N2_9 
REMARK    4  A    between atoms: N2_9  and  C7_11 
REMARK    5  A    between atoms: C7_11  and  C8_12 
REMARK    6  A    between atoms: C8_12  and  N3_13 
REMARK    7  A    between atoms: C25_34  and  C26_35 
REMARK    8  A    between atoms: C26_35  and  C27_36 
ROOT
HETATM    1  C3  UNL     1       8.778  51.962  88.842  1.00  0.00     0.169 C 
HETATM    2  C4  UNL     1       9.276  53.293  89.327  1.00  0.00     0.088 C 
HETATM    3  N1  UNL     1      10.663  53.413  89.397  1.00  0.00    -0.389 N 
ATOM      4  H1  UNL     1      11.095  53.761  90.253  1.00  0.00     0.159 HD
HETATM    5  C5  UNL     1      11.469  53.066  88.318  1.00  0.00     0.136 C 
HETATM    6  C14 UNL     1      10.761  53.166  86.985  1.00  0.00     0.148 C 
HETATM    7  N4  UNL     1      10.474  51.908  86.389  1.00  0.00    -0.390 N 
HETATM    8  C15 UNL     1      11.574  51.246  85.771  1.00  0.00     0.118 C 
HETATM    9  C16 UNL     1      12.156  51.933  84.586  1.00  0.00     0.019 C 
HETATM   10  C17 UNL     1      12.696  50.929  83.558  1.00  0.00     0.002 C 
HETATM   11  C18 UNL     1      13.322  51.730  82.458  1.00  0.00     0.000 C 
HETATM   12  C19 UNL     1      13.808  50.899  81.303  1.00  0.00     0.000 C 
HETATM   13  C20 UNL     1      12.695  50.166  80.595  1.00  0.00     0.000 C 
HETATM   14  C21 UNL     1      11.873  51.175  79.854  1.00  0.00     0.002 C 
HETATM   15  C22 UNL     1      10.738  50.515  79.130  1.00  0.00     0.020 C 
HETATM   16  C23 UNL     1       9.440  50.918  79.838  1.00  0.00     0.122 C 
HETATM   17  N5  UNL     1       8.979  49.717  80.521  1.00  0.00    -0.359 N 
ATOM     18  H5  UNL     1       8.562  48.989  79.940  1.00  0.00     0.162 HD
HETATM   19  C24 UNL     1       9.050  49.466  81.887  1.00  0.00     0.240 C 
HETATM   20  O1  UNL     1       9.546  48.349  82.270  1.00  0.00    -0.271 OA
HETATM   21  C25 UNL     1       8.598  50.387  82.962  1.00  0.00     0.177 C 
HETATM   22  N6  UNL     1       8.596  49.755  84.259  1.00  0.00    -0.346 N 
ATOM     23  H6  UNL     1       8.434  48.748  84.291  1.00  0.00     0.163 HD
HETATM   24  C30 UNL     1       8.801  50.422  85.494  1.00  0.00     0.251 C 
HETATM   25  O2  UNL     1       8.597  49.771  86.545  1.00  0.00    -0.271 OA
HETATM   26  C31 UNL     1       9.239  51.833  85.650  1.00  0.00     0.273 C 
HETATM   27  C32 UNL     1       8.191  52.491  86.470  1.00  0.00     0.291 C 
HETATM   28  O3  UNL     1       7.563  53.462  85.975  1.00  0.00    -0.262 OA
HETATM   29  O4  UNL     1       7.953  52.015  87.731  1.00  0.00    -0.309 OA
ENDROOT
BRANCH   5  30
HETATM   30  C6  UNL     1      12.736  53.888  88.343  1.00  0.00     0.086 C 
BRANCH  30  31
HETATM   31  N2  UNL     1      12.676  55.180  88.835  1.00  0.00    -0.379 N 
ATOM     32  H2  UNL     1      12.098  55.846  88.320  1.00  0.00     0.164 HD
BRANCH  31  33
HETATM   33  C7  UNL     1      13.326  55.650  89.957  1.00  0.00     0.090 C 
BRANCH  33  34
HETATM   34  C8  UNL     1      14.293  54.840  90.714  1.00  0.00     0.316 C 
BRANCH  34  35
HETATM   35  N3  UNL     1      13.863  54.362  92.004  1.00  0.00     0.093 N 
HETATM   36  C9  UNL     1      12.698  55.156  92.463  1.00  0.00     0.273 C 
HETATM   37  C10 UNL     1      12.719  55.072  93.975  1.00  0.00     0.030 C 
HETATM   38  C11 UNL     1      13.087  53.662  94.400  1.00  0.00     0.003 C 
HETATM   39  C12 UNL     1      12.641  52.737  93.283  1.00  0.00     0.030 C 
HETATM   40  C13 UNL     1      13.446  52.995  92.017  1.00  0.00     0.273 C 
ENDBRANCH  34  35
ENDBRANCH  33  34
ENDBRANCH  31  33
ENDBRANCH  30  31
ENDBRANCH   5  30
BRANCH   1  41
HETATM   41  C2  UNL     1       7.949  51.263  89.938  1.00  0.00     0.033 C 
HETATM   42  C1  UNL     1       6.864  52.153  90.467  1.00  0.00     0.008 C 
ENDBRANCH   1  41
BRANCH  21  43
HETATM   43  C26 UNL     1       7.370  51.148  82.676  1.00  0.00     0.039 C 
BRANCH  43  44
HETATM   44  C27 UNL     1       7.361  52.611  82.739  1.00  0.00    -0.012 A 
HETATM   45  C28 UNL     1       7.240  53.377  81.416  1.00  0.00     0.005 A 
HETATM   46  C29 UNL     1       8.425  53.520  82.319  1.00  0.00     0.005 A 
ENDBRANCH  43  44
ENDBRANCH  21  43
TORSDOF 8
ENDMDL
MODEL 3
REMARK VINA RESULT: -6.707956962      2.976      9.336
REMARK  8 active torsions:
REMARK  status: ('A' for Active; 'I' for Inactive)
REMARK    1  A    between atoms: C2_2  and  C3_3 
REMARK    2  A    between atoms: C5_7  and  C6_8 
REMARK    3  A    between atoms: C6_8  and  N2_9 
REMARK    4  A    between atoms: N2_9  and  C7_11 
REMARK    5  A    between atoms: C7_11  and  C8_12 
REMARK    6  A    between atoms: C8_12  and  N3_13 
REMARK    7  A    between atoms: C25_34  and  C26_35 
REMARK    8  A    between atoms: C26_35  and  C27_36 
ROOT
HETATM    1  C3  UNL     1       5.770  53.131  87.362  1.00  0.00     0.169 C 
HETATM    2  C4  UNL     1       6.198  52.308  86.181  1.00  0.00     0.088 C 
HETATM    3  N1  UNL     1       7.241  52.850  85.432  1.00  0.00    -0.389 N 
ATOM      4  H1  UNL     1       7.146  52.925  84.419  1.00  0.00     0.159 HD
HETATM    5  C5  UNL     1       8.410  53.290  86.043  1.00  0.00     0.136 C 
HETATM    6  C14 UNL     1       8.694  52.601  87.360  1.00  0.00     0.148 C 
HETATM    7  N4  UNL     1       8.512  53.434  88.498  1.00  0.00    -0.390 N 
HETATM    8  C15 UNL     1       9.549  54.377  88.751  1.00  0.00     0.118 C 
HETATM    9  C16 UNL     1      10.874  53.798  89.102  1.00  0.00     0.019 C 
HETATM   10  C17 UNL     1      11.644  54.697  90.081  1.00  0.00     0.002 C 
HETATM   11  C18 UNL     1      12.981  54.057  90.295  1.00  0.00     0.000 C 
HETATM   12  C19 UNL     1      13.829  54.755  91.322  1.00  0.00     0.000 C 
HETATM   13  C20 UNL     1      13.220  54.733  92.703  1.00  0.00     0.000 C 
HETATM   14  C21 UNL     1      13.294  53.330  93.222  1.00  0.00     0.002 C 
HETATM   15  C22 UNL     1      12.696  53.232  94.593  1.00  0.00     0.020 C 
HETATM   16  C23 UNL     1      11.389  52.442  94.472  1.00  0.00     0.122 C 
HETATM   17  N5  UNL     1      10.324  53.414  94.677  1.00  0.00    -0.359 N 
ATOM     18  H5  UNL     1      10.170  53.732  95.634  1.00  0.00     0.162 HD
HETATM   19  C24 UNL     1       9.498  53.951  93.695  1.00  0.00     0.240 C 
HETATM   20  O1  UNL     1       9.361  55.225  93.651  1.00  0.00    -0.271 OA
HETATM   21  C25 UNL     1       8.746  53.175  92.675  1.00  0.00     0.177 C 
HETATM   22  N6  UNL     1       7.809  53.993  91.945  1.00  0.00    -0.346 N 
ATOM     23  H6  UNL     1       7.410  54.797  92.431  1.00  0.00     0.163 HD
HETATM   24  C30 UNL     1       7.397  53.769  90.607  1.00  0.00     0.251 C 
HETATM   25  O2  UNL     1       6.447  54.461  90.169  1.00  0.00    -0.271 OA
HETATM   26  C31 UNL     1       7.996  52.781  89.674  1.00  0.00     0.273 C 
HETATM   27  C32 UNL     1       6.876  51.907  89.240  1.00  0.00     0.291 C 
HETATM   28  O3  UNL     1       6.942  50.676  89.496  1.00  0.00    -0.262 OA
HETATM   29  O4  UNL     1       5.820  52.476  88.582  1.00  0.00    -0.309 OA
ENDROOT
BRANCH   5  30
HETATM   30  C6  UNL     1       9.568  53.161  85.082  1.00  0.00     0.086 C 
BRANCH  30  31
HETATM   31  N2  UNL     1      10.809  53.632  85.474  1.00  0.00    -0.379 N 
ATOM     32  H2  UNL     1      10.823  54.390  86.157  1.00  0.00     0.164 HD
BRANCH  31  33
HETATM   33  C7  UNL     1      12.029  53.169  85.025  1.00  0.00     0.090 C 
BRANCH  33  34
HETATM   34  C8  UNL     1      12.171  51.932  84.241  1.00  0.00     0.316 C 
BRANCH  34  35
HETATM   35  N3  UNL     1      13.342  51.830  83.407  1.00  0.00     0.093 N 
HETATM   36  C9  UNL     1      12.928  51.676  81.991  1.00  0.00     0.273 C 
HETATM   37  C10 UNL     1      14.072  50.954  81.309  1.00  0.00     0.030 C 
HETATM   38  C11 UNL     1      15.394  51.499  81.820  1.00  0.00     0.003 C 
HETATM   39  C12 UNL     1      15.139  52.931  82.253  1.00  0.00     0.030 C 
HETATM   40  C13 UNL     1      14.200  52.972  83.451  1.00  0.00     0.273 C 
ENDBRANCH  34  35
ENDBRANCH  33  34
ENDBRANCH  31  33
ENDBRANCH  30  31
ENDBRANCH   5  30
BRANCH   1  41
HETATM   41  C2  UNL     1       4.306  53.589  87.200  1.00  0.00     0.033 C 
HETATM   42  C1  UNL     1       4.218  55.012  86.735  1.00  0.00     0.008 C 
ENDBRANCH   1  41
BRANCH  21  43
HETATM   43  C26 UNL     1       8.178  51.898  93.137  1.00  0.00     0.039 C 
BRANCH  43  44
HETATM   44  C27 UNL     1       8.529  50.636  92.479  1.00  0.00    -0.012 A 
HETATM   45  C28 UNL     1       9.408  49.652  93.258  1.00  0.00     0.005 A 
HETATM   46  C29 UNL     1       9.836  50.248  91.955  1.00  0.00     0.005 A 
ENDBRANCH  43  44
ENDBRANCH  21  43
TORSDOF 8
ENDMDL
MODEL 4
REMARK VINA RESULT: -6.685785088      2.235      3.387
REMARK  8 active torsions:
REMARK  status: ('A' for Active; 'I' for Inactive)
REMARK    1  A    between atoms: C2_2  and  C3_3 
REMARK    2  A    between atoms: C5_7  and  C6_8 
REMARK    3  A    between atoms: C6_8  and  N2_9 
REMARK    4  A    between atoms: N2_9  and  C7_11 
REMARK    5  A    between atoms: C7_11  and  C8_12 
REMARK    6  A    between atoms: C8_12  and  N3_13 
REMARK    7  A    between atoms: C25_34  and  C26_35 
REMARK    8  A    between atoms: C26_35  and  C27_36 
ROOT
HETATM    1  C3  UNL     1      13.005  53.944  91.236  1.00  0.00     0.169 C 
HETATM    2  C4  UNL     1      13.523  52.877  92.156  1.00  0.00     0.088 C 
HETATM    3  N1  UNL     1      12.796  52.710  93.334  1.00  0.00    -0.389 N 
ATOM      4  H1  UNL     1      13.286  52.695  94.228  1.00  0.00     0.159 HD
HETATM    5  C5  UNL     1      11.413  52.564  93.309  1.00  0.00     0.136 C 
HETATM    6  C14 UNL     1      10.894  51.999  92.005  1.00  0.00     0.148 C 
HETATM    7  N4  UNL     1      10.195  52.944  91.205  1.00  0.00    -0.390 N 
HETATM    8  C15 UNL     1       8.866  53.249  91.619  1.00  0.00     0.118 C 
HETATM    9  C16 UNL     1       7.895  52.123  91.545  1.00  0.00     0.019 C 
HETATM   10  C17 UNL     1       6.479  52.618  91.214  1.00  0.00     0.002 C 
HETATM   11  C18 UNL     1       5.584  51.418  91.245  1.00  0.00     0.000 C 
HETATM   12  C19 UNL     1       4.168  51.707  90.831  1.00  0.00     0.000 C 
HETATM   13  C20 UNL     1       4.056  52.174  89.400  1.00  0.00     0.000 C 
HETATM   14  C21 UNL     1       4.349  51.009  88.506  1.00  0.00     0.002 C 
HETATM   15  C22 UNL     1       4.264  51.405  87.063  1.00  0.00     0.020 C 
HETATM   16  C23 UNL     1       5.687  51.385  86.493  1.00  0.00     0.122 C 
HETATM   17  N5  UNL     1       6.043  52.782  86.285  1.00  0.00    -0.359 N 
ATOM     18  H5  UNL     1       5.614  53.253  85.488  1.00  0.00     0.162 HD
HETATM   19  C24 UNL     1       6.910  53.537  87.068  1.00  0.00     0.240 C 
HETATM   20  O1  UNL     1       6.512  54.684  87.477  1.00  0.00    -0.271 OA
HETATM   21  C25 UNL     1       8.280  53.132  87.481  1.00  0.00     0.177 C 
HETATM   22  N6  UNL     1       9.009  54.215  88.095  1.00  0.00    -0.346 N 
ATOM     23  H6  UNL     1       8.780  55.164  87.796  1.00  0.00     0.163 HD
HETATM   24  C30 UNL     1      10.018  54.066  89.080  1.00  0.00     0.251 C 
HETATM   25  O2  UNL     1      10.681  55.084  89.389  1.00  0.00    -0.271 OA
HETATM   26  C31 UNL     1      10.360  52.802  89.781  1.00  0.00     0.273 C 
HETATM   27  C32 UNL     1      11.804  52.576  89.523  1.00  0.00     0.291 C 
HETATM   28  O3  UNL     1      12.149  51.529  88.916  1.00  0.00    -0.262 OA
HETATM   29  O4  UNL     1      12.700  53.516  89.954  1.00  0.00    -0.309 OA
ENDROOT
BRANCH   5  30
HETATM   30  C6  UNL     1      10.966  51.741  94.494  1.00  0.00     0.086 C 
BRANCH  30  31
HETATM   31  N2  UNL     1      11.418  52.096  95.753  1.00  0.00    -0.379 N 
ATOM     32  H2  UNL     1      12.112  51.486  96.186  1.00  0.00     0.164 HD
BRANCH  31  33
HETATM   33  C7  UNL     1      11.015  53.199  96.477  1.00  0.00     0.090 C 
BRANCH  33  34
HETATM   34  C8  UNL     1      11.773  54.459  96.494  1.00  0.00     0.316 C 
BRANCH  34  35
HETATM   35  N3  UNL     1      11.075  55.637  96.045  1.00  0.00     0.093 N 
HETATM   36  C9  UNL     1      11.748  56.183  94.842  1.00  0.00     0.273 C 
HETATM   37  C10 UNL     1      11.414  57.661  94.823  1.00  0.00     0.030 C 
HETATM   38  C11 UNL     1       9.964  57.858  95.227  1.00  0.00     0.003 C 
HETATM   39  C12 UNL     1       9.225  56.590  94.843  1.00  0.00     0.030 C 
HETATM   40  C13 UNL     1       9.713  55.411  95.674  1.00  0.00     0.273 C 
ENDBRANCH  34  35
ENDBRANCH  33  34
ENDBRANCH  31  33
ENDBRANCH  30  31
ENDBRANCH   5  30
BRANCH   1  41
HETATM   41  C2  UNL     1      14.053  55.062  91.059  1.00  0.00     0.033 C 
HETATM   42  C1  UNL     1      14.676  55.028  89.695  1.00  0.00     0.008 C 
ENDBRANCH   1  41
BRANCH  21  43
HETATM   43  C26 UNL     1       9.058  52.395  86.472  1.00  0.00     0.039 C 
BRANCH  43  44
HETATM   44  C27 UNL     1       9.942  53.101  85.541  1.00  0.00    -0.012 A 
HETATM   45  C28 UNL     1      10.670  52.264  84.483  1.00  0.00     0.005 A 
HETATM   46  C29 UNL     1      11.403  53.067  85.512  1.00  0.00     0.005 A 
ENDBRANCH  43  44
ENDBRANCH  21  43
TORSDOF 8
ENDMDL
MODEL 5
REMARK VINA RESULT: -6.592435092      3.220      9.831
REMARK  8 active torsions:
REMARK  status: ('A' for Active; 'I' for Inactive)
REMARK    1  A    between atoms: C2_2  and  C3_3 
REMARK    2  A    between atoms: C5_7  and  C6_8 
REMARK    3  A    between atoms: C6_8  and  N2_9 
REMARK    4  A    between atoms: N2_9  and  C7_11 
REMARK    5  A    between atoms: C7_11  and  C8_12 
REMARK    6  A    between atoms: C8_12  and  N3_13 
REMARK    7  A    between atoms: C25_34  and  C26_35 
REMARK    8  A    between atoms: C26_35  and  C27_36 
ROOT
HETATM    1  C3  UNL     1       6.642  53.182  86.690  1.00  0.00     0.169 C 
HETATM    2  C4  UNL     1       7.276  52.400  85.577  1.00  0.00     0.088 C 
HETATM    3  N1  UNL     1       8.424  52.973  85.033  1.00  0.00    -0.389 N 
ATOM      4  H1  UNL     1       8.502  53.079  84.022  1.00  0.00     0.159 HD
HETATM    5  C5  UNL     1       9.466  53.404  85.848  1.00  0.00     0.136 C 
HETATM    6  C14 UNL     1       9.530  52.676  87.173  1.00  0.00     0.148 C 
HETATM    7  N4  UNL     1       9.145  53.472  88.287  1.00  0.00    -0.390 N 
HETATM    8  C15 UNL     1      10.110  54.416  88.741  1.00  0.00     0.118 C 
HETATM    9  C16 UNL     1      11.364  53.837  89.296  1.00  0.00     0.019 C 
HETATM   10  C17 UNL     1      11.943  54.712  90.418  1.00  0.00     0.002 C 
HETATM   11  C18 UNL     1      13.232  54.076  90.839  1.00  0.00     0.000 C 
HETATM   12  C19 UNL     1      13.884  54.749  92.016  1.00  0.00     0.000 C 
HETATM   13  C20 UNL     1      13.047  54.679  93.271  1.00  0.00     0.000 C 
HETATM   14  C21 UNL     1      13.051  53.262  93.754  1.00  0.00     0.002 C 
HETATM   15  C22 UNL     1      12.229  53.117  94.999  1.00  0.00     0.020 C 
HETATM   16  C23 UNL     1      10.972  52.319  94.633  1.00  0.00     0.122 C 
HETATM   17  N5  UNL     1       9.875  53.276  94.682  1.00  0.00    -0.359 N 
ATOM     18  H5  UNL     1       9.555  53.564  95.607  1.00  0.00     0.162 HD
HETATM   19  C24 UNL     1       9.222  53.837  93.589  1.00  0.00     0.240 C 
HETATM   20  O1  UNL     1       9.078  55.110  93.559  1.00  0.00    -0.271 OA
HETATM   21  C25 UNL     1       8.665  53.086  92.433  1.00  0.00     0.177 C 
HETATM   22  N6  UNL     1       7.855  53.919  91.578  1.00  0.00    -0.346 N 
ATOM     23  H6  UNL     1       7.369  54.704  92.011  1.00  0.00     0.163 HD
HETATM   24  C30 UNL     1       7.682  53.733  90.183  1.00  0.00     0.251 C 
HETATM   25  O2  UNL     1       6.812  54.430  89.609  1.00  0.00    -0.271 OA
HETATM   26  C31 UNL     1       8.444  52.779  89.337  1.00  0.00     0.273 C 
HETATM   27  C32 UNL     1       7.427  51.910  88.694  1.00  0.00     0.291 C 
HETATM   28  O3  UNL     1       7.465  50.672  88.921  1.00  0.00    -0.262 OA
HETATM   29  O4  UNL     1       6.492  52.490  87.881  1.00  0.00    -0.309 OA
ENDROOT
BRANCH   5  30
HETATM   30  C6  UNL     1      10.772  53.314  85.095  1.00  0.00     0.086 C 
BRANCH  30  31
HETATM   31  N2  UNL     1      10.831  52.515  83.966  1.00  0.00    -0.379 N 
ATOM     32  H2  UNL     1       9.946  52.286  83.513  1.00  0.00     0.164 HD
BRANCH  31  33
HETATM   33  C7  UNL     1      11.978  52.001  83.398  1.00  0.00     0.090 C 
BRANCH  33  34
HETATM   34  C8  UNL     1      12.030  51.519  82.009  1.00  0.00     0.316 C 
BRANCH  34  35
HETATM   35  N3  UNL     1      13.258  51.753  81.291  1.00  0.00     0.093 N 
HETATM   36  C9  UNL     1      14.411  51.409  82.158  1.00  0.00     0.273 C 
HETATM   37  C10 UNL     1      15.568  52.243  81.646  1.00  0.00     0.030 C 
HETATM   38  C11 UNL     1      15.543  52.269  80.129  1.00  0.00     0.003 C 
HETATM   39  C12 UNL     1      14.867  50.987  79.679  1.00  0.00     0.030 C 
HETATM   40  C13 UNL     1      13.404  50.973  80.102  1.00  0.00     0.273 C 
ENDBRANCH  34  35
ENDBRANCH  33  34
ENDBRANCH  31  33
ENDBRANCH  30  31
ENDBRANCH   5  30
BRANCH   1  41
HETATM   41  C2  UNL     1       5.221  53.633  86.294  1.00  0.00     0.033 C 
HETATM   42  C1  UNL     1       4.871  54.960  86.898  1.00  0.00     0.008 C 
ENDBRANCH   1  41
BRANCH  21  43
HETATM   43  C26 UNL     1       8.044  51.790  92.754  1.00  0.00     0.039 C 
BRANCH  43  44
HETATM   44  C27 UNL     1       8.652  50.534  92.308  1.00  0.00    -0.012 A 
HETATM   45  C28 UNL     1       7.753  49.294  92.251  1.00  0.00     0.005 A 
HETATM   46  C29 UNL     1       8.965  49.365  93.127  1.00  0.00     0.005 A 
ENDBRANCH  43  44
ENDBRANCH  21  43
TORSDOF 8
ENDMDL
