MODEL 1
REMARK VINA RESULT: -8.090996748      0.000      0.000
REMARK  12 active torsions:
REMARK  status: ('A' for Active; 'I' for Inactive)
REMARK    1  A    between atoms: C4_4  and  N1_5 
REMARK    2  A    between atoms: N1_5  and  C5_7 
REMARK    3  A    between atoms: C5_7  and  C6_8 
REMARK    4  A    between atoms: C6_8  and  N2_9 
REMARK    5  A    between atoms: N3_12  and  C9_13 
REMARK    6  A    between atoms: C9_13  and  C10_14 
REMARK    7  A    between atoms: C10_14  and  C11_15 
REMARK    8  A    between atoms: C11_15  and  N4_16 
REMARK    9  A    between atoms: N4_16  and  C12_18 
REMARK   10  A    between atoms: C18_28  and  N7_29 
REMARK   11  A    between atoms: N7_29  and  C19_30 
REMARK   12  A    between atoms: C22_33  and  N8_35 
ROOT
HETATM    1  N4  UNL     1       9.137  52.249  89.684  1.00  0.00    -0.376 N 
ATOM      2  H4  UNL     1       8.477  52.674  90.334  1.00  0.00     0.161 HD
ENDROOT
BRANCH   1   3
HETATM    3  C11 UNL     1       8.617  51.286  88.766  1.00  0.00     0.123 C 
BRANCH   3   4
HETATM    4  C10 UNL     1       7.366  51.798  88.073  1.00  0.00     0.039 C 
BRANCH   4   5
HETATM    5  C9  UNL     1       7.481  53.141  87.475  1.00  0.00     0.119 C 
BRANCH   5   6
HETATM    6  N3  UNL     1       7.818  53.259  86.104  1.00  0.00    -0.406 N 
HETATM    7  C8  UNL     1       6.997  52.448  85.262  1.00  0.00     0.161 C 
HETATM    8  C7  UNL     1       7.410  52.385  83.826  1.00  0.00     0.077 C 
HETATM    9  N2  UNL     1       8.783  52.105  83.701  1.00  0.00    -0.389 N 
HETATM   10  C27 UNL     1       9.587  52.204  84.875  1.00  0.00     0.141 C 
HETATM   11  C26 UNL     1       9.192  53.341  85.793  1.00  0.00     0.137 C 
BRANCH   9  12
HETATM   12  C6  UNL     1       9.193  51.070  82.813  1.00  0.00     0.141 C 
BRANCH  12  13
HETATM   13  C5  UNL     1      10.558  50.546  83.269  1.00  0.00     0.139 C 
BRANCH  13  14
HETATM   14  N1  UNL     1      11.501  50.794  82.216  1.00  0.00    -0.388 N 
ATOM     15  H1  UNL     1      11.337  50.406  81.287  1.00  0.00     0.159 HD
BRANCH  14  16
HETATM   16  C4  UNL     1      12.544  51.498  82.435  1.00  0.00     0.042 A 
HETATM   17  C3  UNL     1      12.646  52.305  83.531  1.00  0.00     0.054 A 
HETATM   18  C2  UNL     1      13.765  53.108  83.768  1.00  0.00     0.007 A 
HETATM   19  C1  UNL     1      13.786  53.969  84.975  1.00  0.00     0.068 C 
HETATM   20  N10 UNL     1      14.765  53.079  82.890  1.00  0.00    -0.359 N 
HETATM   21  C33 UNL     1      14.712  52.280  81.768  1.00  0.00     0.044 A 
ATOM     22  H10 UNL     1      15.588  53.659  83.051  1.00  0.00     0.166 HD
HETATM   23  C28 UNL     1      13.600  51.499  81.556  1.00  0.00     0.017 A 
HETATM   24  C32 UNL     1      15.773  52.320  80.894  1.00  0.00     0.030 A 
HETATM   25  C29 UNL     1      13.541  50.706  80.398  1.00  0.00     0.016 A 
HETATM   26  C30 UNL     1      14.591  50.745  79.530  1.00  0.00     0.001 A 
HETATM   27  C31 UNL     1      15.708  51.517  79.724  1.00  0.00     0.002 A 
ENDBRANCH  14  16
ENDBRANCH  13  14
ENDBRANCH  12  13
ENDBRANCH   9  12
ENDBRANCH   5   6
ENDBRANCH   4   5
ENDBRANCH   3   4
ENDBRANCH   1   3
BRANCH   1  28
HETATM   28  C12 UNL     1      10.353  52.623  89.764  1.00  0.00     0.103 C 
HETATM   29  C13 UNL     1      11.104  52.550  88.627  1.00  0.00     0.050 C 
HETATM   30  C14 UNL     1      12.162  53.358  88.243  1.00  0.00     0.036 C 
HETATM   31  C15 UNL     1      12.943  54.121  89.074  1.00  0.00     0.065 A 
HETATM   32  N5  UNL     1      14.086  54.701  88.621  1.00  0.00    -0.350 N 
HETATM   33  C17 UNL     1      12.734  54.415  90.397  1.00  0.00     0.118 A 
HETATM   34  C16 UNL     1      14.597  55.366  89.674  1.00  0.00     0.181 A 
ATOM     35  H5  UNL     1      14.474  54.644  87.679  1.00  0.00     0.166 HD
HETATM   36  N6  UNL     1      13.771  55.189  90.749  1.00  0.00    -0.347 N 
ATOM     37  H6  UNL     1      13.921  55.585  91.678  1.00  0.00     0.167 HD
HETATM   38  C18 UNL     1      11.703  54.061  91.280  1.00  0.00     0.204 C 
HETATM   39  N9  UNL     1      10.787  53.082  90.960  1.00  0.00    -0.316 N 
ATOM     40  H9  UNL     1      10.362  52.624  91.767  1.00  0.00     0.170 HD
BRANCH  38  41
HETATM   41  N7  UNL     1      11.587  54.593  92.327  1.00  0.00    -0.423 NA
BRANCH  41  42
HETATM   42  C19 UNL     1      11.454  55.203  93.529  1.00  0.00     0.165 C 
HETATM   43  C20 UNL     1      10.024  55.099  94.021  1.00  0.00     0.042 C 
HETATM   44  C21 UNL     1       9.752  55.499  95.407  1.00  0.00     0.041 C 
HETATM   45  C22 UNL     1      10.989  55.704  96.214  1.00  0.00     0.120 C 
HETATM   46  C23 UNL     1      10.610  55.648  97.698  1.00  0.00     0.046 C 
HETATM   47  C24 UNL     1      11.964  54.585  95.926  1.00  0.00     0.041 C 
HETATM   48  C25 UNL     1      12.447  54.598  94.516  1.00  0.00     0.042 C 
BRANCH  45  49
HETATM   49  N8  UNL     1      11.625  56.957  95.956  1.00  0.00    -0.071 N 
ATOM     50  H83 UNL     1      12.588  56.819  95.650  1.00  0.00     0.275 HD
ATOM     51  H82 UNL     1      11.242  57.392  95.116  1.00  0.00     0.275 HD
ATOM     52  H81 UNL     1      11.584  57.598  96.748  1.00  0.00     0.275 HD
ENDBRANCH  45  49
ENDBRANCH  41  42
ENDBRANCH  38  41
ENDBRANCH   1  28
TORSDOF 12
ENDMDL
MODEL 2
REMARK VINA RESULT: -7.939258604      1.182      2.384
REMARK  12 active torsions:
REMARK  status: ('A' for Active; 'I' for Inactive)
REMARK    1  A    between atoms: C4_4  and  N1_5 
REMARK    2  A    between atoms: N1_5  and  C5_7 
REMARK    3  A    between atoms: C5_7  and  C6_8 
REMARK    4  A    between atoms: C6_8  and  N2_9 
REMARK    5  A    between atoms: N3_12  and  C9_13 
REMARK    6  A    between atoms: C9_13  and  C10_14 
REMARK    7  A    between atoms: C10_14  and  C11_15 
REMARK    8  A    between atoms: C11_15  and  N4_16 
REMARK    9  A    between atoms: N4_16  and  C12_18 
REMARK   10  A    between atoms: C18_28  and  N7_29 
REMARK   11  A    between atoms: N7_29  and  C19_30 
REMARK   12  A    between atoms: C22_33  and  N8_35 
ROOT
HETATM    1  N4  UNL     1       8.867  52.787  89.033  1.00  0.00    -0.376 N 
ATOM      2  H4  UNL     1       8.466  51.882  89.278  1.00  0.00     0.161 HD
ENDROOT
BRANCH   1   3
HETATM    3  C11 UNL     1       8.004  53.731  88.398  1.00  0.00     0.123 C 
BRANCH   3   4
HETATM    4  C10 UNL     1       7.040  53.047  87.443  1.00  0.00     0.039 C 
BRANCH   4   5
HETATM    5  C9  UNL     1       7.532  51.794  86.840  1.00  0.00     0.119 C 
BRANCH   5   6
HETATM    6  N3  UNL     1       8.438  51.860  85.754  1.00  0.00    -0.406 N 
HETATM    7  C8  UNL     1       7.833  52.362  84.560  1.00  0.00     0.161 C 
HETATM    8  C7  UNL     1       8.680  52.293  83.330  1.00  0.00     0.077 C 
HETATM    9  N2  UNL     1       9.246  51.015  83.170  1.00  0.00    -0.389 N 
HETATM   10  C27 UNL     1       9.177  50.119  84.278  1.00  0.00     0.141 C 
HETATM   11  C26 UNL     1       9.352  50.793  85.622  1.00  0.00     0.137 C 
BRANCH   9  12
HETATM   12  C6  UNL     1       9.138  50.370  81.906  1.00  0.00     0.141 C 
BRANCH  12  13
HETATM   13  C5  UNL     1      10.363  50.734  81.063  1.00  0.00     0.139 C 
BRANCH  13  14
HETATM   14  N1  UNL     1      11.534  50.335  81.791  1.00  0.00    -0.388 N 
ATOM     15  H1  UNL     1      11.475  49.573  82.466  1.00  0.00     0.159 HD
BRANCH  14  16
HETATM   16  C4  UNL     1      12.648  50.930  81.599  1.00  0.00     0.042 A 
HETATM   17  C3  UNL     1      13.431  50.651  80.517  1.00  0.00     0.054 A 
HETATM   18  C2  UNL     1      14.669  51.268  80.309  1.00  0.00     0.007 A 
HETATM   19  C1  UNL     1      15.465  50.892  79.116  1.00  0.00     0.068 C 
HETATM   20  N10 UNL     1      15.092  52.159  81.203  1.00  0.00    -0.359 N 
HETATM   21  C33 UNL     1      14.338  52.477  82.312  1.00  0.00     0.044 A 
ATOM     22  H10 UNL     1      15.993  52.616  81.064  1.00  0.00     0.166 HD
HETATM   23  C28 UNL     1      13.124  51.857  82.495  1.00  0.00     0.017 A 
HETATM   24  C32 UNL     1      14.851  53.390  83.203  1.00  0.00     0.030 A 
HETATM   25  C29 UNL     1      12.371  52.167  83.640  1.00  0.00     0.016 A 
HETATM   26  C30 UNL     1      12.878  53.071  84.525  1.00  0.00     0.001 A 
HETATM   27  C31 UNL     1      14.086  53.699  84.360  1.00  0.00     0.002 A 
ENDBRANCH  14  16
ENDBRANCH  13  14
ENDBRANCH  12  13
ENDBRANCH   9  12
ENDBRANCH   5   6
ENDBRANCH   4   5
ENDBRANCH   3   4
ENDBRANCH   1   3
BRANCH   1  28
HETATM   28  C12 UNL     1      10.095  52.975  89.321  1.00  0.00     0.103 C 
HETATM   29  C13 UNL     1      10.981  53.012  88.283  1.00  0.00     0.050 C 
HETATM   30  C14 UNL     1      12.162  53.729  88.189  1.00  0.00     0.036 C 
HETATM   31  C15 UNL     1      12.902  54.216  89.237  1.00  0.00     0.065 A 
HETATM   32  N5  UNL     1      14.152  54.712  89.038  1.00  0.00    -0.350 N 
HETATM   33  C17 UNL     1      12.550  54.288  90.559  1.00  0.00     0.118 A 
HETATM   34  C16 UNL     1      14.586  55.099  90.253  1.00  0.00     0.181 A 
ATOM     35  H5  UNL     1      14.656  54.777  88.153  1.00  0.00     0.166 HD
HETATM   36  N6  UNL     1      13.607  54.839  91.172  1.00  0.00    -0.347 N 
ATOM     37  H6  UNL     1      13.672  55.035  92.171  1.00  0.00     0.167 HD
HETATM   38  C18 UNL     1      11.376  53.919  91.233  1.00  0.00     0.204 C 
HETATM   39  N9  UNL     1      10.411  53.146  90.626  1.00  0.00    -0.316 N 
ATOM     40  H9  UNL     1       9.833  52.609  91.273  1.00  0.00     0.170 HD
BRANCH  38  41
HETATM   41  N7  UNL     1      11.178  54.261  92.346  1.00  0.00    -0.423 NA
BRANCH  41  42
HETATM   42  C19 UNL     1      10.951  54.654  93.622  1.00  0.00     0.165 C 
HETATM   43  C20 UNL     1      11.731  55.915  93.936  1.00  0.00     0.042 C 
HETATM   44  C21 UNL     1      11.422  56.608  95.193  1.00  0.00     0.041 C 
HETATM   45  C22 UNL     1      10.188  56.101  95.858  1.00  0.00     0.120 C 
HETATM   46  C23 UNL     1       9.710  57.160  96.858  1.00  0.00     0.046 C 
HETATM   47  C24 UNL     1       9.108  55.902  94.819  1.00  0.00     0.041 C 
HETATM   48  C25 UNL     1       9.451  54.836  93.836  1.00  0.00     0.042 C 
BRANCH  45  49
HETATM   49  N8  UNL     1      10.393  54.874  96.561  1.00  0.00    -0.071 N 
ATOM     50  H83 UNL     1      11.081  54.292  96.083  1.00  0.00     0.275 HD
ATOM     51  H82 UNL     1      10.890  55.037  97.437  1.00  0.00     0.275 HD
ATOM     52  H81 UNL     1       9.530  54.357  96.723  1.00  0.00     0.275 HD
ENDBRANCH  45  49
ENDBRANCH  41  42
ENDBRANCH  38  41
ENDBRANCH   1  28
TORSDOF 12
ENDMDL
MODEL 3
REMARK VINA RESULT: -7.884574395      1.409      2.458
REMARK  12 active torsions:
REMARK  status: ('A' for Active; 'I' for Inactive)
REMARK    1  A    between atoms: C4_4  and  N1_5 
REMARK    2  A    between atoms: N1_5  and  C5_7 
REMARK    3  A    between atoms: C5_7  and  C6_8 
REMARK    4  A    between atoms: C6_8  and  N2_9 
REMARK    5  A    between atoms: N3_12  and  C9_13 
REMARK    6  A    between atoms: C9_13  and  C10_14 
REMARK    7  A    between atoms: C10_14  and  C11_15 
REMARK    8  A    between atoms: C11_15  and  N4_16 
REMARK    9  A    between atoms: N4_16  and  C12_18 
REMARK   10  A    between atoms: C18_28  and  N7_29 
REMARK   11  A    between atoms: N7_29  and  C19_30 
REMARK   12  A    between atoms: C22_33  and  N8_35 
ROOT
HETATM    1  N4  UNL     1       9.870  51.076  89.465  1.00  0.00    -0.376 N 
ATOM      2  H4  UNL     1       9.833  50.417  88.688  1.00  0.00     0.161 HD
ENDROOT
BRANCH   1   3
HETATM    3  C11 UNL     1       8.788  51.043  90.397  1.00  0.00     0.123 C 
BRANCH   3   4
HETATM    4  C10 UNL     1       7.457  50.834  89.695  1.00  0.00     0.039 C 
BRANCH   4   5
HETATM    5  C9  UNL     1       6.645  52.050  89.506  1.00  0.00     0.119 C 
BRANCH   5   6
HETATM    6  N3  UNL     1       6.654  52.696  88.246  1.00  0.00    -0.406 N 
HETATM    7  C8  UNL     1       6.545  51.780  87.154  1.00  0.00     0.161 C 
HETATM    8  C7  UNL     1       6.726  52.374  85.794  1.00  0.00     0.077 C 
HETATM    9  N2  UNL     1       7.883  53.172  85.735  1.00  0.00    -0.389 N 
HETATM   10  C27 UNL     1       8.512  53.516  86.968  1.00  0.00     0.141 C 
HETATM   11  C26 UNL     1       7.540  53.785  88.096  1.00  0.00     0.137 C 
BRANCH   9  12
HETATM   12  C6  UNL     1       8.799  52.975  84.662  1.00  0.00     0.141 C 
BRANCH  12  13
HETATM   13  C5  UNL     1       9.776  51.862  85.050  1.00  0.00     0.139 C 
BRANCH  13  14
HETATM   14  N1  UNL     1      11.092  52.271  84.649  1.00  0.00    -0.388 N 
ATOM     15  H1  UNL     1      11.534  53.071  85.102  1.00  0.00     0.159 HD
BRANCH  14  16
HETATM   16  C4  UNL     1      11.713  51.638  83.730  1.00  0.00     0.042 A 
HETATM   17  C3  UNL     1      11.180  50.530  83.138  1.00  0.00     0.054 A 
HETATM   18  C2  UNL     1      11.861  49.805  82.154  1.00  0.00     0.007 A 
HETATM   19  C1  UNL     1      11.215  48.601  81.577  1.00  0.00     0.068 C 
HETATM   20  N10 UNL     1      13.071  50.218  81.786  1.00  0.00    -0.359 N 
HETATM   21  C33 UNL     1      13.653  51.331  82.352  1.00  0.00     0.044 A 
ATOM     22  H10 UNL     1      13.579  49.698  81.070  1.00  0.00     0.166 HD
HETATM   23  C28 UNL     1      12.965  52.027  83.318  1.00  0.00     0.017 A 
HETATM   24  C32 UNL     1      14.916  51.683  81.937  1.00  0.00     0.030 A 
HETATM   25  C29 UNL     1      13.574  53.148  83.908  1.00  0.00     0.016 A 
HETATM   26  C30 UNL     1      14.826  53.497  83.499  1.00  0.00     0.001 A 
HETATM   27  C31 UNL     1      15.528  52.815  82.538  1.00  0.00     0.002 A 
ENDBRANCH  14  16
ENDBRANCH  13  14
ENDBRANCH  12  13
ENDBRANCH   9  12
ENDBRANCH   5   6
ENDBRANCH   4   5
ENDBRANCH   3   4
ENDBRANCH   1   3
BRANCH   1  28
HETATM   28  C12 UNL     1      10.878  51.854  89.519  1.00  0.00     0.103 C 
HETATM   29  C13 UNL     1      11.529  52.114  88.348  1.00  0.00     0.050 C 
HETATM   30  C14 UNL     1      12.205  53.266  87.979  1.00  0.00     0.036 C 
HETATM   31  C15 UNL     1      12.720  54.212  88.829  1.00  0.00     0.065 A 
HETATM   32  N5  UNL     1      13.551  55.184  88.369  1.00  0.00    -0.350 N 
HETATM   33  C17 UNL     1      12.509  54.342  90.177  1.00  0.00     0.118 A 
HETATM   34  C16 UNL     1      13.864  55.931  89.446  1.00  0.00     0.181 A 
ATOM     35  H5  UNL     1      13.871  55.320  87.410  1.00  0.00     0.166 HD
HETATM   36  N6  UNL     1      13.227  55.415  90.540  1.00  0.00    -0.347 N 
ATOM     37  H6  UNL     1      13.289  55.788  91.487  1.00  0.00     0.167 HD
HETATM   38  C18 UNL     1      11.731  53.597  91.076  1.00  0.00     0.204 C 
HETATM   39  N9  UNL     1      11.201  52.375  90.726  1.00  0.00    -0.316 N 
ATOM     40  H9  UNL     1      11.019  51.753  91.514  1.00  0.00     0.170 HD
BRANCH  38  41
HETATM   41  N7  UNL     1      11.504  53.997  92.163  1.00  0.00    -0.423 NA
BRANCH  41  42
HETATM   42  C19 UNL     1      11.245  54.455  93.411  1.00  0.00     0.165 C 
HETATM   43  C20 UNL     1      12.028  55.723  93.685  1.00  0.00     0.042 C 
HETATM   44  C21 UNL     1      11.691  56.481  94.896  1.00  0.00     0.041 C 
HETATM   45  C22 UNL     1      10.433  56.019  95.549  1.00  0.00     0.120 C 
HETATM   46  C23 UNL     1       9.938  57.132  96.480  1.00  0.00     0.046 C 
HETATM   47  C24 UNL     1       9.381  55.778  94.490  1.00  0.00     0.041 C 
HETATM   48  C25 UNL     1       9.742  54.661  93.572  1.00  0.00     0.042 C 
BRANCH  45  49
HETATM   49  N8  UNL     1      10.605  54.828  96.318  1.00  0.00    -0.071 N 
ATOM     50  H83 UNL     1      10.151  54.035  95.865  1.00  0.00     0.275 HD
ATOM     51  H82 UNL     1      11.574  54.510  96.282  1.00  0.00     0.275 HD
ATOM     52  H81 UNL     1      10.289  54.925  97.282  1.00  0.00     0.275 HD
ENDBRANCH  45  49
ENDBRANCH  41  42
ENDBRANCH  38  41
ENDBRANCH   1  28
TORSDOF 12
ENDMDL
MODEL 4
REMARK VINA RESULT: -7.806806204      2.372      4.705
REMARK  12 active torsions:
REMARK  status: ('A' for Active; 'I' for Inactive)
REMARK    1  A    between atoms: C4_4  and  N1_5 
REMARK    2  A    between atoms: N1_5  and  C5_7 
REMARK    3  A    between atoms: C5_7  and  C6_8 
REMARK    4  A    between atoms: C6_8  and  N2_9 
REMARK    5  A    between atoms: N3_12  and  C9_13 
REMARK    6  A    between atoms: C9_13  and  C10_14 
REMARK    7  A    between atoms: C10_14  and  C11_15 
REMARK    8  A    between atoms: C11_15  and  N4_16 
REMARK    9  A    between atoms: N4_16  and  C12_18 
REMARK   10  A    between atoms: C18_28  and  N7_29 
REMARK   11  A    between atoms: N7_29  and  C19_30 
REMARK   12  A    between atoms: C22_33  and  N8_35 
ROOT
HETATM    1  N4  UNL     1      13.791  53.234  91.581  1.00  0.00    -0.376 N 
ATOM      2  H4  UNL     1      14.117  52.663  90.802  1.00  0.00     0.161 HD
ENDROOT
BRANCH   1   3
HETATM    3  C11 UNL     1      13.840  54.652  91.412  1.00  0.00     0.123 C 
BRANCH   3   4
HETATM    4  C10 UNL     1      13.692  55.043  89.952  1.00  0.00     0.039 C 
BRANCH   4   5
HETATM    5  C9  UNL     1      12.305  55.110  89.454  1.00  0.00     0.119 C 
BRANCH   5   6
HETATM    6  N3  UNL     1      11.619  53.906  89.162  1.00  0.00    -0.406 N 
HETATM    7  C8  UNL     1      12.181  53.205  88.051  1.00  0.00     0.161 C 
HETATM    8  C7  UNL     1      11.403  52.020  87.575  1.00  0.00     0.077 C 
HETATM    9  N2  UNL     1      10.043  52.339  87.400  1.00  0.00    -0.389 N 
HETATM   10  C27 UNL     1       9.580  53.574  87.943  1.00  0.00     0.141 C 
HETATM   11  C26 UNL     1      10.212  53.935  89.269  1.00  0.00     0.137 C 
BRANCH   9  12
HETATM   12  C6  UNL     1       9.405  51.975  86.181  1.00  0.00     0.141 C 
BRANCH  12  13
HETATM   13  C5  UNL     1      10.397  51.182  85.326  1.00  0.00     0.139 C 
BRANCH  13  14
HETATM   14  N1  UNL     1      10.706  51.967  84.165  1.00  0.00    -0.388 N 
ATOM     15  H1  UNL     1      10.246  52.866  84.025  1.00  0.00     0.159 HD
BRANCH  14  16
HETATM   16  C4  UNL     1      11.553  51.545  83.306  1.00  0.00     0.042 A 
HETATM   17  C3  UNL     1      11.265  50.510  82.465  1.00  0.00     0.054 A 
HETATM   18  C2  UNL     1      12.192  50.014  81.543  1.00  0.00     0.007 A 
HETATM   19  C1  UNL     1      11.802  48.874  80.679  1.00  0.00     0.068 C 
HETATM   20  N10 UNL     1      13.397  50.577  81.488  1.00  0.00    -0.359 N 
HETATM   21  C33 UNL     1      13.737  51.626  82.315  1.00  0.00     0.044 A 
ATOM     22  H10 UNL     1      14.082  50.225  80.821  1.00  0.00     0.166 HD
HETATM   23  C28 UNL     1      12.808  52.096  83.214  1.00  0.00     0.017 A 
HETATM   24  C32 UNL     1      15.008  52.142  82.217  1.00  0.00     0.030 A 
HETATM   25  C29 UNL     1      13.169  53.150  84.072  1.00  0.00     0.016 A 
HETATM   26  C30 UNL     1      14.429  53.662  83.977  1.00  0.00     0.001 A 
HETATM   27  C31 UNL     1      15.368  53.205  83.087  1.00  0.00     0.002 A 
ENDBRANCH  14  16
ENDBRANCH  13  14
ENDBRANCH  12  13
ENDBRANCH   9  12
ENDBRANCH   5   6
ENDBRANCH   4   5
ENDBRANCH   3   4
ENDBRANCH   1   3
BRANCH   1  28
HETATM   28  C12 UNL     1      13.376  52.620  92.618  1.00  0.00     0.103 C 
HETATM   29  C13 UNL     1      14.056  51.497  92.992  1.00  0.00     0.050 C 
HETATM   30  C14 UNL     1      14.240  50.991  94.268  1.00  0.00     0.036 C 
HETATM   31  C15 UNL     1      13.460  51.253  95.366  1.00  0.00     0.065 A 
HETATM   32  N5  UNL     1      13.602  50.533  96.510  1.00  0.00    -0.350 N 
HETATM   33  C17 UNL     1      12.483  52.204  95.501  1.00  0.00     0.118 A 
HETATM   34  C16 UNL     1      12.700  51.042  97.371  1.00  0.00     0.181 A 
ATOM     35  H5  UNL     1      14.255  49.768  96.681  1.00  0.00     0.166 HD
HETATM   36  N6  UNL     1      12.025  52.057  96.752  1.00  0.00    -0.347 N 
ATOM     37  H6  UNL     1      11.285  52.616  97.177  1.00  0.00     0.167 HD
HETATM   38  C18 UNL     1      11.996  53.174  94.612  1.00  0.00     0.204 C 
HETATM   39  N9  UNL     1      12.315  53.147  93.272  1.00  0.00    -0.316 N 
ATOM     40  H9  UNL     1      11.632  53.603  92.667  1.00  0.00     0.170 HD
BRANCH  38  41
HETATM   41  N7  UNL     1      11.297  54.049  94.987  1.00  0.00    -0.423 NA
BRANCH  41  42
HETATM   42  C19 UNL     1      10.495  55.052  95.417  1.00  0.00     0.165 C 
HETATM   43  C20 UNL     1      10.945  56.378  94.834  1.00  0.00     0.042 C 
HETATM   44  C21 UNL     1      10.053  57.531  95.006  1.00  0.00     0.041 C 
HETATM   45  C22 UNL     1       8.700  57.161  95.510  1.00  0.00     0.120 C 
HETATM   46  C23 UNL     1       7.741  58.317  95.208  1.00  0.00     0.046 C 
HETATM   47  C24 UNL     1       8.214  55.932  94.775  1.00  0.00     0.041 C 
HETATM   48  C25 UNL     1       9.047  54.729  95.061  1.00  0.00     0.042 C 
BRANCH  45  49
HETATM   49  N8  UNL     1       8.675  56.906  96.915  1.00  0.00    -0.071 N 
ATOM     50  H83 UNL     1       8.132  56.069  97.123  1.00  0.00     0.275 HD
ATOM     51  H82 UNL     1       9.590  56.599  97.244  1.00  0.00     0.275 HD
ATOM     52  H81 UNL     1       8.341  57.701  97.460  1.00  0.00     0.275 HD
ENDBRANCH  45  49
ENDBRANCH  41  42
ENDBRANCH  38  41
ENDBRANCH   1  28
TORSDOF 12
ENDMDL
MODEL 5
REMARK VINA RESULT: -7.733040119      2.524     12.307
REMARK  12 active torsions:
REMARK  status: ('A' for Active; 'I' for Inactive)
REMARK    1  A    between atoms: C4_4  and  N1_5 
REMARK    2  A    between atoms: N1_5  and  C5_7 
REMARK    3  A    between atoms: C5_7  and  C6_8 
REMARK    4  A    between atoms: C6_8  and  N2_9 
REMARK    5  A    between atoms: N3_12  and  C9_13 
REMARK    6  A    between atoms: C9_13  and  C10_14 
REMARK    7  A    between atoms: C10_14  and  C11_15 
REMARK    8  A    between atoms: C11_15  and  N4_16 
REMARK    9  A    between atoms: N4_16  and  C12_18 
REMARK   10  A    between atoms: C18_28  and  N7_29 
REMARK   11  A    between atoms: N7_29  and  C19_30 
REMARK   12  A    between atoms: C22_33  and  N8_35 
ROOT
HETATM    1  N4  UNL     1      12.540  52.648  84.690  1.00  0.00    -0.376 N 
ATOM      2  H4  UNL     1      13.105  52.303  85.466  1.00  0.00     0.161 HD
ENDROOT
BRANCH   1   3
HETATM    3  C11 UNL     1      11.222  53.105  84.998  1.00  0.00     0.123 C 
BRANCH   3   4
HETATM    4  C10 UNL     1      10.772  52.621  86.366  1.00  0.00     0.039 C 
BRANCH   4   5
HETATM    5  C9  UNL     1      11.813  52.624  87.410  1.00  0.00     0.119 C 
BRANCH   5   6
HETATM    6  N3  UNL     1      11.878  53.711  88.316  1.00  0.00    -0.406 N 
HETATM    7  C8  UNL     1      13.200  54.239  88.451  1.00  0.00     0.161 C 
HETATM    8  C7  UNL     1      13.376  55.269  89.521  1.00  0.00     0.077 C 
HETATM    9  N2  UNL     1      12.822  54.839  90.741  1.00  0.00    -0.389 N 
HETATM   10  C27 UNL     1      11.973  53.693  90.712  1.00  0.00     0.141 C 
HETATM   11  C26 UNL     1      11.093  53.613  89.484  1.00  0.00     0.137 C 
BRANCH   9  12
HETATM   12  C6  UNL     1      13.607  54.941  91.924  1.00  0.00     0.141 C 
BRANCH  12  13
HETATM   13  C5  UNL     1      13.248  53.777  92.851  1.00  0.00     0.139 C 
BRANCH  13  14
HETATM   14  N1  UNL     1      12.793  54.327  94.095  1.00  0.00    -0.388 N 
ATOM     15  H1  UNL     1      13.471  54.635  94.792  1.00  0.00     0.159 HD
BRANCH  14  16
HETATM   16  C4  UNL     1      11.543  54.435  94.336  1.00  0.00     0.042 A 
HETATM   17  C3  UNL     1      10.710  53.355  94.293  1.00  0.00     0.054 A 
HETATM   18  C2  UNL     1       9.334  53.460  94.520  1.00  0.00     0.007 A 
HETATM   19  C1  UNL     1       8.499  52.237  94.436  1.00  0.00     0.068 C 
HETATM   20  N10 UNL     1       8.825  54.660  94.787  1.00  0.00    -0.359 N 
HETATM   21  C33 UNL     1       9.623  55.782  94.843  1.00  0.00     0.044 A 
ATOM     22  H10 UNL     1       7.823  54.751  94.954  1.00  0.00     0.166 HD
HETATM   23  C28 UNL     1      10.973  55.653  94.616  1.00  0.00     0.017 A 
HETATM   24  C32 UNL     1       9.022  56.992  95.102  1.00  0.00     0.030 A 
HETATM   25  C29 UNL     1      11.778  56.805  94.650  1.00  0.00     0.016 A 
HETATM   26  C30 UNL     1      11.184  58.005  94.906  1.00  0.00     0.001 A 
HETATM   27  C31 UNL     1       9.839  58.153  95.133  1.00  0.00     0.002 A 
ENDBRANCH  14  16
ENDBRANCH  13  14
ENDBRANCH  12  13
ENDBRANCH   9  12
ENDBRANCH   5   6
ENDBRANCH   4   5
ENDBRANCH   3   4
ENDBRANCH   1   3
BRANCH   1  28
HETATM   28  C12 UNL     1      13.074  52.633  83.533  1.00  0.00     0.103 C 
HETATM   29  C13 UNL     1      14.323  53.170  83.414  1.00  0.00     0.050 C 
HETATM   30  C14 UNL     1      15.333  52.808  82.538  1.00  0.00     0.036 C 
HETATM   31  C15 UNL     1      15.177  52.140  81.351  1.00  0.00     0.065 A 
HETATM   32  N5  UNL     1      16.206  52.030  80.470  1.00  0.00    -0.350 N 
HETATM   33  C17 UNL     1      14.054  51.513  80.875  1.00  0.00     0.118 A 
HETATM   34  C16 UNL     1      15.720  51.326  79.430  1.00  0.00     0.181 A 
ATOM     35  H5  UNL     1      17.150  52.404  80.575  1.00  0.00     0.166 HD
HETATM   36  N6  UNL     1      14.413  51.014  79.683  1.00  0.00    -0.347 N 
ATOM     37  H6  UNL     1      13.804  50.483  79.060  1.00  0.00     0.167 HD
HETATM   38  C18 UNL     1      12.774  51.349  81.423  1.00  0.00     0.204 C 
HETATM   39  N9  UNL     1      12.367  52.066  82.527  1.00  0.00    -0.316 N 
ATOM     40  H9  UNL     1      11.357  52.192  82.600  1.00  0.00     0.170 HD
BRANCH  38  41
HETATM   41  N7  UNL     1      12.002  50.588  80.955  1.00  0.00    -0.423 NA
BRANCH  41  42
HETATM   42  C19 UNL     1      11.117  49.715  80.418  1.00  0.00     0.165 C 
HETATM   43  C20 UNL     1      10.777  50.112  78.995  1.00  0.00     0.042 C 
HETATM   44  C21 UNL     1      10.017  49.152  78.185  1.00  0.00     0.041 C 
HETATM   45  C22 UNL     1       9.916  47.803  78.812  1.00  0.00     0.120 C 
HETATM   46  C23 UNL     1       9.541  46.793  77.722  1.00  0.00     0.046 C 
HETATM   47  C24 UNL     1      11.263  47.415  79.380  1.00  0.00     0.041 C 
HETATM   48  C25 UNL     1      11.686  48.302  80.500  1.00  0.00     0.042 C 
BRANCH  45  49
HETATM   49  N8  UNL     1       8.935  47.738  79.848  1.00  0.00    -0.071 N 
ATOM     50  H83 UNL     1       8.898  46.803  80.254  1.00  0.00     0.275 HD
ATOM     51  H82 UNL     1       9.236  48.266  80.667  1.00  0.00     0.275 HD
ATOM     52  H81 UNL     1       8.010  48.038  79.542  1.00  0.00     0.275 HD
ENDBRANCH  45  49
ENDBRANCH  41  42
ENDBRANCH  38  41
ENDBRANCH   1  28
TORSDOF 12
ENDMDL
