MODEL 1
REMARK VINA RESULT: -7.312893956      0.000      0.000
REMARK  11 active torsions:
REMARK  status: ('A' for Active; 'I' for Inactive)
REMARK    1  A    between atoms: C3_3  and  S1_4 
REMARK    2  A    between atoms: S1_4  and  C4_6 
REMARK    3  A    between atoms: S1_4  and  C6_8 
REMARK    4  A    between atoms: C6_8  and  C7_9 
REMARK    5  A    between atoms: C7_9  and  N1_10 
REMARK    6  A    between atoms: N1_10  and  C8_12 
REMARK    7  A    between atoms: C8_12  and  C10_14 
REMARK    8  A    between atoms: C14_18  and  O2_19 
REMARK    9  A    between atoms: C18_25  and  O4_26 
REMARK   10  A    between atoms: C20_29  and  O5_30 
REMARK   11  A    between atoms: C24_35  and  C25_36 
ROOT
HETATM    1  C1  UNL     1      15.559  52.454  82.338  1.00  0.00     0.013 C 
HETATM    2  C2  UNL     1      14.546  51.878  82.079  1.00  0.00    -0.106 C 
HETATM    3  C3  UNL     1      13.293  51.181  81.775  1.00  0.00     0.188 C 
ENDROOT
BRANCH   3   4
HETATM    4  S1  UNL     1      12.128  51.585  83.024  1.00  0.00    -0.043 S 
HETATM    5  O1  UNL     1      10.960  52.263  82.303  1.00  0.00    -0.269 OA
BRANCH   4   6
HETATM    6  C4  UNL     1      11.407  50.128  83.766  1.00  0.00     0.092 C 
HETATM    7  C5  UNL     1      12.188  49.638  84.956  1.00  0.00     0.017 C 
ENDBRANCH   4   6
BRANCH   4   8
HETATM    8  C6  UNL     1      12.712  52.738  84.204  1.00  0.00     0.116 C 
BRANCH   8   9
HETATM    9  C7  UNL     1      11.666  53.583  84.855  1.00  0.00     0.126 C 
BRANCH   9  10
HETATM   10  N1  UNL     1      11.509  53.195  86.214  1.00  0.00    -0.416 N 
ATOM     11  H1  UNL     1      12.211  53.408  86.923  1.00  0.00     0.153 HD
BRANCH  10  12
HETATM   12  C8  UNL     1      10.296  52.483  86.527  1.00  0.00     0.081 C 
HETATM   13  C9  UNL     1       9.104  53.270  86.065  1.00  0.00     0.032 C 
BRANCH  12  14
HETATM   14  C10 UNL     1      10.222  51.995  87.956  1.00  0.00     0.044 C 
HETATM   15  C11 UNL     1      11.496  51.363  88.348  1.00  0.00     0.012 C 
HETATM   16  C12 UNL     1      11.731  50.958  89.716  1.00  0.00     0.009 C 
HETATM   17  C13 UNL     1      11.084  51.558  90.883  1.00  0.00     0.028 C 
HETATM   18  C14 UNL     1       9.569  51.332  90.736  1.00  0.00     0.197 C 
HETATM   19  C33 UNL     1      11.426  52.921  91.353  1.00  0.00     0.014 C 
HETATM   20  C15 UNL     1       9.047  52.477  90.016  1.00  0.00     0.184 C 
HETATM   21  O3  UNL     1       8.020  53.003  90.444  1.00  0.00    -0.290 OA
HETATM   22  C16 UNL     1       9.670  53.082  88.772  1.00  0.00    -0.001 C 
HETATM   23  C17 UNL     1      10.327  54.336  89.029  1.00  0.00     0.044 C 
HETATM   24  C18 UNL     1      11.683  54.565  89.467  1.00  0.00     0.051 C 
HETATM   25  C19 UNL     1      12.340  53.713  90.500  1.00  0.00     0.076 C 
HETATM   26  C20 UNL     1      13.387  54.553  91.172  1.00  0.00     0.129 C 
HETATM   27  C21 UNL     1      13.732  54.238  92.563  1.00  0.00     0.038 C 
HETATM   28  C22 UNL     1      12.393  54.174  93.311  1.00  0.00    -0.003 C 
HETATM   29  C23 UNL     1      12.706  54.173  94.753  1.00  0.00     0.014 C 
HETATM   30  C31 UNL     1      11.760  52.920  92.846  1.00  0.00    -0.035 C 
HETATM   31  C24 UNL     1      11.760  53.419  95.640  1.00  0.00     0.021 C 
HETATM   32  C29 UNL     1      10.430  53.310  94.960  1.00  0.00     0.010 C 
HETATM   33  C30 UNL     1      10.458  52.680  93.616  1.00  0.00     0.010 C 
HETATM   34  C32 UNL     1      12.681  51.764  93.198  1.00  0.00     0.016 C 
BRANCH  18  35
HETATM   35  O2  UNL     1       9.412  50.101  90.125  1.00  0.00    -0.387 OA
ATOM     36  H2  UNL     1       8.644  50.170  89.570  1.00  0.00     0.210 HD
ENDBRANCH  18  35
BRANCH  24  37
HETATM   37  O4  UNL     1      12.613  54.769  88.408  1.00  0.00    -0.364 OA
ATOM     38  H4  UNL     1      13.467  55.072  88.693  1.00  0.00     0.217 HD
ENDBRANCH  24  37
BRANCH  26  39
HETATM   39  O5  UNL     1      14.599  54.592  90.440  1.00  0.00    -0.395 OA
ATOM     40  H5  UNL     1      15.303  54.131  90.880  1.00  0.00     0.210 HD
ENDBRANCH  26  39
BRANCH  31  41
HETATM   41  C25 UNL     1      11.527  54.154  96.919  1.00  0.00    -0.030 A 
HETATM   42  C26 UNL     1      11.492  53.637  98.189  1.00  0.00     0.034 A 
HETATM   43  C27 UNL     1      11.247  54.690  99.041  1.00  0.00     0.142 A 
HETATM   44  O6  UNL     1      11.141  55.777  98.320  1.00  0.00    -0.334 OA
HETATM   45  C28 UNL     1      11.296  55.528  97.054  1.00  0.00     0.148 A 
ENDBRANCH  31  41
ENDBRANCH  12  14
ENDBRANCH  10  12
ENDBRANCH   9  10
ENDBRANCH   8   9
ENDBRANCH   4   8
ENDBRANCH   3   4
TORSDOF 11
ENDMDL
MODEL 2
REMARK VINA RESULT: -7.278097072      3.072      9.795
REMARK  11 active torsions:
REMARK  status: ('A' for Active; 'I' for Inactive)
REMARK    1  A    between atoms: C3_3  and  S1_4 
REMARK    2  A    between atoms: S1_4  and  C4_6 
REMARK    3  A    between atoms: S1_4  and  C6_8 
REMARK    4  A    between atoms: C6_8  and  C7_9 
REMARK    5  A    between atoms: C7_9  and  N1_10 
REMARK    6  A    between atoms: N1_10  and  C8_12 
REMARK    7  A    between atoms: C8_12  and  C10_14 
REMARK    8  A    between atoms: C14_18  and  O2_19 
REMARK    9  A    between atoms: C18_25  and  O4_26 
REMARK   10  A    between atoms: C20_29  and  O5_30 
REMARK   11  A    between atoms: C24_35  and  C25_36 
ROOT
HETATM    1  C1  UNL     1      14.394  55.062  90.244  1.00  0.00     0.013 C 
HETATM    2  C2  UNL     1      13.911  54.965  91.330  1.00  0.00    -0.106 C 
HETATM    3  C3  UNL     1      13.309  54.830  92.660  1.00  0.00     0.188 C 
ENDROOT
BRANCH   3   4
HETATM    4  S1  UNL     1      12.160  53.505  92.606  1.00  0.00    -0.043 S 
HETATM    5  O1  UNL     1      12.721  52.505  91.592  1.00  0.00    -0.269 OA
BRANCH   4   6
HETATM    6  C4  UNL     1      12.107  52.597  94.144  1.00  0.00     0.092 C 
HETATM    7  C5  UNL     1      13.315  52.851  95.006  1.00  0.00     0.017 C 
ENDBRANCH   4   6
BRANCH   4   8
HETATM    8  C6  UNL     1      10.573  53.956  92.021  1.00  0.00     0.116 C 
BRANCH   8   9
HETATM    9  C7  UNL     1       9.589  52.838  91.892  1.00  0.00     0.126 C 
BRANCH   9  10
HETATM   10  N1  UNL     1       9.825  52.124  90.685  1.00  0.00    -0.416 N 
ATOM     11  H1  UNL     1      10.715  52.176  90.189  1.00  0.00     0.153 HD
BRANCH  10  12
HETATM   12  C8  UNL     1       8.727  51.324  90.205  1.00  0.00     0.081 C 
HETATM   13  C9  UNL     1       8.732  49.984  90.884  1.00  0.00     0.032 C 
BRANCH  12  14
HETATM   14  C10 UNL     1       8.616  51.273  88.698  1.00  0.00     0.044 C 
HETATM   15  C11 UNL     1       8.541  52.638  88.145  1.00  0.00     0.012 C 
HETATM   16  C12 UNL     1       8.589  52.862  86.717  1.00  0.00     0.009 C 
HETATM   17  C13 UNL     1       9.226  51.960  85.756  1.00  0.00     0.028 C 
HETATM   18  C14 UNL     1       8.500  50.606  85.846  1.00  0.00     0.197 C 
HETATM   19  C33 UNL     1      10.698  51.826  85.664  1.00  0.00     0.014 C 
HETATM   20  C15 UNL     1       9.201  49.827  86.849  1.00  0.00     0.184 C 
HETATM   21  O3  UNL     1       9.463  48.654  86.583  1.00  0.00    -0.290 OA
HETATM   22  C16 UNL     1       9.640  50.346  88.205  1.00  0.00    -0.001 C 
HETATM   23  C17 UNL     1      11.060  50.563  88.288  1.00  0.00     0.044 C 
HETATM   24  C18 UNL     1      11.809  51.740  87.918  1.00  0.00     0.051 C 
HETATM   25  C19 UNL     1      11.498  52.529  86.693  1.00  0.00     0.076 C 
HETATM   26  C20 UNL     1      12.768  53.205  86.263  1.00  0.00     0.129 C 
HETATM   27  C21 UNL     1      12.939  53.503  84.836  1.00  0.00     0.038 C 
HETATM   28  C22 UNL     1      12.643  52.185  84.106  1.00  0.00    -0.003 C 
HETATM   29  C23 UNL     1      13.103  52.352  82.714  1.00  0.00     0.014 C 
HETATM   30  C31 UNL     1      11.179  52.009  84.223  1.00  0.00    -0.035 C 
HETATM   31  C24 UNL     1      12.336  51.605  81.664  1.00  0.00     0.021 C 
HETATM   32  C29 UNL     1      11.642  50.439  82.297  1.00  0.00     0.010 C 
HETATM   33  C30 UNL     1      10.738  50.779  83.425  1.00  0.00     0.010 C 
HETATM   34  C32 UNL     1      10.502  53.203  83.570  1.00  0.00     0.016 C 
BRANCH  18  35
HETATM   35  O2  UNL     1       7.171  50.887  86.107  1.00  0.00    -0.387 OA
ATOM     36  H2  UNL     1       6.729  50.912  85.267  1.00  0.00     0.210 HD
ENDBRANCH  18  35
BRANCH  24  37
HETATM   37  O4  UNL     1      12.026  52.654  88.989  1.00  0.00    -0.364 OA
ATOM     38  H4  UNL     1      12.791  53.206  88.880  1.00  0.00     0.217 HD
ENDBRANCH  24  37
BRANCH  26  39
HETATM   39  O5  UNL     1      13.005  54.408  86.972  1.00  0.00    -0.395 OA
ATOM     40  H5  UNL     1      13.524  55.027  86.471  1.00  0.00     0.210 HD
ENDBRANCH  26  39
BRANCH  31  41
HETATM   41  C25 UNL     1      13.255  51.045  80.628  1.00  0.00    -0.030 A 
HETATM   42  C26 UNL     1      14.553  51.407  80.376  1.00  0.00     0.034 A 
HETATM   43  C27 UNL     1      14.991  50.619  79.335  1.00  0.00     0.142 A 
HETATM   44  O6  UNL     1      14.008  49.830  78.984  1.00  0.00    -0.334 OA
HETATM   45  C28 UNL     1      12.949  50.032  79.711  1.00  0.00     0.148 A 
ENDBRANCH  31  41
ENDBRANCH  12  14
ENDBRANCH  10  12
ENDBRANCH   9  10
ENDBRANCH   8   9
ENDBRANCH   4   8
ENDBRANCH   3   4
TORSDOF 11
ENDMDL
MODEL 3
REMARK VINA RESULT: -7.131831901      1.649      2.316
REMARK  11 active torsions:
REMARK  status: ('A' for Active; 'I' for Inactive)
REMARK    1  A    between atoms: C3_3  and  S1_4 
REMARK    2  A    between atoms: S1_4  and  C4_6 
REMARK    3  A    between atoms: S1_4  and  C6_8 
REMARK    4  A    between atoms: C6_8  and  C7_9 
REMARK    5  A    between atoms: C7_9  and  N1_10 
REMARK    6  A    between atoms: N1_10  and  C8_12 
REMARK    7  A    between atoms: C8_12  and  C10_14 
REMARK    8  A    between atoms: C14_18  and  O2_19 
REMARK    9  A    between atoms: C18_25  and  O4_26 
REMARK   10  A    between atoms: C20_29  and  O5_30 
REMARK   11  A    between atoms: C24_35  and  C25_36 
ROOT
HETATM    1  C1  UNL     1      15.038  51.015  79.404  1.00  0.00     0.013 C 
HETATM    2  C2  UNL     1      14.017  51.135  80.008  1.00  0.00    -0.106 C 
HETATM    3  C3  UNL     1      12.772  51.290  80.766  1.00  0.00     0.188 C 
ENDROOT
BRANCH   3   4
HETATM    4  S1  UNL     1      13.189  51.604  82.442  1.00  0.00    -0.043 S 
HETATM    5  O1  UNL     1      13.322  50.231  83.105  1.00  0.00    -0.269 OA
BRANCH   4   6
HETATM    6  C4  UNL     1      14.812  52.335  82.604  1.00  0.00     0.092 C 
HETATM    7  C5  UNL     1      14.807  53.570  83.465  1.00  0.00     0.017 C 
ENDBRANCH   4   6
BRANCH   4   8
HETATM    8  C6  UNL     1      11.957  52.464  83.339  1.00  0.00     0.116 C 
BRANCH   8   9
HETATM    9  C7  UNL     1      10.868  51.619  83.915  1.00  0.00     0.126 C 
BRANCH   9  10
HETATM   10  N1  UNL     1      11.292  51.065  85.155  1.00  0.00    -0.416 N 
ATOM     11  H1  UNL     1      12.197  51.290  85.568  1.00  0.00     0.153 HD
BRANCH  10  12
HETATM   12  C8  UNL     1      10.362  50.166  85.790  1.00  0.00     0.081 C 
HETATM   13  C9  UNL     1       8.986  50.363  85.222  1.00  0.00     0.032 C 
BRANCH  12  14
HETATM   14  C10 UNL     1      10.435  50.172  87.300  1.00  0.00     0.044 C 
HETATM   15  C11 UNL     1      11.834  50.035  87.746  1.00  0.00     0.012 C 
HETATM   16  C12 UNL     1      12.183  50.173  89.142  1.00  0.00     0.009 C 
HETATM   17  C13 UNL     1      11.415  50.947  90.117  1.00  0.00     0.028 C 
HETATM   18  C14 UNL     1      10.010  50.323  90.197  1.00  0.00     0.197 C 
HETATM   19  C33 UNL     1      11.393  52.428  90.099  1.00  0.00     0.014 C 
HETATM   20  C15 UNL     1       9.199  51.004  89.206  1.00  0.00     0.184 C 
HETATM   21  O3  UNL     1       8.074  51.375  89.544  1.00  0.00    -0.290 OA
HETATM   22  C16 UNL     1       9.627  51.299  87.782  1.00  0.00    -0.001 C 
HETATM   23  C17 UNL     1       9.935  52.687  87.566  1.00  0.00     0.044 C 
HETATM   24  C18 UNL     1      11.190  53.370  87.777  1.00  0.00     0.051 C 
HETATM   25  C19 UNL     1      12.059  53.093  88.956  1.00  0.00     0.076 C 
HETATM   26  C20 UNL     1      12.857  54.336  89.225  1.00  0.00     0.129 C 
HETATM   27  C21 UNL     1      13.288  54.590  90.604  1.00  0.00     0.038 C 
HETATM   28  C22 UNL     1      12.021  54.452  91.460  1.00  0.00    -0.003 C 
HETATM   29  C23 UNL     1      12.340  55.002  92.792  1.00  0.00     0.014 C 
HETATM   30  C31 UNL     1      11.734  53.001  91.477  1.00  0.00    -0.035 C 
HETATM   31  C24 UNL     1      11.635  54.375  93.958  1.00  0.00     0.021 C 
HETATM   32  C29 UNL     1      10.372  53.727  93.479  1.00  0.00     0.010 C 
HETATM   33  C30 UNL     1      10.549  52.717  92.406  1.00  0.00     0.010 C 
HETATM   34  C32 UNL     1      12.929  52.286  92.085  1.00  0.00     0.016 C 
BRANCH  18  35
HETATM   35  O2  UNL     1      10.174  48.961  90.023  1.00  0.00    -0.387 OA
ATOM     36  H2  UNL     1       9.307  48.576  90.066  1.00  0.00     0.210 HD
ENDBRANCH  18  35
BRANCH  24  37
HETATM   37  O4  UNL     1      12.021  53.435  86.622  1.00  0.00    -0.364 OA
ATOM     38  H4  UNL     1      12.843  52.966  86.708  1.00  0.00     0.217 HD
ENDBRANCH  24  37
BRANCH  26  39
HETATM   39  O5  UNL     1      14.008  54.426  88.404  1.00  0.00    -0.395 OA
ATOM     40  H5  UNL     1      14.731  53.906  88.736  1.00  0.00     0.210 HD
ENDBRANCH  26  39
BRANCH  31  41
HETATM   41  C25 UNL     1      11.233  55.409  94.957  1.00  0.00    -0.030 A 
HETATM   42  C26 UNL     1      10.583  56.594  94.721  1.00  0.00     0.034 A 
HETATM   43  C27 UNL     1      10.428  57.213  95.942  1.00  0.00     0.142 A 
HETATM   44  O6  UNL     1      10.957  56.440  96.856  1.00  0.00    -0.334 OA
HETATM   45  C28 UNL     1      11.452  55.356  96.339  1.00  0.00     0.148 A 
ENDBRANCH  31  41
ENDBRANCH  12  14
ENDBRANCH  10  12
ENDBRANCH   9  10
ENDBRANCH   8   9
ENDBRANCH   4   8
ENDBRANCH   3   4
TORSDOF 11
ENDMDL
MODEL 4
REMARK VINA RESULT: -7.026486045      2.913      9.734
REMARK  11 active torsions:
REMARK  status: ('A' for Active; 'I' for Inactive)
REMARK    1  A    between atoms: C3_3  and  S1_4 
REMARK    2  A    between atoms: S1_4  and  C4_6 
REMARK    3  A    between atoms: S1_4  and  C6_8 
REMARK    4  A    between atoms: C6_8  and  C7_9 
REMARK    5  A    between atoms: C7_9  and  N1_10 
REMARK    6  A    between atoms: N1_10  and  C8_12 
REMARK    7  A    between atoms: C8_12  and  C10_14 
REMARK    8  A    between atoms: C14_18  and  O2_19 
REMARK    9  A    between atoms: C18_25  and  O4_26 
REMARK   10  A    between atoms: C20_29  and  O5_30 
REMARK   11  A    between atoms: C24_35  and  C25_36 
ROOT
HETATM    1  C1  UNL     1      11.429  58.270  95.087  1.00  0.00     0.013 C 
HETATM    2  C2  UNL     1      10.686  57.352  94.919  1.00  0.00    -0.106 C 
HETATM    3  C3  UNL     1       9.789  56.212  94.712  1.00  0.00     0.188 C 
ENDROOT
BRANCH   3   4
HETATM    4  S1  UNL     1      10.771  54.808  94.330  1.00  0.00    -0.043 S 
HETATM    5  O1  UNL     1      11.371  55.081  92.948  1.00  0.00    -0.269 OA
BRANCH   4   6
HETATM    6  C4  UNL     1      12.186  54.664  95.410  1.00  0.00     0.092 C 
HETATM    7  C5  UNL     1      12.094  53.476  96.330  1.00  0.00     0.017 C 
ENDBRANCH   4   6
BRANCH   4   8
HETATM    8  C6  UNL     1       9.865  53.318  94.184  1.00  0.00     0.116 C 
BRANCH   8   9
HETATM    9  C7  UNL     1      10.334  52.376  93.123  1.00  0.00     0.126 C 
BRANCH   9  10
HETATM   10  N1  UNL     1       9.691  52.676  91.891  1.00  0.00    -0.416 N 
ATOM     11  H1  UNL     1       9.797  53.580  91.430  1.00  0.00     0.153 HD
BRANCH  10  12
HETATM   12  C8  UNL     1       8.878  51.624  91.335  1.00  0.00     0.081 C 
HETATM   13  C9  UNL     1       9.183  50.323  92.020  1.00  0.00     0.032 C 
BRANCH  12  14
HETATM   14  C10 UNL     1       8.895  51.568  89.824  1.00  0.00     0.044 C 
HETATM   15  C11 UNL     1       8.685  52.914  89.260  1.00  0.00     0.012 C 
HETATM   16  C12 UNL     1       8.817  53.150  87.840  1.00  0.00     0.009 C 
HETATM   17  C13 UNL     1       9.642  52.346  86.937  1.00  0.00     0.028 C 
HETATM   18  C14 UNL     1       9.097  50.907  86.976  1.00  0.00     0.197 C 
HETATM   19  C33 UNL     1      11.121  52.409  86.964  1.00  0.00     0.014 C 
HETATM   20  C15 UNL     1       9.812  50.222  88.035  1.00  0.00     0.184 C 
HETATM   21  O3  UNL     1      10.247  49.096  87.797  1.00  0.00    -0.290 OA
HETATM   22  C16 UNL     1      10.069  50.787  89.419  1.00  0.00    -0.001 C 
HETATM   23  C17 UNL     1      11.437  51.189  89.615  1.00  0.00     0.044 C 
HETATM   24  C18 UNL     1      12.051  52.457  89.300  1.00  0.00     0.051 C 
HETATM   25  C19 UNL     1      11.737  53.205  88.049  1.00  0.00     0.076 C 
HETATM   26  C20 UNL     1      12.937  54.046  87.719  1.00  0.00     0.129 C 
HETATM   27  C21 UNL     1      13.180  54.371  86.309  1.00  0.00     0.038 C 
HETATM   28  C22 UNL     1      13.120  53.030  85.564  1.00  0.00    -0.003 C 
HETATM   29  C23 UNL     1      13.664  53.265  84.212  1.00  0.00     0.014 C 
HETATM   30  C31 UNL     1      11.687  52.662  85.565  1.00  0.00    -0.035 C 
HETATM   31  C24 UNL     1      13.088  52.428  83.108  1.00  0.00     0.021 C 
HETATM   32  C29 UNL     1      12.507  51.177  83.690  1.00  0.00     0.010 C 
HETATM   33  C30 UNL     1      11.478  51.388  84.740  1.00  0.00     0.010 C 
HETATM   34  C32 UNL     1      10.913  53.759  84.854  1.00  0.00     0.016 C 
BRANCH  18  35
HETATM   35  O2  UNL     1       7.726  51.009  87.129  1.00  0.00    -0.387 OA
ATOM     36  H2  UNL     1       7.371  51.199  86.268  1.00  0.00     0.210 HD
ENDBRANCH  18  35
BRANCH  24  37
HETATM   37  O4  UNL     1      12.058  53.386  90.379  1.00  0.00    -0.364 OA
ATOM     38  H4  UNL     1      11.767  54.259  90.143  1.00  0.00     0.217 HD
ENDBRANCH  24  37
BRANCH  26  39
HETATM   39  O5  UNL     1      12.955  55.266  88.438  1.00  0.00    -0.395 OA
ATOM     40  H5  UNL     1      13.829  55.633  88.506  1.00  0.00     0.210 HD
ENDBRANCH  26  39
BRANCH  31  41
HETATM   41  C25 UNL     1      14.152  52.001  82.152  1.00  0.00    -0.030 A 
HETATM   42  C26 UNL     1      15.444  52.456  82.077  1.00  0.00     0.034 A 
HETATM   43  C27 UNL     1      16.048  51.773  81.044  1.00  0.00     0.142 A 
HETATM   44  O6  UNL     1      15.165  50.956  80.530  1.00  0.00    -0.334 OA
HETATM   45  C28 UNL     1      14.020  51.041  81.141  1.00  0.00     0.148 A 
ENDBRANCH  31  41
ENDBRANCH  12  14
ENDBRANCH  10  12
ENDBRANCH   9  10
ENDBRANCH   8   9
ENDBRANCH   4   8
ENDBRANCH   3   4
TORSDOF 11
ENDMDL
MODEL 5
REMARK VINA RESULT: -6.981443301      1.627      2.480
REMARK  11 active torsions:
REMARK  status: ('A' for Active; 'I' for Inactive)
REMARK    1  A    between atoms: C3_3  and  S1_4 
REMARK    2  A    between atoms: S1_4  and  C4_6 
REMARK    3  A    between atoms: S1_4  and  C6_8 
REMARK    4  A    between atoms: C6_8  and  C7_9 
REMARK    5  A    between atoms: C7_9  and  N1_10 
REMARK    6  A    between atoms: N1_10  and  C8_12 
REMARK    7  A    between atoms: C8_12  and  C10_14 
REMARK    8  A    between atoms: C14_18  and  O2_19 
REMARK    9  A    between atoms: C18_25  and  O4_26 
REMARK   10  A    between atoms: C20_29  and  O5_30 
REMARK   11  A    between atoms: C24_35  and  C25_36 
ROOT
HETATM    1  C1  UNL     1      14.306  53.931  84.212  1.00  0.00     0.013 C 
HETATM    2  C2  UNL     1      14.433  53.130  83.338  1.00  0.00    -0.106 C 
HETATM    3  C3  UNL     1      14.571  52.141  82.265  1.00  0.00     0.188 C 
ENDROOT
BRANCH   3   4
HETATM    4  S1  UNL     1      13.119  51.156  82.242  1.00  0.00    -0.043 S 
HETATM    5  O1  UNL     1      11.945  52.139  82.264  1.00  0.00    -0.269 OA
BRANCH   4   6
HETATM    6  C4  UNL     1      12.931  50.272  80.701  1.00  0.00     0.092 C 
HETATM    7  C5  UNL     1      14.010  50.608  79.706  1.00  0.00     0.017 C 
ENDBRANCH   4   6
BRANCH   4   8
HETATM    8  C6  UNL     1      12.925  50.132  83.648  1.00  0.00     0.116 C 
BRANCH   8   9
HETATM    9  C7  UNL     1      11.522  49.729  83.966  1.00  0.00     0.126 C 
BRANCH   9  10
HETATM   10  N1  UNL     1      11.032  50.501  85.056  1.00  0.00    -0.416 N 
ATOM     11  H1  UNL     1      11.418  51.417  85.288  1.00  0.00     0.153 HD
BRANCH  10  12
HETATM   12  C8  UNL     1       9.958  49.909  85.811  1.00  0.00     0.081 C 
HETATM   13  C9  UNL     1       8.638  50.447  85.337  1.00  0.00     0.032 C 
BRANCH  12  14
HETATM   14  C10 UNL     1      10.162  49.953  87.309  1.00  0.00     0.044 C 
HETATM   15  C11 UNL     1      11.598  49.847  87.632  1.00  0.00     0.012 C 
HETATM   16  C12 UNL     1      12.065  50.024  88.989  1.00  0.00     0.009 C 
HETATM   17  C13 UNL     1      11.373  50.811  90.010  1.00  0.00     0.028 C 
HETATM   18  C14 UNL     1       9.991  50.168  90.227  1.00  0.00     0.197 C 
HETATM   19  C33 UNL     1      11.325  52.290  89.960  1.00  0.00     0.014 C 
HETATM   20  C15 UNL     1       9.085  50.813  89.297  1.00  0.00     0.184 C 
HETATM   21  O3  UNL     1       7.988  51.176  89.724  1.00  0.00    -0.290 OA
HETATM   22  C16 UNL     1       9.382  51.079  87.834  1.00  0.00    -0.001 C 
HETATM   23  C17 UNL     1       9.647  52.467  87.560  1.00  0.00     0.044 C 
HETATM   24  C18 UNL     1      10.903  53.173  87.644  1.00  0.00     0.051 C 
HETATM   25  C19 UNL     1      11.877  52.936  88.748  1.00  0.00     0.076 C 
HETATM   26  C20 UNL     1      12.675  54.197  88.917  1.00  0.00     0.129 C 
HETATM   27  C21 UNL     1      13.222  54.491  90.246  1.00  0.00     0.038 C 
HETATM   28  C22 UNL     1      12.036  54.355  91.214  1.00  0.00    -0.003 C 
HETATM   29  C23 UNL     1      12.463  54.942  92.500  1.00  0.00     0.014 C 
HETATM   30  C31 UNL     1      11.776  52.901  91.289  1.00  0.00    -0.035 C 
HETATM   31  C24 UNL     1      11.873  54.333  93.737  1.00  0.00     0.021 C 
HETATM   32  C29 UNL     1      10.583  53.656  93.386  1.00  0.00     0.010 C 
HETATM   33  C30 UNL     1      10.682  52.623  92.325  1.00  0.00     0.010 C 
HETATM   34  C32 UNL     1      13.032  52.218  91.805  1.00  0.00     0.016 C 
BRANCH  18  35
HETATM   35  O2  UNL     1      10.162  48.805  90.070  1.00  0.00    -0.387 OA
ATOM     36  H2  UNL     1       9.613  48.387  90.724  1.00  0.00     0.210 HD
ENDBRANCH  18  35
BRANCH  24  37
HETATM   37  O4  UNL     1      11.629  53.221  86.419  1.00  0.00    -0.364 OA
ATOM     38  H4  UNL     1      12.573  53.220  86.526  1.00  0.00     0.217 HD
ENDBRANCH  24  37
BRANCH  26  39
HETATM   39  O5  UNL     1      13.748  54.283  87.996  1.00  0.00    -0.395 OA
ATOM     40  H5  UNL     1      14.567  54.519  88.416  1.00  0.00     0.210 HD
ENDBRANCH  26  39
BRANCH  31  41
HETATM   41  C25 UNL     1      11.542  55.385  94.744  1.00  0.00    -0.030 A 
HETATM   42  C26 UNL     1      11.359  56.727  94.524  1.00  0.00     0.034 A 
HETATM   43  C27 UNL     1      11.074  57.295  95.746  1.00  0.00     0.142 A 
HETATM   44  O6  UNL     1      11.087  56.345  96.646  1.00  0.00    -0.334 OA
HETATM   45  C28 UNL     1      11.359  55.189  96.118  1.00  0.00     0.148 A 
ENDBRANCH  31  41
ENDBRANCH  12  14
ENDBRANCH  10  12
ENDBRANCH   9  10
ENDBRANCH   8   9
ENDBRANCH   4   8
ENDBRANCH   3   4
TORSDOF 11
ENDMDL
