MODEL 1
REMARK VINA RESULT: -6.128444903      0.000      0.000
REMARK  13 active torsions:
REMARK  status: ('A' for Active; 'I' for Inactive)
REMARK    1  A    between atoms: C3_5  and  C4_6 
REMARK    2  A    between atoms: N2_12  and  C9_13 
REMARK    3  A    between atoms: C10_16  and  C11_17 
REMARK       I    between atoms: C11_17  and  N3_19 
REMARK    4  A    between atoms: N3_19  and  C12_21 
REMARK    5  A    between atoms: C12_21  and  C13_22 
REMARK    6  A    between atoms: C12_21  and  C14_29 
REMARK    7  A    between atoms: C13_22  and  N4_23 
REMARK    8  A    between atoms: N4_23  and  N5_25 
REMARK    9  A    between atoms: N5_25  and  N6_26 
REMARK   10  A    between atoms: C17_32  and  C18_33 
REMARK   11  A    between atoms: C20_37  and  C21_38 
REMARK   12  A    between atoms: C21_38  and  S1_39 
REMARK   13  A    between atoms: S1_39  and  C22_40 
ROOT
HETATM    1  C1  UNL     1      11.876   8.762  22.031  1.00  0.00     0.074 C 
HETATM    2  C2  UNL     1      12.054   8.354  20.629  1.00  0.00     0.074 C 
HETATM    3  N1  UNL     1      12.034   9.257  19.751  1.00  0.00    -0.358 N 
ATOM      4  H1  UNL     1      11.884  10.157  20.206  1.00  0.00     0.165 HD
HETATM    5  C3  UNL     1      12.151   9.469  18.298  1.00  0.00     0.029 C 
HETATM    6  C7  UNL     1      12.014   8.609  17.351  1.00  0.00     0.068 A 
HETATM    7  C8  UNL     1      12.209   9.248  16.129  1.00  0.00     0.261 A 
HETATM    8  O1  UNL     1      12.297  10.473  15.949  1.00  0.00    -0.267 OA
HETATM    9  N2  UNL     1      12.306   8.421  14.961  1.00  0.00    -0.274 N 
HETATM   10  C10 UNL     1      12.297   6.996  14.960  1.00  0.00     0.226 A 
HETATM   11  C17 UNL     1      12.057   6.345  16.297  1.00  0.00     0.064 A 
HETATM   12  C19 UNL     1      11.927   7.082  17.315  1.00  0.00     0.021 A 
HETATM   13  C20 UNL     1      11.304   6.215  18.306  1.00  0.00     0.034 C 
HETATM   14  N8  UNL     1      11.381   6.083  19.588  1.00  0.00    -0.324 N 
ATOM     15  H8  UNL     1      10.808   5.345  19.996  1.00  0.00     0.169 HD
HETATM   16  C27 UNL     1      12.195   6.869  20.535  1.00  0.00     0.268 C 
HETATM   17  O5  UNL     1      12.977   6.311  21.240  1.00  0.00    -0.266 OA
ENDROOT
BRANCH  10  18
HETATM   18  C11 UNL     1      13.504   6.455  14.299  1.00  0.00     0.246 C 
HETATM   19  O2  UNL     1      14.622   6.792  14.736  1.00  0.00    -0.271 OA
HETATM   20  N3  UNL     1      13.478   5.575  13.191  1.00  0.00    -0.352 N 
ATOM     21  H3  UNL     1      12.566   5.297  12.829  1.00  0.00     0.163 HD
BRANCH  20  22
HETATM   22  C12 UNL     1      14.645   5.045  12.537  1.00  0.00     0.108 C 
BRANCH  22  23
HETATM   23  C13 UNL     1      14.763   3.564  12.604  1.00  0.00     0.181 C 
BRANCH  23  24
HETATM   24  N4  UNL     1      14.580   2.967  13.884  1.00  0.00    -0.251 N 
ATOM     25  H4  UNL     1      13.918   2.200  13.996  1.00  0.00     0.197 HD
BRANCH  24  26
HETATM   26  N5  UNL     1      15.207   3.366  14.838  1.00  0.00    -0.248 NA
BRANCH  26  27
HETATM   27  N6  UNL     1      15.731   3.931  15.811  1.00  0.00    -0.261 N 
ATOM     28  H62 UNL     1      14.918   3.646  16.357  1.00  0.00     0.193 HD
ATOM     29  H61 UNL     1      16.281   4.433  16.508  1.00  0.00     0.193 HD
ENDBRANCH  26  27
ENDBRANCH  24  26
ENDBRANCH  23  24
ENDBRANCH  22  23
BRANCH  22  30
HETATM   30  C14 UNL     1      14.852   5.667  11.196  1.00  0.00     0.002 C 
HETATM   31  C15 UNL     1      15.734   6.862  11.154  1.00  0.00     0.011 C 
HETATM   32  C16 UNL     1      13.514   5.899  10.519  1.00  0.00     0.011 C 
ENDBRANCH  22  30
ENDBRANCH  20  22
ENDBRANCH  10  18
BRANCH   9  33
HETATM   33  C9  UNL     1      12.382   9.158  13.690  1.00  0.00     0.464 C 
HETATM   34  F1  UNL     1      11.656   8.473  12.734  1.00  0.00    -0.191 F 
HETATM   35  F2  UNL     1      13.669   9.397  13.287  1.00  0.00    -0.191 F 
ENDBRANCH   9  33
BRANCH  11  36
HETATM   36  C18 UNL     1      12.351   4.905  16.401  1.00  0.00     0.208 C 
HETATM   37  O3  UNL     1      11.900   4.089  15.576  1.00  0.00    -0.644 OA
HETATM   38  O4  UNL     1      13.132   4.342  17.389  1.00  0.00    -0.644 OA
ENDBRANCH  11  36
BRANCH  13  39
HETATM   39  C21 UNL     1      10.109   5.559  17.722  1.00  0.00     0.139 C 
BRANCH  39  40
HETATM   40  S1  UNL     1       8.655   6.031  18.814  1.00  0.00    -0.106 SA
BRANCH  40  41
HETATM   41  C22 UNL     1       8.561   7.814  18.684  1.00  0.00     0.069 A 
HETATM   42  C23 UNL     1       8.512   8.600  19.834  1.00  0.00     0.037 A 
HETATM   43  C24 UNL     1       8.441   9.974  19.762  1.00  0.00     0.004 A 
HETATM   44  C25 UNL     1       8.418  10.599  18.530  1.00  0.00     0.017 A 
HETATM   45  C26 UNL     1       8.466   9.816  17.401  1.00  0.00     0.089 A 
HETATM   46  N7  UNL     1       8.535   8.478  17.516  1.00  0.00    -0.361 N 
ATOM     47  H7  UNL     1       8.571   7.929  16.657  1.00  0.00     0.165 HD
ENDBRANCH  40  41
ENDBRANCH  39  40
ENDBRANCH  13  39
BRANCH   5  48
HETATM   48  C4  UNL     1      12.603  10.821  18.148  1.00  0.00     0.028 C 
HETATM   49  C5  UNL     1      11.893  11.764  19.164  1.00  0.00     0.016 C 
HETATM   50  C6  UNL     1      14.037  10.723  18.852  1.00  0.00     0.016 C 
ENDBRANCH   5  48
TORSDOF 13
ENDMDL
MODEL 2
REMARK VINA RESULT: -6.005930306      2.604      6.971
REMARK  13 active torsions:
REMARK  status: ('A' for Active; 'I' for Inactive)
REMARK    1  A    between atoms: C3_5  and  C4_6 
REMARK    2  A    between atoms: N2_12  and  C9_13 
REMARK    3  A    between atoms: C10_16  and  C11_17 
REMARK       I    between atoms: C11_17  and  N3_19 
REMARK    4  A    between atoms: N3_19  and  C12_21 
REMARK    5  A    between atoms: C12_21  and  C13_22 
REMARK    6  A    between atoms: C12_21  and  C14_29 
REMARK    7  A    between atoms: C13_22  and  N4_23 
REMARK    8  A    between atoms: N4_23  and  N5_25 
REMARK    9  A    between atoms: N5_25  and  N6_26 
REMARK   10  A    between atoms: C17_32  and  C18_33 
REMARK   11  A    between atoms: C20_37  and  C21_38 
REMARK   12  A    between atoms: C21_38  and  S1_39 
REMARK   13  A    between atoms: S1_39  and  C22_40 
ROOT
HETATM    1  C1  UNL     1      15.006   4.007  11.156  1.00  0.00     0.074 C 
HETATM    2  C2  UNL     1      14.267   4.584  12.289  1.00  0.00     0.074 C 
HETATM    3  N1  UNL     1      14.301   5.834  12.433  1.00  0.00    -0.358 N 
ATOM      4  H1  UNL     1      14.875   6.237  11.693  1.00  0.00     0.165 HD
HETATM    5  C3  UNL     1      13.803   6.920  13.294  1.00  0.00     0.029 C 
HETATM    6  C7  UNL     1      13.339   6.841  14.492  1.00  0.00     0.068 A 
HETATM    7  C8  UNL     1      12.986   8.117  14.925  1.00  0.00     0.261 A 
HETATM    8  O1  UNL     1      13.253   9.185  14.351  1.00  0.00    -0.267 OA
HETATM    9  N2  UNL     1      12.255   8.218  16.155  1.00  0.00    -0.274 N 
HETATM   10  C10 UNL     1      11.793   7.113  16.928  1.00  0.00     0.226 A 
HETATM   11  C17 UNL     1      12.219   5.753  16.441  1.00  0.00     0.064 A 
HETATM   12  C19 UNL     1      12.903   5.675  15.382  1.00  0.00     0.021 A 
HETATM   13  C20 UNL     1      13.487   4.342  15.430  1.00  0.00     0.034 C 
HETATM   14  N8  UNL     1      13.785   3.439  14.558  1.00  0.00    -0.324 N 
ATOM     15  H8  UNL     1      14.182   2.575  14.928  1.00  0.00     0.169 HD
HETATM   16  C27 UNL     1      13.623   3.501  13.092  1.00  0.00     0.268 C 
HETATM   17  O5  UNL     1      12.970   2.672  12.539  1.00  0.00    -0.266 OA
ENDROOT
BRANCH  10  18
HETATM   18  C11 UNL     1      10.332   7.184  17.140  1.00  0.00     0.246 C 
HETATM   19  O2  UNL     1       9.585   7.153  16.142  1.00  0.00    -0.271 OA
HETATM   20  N3  UNL     1       9.715   7.288  18.410  1.00  0.00    -0.352 N 
ATOM     21  H3  UNL     1      10.322   7.314  19.230  1.00  0.00     0.163 HD
BRANCH  20  22
HETATM   22  C12 UNL     1       8.295   7.361  18.629  1.00  0.00     0.108 C 
BRANCH  22  23
HETATM   23  C13 UNL     1       7.727   6.188  19.345  1.00  0.00     0.181 C 
BRANCH  23  24
HETATM   24  N4  UNL     1       8.085   4.902  18.849  1.00  0.00    -0.251 N 
ATOM     25  H4  UNL     1       8.470   4.202  19.483  1.00  0.00     0.197 HD
BRANCH  24  26
HETATM   26  N5  UNL     1       7.934   4.636  17.678  1.00  0.00    -0.248 NA
BRANCH  26  27
HETATM   27  N6  UNL     1       7.953   4.455  16.451  1.00  0.00    -0.261 N 
ATOM     28  H62 UNL     1       8.395   3.555  16.636  1.00  0.00     0.193 HD
ATOM     29  H61 UNL     1       7.897   4.452  15.433  1.00  0.00     0.193 HD
ENDBRANCH  26  27
ENDBRANCH  24  26
ENDBRANCH  23  24
ENDBRANCH  22  23
BRANCH  22  30
HETATM   30  C14 UNL     1       7.886   8.706  19.129  1.00  0.00     0.002 C 
HETATM   31  C15 UNL     1       7.867   9.803  18.127  1.00  0.00     0.011 C 
HETATM   32  C16 UNL     1       8.678   9.060  20.374  1.00  0.00     0.011 C 
ENDBRANCH  22  30
ENDBRANCH  20  22
ENDBRANCH  10  18
BRANCH   9  33
HETATM   33  C9  UNL     1      12.024   9.593  16.623  1.00  0.00     0.464 C 
HETATM   34  F1  UNL     1      12.094   9.611  18.003  1.00  0.00    -0.191 F 
HETATM   35  F2  UNL     1      10.850  10.125  16.159  1.00  0.00    -0.191 F 
ENDBRANCH   9  33
BRANCH  11  36
HETATM   36  C18 UNL     1      11.517   4.590  17.011  1.00  0.00     0.208 C 
HETATM   37  O3  UNL     1      11.396   4.443  18.242  1.00  0.00    -0.644 OA
HETATM   38  O4  UNL     1      10.942   3.586  16.260  1.00  0.00    -0.644 OA
ENDBRANCH  11  36
BRANCH  13  39
HETATM   39  C21 UNL     1      14.147   4.129  16.741  1.00  0.00     0.139 C 
BRANCH  39  40
HETATM   40  S1  UNL     1      15.823   4.971  16.637  1.00  0.00    -0.106 SA
BRANCH  40  41
HETATM   41  C22 UNL     1      15.591   6.531  17.486  1.00  0.00     0.069 A 
HETATM   42  C23 UNL     1      16.064   7.714  16.922  1.00  0.00     0.037 A 
HETATM   43  C24 UNL     1      15.897   8.927  17.553  1.00  0.00     0.004 A 
HETATM   44  C25 UNL     1      15.249   8.987  18.771  1.00  0.00     0.017 A 
HETATM   45  C26 UNL     1      14.785   7.814  19.321  1.00  0.00     0.089 A 
HETATM   46  N7  UNL     1      14.968   6.651  18.671  1.00  0.00    -0.361 N 
ATOM     47  H7  UNL     1      14.610   5.802  19.107  1.00  0.00     0.165 HD
ENDBRANCH  40  41
ENDBRANCH  39  40
ENDBRANCH  13  39
BRANCH   5  48
HETATM   48  C4  UNL     1      13.798   8.090  12.465  1.00  0.00     0.028 C 
HETATM   49  C5  UNL     1      15.063   8.138  11.558  1.00  0.00     0.016 C 
HETATM   50  C6  UNL     1      12.716   7.659  11.369  1.00  0.00     0.016 C 
ENDBRANCH   5  48
TORSDOF 13
ENDMDL
MODEL 3
REMARK VINA RESULT: -5.920745776      3.086      7.831
REMARK  13 active torsions:
REMARK  status: ('A' for Active; 'I' for Inactive)
REMARK    1  A    between atoms: C3_5  and  C4_6 
REMARK    2  A    between atoms: N2_12  and  C9_13 
REMARK    3  A    between atoms: C10_16  and  C11_17 
REMARK       I    between atoms: C11_17  and  N3_19 
REMARK    4  A    between atoms: N3_19  and  C12_21 
REMARK    5  A    between atoms: C12_21  and  C13_22 
REMARK    6  A    between atoms: C12_21  and  C14_29 
REMARK    7  A    between atoms: C13_22  and  N4_23 
REMARK    8  A    between atoms: N4_23  and  N5_25 
REMARK    9  A    between atoms: N5_25  and  N6_26 
REMARK   10  A    between atoms: C17_32  and  C18_33 
REMARK   11  A    between atoms: C20_37  and  C21_38 
REMARK   12  A    between atoms: C21_38  and  S1_39 
REMARK   13  A    between atoms: S1_39  and  C22_40 
ROOT
HETATM    1  C1  UNL     1      14.955   4.041  11.042  1.00  0.00     0.074 C 
HETATM    2  C2  UNL     1      14.230   4.584  12.201  1.00  0.00     0.074 C 
HETATM    3  N1  UNL     1      14.274   5.829  12.386  1.00  0.00    -0.358 N 
ATOM      4  H1  UNL     1      14.844   6.253  11.654  1.00  0.00     0.165 HD
HETATM    5  C3  UNL     1      13.791   6.889  13.289  1.00  0.00     0.029 C 
HETATM    6  C7  UNL     1      13.338   6.772  14.487  1.00  0.00     0.068 A 
HETATM    7  C8  UNL     1      12.997   8.035  14.966  1.00  0.00     0.261 A 
HETATM    8  O1  UNL     1      13.266   9.120  14.426  1.00  0.00    -0.267 OA
HETATM    9  N2  UNL     1      12.278   8.098  16.206  1.00  0.00    -0.274 N 
HETATM   10  C10 UNL     1      11.817   6.971  16.946  1.00  0.00     0.226 A 
HETATM   11  C17 UNL     1      12.229   5.626  16.410  1.00  0.00     0.064 A 
HETATM   12  C19 UNL     1      12.902   5.579  15.341  1.00  0.00     0.021 A 
HETATM   13  C20 UNL     1      13.479   4.242  15.339  1.00  0.00     0.034 C 
HETATM   14  N8  UNL     1      13.762   3.366  14.435  1.00  0.00    -0.324 N 
ATOM     15  H8  UNL     1      14.156   2.488  14.771  1.00  0.00     0.169 HD
HETATM   16  C27 UNL     1      13.587   3.479  12.973  1.00  0.00     0.268 C 
HETATM   17  O5  UNL     1      12.923   2.674  12.399  1.00  0.00    -0.266 OA
ENDROOT
BRANCH  10  18
HETATM   18  C11 UNL     1      10.358   7.044  17.174  1.00  0.00     0.246 C 
HETATM   19  O2  UNL     1       9.600   7.021  16.184  1.00  0.00    -0.271 OA
HETATM   20  N3  UNL     1       9.755   7.141  18.451  1.00  0.00    -0.352 N 
ATOM     21  H3  UNL     1      10.370   7.159  19.264  1.00  0.00     0.163 HD
BRANCH  20  22
HETATM   22  C12 UNL     1       8.337   7.215  18.686  1.00  0.00     0.108 C 
BRANCH  22  23
HETATM   23  C13 UNL     1       7.776   6.043  19.409  1.00  0.00     0.181 C 
BRANCH  23  24
HETATM   24  N4  UNL     1       7.122   5.057  18.616  1.00  0.00    -0.251 N 
ATOM     25  H4  UNL     1       6.231   4.668  18.924  1.00  0.00     0.197 HD
BRANCH  24  26
HETATM   26  N5  UNL     1       7.618   4.679  17.580  1.00  0.00    -0.248 NA
BRANCH  26  27
HETATM   27  N6  UNL     1       7.974   4.380  16.429  1.00  0.00    -0.261 N 
ATOM     28  H62 UNL     1       8.870   4.820  16.640  1.00  0.00     0.193 HD
ATOM     29  H61 UNL     1       8.118   4.070  15.468  1.00  0.00     0.193 HD
ENDBRANCH  26  27
ENDBRANCH  24  26
ENDBRANCH  23  24
ENDBRANCH  22  23
BRANCH  22  30
HETATM   30  C14 UNL     1       7.935   8.561  19.190  1.00  0.00     0.002 C 
HETATM   31  C15 UNL     1       7.898   9.655  18.186  1.00  0.00     0.011 C 
HETATM   32  C16 UNL     1       8.749   8.918  20.420  1.00  0.00     0.011 C 
ENDBRANCH  22  30
ENDBRANCH  20  22
ENDBRANCH  10  18
BRANCH   9  33
HETATM   33  C9  UNL     1      12.061   9.458  16.722  1.00  0.00     0.464 C 
HETATM   34  F1  UNL     1      12.189   9.438  18.098  1.00  0.00    -0.191 F 
HETATM   35  F2  UNL     1      10.865   9.996  16.324  1.00  0.00    -0.191 F 
ENDBRANCH   9  33
BRANCH  11  36
HETATM   36  C18 UNL     1      11.525   4.448  16.946  1.00  0.00     0.208 C 
HETATM   37  O3  UNL     1      11.471   4.226  18.171  1.00  0.00    -0.644 OA
HETATM   38  O4  UNL     1      10.876   3.511  16.170  1.00  0.00    -0.644 OA
ENDBRANCH  11  36
BRANCH  13  39
HETATM   39  C21 UNL     1      14.149   3.981  16.636  1.00  0.00     0.139 C 
BRANCH  39  40
HETATM   40  S1  UNL     1      14.234   2.114  16.825  1.00  0.00    -0.106 SA
BRANCH  40  41
HETATM   41  C22 UNL     1      15.975   1.770  17.064  1.00  0.00     0.069 A 
HETATM   42  C23 UNL     1      16.719   2.515  17.977  1.00  0.00     0.037 A 
HETATM   43  C24 UNL     1      18.060   2.270  18.180  1.00  0.00     0.004 A 
HETATM   44  C25 UNL     1      18.692   1.267  17.471  1.00  0.00     0.017 A 
HETATM   45  C26 UNL     1      17.950   0.537  16.572  1.00  0.00     0.089 A 
HETATM   46  N7  UNL     1      16.644   0.809  16.405  1.00  0.00    -0.361 N 
ATOM     47  H7  UNL     1      16.125   0.246  15.731  1.00  0.00     0.165 HD
ENDBRANCH  40  41
ENDBRANCH  39  40
ENDBRANCH  13  39
BRANCH   5  48
HETATM   48  C4  UNL     1      13.786   8.086  12.499  1.00  0.00     0.028 C 
HETATM   49  C5  UNL     1      15.060   8.172  11.607  1.00  0.00     0.016 C 
HETATM   50  C6  UNL     1      12.717   7.685  11.379  1.00  0.00     0.016 C 
ENDBRANCH   5  48
TORSDOF 13
ENDMDL
MODEL 4
REMARK VINA RESULT: -5.721522909      2.602      4.762
REMARK  13 active torsions:
REMARK  status: ('A' for Active; 'I' for Inactive)
REMARK    1  A    between atoms: C3_5  and  C4_6 
REMARK    2  A    between atoms: N2_12  and  C9_13 
REMARK    3  A    between atoms: C10_16  and  C11_17 
REMARK       I    between atoms: C11_17  and  N3_19 
REMARK    4  A    between atoms: N3_19  and  C12_21 
REMARK    5  A    between atoms: C12_21  and  C13_22 
REMARK    6  A    between atoms: C12_21  and  C14_29 
REMARK    7  A    between atoms: C13_22  and  N4_23 
REMARK    8  A    between atoms: N4_23  and  N5_25 
REMARK    9  A    between atoms: N5_25  and  N6_26 
REMARK   10  A    between atoms: C17_32  and  C18_33 
REMARK   11  A    between atoms: C20_37  and  C21_38 
REMARK   12  A    between atoms: C21_38  and  S1_39 
REMARK   13  A    between atoms: S1_39  and  C22_40 
ROOT
HETATM    1  C1  UNL     1       8.509   8.695  18.197  1.00  0.00     0.074 C 
HETATM    2  C2  UNL     1       9.774   8.353  17.528  1.00  0.00     0.074 C 
HETATM    3  N1  UNL     1      10.666   7.791  18.217  1.00  0.00    -0.358 N 
ATOM      4  H1  UNL     1      10.323   7.675  19.171  1.00  0.00     0.165 HD
HETATM    5  C3  UNL     1      12.030   7.242  18.131  1.00  0.00     0.029 C 
HETATM    6  C7  UNL     1      12.928   7.472  17.239  1.00  0.00     0.068 A 
HETATM    7  C8  UNL     1      14.072   6.740  17.551  1.00  0.00     0.261 A 
HETATM    8  O1  UNL     1      14.283   6.127  18.610  1.00  0.00    -0.267 OA
HETATM    9  N2  UNL     1      15.115   6.696  16.568  1.00  0.00    -0.274 N 
HETATM   10  C10 UNL     1      15.043   7.275  15.267  1.00  0.00     0.226 A 
HETATM   11  C17 UNL     1      13.803   8.079  14.979  1.00  0.00     0.064 A 
HETATM   12  C19 UNL     1      12.908   8.152  15.868  1.00  0.00     0.021 A 
HETATM   13  C20 UNL     1      12.098   9.295  15.468  1.00  0.00     0.034 C 
HETATM   14  N8  UNL     1      10.846   9.598  15.529  1.00  0.00    -0.324 N 
ATOM     15  H8  UNL     1      10.585  10.501  15.132  1.00  0.00     0.169 HD
HETATM   16  C27 UNL     1       9.744   8.800  16.103  1.00  0.00     0.268 C 
HETATM   17  O5  UNL     1       8.813   8.510  15.419  1.00  0.00    -0.266 OA
ENDROOT
BRANCH  10  18
HETATM   18  C11 UNL     1      15.292   6.263  14.218  1.00  0.00     0.246 C 
HETATM   19  O2  UNL     1      16.407   6.247  13.662  1.00  0.00    -0.271 OA
HETATM   20  N3  UNL     1      14.342   5.302  13.797  1.00  0.00    -0.352 N 
ATOM     21  H3  UNL     1      13.427   5.311  14.249  1.00  0.00     0.163 HD
BRANCH  20  22
HETATM   22  C12 UNL     1      14.570   4.314  12.776  1.00  0.00     0.108 C 
BRANCH  22  23
HETATM   23  C13 UNL     1      13.756   3.080  12.927  1.00  0.00     0.181 C 
BRANCH  23  24
HETATM   24  N4  UNL     1      13.069   2.916  14.165  1.00  0.00    -0.251 N 
ATOM     25  H4  UNL     1      12.153   3.344  14.298  1.00  0.00     0.197 HD
BRANCH  24  26
HETATM   26  N5  UNL     1      13.568   2.271  15.058  1.00  0.00    -0.248 NA
BRANCH  26  27
HETATM   27  N6  UNL     1      13.926   1.669  16.083  1.00  0.00    -0.261 N 
ATOM     28  H62 UNL     1      13.431   2.381  16.619  1.00  0.00     0.193 HD
ATOM     29  H61 UNL     1      14.293   1.071  16.823  1.00  0.00     0.193 HD
ENDBRANCH  26  27
ENDBRANCH  24  26
ENDBRANCH  23  24
ENDBRANCH  22  23
BRANCH  22  30
HETATM   30  C14 UNL     1      14.599   4.928  11.416  1.00  0.00     0.002 C 
HETATM   31  C15 UNL     1      13.326   5.528  10.938  1.00  0.00     0.011 C 
HETATM   32  C16 UNL     1      15.201   3.956  10.420  1.00  0.00     0.011 C 
ENDBRANCH  22  30
ENDBRANCH  20  22
ENDBRANCH  10  18
BRANCH   9  33
HETATM   33  C9  UNL     1      16.346   6.018  17.005  1.00  0.00     0.464 C 
HETATM   34  F1  UNL     1      17.435   6.730  16.541  1.00  0.00    -0.191 F 
HETATM   35  F2  UNL     1      16.392   4.701  16.631  1.00  0.00    -0.191 F 
ENDBRANCH   9  33
BRANCH  11  36
HETATM   36  C18 UNL     1      13.541   8.423  13.571  1.00  0.00     0.208 C 
HETATM   37  O3  UNL     1      12.496   8.063  12.998  1.00  0.00    -0.644 OA
HETATM   38  O4  UNL     1      14.400   9.154  12.777  1.00  0.00    -0.644 OA
ENDBRANCH  11  36
BRANCH  13  39
HETATM   39  C21 UNL     1      12.972  10.466  15.214  1.00  0.00     0.139 C 
BRANCH  39  40
HETATM   40  S1  UNL     1      12.944  11.501  16.781  1.00  0.00    -0.106 SA
BRANCH  40  41
HETATM   41  C22 UNL     1      14.082  10.668  17.885  1.00  0.00     0.069 A 
HETATM   42  C23 UNL     1      13.695  10.352  19.186  1.00  0.00     0.037 A 
HETATM   43  C24 UNL     1      14.551   9.710  20.054  1.00  0.00     0.004 A 
HETATM   44  C25 UNL     1      15.823   9.367  19.639  1.00  0.00     0.017 A 
HETATM   45  C26 UNL     1      16.197   9.683  18.354  1.00  0.00     0.089 A 
HETATM   46  N7  UNL     1      15.330  10.309  17.539  1.00  0.00    -0.361 N 
ATOM     47  H7  UNL     1      15.642  10.526  16.592  1.00  0.00     0.165 HD
ENDBRANCH  40  41
ENDBRANCH  39  40
ENDBRANCH  13  39
BRANCH   5  48
HETATM   48  C4  UNL     1      12.112   6.264  19.176  1.00  0.00     0.028 C 
HETATM   49  C5  UNL     1      11.501   6.809  20.500  1.00  0.00     0.016 C 
HETATM   50  C6  UNL     1      10.931   5.277  18.738  1.00  0.00     0.016 C 
ENDBRANCH   5  48
TORSDOF 13
ENDMDL
MODEL 5
REMARK VINA RESULT: -5.696180796      3.536      6.617
REMARK  13 active torsions:
REMARK  status: ('A' for Active; 'I' for Inactive)
REMARK    1  A    between atoms: C3_5  and  C4_6 
REMARK    2  A    between atoms: N2_12  and  C9_13 
REMARK    3  A    between atoms: C10_16  and  C11_17 
REMARK       I    between atoms: C11_17  and  N3_19 
REMARK    4  A    between atoms: N3_19  and  C12_21 
REMARK    5  A    between atoms: C12_21  and  C13_22 
REMARK    6  A    between atoms: C12_21  and  C14_29 
REMARK    7  A    between atoms: C13_22  and  N4_23 
REMARK    8  A    between atoms: N4_23  and  N5_25 
REMARK    9  A    between atoms: N5_25  and  N6_26 
REMARK   10  A    between atoms: C17_32  and  C18_33 
REMARK   11  A    between atoms: C20_37  and  C21_38 
REMARK   12  A    between atoms: C21_38  and  S1_39 
REMARK   13  A    between atoms: S1_39  and  C22_40 
ROOT
HETATM    1  C1  UNL     1      13.029   7.764  11.134  1.00  0.00     0.074 C 
HETATM    2  C2  UNL     1      13.398   7.130  12.409  1.00  0.00     0.074 C 
HETATM    3  N1  UNL     1      13.873   5.964  12.365  1.00  0.00    -0.358 N 
ATOM      4  H1  UNL     1      13.910   5.658  11.393  1.00  0.00     0.165 HD
HETATM    5  C3  UNL     1      14.393   4.887  13.224  1.00  0.00     0.029 C 
HETATM    6  C7  UNL     1      14.223   4.721  14.489  1.00  0.00     0.068 A 
HETATM    7  C8  UNL     1      14.895   3.568  14.887  1.00  0.00     0.261 A 
HETATM    8  O1  UNL     1      15.404   2.720  14.136  1.00  0.00    -0.267 OA
HETATM    9  N2  UNL     1      15.002   3.320  16.296  1.00  0.00    -0.274 N 
HETATM   10  C10 UNL     1      14.546   4.200  17.321  1.00  0.00     0.226 A 
HETATM   11  C17 UNL     1      13.802   5.421  16.849  1.00  0.00     0.064 A 
HETATM   12  C19 UNL     1      13.671   5.608  15.607  1.00  0.00     0.021 A 
HETATM   13  C20 UNL     1      12.590   6.579  15.503  1.00  0.00     0.034 C 
HETATM   14  N8  UNL     1      12.314   7.564  14.717  1.00  0.00    -0.324 N 
ATOM     15  H8  UNL     1      11.458   8.078  14.928  1.00  0.00     0.169 HD
HETATM   16  C27 UNL     1      13.084   8.040  13.551  1.00  0.00     0.268 C 
HETATM   17  O5  UNL     1      13.458   9.171  13.517  1.00  0.00    -0.266 OA
ENDROOT
BRANCH  10  18
HETATM   18  C11 UNL     1      15.643   4.553  18.248  1.00  0.00     0.246 C 
HETATM   19  O2  UNL     1      15.704   3.967  19.346  1.00  0.00    -0.271 OA
HETATM   20  N3  UNL     1      16.637   5.522  17.972  1.00  0.00    -0.352 N 
ATOM     21  H3  UNL     1      16.592   6.005  17.074  1.00  0.00     0.163 HD
BRANCH  20  22
HETATM   22  C12 UNL     1      17.707   5.877  18.866  1.00  0.00     0.108 C 
BRANCH  22  23
HETATM   23  C13 UNL     1      18.782   6.691  18.239  1.00  0.00     0.181 C 
BRANCH  23  24
HETATM   24  N4  UNL     1      18.512   7.214  16.941  1.00  0.00    -0.251 N 
ATOM     25  H4  UNL     1      19.079   6.918  16.147  1.00  0.00     0.197 HD
BRANCH  24  26
HETATM   26  N5  UNL     1      17.614   8.008  16.778  1.00  0.00    -0.248 NA
BRANCH  26  27
HETATM   27  N6  UNL     1      16.662   8.803  16.805  1.00  0.00    -0.261 N 
ATOM     28  H62 UNL     1      17.336   9.547  16.633  1.00  0.00     0.193 HD
ATOM     29  H61 UNL     1      15.787   9.325  16.855  1.00  0.00     0.193 HD
ENDBRANCH  26  27
ENDBRANCH  24  26
ENDBRANCH  23  24
ENDBRANCH  22  23
BRANCH  22  30
HETATM   30  C14 UNL     1      17.187   6.363  20.178  1.00  0.00     0.002 C 
HETATM   31  C15 UNL     1      16.531   7.696  20.173  1.00  0.00     0.011 C 
HETATM   32  C16 UNL     1      18.264   6.240  21.240  1.00  0.00     0.011 C 
ENDBRANCH  22  30
ENDBRANCH  20  22
ENDBRANCH  10  18
BRANCH   9  33
HETATM   33  C9  UNL     1      15.606   2.027  16.650  1.00  0.00     0.464 C 
HETATM   34  F1  UNL     1      14.879   1.463  17.680  1.00  0.00    -0.191 F 
HETATM   35  F2  UNL     1      16.939   2.124  16.953  1.00  0.00    -0.191 F 
ENDBRANCH   9  33
BRANCH  11  36
HETATM   36  C18 UNL     1      13.595   6.498  17.833  1.00  0.00     0.208 C 
HETATM   37  O3  UNL     1      14.072   7.636  17.660  1.00  0.00    -0.644 OA
HETATM   38  O4  UNL     1      12.875   6.356  19.000  1.00  0.00    -0.644 OA
ENDBRANCH  11  36
BRANCH  13  39
HETATM   39  C21 UNL     1      11.426   6.122  16.299  1.00  0.00     0.139 C 
BRANCH  39  40
HETATM   40  S1  UNL     1       9.923   7.007  15.601  1.00  0.00    -0.106 SA
BRANCH  40  41
HETATM   41  C22 UNL     1       9.585   8.309  16.783  1.00  0.00     0.069 A 
HETATM   42  C23 UNL     1      10.537   8.652  17.741  1.00  0.00     0.037 A 
HETATM   43  C24 UNL     1      10.303   9.651  18.661  1.00  0.00     0.004 A 
HETATM   44  C25 UNL     1       9.103  10.336  18.643  1.00  0.00     0.017 A 
HETATM   45  C26 UNL     1       8.169   9.990  17.694  1.00  0.00     0.089 A 
HETATM   46  N7  UNL     1       8.439   9.009  16.815  1.00  0.00    -0.361 N 
ATOM     47  H7  UNL     1       7.723   8.781  16.125  1.00  0.00     0.165 HD
ENDBRANCH  40  41
ENDBRANCH  39  40
ENDBRANCH  13  39
BRANCH   5  48
HETATM   48  C4  UNL     1      15.270   4.123  12.386  1.00  0.00     0.028 C 
HETATM   49  C5  UNL     1      14.677   3.965  10.954  1.00  0.00     0.016 C 
HETATM   50  C6  UNL     1      16.395   5.217  12.076  1.00  0.00     0.016 C 
ENDBRANCH   5  48
TORSDOF 13
ENDMDL
