MODEL 1
REMARK VINA RESULT: -8.191845548      0.000      0.000
REMARK  14 active torsions:
REMARK  status: ('A' for Active; 'I' for Inactive)
REMARK    1  A    between atoms: N1_2  and  C2_4 
REMARK    2  A    between atoms: C2_4  and  C3_5 
REMARK    3  A    between atoms: C2_4  and  N5_18 
REMARK    4  A    between atoms: C3_5  and  N2_6 
REMARK    5  A    between atoms: C5_8  and  C6_9 
REMARK    6  A    between atoms: N5_18  and  C12_20 
REMARK    7  A    between atoms: C13_25  and  C14_26 
REMARK    8  A    between atoms: C14_26  and  C15_27 
REMARK    9  A    between atoms: C15_27  and  C16_28 
REMARK   10  A    between atoms: C16_28  and  C17_29 
REMARK   11  A    between atoms: C17_29  and  C18_30 
REMARK   12  A    between atoms: C21_33  and  N8_34 
REMARK       I    between atoms: N8_34  and  C22_36 
REMARK   13  A    between atoms: C22_36  and  C23_38 
REMARK   14  A    between atoms: C23_38  and  C24_39 
ROOT
HETATM    1  C12 UNL     1      13.465   2.553  14.375  1.00  0.00     0.166 A 
HETATM    2  N6  UNL     1      12.707   2.711  13.281  1.00  0.00    -0.279 N 
ATOM      3  H6  UNL     1      11.728   2.427  13.283  1.00  0.00     0.189 HD
HETATM    4  N7  UNL     1      13.229   3.219  12.247  1.00  0.00    -0.296 N 
ATOM      5  H7  UNL     1      12.665   3.348  11.406  1.00  0.00     0.187 HD
HETATM    6  C13 UNL     1      14.500   3.586  12.247  1.00  0.00     0.069 A 
HETATM    7  S1  UNL     1      14.970   3.173  13.838  1.00  0.00    -0.038 SA
ENDROOT
BRANCH   6   8
HETATM    8  C14 UNL     1      15.251   4.195  11.099  1.00  0.00     0.066 C 
BRANCH   8   9
HETATM    9  C15 UNL     1      16.635   4.579  11.643  1.00  0.00     0.007 C 
BRANCH   9  10
HETATM   10  C16 UNL     1      16.636   6.041  12.020  1.00  0.00     0.006 C 
BRANCH  10  11
HETATM   11  C17 UNL     1      15.634   6.765  11.139  1.00  0.00     0.058 C 
BRANCH  11  12
HETATM   12  C18 UNL     1      14.663   7.533  11.933  1.00  0.00     0.026 A 
HETATM   13  C19 UNL     1      13.326   7.391  11.634  1.00  0.00     0.030 A 
HETATM   14  C20 UNL     1      12.360   8.079  12.332  1.00  0.00     0.052 A 
HETATM   15  C21 UNL     1      12.819   8.929  13.362  1.00  0.00     0.122 A 
HETATM   16  N9  UNL     1      14.125   9.050  13.634  1.00  0.00    -0.285 N 
HETATM   17  N10 UNL     1      15.020   8.359  12.927  1.00  0.00    -0.303 N 
ATOM     18  H9  UNL     1      14.435   9.670  14.382  1.00  0.00     0.188 HD
ATOM     19  H10 UNL     1      16.010   8.463  13.149  1.00  0.00     0.186 HD
BRANCH  15  20
HETATM   20  N8  UNL     1      11.926   9.564  14.006  1.00  0.00    -0.312 N 
HETATM   21  C22 UNL     1      12.108  10.137  15.270  1.00  0.00     0.227 C 
HETATM   22  O1  UNL     1      12.287  11.401  15.303  1.00  0.00    -0.273 OA
ATOM     23  H8  UNL     1      11.010   9.664  13.570  1.00  0.00     0.170 HD
BRANCH  21  24
HETATM   24  C23 UNL     1      12.099   9.369  16.549  1.00  0.00     0.141 C 
BRANCH  24  25
HETATM   25  C24 UNL     1      11.081   9.927  17.475  1.00  0.00    -0.044 A 
HETATM   26  C25 UNL     1      11.449  10.766  18.528  1.00  0.00     0.050 A 
HETATM   27  C26 UNL     1      10.473  11.258  19.365  1.00  0.00     0.119 A 
HETATM   28  F1  UNL     1      10.792  12.070  20.398  1.00  0.00    -0.206 F 
HETATM   29  C27 UNL     1       9.139  10.936  19.182  1.00  0.00     0.084 A 
HETATM   30  C28 UNL     1       8.785  10.103  18.134  1.00  0.00     0.119 A 
HETATM   31  F2  UNL     1       7.470   9.785  17.951  1.00  0.00    -0.206 F 
HETATM   32  C29 UNL     1       9.759   9.601  17.281  1.00  0.00     0.050 A 
ENDBRANCH  24  25
ENDBRANCH  21  24
ENDBRANCH  15  20
ENDBRANCH  11  12
ENDBRANCH  10  11
ENDBRANCH   9  10
ENDBRANCH   8   9
ENDBRANCH   6   8
BRANCH   1  33
HETATM   33  N5  UNL     1      13.099   2.045  15.531  1.00  0.00    -0.324 N 
ATOM     34  H5  UNL     1      13.546   2.342  16.398  1.00  0.00     0.169 HD
BRANCH  33  35
HETATM   35  C2  UNL     1      12.064   1.074  15.540  1.00  0.00     0.098 C 
BRANCH  35  36
HETATM   36  N1  UNL     1      12.328  -0.137  15.155  1.00  0.00    -0.383 N 
HETATM   37  C1  UNL     1      11.591  -0.803  14.110  1.00  0.00     0.147 C 
ATOM     38  H1  UNL     1      13.090  -0.640  15.611  1.00  0.00     0.160 HD
ENDBRANCH  35  36
BRANCH  35  39
HETATM   39  C3  UNL     1      10.688   1.417  15.980  1.00  0.00     0.222 C 
BRANCH  39  40
HETATM   40  N2  UNL     1      10.706   2.841  16.327  1.00  0.00    -0.278 N 
HETATM   41  C4  UNL     1      10.746   3.398  17.545  1.00  0.00     0.139 A 
HETATM   42  C5  UNL     1      10.748   4.769  17.448  1.00  0.00     0.073 A 
HETATM   43  N3  UNL     1      10.708   5.018  16.125  1.00  0.00    -0.282 N 
HETATM   44  N4  UNL     1      10.684   3.869  15.472  1.00  0.00    -0.020 NA
ATOM     45  H3  UNL     1      10.698   5.943  15.696  1.00  0.00     0.184 HD
BRANCH  42  46
HETATM   46  C6  UNL     1      10.782   5.776  18.491  1.00  0.00    -0.007 A 
HETATM   47  C7  UNL     1       9.608   6.185  19.087  1.00  0.00     0.014 A 
HETATM   48  C8  UNL     1       9.592   7.143  20.085  1.00  0.00     0.001 A 
HETATM   49  C9  UNL     1      10.770   7.715  20.506  1.00  0.00     0.000 A 
HETATM   50  C10 UNL     1      11.959   7.327  19.927  1.00  0.00     0.001 A 
HETATM   51  C11 UNL     1      11.949   6.366  18.929  1.00  0.00     0.014 A 
ENDBRANCH  42  46
ENDBRANCH  39  40
ENDBRANCH  35  39
ENDBRANCH  33  35
ENDBRANCH   1  33
TORSDOF 14
ENDMDL
MODEL 2
REMARK VINA RESULT: -8.162887070      2.898      6.099
REMARK  14 active torsions:
REMARK  status: ('A' for Active; 'I' for Inactive)
REMARK    1  A    between atoms: N1_2  and  C2_4 
REMARK    2  A    between atoms: C2_4  and  C3_5 
REMARK    3  A    between atoms: C2_4  and  N5_18 
REMARK    4  A    between atoms: C3_5  and  N2_6 
REMARK    5  A    between atoms: C5_8  and  C6_9 
REMARK    6  A    between atoms: N5_18  and  C12_20 
REMARK    7  A    between atoms: C13_25  and  C14_26 
REMARK    8  A    between atoms: C14_26  and  C15_27 
REMARK    9  A    between atoms: C15_27  and  C16_28 
REMARK   10  A    between atoms: C16_28  and  C17_29 
REMARK   11  A    between atoms: C17_29  and  C18_30 
REMARK   12  A    between atoms: C21_33  and  N8_34 
REMARK       I    between atoms: N8_34  and  C22_36 
REMARK   13  A    between atoms: C22_36  and  C23_38 
REMARK   14  A    between atoms: C23_38  and  C24_39 
ROOT
HETATM    1  C12 UNL     1      13.562   2.378  14.285  1.00  0.00     0.166 A 
HETATM    2  N6  UNL     1      12.760   2.637  13.244  1.00  0.00    -0.279 N 
ATOM      3  H6  UNL     1      11.780   2.355  13.261  1.00  0.00     0.189 HD
HETATM    4  N7  UNL     1      13.240   3.238  12.240  1.00  0.00    -0.296 N 
ATOM      5  H7  UNL     1      12.642   3.444  11.439  1.00  0.00     0.187 HD
HETATM    6  C13 UNL     1      14.512   3.602  12.219  1.00  0.00     0.069 A 
HETATM    7  S1  UNL     1      15.046   3.044  13.744  1.00  0.00    -0.038 SA
ENDROOT
BRANCH   6   8
HETATM    8  C14 UNL     1      15.216   4.314  11.101  1.00  0.00     0.066 C 
BRANCH   8   9
HETATM    9  C15 UNL     1      16.611   4.677  11.631  1.00  0.00     0.007 C 
BRANCH   9  10
HETATM   10  C16 UNL     1      16.580   6.071  12.210  1.00  0.00     0.006 C 
BRANCH  10  11
HETATM   11  C17 UNL     1      15.791   6.963  11.270  1.00  0.00     0.058 C 
BRANCH  11  12
HETATM   12  C18 UNL     1      14.693   7.654  11.964  1.00  0.00     0.026 A 
HETATM   13  C19 UNL     1      13.407   7.431  11.524  1.00  0.00     0.030 A 
HETATM   14  C20 UNL     1      12.330   8.043  12.122  1.00  0.00     0.052 A 
HETATM   15  C21 UNL     1      12.621   8.904  13.202  1.00  0.00     0.122 A 
HETATM   16  N9  UNL     1      13.881   9.105  13.612  1.00  0.00    -0.285 N 
HETATM   17  N10 UNL     1      14.889   8.485  12.997  1.00  0.00    -0.303 N 
ATOM     18  H9  UNL     1      14.069   9.731  14.395  1.00  0.00     0.188 HD
ATOM     19  H10 UNL     1      15.841   8.650  13.323  1.00  0.00     0.186 HD
BRANCH  15  20
HETATM   20  N8  UNL     1      11.626   9.469  13.755  1.00  0.00    -0.312 N 
HETATM   21  C22 UNL     1      11.010   9.031  14.933  1.00  0.00     0.227 C 
HETATM   22  O1  UNL     1      11.298   9.672  15.999  1.00  0.00    -0.273 OA
ATOM     23  H8  UNL     1      11.249  10.304  13.307  1.00  0.00     0.170 HD
BRANCH  21  24
HETATM   24  C23 UNL     1      10.055   7.888  15.006  1.00  0.00     0.141 C 
BRANCH  24  25
HETATM   25  C24 UNL     1      10.585   6.833  15.908  1.00  0.00    -0.044 A 
HETATM   26  C25 UNL     1       9.798   6.299  16.929  1.00  0.00     0.050 A 
HETATM   27  C26 UNL     1      10.331   5.326  17.744  1.00  0.00     0.119 A 
HETATM   28  F1  UNL     1       9.600   4.787  18.746  1.00  0.00    -0.206 F 
HETATM   29  C27 UNL     1      11.626   4.870  17.570  1.00  0.00     0.084 A 
HETATM   30  C28 UNL     1      12.398   5.408  16.554  1.00  0.00     0.119 A 
HETATM   31  F2  UNL     1      13.676   4.960  16.380  1.00  0.00    -0.206 F 
HETATM   32  C29 UNL     1      11.873   6.390  15.723  1.00  0.00     0.050 A 
ENDBRANCH  24  25
ENDBRANCH  21  24
ENDBRANCH  15  20
ENDBRANCH  11  12
ENDBRANCH  10  11
ENDBRANCH   9  10
ENDBRANCH   8   9
ENDBRANCH   6   8
BRANCH   1  33
HETATM   33  N5  UNL     1      13.243   1.766  15.403  1.00  0.00    -0.324 N 
ATOM     34  H5  UNL     1      13.898   1.728  16.185  1.00  0.00     0.169 HD
BRANCH  33  35
HETATM   35  C2  UNL     1      11.963   1.160  15.495  1.00  0.00     0.098 C 
BRANCH  35  36
HETATM   36  N1  UNL     1      10.976   1.835  15.999  1.00  0.00    -0.383 N 
HETATM   37  C1  UNL     1      10.236   1.393  17.155  1.00  0.00     0.147 C 
ATOM     38  H1  UNL     1      10.713   2.717  15.559  1.00  0.00     0.160 HD
ENDBRANCH  35  36
BRANCH  35  39
HETATM   39  C3  UNL     1      11.734  -0.231  15.028  1.00  0.00     0.222 C 
BRANCH  39  40
HETATM   40  N2  UNL     1      10.950  -0.130  13.793  1.00  0.00    -0.278 N 
HETATM   41  C4  UNL     1      10.738  -1.072  12.866  1.00  0.00     0.139 A 
HETATM   42  C5  UNL     1       9.947  -0.583  11.853  1.00  0.00     0.073 A 
HETATM   43  N3  UNL     1       9.691   0.691  12.206  1.00  0.00    -0.282 N 
HETATM   44  N4  UNL     1      10.289   0.948  13.357  1.00  0.00    -0.020 NA
ATOM     45  H3  UNL     1       9.126   1.352  11.672  1.00  0.00     0.184 HD
BRANCH  42  46
HETATM   46  C6  UNL     1       9.464  -1.234  10.650  1.00  0.00    -0.007 A 
HETATM   47  C7  UNL     1       8.506  -0.617   9.875  1.00  0.00     0.014 A 
HETATM   48  C8  UNL     1       8.016  -1.200   8.720  1.00  0.00     0.001 A 
HETATM   49  C9  UNL     1       8.484  -2.431   8.320  1.00  0.00     0.000 A 
HETATM   50  C10 UNL     1       9.442  -3.071   9.077  1.00  0.00     0.001 A 
HETATM   51  C11 UNL     1       9.917  -2.466  10.229  1.00  0.00     0.014 A 
ENDBRANCH  42  46
ENDBRANCH  39  40
ENDBRANCH  35  39
ENDBRANCH  33  35
ENDBRANCH   1  33
TORSDOF 14
ENDMDL
MODEL 3
REMARK VINA RESULT: -8.154542802      2.270      5.593
REMARK  14 active torsions:
REMARK  status: ('A' for Active; 'I' for Inactive)
REMARK    1  A    between atoms: N1_2  and  C2_4 
REMARK    2  A    between atoms: C2_4  and  C3_5 
REMARK    3  A    between atoms: C2_4  and  N5_18 
REMARK    4  A    between atoms: C3_5  and  N2_6 
REMARK    5  A    between atoms: C5_8  and  C6_9 
REMARK    6  A    between atoms: N5_18  and  C12_20 
REMARK    7  A    between atoms: C13_25  and  C14_26 
REMARK    8  A    between atoms: C14_26  and  C15_27 
REMARK    9  A    between atoms: C15_27  and  C16_28 
REMARK   10  A    between atoms: C16_28  and  C17_29 
REMARK   11  A    between atoms: C17_29  and  C18_30 
REMARK   12  A    between atoms: C21_33  and  N8_34 
REMARK       I    between atoms: N8_34  and  C22_36 
REMARK   13  A    between atoms: C22_36  and  C23_38 
REMARK   14  A    between atoms: C23_38  and  C24_39 
ROOT
HETATM    1  C12 UNL     1      13.585   2.395  14.335  1.00  0.00     0.166 A 
HETATM    2  N6  UNL     1      12.784   2.622  13.285  1.00  0.00    -0.279 N 
ATOM      3  H6  UNL     1      11.807   2.332  13.305  1.00  0.00     0.189 HD
HETATM    4  N7  UNL     1      13.263   3.204  12.269  1.00  0.00    -0.296 N 
ATOM      5  H7  UNL     1      12.666   3.386  11.461  1.00  0.00     0.187 HD
HETATM    6  C13 UNL     1      14.531   3.578  12.245  1.00  0.00     0.069 A 
HETATM    7  S1  UNL     1      15.064   3.061  13.784  1.00  0.00    -0.038 SA
ENDROOT
BRANCH   6   8
HETATM    8  C14 UNL     1      15.233   4.270  11.113  1.00  0.00     0.066 C 
BRANCH   8   9
HETATM    9  C15 UNL     1      16.623   4.658  11.640  1.00  0.00     0.007 C 
BRANCH   9  10
HETATM   10  C16 UNL     1      16.633   6.126  11.993  1.00  0.00     0.006 C 
BRANCH  10  11
HETATM   11  C17 UNL     1      15.612   6.835  11.123  1.00  0.00     0.058 C 
BRANCH  11  12
HETATM   12  C18 UNL     1      14.649   7.603  11.927  1.00  0.00     0.026 A 
HETATM   13  C19 UNL     1      13.309   7.468  11.637  1.00  0.00     0.030 A 
HETATM   14  C20 UNL     1      12.350   8.156  12.344  1.00  0.00     0.052 A 
HETATM   15  C21 UNL     1      12.819   9.000  13.375  1.00  0.00     0.122 A 
HETATM   16  N9  UNL     1      14.128   9.114  13.639  1.00  0.00    -0.285 N 
HETATM   17  N10 UNL     1      15.016   8.424  12.922  1.00  0.00    -0.303 N 
ATOM     18  H9  UNL     1      14.445   9.730  14.388  1.00  0.00     0.188 HD
ATOM     19  H10 UNL     1      16.008   8.523  13.138  1.00  0.00     0.186 HD
BRANCH  15  20
HETATM   20  N8  UNL     1      11.934   9.635  14.029  1.00  0.00    -0.312 N 
HETATM   21  C22 UNL     1      12.129  10.208  15.291  1.00  0.00     0.227 C 
HETATM   22  O1  UNL     1      12.308  11.472  15.321  1.00  0.00    -0.273 OA
ATOM     23  H8  UNL     1      11.013   9.735  13.602  1.00  0.00     0.170 HD
BRANCH  21  24
HETATM   24  C23 UNL     1      12.133   9.441  16.569  1.00  0.00     0.141 C 
BRANCH  24  25
HETATM   25  C24 UNL     1      11.065   9.942  17.472  1.00  0.00    -0.044 A 
HETATM   26  C25 UNL     1       9.721   9.667  17.217  1.00  0.00     0.050 A 
HETATM   27  C26 UNL     1       8.763  10.155  18.077  1.00  0.00     0.119 A 
HETATM   28  F1  UNL     1       7.451   9.912  17.860  1.00  0.00    -0.206 F 
HETATM   29  C27 UNL     1       9.108  10.909  19.186  1.00  0.00     0.084 A 
HETATM   30  C28 UNL     1      10.445  11.175  19.429  1.00  0.00     0.119 A 
HETATM   31  F2  UNL     1      10.787  11.919  20.522  1.00  0.00    -0.206 F 
HETATM   32  C29 UNL     1      11.422  10.689  18.570  1.00  0.00     0.050 A 
ENDBRANCH  24  25
ENDBRANCH  21  24
ENDBRANCH  15  20
ENDBRANCH  11  12
ENDBRANCH  10  11
ENDBRANCH   9  10
ENDBRANCH   8   9
ENDBRANCH   6   8
BRANCH   1  33
HETATM   33  N5  UNL     1      13.266   1.806  15.466  1.00  0.00    -0.324 N 
ATOM     34  H5  UNL     1      13.926   1.774  16.243  1.00  0.00     0.169 HD
BRANCH  33  35
HETATM   35  C2  UNL     1      11.980   1.216  15.577  1.00  0.00     0.098 C 
BRANCH  35  36
HETATM   36  N1  UNL     1      11.012   1.901  16.104  1.00  0.00    -0.383 N 
HETATM   37  C1  UNL     1      11.216   2.849  17.171  1.00  0.00     0.147 C 
ATOM     38  H1  UNL     1      10.066   1.763  15.749  1.00  0.00     0.160 HD
ENDBRANCH  35  36
BRANCH  35  39
HETATM   39  C3  UNL     1      11.723  -0.168  15.104  1.00  0.00     0.222 C 
BRANCH  39  40
HETATM   40  N2  UNL     1      10.926  -0.046  13.880  1.00  0.00    -0.278 N 
HETATM   41  C4  UNL     1      10.712  -0.970  12.934  1.00  0.00     0.139 A 
HETATM   42  C5  UNL     1       9.907  -0.466  11.940  1.00  0.00     0.073 A 
HETATM   43  N3  UNL     1       9.643   0.798  12.324  1.00  0.00    -0.282 N 
HETATM   44  N4  UNL     1      10.251   1.034  13.474  1.00  0.00    -0.020 NA
ATOM     45  H3  UNL     1       9.067   1.464  11.811  1.00  0.00     0.184 HD
BRANCH  42  46
HETATM   46  C6  UNL     1       9.417  -1.095  10.729  1.00  0.00    -0.007 A 
HETATM   47  C7  UNL     1       9.923  -2.317  10.339  1.00  0.00     0.014 A 
HETATM   48  C8  UNL     1       9.486  -2.954   9.191  1.00  0.00     0.001 A 
HETATM   49  C9  UNL     1       8.523  -2.366   8.404  1.00  0.00     0.000 A 
HETATM   50  C10 UNL     1       8.001  -1.145   8.769  1.00  0.00     0.001 A 
HETATM   51  C11 UNL     1       8.454  -0.527   9.923  1.00  0.00     0.014 A 
ENDBRANCH  42  46
ENDBRANCH  39  40
ENDBRANCH  35  39
ENDBRANCH  33  35
ENDBRANCH   1  33
TORSDOF 14
ENDMDL
MODEL 4
REMARK VINA RESULT: -8.077305154      1.868      2.549
REMARK  14 active torsions:
REMARK  status: ('A' for Active; 'I' for Inactive)
REMARK    1  A    between atoms: N1_2  and  C2_4 
REMARK    2  A    between atoms: C2_4  and  C3_5 
REMARK    3  A    between atoms: C2_4  and  N5_18 
REMARK    4  A    between atoms: C3_5  and  N2_6 
REMARK    5  A    between atoms: C5_8  and  C6_9 
REMARK    6  A    between atoms: N5_18  and  C12_20 
REMARK    7  A    between atoms: C13_25  and  C14_26 
REMARK    8  A    between atoms: C14_26  and  C15_27 
REMARK    9  A    between atoms: C15_27  and  C16_28 
REMARK   10  A    between atoms: C16_28  and  C17_29 
REMARK   11  A    between atoms: C17_29  and  C18_30 
REMARK   12  A    between atoms: C21_33  and  N8_34 
REMARK       I    between atoms: N8_34  and  C22_36 
REMARK   13  A    between atoms: C22_36  and  C23_38 
REMARK   14  A    between atoms: C23_38  and  C24_39 
ROOT
HETATM    1  C12 UNL     1      13.569   2.379  14.252  1.00  0.00     0.166 A 
HETATM    2  N6  UNL     1      12.760   2.761  13.255  1.00  0.00    -0.279 N 
ATOM      3  H6  UNL     1      11.760   2.564  13.294  1.00  0.00     0.189 HD
HETATM    4  N7  UNL     1      13.258   3.370  12.265  1.00  0.00    -0.296 N 
ATOM      5  H7  UNL     1      12.656   3.669  11.498  1.00  0.00     0.187 HD
HETATM    6  C13 UNL     1      14.556   3.622  12.216  1.00  0.00     0.069 A 
HETATM    7  S1  UNL     1      15.088   2.941  13.690  1.00  0.00    -0.038 SA
ENDROOT
BRANCH   6   8
HETATM    8  C14 UNL     1      15.284   4.328  11.109  1.00  0.00     0.066 C 
BRANCH   8   9
HETATM    9  C15 UNL     1      16.653   4.727  11.679  1.00  0.00     0.007 C 
BRANCH   9  10
HETATM   10  C16 UNL     1      16.594   6.154  12.171  1.00  0.00     0.006 C 
BRANCH  10  11
HETATM   11  C17 UNL     1      15.690   6.944  11.243  1.00  0.00     0.058 C 
BRANCH  11  12
HETATM   12  C18 UNL     1      14.667   7.695  11.985  1.00  0.00     0.026 A 
HETATM   13  C19 UNL     1      13.351   7.550  11.602  1.00  0.00     0.030 A 
HETATM   14  C20 UNL     1      12.339   8.221  12.248  1.00  0.00     0.052 A 
HETATM   15  C21 UNL     1      12.728   9.060  13.316  1.00  0.00     0.122 A 
HETATM   16  N9  UNL     1      14.014   9.185  13.670  1.00  0.00    -0.285 N 
HETATM   17  N10 UNL     1      14.956   8.510  13.010  1.00  0.00    -0.303 N 
ATOM     18  H9  UNL     1      14.273   9.796  14.444  1.00  0.00     0.188 HD
ATOM     19  H10 UNL     1      15.930   8.617  13.294  1.00  0.00     0.186 HD
BRANCH  15  20
HETATM   20  N8  UNL     1      11.793   9.680  13.913  1.00  0.00    -0.312 N 
HETATM   21  C22 UNL     1      11.679   9.810  15.302  1.00  0.00     0.227 C 
HETATM   22  O1  UNL     1      12.031  10.931  15.800  1.00  0.00    -0.273 OA
ATOM     23  H8  UNL     1      11.073  10.116  13.336  1.00  0.00     0.170 HD
BRANCH  21  24
HETATM   24  C23 UNL     1      11.175   8.736  16.206  1.00  0.00     0.141 C 
BRANCH  24  25
HETATM   25  C24 UNL     1      12.314   8.019  16.835  1.00  0.00    -0.044 A 
HETATM   26  C25 UNL     1      12.900   8.493  18.010  1.00  0.00     0.050 A 
HETATM   27  C26 UNL     1      13.956   7.800  18.558  1.00  0.00     0.119 A 
HETATM   28  F1  UNL     1      14.552   8.231  19.693  1.00  0.00    -0.206 F 
HETATM   29  C27 UNL     1      14.445   6.648  17.966  1.00  0.00     0.084 A 
HETATM   30  C28 UNL     1      13.856   6.187  16.801  1.00  0.00     0.119 A 
HETATM   31  F2  UNL     1      14.337   5.051  16.216  1.00  0.00    -0.206 F 
HETATM   32  C29 UNL     1      12.789   6.876  16.238  1.00  0.00     0.050 A 
ENDBRANCH  24  25
ENDBRANCH  21  24
ENDBRANCH  15  20
ENDBRANCH  11  12
ENDBRANCH  10  11
ENDBRANCH   9  10
ENDBRANCH   8   9
ENDBRANCH   6   8
BRANCH   1  33
HETATM   33  N5  UNL     1      13.233   1.739  15.350  1.00  0.00    -0.324 N 
ATOM     34  H5  UNL     1      13.710   1.927  16.232  1.00  0.00     0.169 HD
BRANCH  33  35
HETATM   35  C2  UNL     1      12.189   0.781  15.275  1.00  0.00     0.098 C 
BRANCH  35  36
HETATM   36  N1  UNL     1      12.258  -0.165  14.390  1.00  0.00    -0.383 N 
HETATM   37  C1  UNL     1      11.158  -0.504  13.521  1.00  0.00     0.147 C 
ATOM     38  H1  UNL     1      13.128  -0.691  14.303  1.00  0.00     0.160 HD
ENDBRANCH  35  36
BRANCH  35  39
HETATM   39  C3  UNL     1      11.021   0.842  16.190  1.00  0.00     0.222 C 
BRANCH  39  40
HETATM   40  N2  UNL     1      10.727   2.263  16.395  1.00  0.00    -0.278 N 
HETATM   41  C4  UNL     1      10.653   2.937  17.551  1.00  0.00     0.139 A 
HETATM   42  C5  UNL     1      10.352   4.258  17.320  1.00  0.00     0.073 A 
HETATM   43  N3  UNL     1      10.247   4.355  15.981  1.00  0.00    -0.282 N 
HETATM   44  N4  UNL     1      10.472   3.168  15.444  1.00  0.00    -0.020 NA
ATOM     45  H3  UNL     1      10.029   5.207  15.464  1.00  0.00     0.184 HD
BRANCH  42  46
HETATM   46  C6  UNL     1      10.172   5.350  18.258  1.00  0.00    -0.007 A 
HETATM   47  C7  UNL     1      11.029   5.481  19.330  1.00  0.00     0.014 A 
HETATM   48  C8  UNL     1      10.896   6.506  20.249  1.00  0.00     0.001 A 
HETATM   49  C9  UNL     1       9.884   7.428  20.107  1.00  0.00     0.000 A 
HETATM   50  C10 UNL     1       9.012   7.321  19.046  1.00  0.00     0.001 A 
HETATM   51  C11 UNL     1       9.166   6.286  18.138  1.00  0.00     0.014 A 
ENDBRANCH  42  46
ENDBRANCH  39  40
ENDBRANCH  35  39
ENDBRANCH  33  35
ENDBRANCH   1  33
TORSDOF 14
ENDMDL
MODEL 5
REMARK VINA RESULT: -7.964828331      2.318      5.410
REMARK  14 active torsions:
REMARK  status: ('A' for Active; 'I' for Inactive)
REMARK    1  A    between atoms: N1_2  and  C2_4 
REMARK    2  A    between atoms: C2_4  and  C3_5 
REMARK    3  A    between atoms: C2_4  and  N5_18 
REMARK    4  A    between atoms: C3_5  and  N2_6 
REMARK    5  A    between atoms: C5_8  and  C6_9 
REMARK    6  A    between atoms: N5_18  and  C12_20 
REMARK    7  A    between atoms: C13_25  and  C14_26 
REMARK    8  A    between atoms: C14_26  and  C15_27 
REMARK    9  A    between atoms: C15_27  and  C16_28 
REMARK   10  A    between atoms: C16_28  and  C17_29 
REMARK   11  A    between atoms: C17_29  and  C18_30 
REMARK   12  A    between atoms: C21_33  and  N8_34 
REMARK       I    between atoms: N8_34  and  C22_36 
REMARK   13  A    between atoms: C22_36  and  C23_38 
REMARK   14  A    between atoms: C23_38  and  C24_39 
ROOT
HETATM    1  C12 UNL     1      13.610   2.388  14.347  1.00  0.00     0.166 A 
HETATM    2  N6  UNL     1      12.791   2.585  13.305  1.00  0.00    -0.279 N 
ATOM      3  H6  UNL     1      11.820   2.276  13.342  1.00  0.00     0.189 HD
HETATM    4  N7  UNL     1      13.245   3.162  12.275  1.00  0.00    -0.296 N 
ATOM      5  H7  UNL     1      12.635   3.321  11.473  1.00  0.00     0.187 HD
HETATM    6  C13 UNL     1      14.506   3.560  12.228  1.00  0.00     0.069 A 
HETATM    7  S1  UNL     1      15.069   3.075  13.767  1.00  0.00    -0.038 SA
ENDROOT
BRANCH   6   8
HETATM    8  C14 UNL     1      15.179   4.250  11.078  1.00  0.00     0.066 C 
BRANCH   8   9
HETATM    9  C15 UNL     1      16.592   4.612  11.560  1.00  0.00     0.007 C 
BRANCH   9  10
HETATM   10  C16 UNL     1      16.612   6.051  12.018  1.00  0.00     0.006 C 
BRANCH  10  11
HETATM   11  C17 UNL     1      15.622   6.835  11.177  1.00  0.00     0.058 C 
BRANCH  11  12
HETATM   12  C18 UNL     1      14.677   7.594  12.011  1.00  0.00     0.026 A 
HETATM   13  C19 UNL     1      13.330   7.436  11.771  1.00  0.00     0.030 A 
HETATM   14  C20 UNL     1      12.387   8.114  12.508  1.00  0.00     0.052 A 
HETATM   15  C21 UNL     1      12.880   8.972  13.515  1.00  0.00     0.122 A 
HETATM   16  N9  UNL     1      14.195   9.109  13.730  1.00  0.00    -0.285 N 
HETATM   17  N10 UNL     1      15.067   8.427  12.986  1.00  0.00    -0.303 N 
ATOM     18  H9  UNL     1      14.530   9.735  14.463  1.00  0.00     0.188 HD
ATOM     19  H10 UNL     1      16.065   8.544  13.164  1.00  0.00     0.186 HD
BRANCH  15  20
HETATM   20  N8  UNL     1      12.009   9.598  14.197  1.00  0.00    -0.312 N 
HETATM   21  C22 UNL     1      12.255  10.231  15.421  1.00  0.00     0.227 C 
HETATM   22  O1  UNL     1      12.381  11.500  15.391  1.00  0.00    -0.273 OA
ATOM     23  H8  UNL     1      11.061   9.643  13.823  1.00  0.00     0.170 HD
BRANCH  21  24
HETATM   24  C23 UNL     1      12.368   9.518  16.726  1.00  0.00     0.141 C 
BRANCH  24  25
HETATM   25  C24 UNL     1      11.024   9.094  17.197  1.00  0.00    -0.044 A 
HETATM   26  C25 UNL     1      10.028  10.033  17.468  1.00  0.00     0.050 A 
HETATM   27  C26 UNL     1       8.798   9.597  17.906  1.00  0.00     0.119 A 
HETATM   28  F1  UNL     1       7.810  10.478  18.182  1.00  0.00    -0.206 F 
HETATM   29  C27 UNL     1       8.533   8.250  18.083  1.00  0.00     0.084 A 
HETATM   30  C28 UNL     1       9.529   7.327  17.811  1.00  0.00     0.119 A 
HETATM   31  F2  UNL     1       9.269   5.998  17.985  1.00  0.00    -0.206 F 
HETATM   32  C29 UNL     1      10.774   7.753  17.368  1.00  0.00     0.050 A 
ENDBRANCH  24  25
ENDBRANCH  21  24
ENDBRANCH  15  20
ENDBRANCH  11  12
ENDBRANCH  10  11
ENDBRANCH   9  10
ENDBRANCH   8   9
ENDBRANCH   6   8
BRANCH   1  33
HETATM   33  N5  UNL     1      13.318   1.809  15.490  1.00  0.00    -0.324 N 
ATOM     34  H5  UNL     1      14.052   1.554  16.151  1.00  0.00     0.169 HD
BRANCH  33  35
HETATM   35  C2  UNL     1      11.953   1.548  15.782  1.00  0.00     0.098 C 
BRANCH  35  36
HETATM   36  N1  UNL     1      11.208   2.508  16.239  1.00  0.00    -0.383 N 
HETATM   37  C1  UNL     1      10.272   2.322  17.320  1.00  0.00     0.147 C 
ATOM     38  H1  UNL     1      11.288   3.432  15.817  1.00  0.00     0.160 HD
ENDBRANCH  35  36
BRANCH  35  39
HETATM   39  C3  UNL     1      11.364   0.201  15.575  1.00  0.00     0.222 C 
BRANCH  39  40
HETATM   40  N2  UNL     1      10.652   0.252  14.295  1.00  0.00    -0.278 N 
HETATM   41  C4  UNL     1      10.580  -0.693  13.347  1.00  0.00     0.139 A 
HETATM   42  C5  UNL     1       9.813  -0.259  12.292  1.00  0.00     0.073 A 
HETATM   43  N3  UNL     1       9.426   0.983  12.639  1.00  0.00    -0.282 N 
HETATM   44  N4  UNL     1       9.928   1.274  13.827  1.00  0.00    -0.020 NA
ATOM     45  H3  UNL     1       8.839   1.600  12.077  1.00  0.00     0.184 HD
BRANCH  42  46
HETATM   46  C6  UNL     1       9.463  -0.933  11.056  1.00  0.00    -0.007 A 
HETATM   47  C7  UNL     1       8.580  -0.340  10.179  1.00  0.00     0.014 A 
HETATM   48  C8  UNL     1       8.217  -0.945   8.989  1.00  0.00     0.001 A 
HETATM   49  C9  UNL     1       8.741  -2.173   8.656  1.00  0.00     0.000 A 
HETATM   50  C10 UNL     1       9.625  -2.790   9.514  1.00  0.00     0.001 A 
HETATM   51  C11 UNL     1       9.973  -2.163  10.700  1.00  0.00     0.014 A 
ENDBRANCH  42  46
ENDBRANCH  39  40
ENDBRANCH  35  39
ENDBRANCH  33  35
ENDBRANCH   1  33
TORSDOF 14
ENDMDL
