MODEL 1
REMARK VINA RESULT: -6.226817289      0.000      0.000
REMARK  14 active torsions:
REMARK  status: ('A' for Active; 'I' for Inactive)
REMARK    1  A    between atoms: C3_3  and  C4_4 
REMARK    2  A    between atoms: C4_4  and  O2_6 
REMARK    3  A    between atoms: O2_6  and  C5_7 
REMARK    4  A    between atoms: C5_7  and  C6_8 
REMARK    5  A    between atoms: C5_7  and  C9_13 
REMARK    6  A    between atoms: C6_8  and  O3_9 
REMARK    7  A    between atoms: O3_9  and  C7_10 
REMARK    8  A    between atoms: C11_15  and  O5_16 
REMARK    9  A    between atoms: O5_16  and  C12_17 
REMARK   10  A    between atoms: C12_17  and  C16_21 
REMARK   11  A    between atoms: C13_18  and  C14_19 
REMARK   12  A    between atoms: C16_21  and  O6_22 
REMARK   13  A    between atoms: C21_30  and  O7_31 
REMARK   14  A    between atoms: C23_33  and  O8_34 
ROOT
HETATM    1  C9  UNL     1      12.797   6.079  15.894  1.00  0.00     0.056 C 
HETATM    2  C10 UNL     1      13.818   5.882  14.822  1.00  0.00     0.030 C 
HETATM    3  C11 UNL     1      14.884   6.987  14.952  1.00  0.00     0.141 C 
HETATM    4  C17 UNL     1      15.546   6.109  15.950  1.00  0.00     0.060 C 
HETATM    5  C18 UNL     1      14.906   4.940  15.246  1.00  0.00     0.018 C 
HETATM    6  C19 UNL     1      14.614   3.965  16.339  1.00  0.00     0.080 C 
HETATM    7 BR1  UNL     1      15.869   2.480  16.105  1.00  0.00    -0.089 Br
HETATM    8  C20 UNL     1      14.915   4.660  17.650  1.00  0.00     0.110 C 
HETATM    9 BR2  UNL     1      13.690   4.021  18.954  1.00  0.00    -0.087 Br
HETATM   10  C21 UNL     1      14.824   6.113  17.305  1.00  0.00     0.107 C 
HETATM   11  C23 UNL     1      13.426   6.622  17.125  1.00  0.00     0.161 C 
ENDROOT
BRANCH   1  12
HETATM   12  C5  UNL     1      11.621   6.929  15.464  1.00  0.00     0.163 C 
BRANCH  12  13
HETATM   13  O2  UNL     1      11.603   7.146  14.074  1.00  0.00    -0.310 OA
BRANCH  13  14
HETATM   14  C4  UNL     1      11.374   8.421  13.526  1.00  0.00     0.283 C 
HETATM   15  O1  UNL     1      11.143   8.471  12.292  1.00  0.00    -0.260 OA
BRANCH  14  16
HETATM   16  C3  UNL     1      11.401   9.620  14.333  1.00  0.00     0.077 C 
HETATM   17  C2  UNL     1      12.517  10.153  14.791  1.00  0.00    -0.025 C 
HETATM   18  C1  UNL     1      12.522  11.372  15.610  1.00  0.00     0.036 C 
ENDBRANCH  14  16
ENDBRANCH  13  14
ENDBRANCH  12  13
BRANCH  12  19
HETATM   19  C6  UNL     1      10.344   6.328  15.970  1.00  0.00     0.211 C 
BRANCH  19  20
HETATM   20  O3  UNL     1       9.784   6.971  17.077  1.00  0.00    -0.319 OA
BRANCH  20  21
HETATM   21  C7  UNL     1       9.567   8.320  17.171  1.00  0.00     0.254 C 
HETATM   22  C8  UNL     1      10.389   9.207  18.066  1.00  0.00     0.126 C 
HETATM   23  O4  UNL     1       8.662   8.860  16.501  1.00  0.00    -0.266 OA
ENDBRANCH  20  21
ENDBRANCH  19  20
ENDBRANCH  12  19
ENDBRANCH   1  12
BRANCH  11  24
HETATM   24  O8  UNL     1      12.621   6.328  18.229  1.00  0.00    -0.392 OA
ATOM     25  H8  UNL     1      13.035   6.655  19.019  1.00  0.00     0.210 HD
ENDBRANCH  11  24
BRANCH   3  26
HETATM   26  O5  UNL     1      15.630   7.270  13.844  1.00  0.00    -0.347 OA
BRANCH  26  27
HETATM   27  C12 UNL     1      15.444   7.400  12.524  1.00  0.00     0.066 C 
HETATM   28  C13 UNL     1      16.017   6.587  11.611  1.00  0.00     0.007 C 
BRANCH  28  29
HETATM   29  C14 UNL     1      16.914   5.468  11.988  1.00  0.00     0.025 C 
HETATM   30  C15 UNL     1      16.223   4.183  11.592  1.00  0.00     0.009 C 
ENDBRANCH  28  29
BRANCH  27  31
HETATM   31  C16 UNL     1      14.565   8.471  11.958  1.00  0.00     0.228 C 
BRANCH  31  32
HETATM   32  O6  UNL     1      13.591   7.822  11.193  1.00  0.00    -0.394 OA
ATOM     33  H6  UNL     1      12.769   8.265  11.371  1.00  0.00     0.209 HD
ENDBRANCH  31  32
ENDBRANCH  27  31
ENDBRANCH  26  27
ENDBRANCH   3  26
BRANCH  10  34
HETATM   34  O7  UNL     1      15.475   6.963  18.121  1.00  0.00    -0.381 OA
HETATM   35  C22 UNL     1      16.760   6.806  18.459  1.00  0.00     0.202 C 
ENDBRANCH  10  34
TORSDOF 14
ENDMDL
MODEL 2
REMARK VINA RESULT: -6.164680101      2.154      5.159
REMARK  14 active torsions:
REMARK  status: ('A' for Active; 'I' for Inactive)
REMARK    1  A    between atoms: C3_3  and  C4_4 
REMARK    2  A    between atoms: C4_4  and  O2_6 
REMARK    3  A    between atoms: O2_6  and  C5_7 
REMARK    4  A    between atoms: C5_7  and  C6_8 
REMARK    5  A    between atoms: C5_7  and  C9_13 
REMARK    6  A    between atoms: C6_8  and  O3_9 
REMARK    7  A    between atoms: O3_9  and  C7_10 
REMARK    8  A    between atoms: C11_15  and  O5_16 
REMARK    9  A    between atoms: O5_16  and  C12_17 
REMARK   10  A    between atoms: C12_17  and  C16_21 
REMARK   11  A    between atoms: C13_18  and  C14_19 
REMARK   12  A    between atoms: C16_21  and  O6_22 
REMARK   13  A    between atoms: C21_30  and  O7_31 
REMARK   14  A    between atoms: C23_33  and  O8_34 
ROOT
HETATM    1  C9  UNL     1      15.385   5.710  14.497  1.00  0.00     0.056 C 
HETATM    2  C10 UNL     1      16.500   6.108  15.408  1.00  0.00     0.030 C 
HETATM    3  C11 UNL     1      16.038   7.312  16.251  1.00  0.00     0.141 C 
HETATM    4  C17 UNL     1      15.436   6.321  17.178  1.00  0.00     0.060 C 
HETATM    5  C18 UNL     1      16.476   5.341  16.697  1.00  0.00     0.018 C 
HETATM    6  C19 UNL     1      15.779   4.020  16.723  1.00  0.00     0.080 C 
HETATM    7 BR1  UNL     1      16.566   3.009  18.205  1.00  0.00    -0.089 Br
HETATM    8  C20 UNL     1      14.321   4.290  17.034  1.00  0.00     0.110 C 
HETATM    9 BR2  UNL     1      13.272   3.003  16.111  1.00  0.00    -0.087 Br
HETATM   10  C21 UNL     1      14.135   5.718  16.628  1.00  0.00     0.107 C 
HETATM   11  C23 UNL     1      14.069   5.938  15.147  1.00  0.00     0.161 C 
ENDROOT
BRANCH   1  12
HETATM   12  C5  UNL     1      15.444   6.376  13.139  1.00  0.00     0.163 C 
BRANCH  12  13
HETATM   13  O2  UNL     1      15.399   7.779  13.234  1.00  0.00    -0.310 OA
BRANCH  13  14
HETATM   14  C4  UNL     1      14.342   8.525  12.683  1.00  0.00     0.283 C 
HETATM   15  O1  UNL     1      14.209   8.477  11.434  1.00  0.00    -0.260 OA
BRANCH  14  16
HETATM   16  C3  UNL     1      13.447   9.310  13.502  1.00  0.00     0.077 C 
HETATM   17  C2  UNL     1      12.143   9.112  13.536  1.00  0.00    -0.025 C 
HETATM   18  C1  UNL     1      11.251   9.923  14.376  1.00  0.00     0.036 C 
ENDBRANCH  14  16
ENDBRANCH  13  14
ENDBRANCH  12  13
BRANCH  12  19
HETATM   19  C6  UNL     1      16.643   5.887  12.383  1.00  0.00     0.211 C 
BRANCH  19  20
HETATM   20  O3  UNL     1      16.369   4.963  11.371  1.00  0.00    -0.319 OA
BRANCH  20  21
HETATM   21  C7  UNL     1      15.125   4.711  10.858  1.00  0.00     0.254 C 
HETATM   22  C8  UNL     1      14.230   3.633  11.408  1.00  0.00     0.126 C 
HETATM   23  O4  UNL     1      14.691   5.383   9.899  1.00  0.00    -0.266 OA
ENDBRANCH  20  21
ENDBRANCH  19  20
ENDBRANCH  12  19
ENDBRANCH   1  12
BRANCH  11  24
HETATM   24  O8  UNL     1      13.104   5.127  14.544  1.00  0.00    -0.392 OA
ATOM     25  H8  UNL     1      12.272   5.584  14.527  1.00  0.00     0.210 HD
ENDBRANCH  11  24
BRANCH   3  26
HETATM   26  O5  UNL     1      17.008   8.102  16.798  1.00  0.00    -0.347 OA
BRANCH  26  27
HETATM   27  C12 UNL     1      17.371   8.538  18.012  1.00  0.00     0.066 C 
HETATM   28  C13 UNL     1      18.496   8.135  18.639  1.00  0.00     0.007 C 
BRANCH  28  29
HETATM   29  C14 UNL     1      19.441   7.163  18.039  1.00  0.00     0.025 C 
HETATM   30  C15 UNL     1      19.349   5.888  18.846  1.00  0.00     0.009 C 
ENDBRANCH  28  29
BRANCH  27  31
HETATM   31  C16 UNL     1      16.541   9.528  18.769  1.00  0.00     0.228 C 
BRANCH  31  32
HETATM   32  O6  UNL     1      16.224  10.550  17.870  1.00  0.00    -0.394 OA
ATOM     33  H6  UNL     1      15.302  10.743  17.995  1.00  0.00     0.209 HD
ENDBRANCH  31  32
ENDBRANCH  27  31
ENDBRANCH  26  27
ENDBRANCH   3  26
BRANCH  10  34
HETATM   34  O7  UNL     1      13.103   6.370  17.193  1.00  0.00    -0.381 OA
HETATM   35  C22 UNL     1      12.948   6.477  18.518  1.00  0.00     0.202 C 
ENDBRANCH  10  34
TORSDOF 14
ENDMDL
MODEL 3
REMARK VINA RESULT: -5.887201803      2.024      3.370
REMARK  14 active torsions:
REMARK  status: ('A' for Active; 'I' for Inactive)
REMARK    1  A    between atoms: C3_3  and  C4_4 
REMARK    2  A    between atoms: C4_4  and  O2_6 
REMARK    3  A    between atoms: O2_6  and  C5_7 
REMARK    4  A    between atoms: C5_7  and  C6_8 
REMARK    5  A    between atoms: C5_7  and  C9_13 
REMARK    6  A    between atoms: C6_8  and  O3_9 
REMARK    7  A    between atoms: O3_9  and  C7_10 
REMARK    8  A    between atoms: C11_15  and  O5_16 
REMARK    9  A    between atoms: O5_16  and  C12_17 
REMARK   10  A    between atoms: C12_17  and  C16_21 
REMARK   11  A    between atoms: C13_18  and  C14_19 
REMARK   12  A    between atoms: C16_21  and  O6_22 
REMARK   13  A    between atoms: C21_30  and  O7_31 
REMARK   14  A    between atoms: C23_33  and  O8_34 
ROOT
HETATM    1  C9  UNL     1      13.817   5.935  16.818  1.00  0.00     0.056 C 
HETATM    2  C10 UNL     1      14.941   5.972  15.835  1.00  0.00     0.030 C 
HETATM    3  C11 UNL     1      14.940   7.348  15.141  1.00  0.00     0.141 C 
HETATM    4  C17 UNL     1      15.737   7.834  16.296  1.00  0.00     0.060 C 
HETATM    5  C18 UNL     1      16.227   6.418  16.466  1.00  0.00     0.018 C 
HETATM    6  C19 UNL     1      16.386   6.256  17.942  1.00  0.00     0.080 C 
HETATM    7 BR1  UNL     1      18.313   6.190  18.286  1.00  0.00    -0.089 Br
HETATM    8  C20 UNL     1      15.814   7.499  18.592  1.00  0.00     0.110 C 
HETATM    9 BR2  UNL     1      15.037   6.995  20.250  1.00  0.00    -0.087 Br
HETATM   10  C21 UNL     1      14.881   8.039  17.554  1.00  0.00     0.107 C 
HETATM   11  C23 UNL     1      13.599   7.277  17.417  1.00  0.00     0.161 C 
ENDROOT
BRANCH   1  12
HETATM   12  C5  UNL     1      12.530   5.378  16.248  1.00  0.00     0.163 C 
BRANCH  12  13
HETATM   13  O2  UNL     1      12.071   6.123  15.147  1.00  0.00    -0.310 OA
BRANCH  13  14
HETATM   14  C4  UNL     1      10.900   6.899  15.214  1.00  0.00     0.283 C 
HETATM   15  O1  UNL     1       9.902   6.367  15.763  1.00  0.00    -0.260 OA
BRANCH  14  16
HETATM   16  C3  UNL     1      10.835   8.241  14.681  1.00  0.00     0.077 C 
HETATM   17  C2  UNL     1      11.746   9.160  14.936  1.00  0.00    -0.025 C 
HETATM   18  C1  UNL     1      11.661  10.519  14.385  1.00  0.00     0.036 C 
ENDBRANCH  14  16
ENDBRANCH  13  14
ENDBRANCH  12  13
BRANCH  12  19
HETATM   19  C6  UNL     1      12.702   3.923  15.928  1.00  0.00     0.211 C 
BRANCH  19  20
HETATM   20  O3  UNL     1      12.523   3.587  14.584  1.00  0.00    -0.319 OA
BRANCH  20  21
HETATM   21  C7  UNL     1      13.492   3.061  13.772  1.00  0.00     0.254 C 
HETATM   22  C8  UNL     1      14.865   2.711  14.280  1.00  0.00     0.126 C 
HETATM   23  O4  UNL     1      13.258   2.855  12.563  1.00  0.00    -0.266 OA
ENDBRANCH  20  21
ENDBRANCH  19  20
ENDBRANCH  12  19
ENDBRANCH   1  12
BRANCH  11  24
HETATM   24  O8  UNL     1      12.943   7.139  18.643  1.00  0.00    -0.392 OA
ATOM     25  H8  UNL     1      12.151   6.628  18.523  1.00  0.00     0.210 HD
ENDBRANCH  11  24
BRANCH   3  26
HETATM   26  O5  UNL     1      15.562   7.438  13.929  1.00  0.00    -0.347 OA
BRANCH  26  27
HETATM   27  C12 UNL     1      15.220   7.495  12.635  1.00  0.00     0.066 C 
HETATM   28  C13 UNL     1      15.813   6.751  11.678  1.00  0.00     0.007 C 
BRANCH  28  29
HETATM   29  C14 UNL     1      16.908   5.796  11.972  1.00  0.00     0.025 C 
HETATM   30  C15 UNL     1      16.450   4.430  11.514  1.00  0.00     0.009 C 
ENDBRANCH  28  29
BRANCH  27  31
HETATM   31  C16 UNL     1      14.130   8.400  12.152  1.00  0.00     0.228 C 
BRANCH  31  32
HETATM   32  O6  UNL     1      13.003   7.596  11.958  1.00  0.00    -0.394 OA
ATOM     33  H6  UNL     1      13.069   7.248  11.076  1.00  0.00     0.209 HD
ENDBRANCH  31  32
ENDBRANCH  27  31
ENDBRANCH  26  27
ENDBRANCH   3  26
BRANCH  10  34
HETATM   34  O7  UNL     1      14.581   9.348  17.644  1.00  0.00    -0.381 OA
HETATM   35  C22 UNL     1      15.402  10.247  18.199  1.00  0.00     0.202 C 
ENDBRANCH  10  34
TORSDOF 14
ENDMDL
MODEL 4
REMARK VINA RESULT: -5.873880302      2.658      6.072
REMARK  14 active torsions:
REMARK  status: ('A' for Active; 'I' for Inactive)
REMARK    1  A    between atoms: C3_3  and  C4_4 
REMARK    2  A    between atoms: C4_4  and  O2_6 
REMARK    3  A    between atoms: O2_6  and  C5_7 
REMARK    4  A    between atoms: C5_7  and  C6_8 
REMARK    5  A    between atoms: C5_7  and  C9_13 
REMARK    6  A    between atoms: C6_8  and  O3_9 
REMARK    7  A    between atoms: O3_9  and  C7_10 
REMARK    8  A    between atoms: C11_15  and  O5_16 
REMARK    9  A    between atoms: O5_16  and  C12_17 
REMARK   10  A    between atoms: C12_17  and  C16_21 
REMARK   11  A    between atoms: C13_18  and  C14_19 
REMARK   12  A    between atoms: C16_21  and  O6_22 
REMARK   13  A    between atoms: C21_30  and  O7_31 
REMARK   14  A    between atoms: C23_33  and  O8_34 
ROOT
HETATM    1  C9  UNL     1      12.702   7.593  15.251  1.00  0.00     0.056 C 
HETATM    2  C10 UNL     1      13.367   7.429  16.579  1.00  0.00     0.030 C 
HETATM    3  C11 UNL     1      14.277   8.648  16.825  1.00  0.00     0.141 C 
HETATM    4  C17 UNL     1      13.069   9.335  17.348  1.00  0.00     0.060 C 
HETATM    5  C18 UNL     1      12.530   7.971  17.699  1.00  0.00     0.018 C 
HETATM    6  C19 UNL     1      11.056   8.092  17.489  1.00  0.00     0.080 C 
HETATM    7 BR1  UNL     1      10.240   8.069  19.270  1.00  0.00    -0.089 Br
HETATM    8  C20 UNL     1      10.804   9.443  16.851  1.00  0.00     0.110 C 
HETATM    9 BR2  UNL     1       9.326   9.273  15.671  1.00  0.00    -0.087 Br
HETATM   10  C21 UNL     1      12.120   9.786  16.228  1.00  0.00     0.107 C 
HETATM   11  C23 UNL     1      12.430   9.026  14.974  1.00  0.00     0.161 C 
ENDROOT
BRANCH   1  12
HETATM   12  C5  UNL     1      13.461   6.953  14.109  1.00  0.00     0.163 C 
BRANCH  12  13
HETATM   13  O2  UNL     1      12.630   6.676  13.008  1.00  0.00    -0.310 OA
BRANCH  13  14
HETATM   14  C4  UNL     1      13.031   6.953  11.689  1.00  0.00     0.283 C 
HETATM   15  O1  UNL     1      12.610   8.023  11.184  1.00  0.00    -0.260 OA
BRANCH  14  16
HETATM   16  C3  UNL     1      13.886   6.057  10.942  1.00  0.00     0.077 C 
HETATM   17  C2  UNL     1      13.935   4.758  11.164  1.00  0.00    -0.025 C 
HETATM   18  C1  UNL     1      14.811   3.866  10.393  1.00  0.00     0.036 C 
ENDBRANCH  14  16
ENDBRANCH  13  14
ENDBRANCH  12  13
BRANCH  12  19
HETATM   19  C6  UNL     1      14.641   7.803  13.741  1.00  0.00     0.211 C 
BRANCH  19  20
HETATM   20  O3  UNL     1      15.887   7.255  14.055  1.00  0.00    -0.319 OA
BRANCH  20  21
HETATM   21  C7  UNL     1      16.338   6.038  13.620  1.00  0.00     0.254 C 
HETATM   22  C8  UNL     1      17.197   5.889  12.392  1.00  0.00     0.126 C 
HETATM   23  O4  UNL     1      16.042   4.997  14.242  1.00  0.00    -0.266 OA
ENDBRANCH  20  21
ENDBRANCH  19  20
ENDBRANCH  12  19
ENDBRANCH   1  12
BRANCH  11  24
HETATM   24  O8  UNL     1      11.399   9.132  14.036  1.00  0.00    -0.392 OA
ATOM     25  H8  UNL     1      10.881   9.907  14.220  1.00  0.00     0.210 HD
ENDBRANCH  11  24
BRANCH   3  26
HETATM   26  O5  UNL     1      15.294   8.498  17.724  1.00  0.00    -0.347 OA
BRANCH  26  27
HETATM   27  C12 UNL     1      16.178   7.557  18.080  1.00  0.00     0.066 C 
HETATM   28  C13 UNL     1      16.135   6.910  19.264  1.00  0.00     0.007 C 
BRANCH  28  29
HETATM   29  C14 UNL     1      15.099   7.184  20.288  1.00  0.00     0.025 C 
HETATM   30  C15 UNL     1      14.144   6.011  20.288  1.00  0.00     0.009 C 
ENDBRANCH  28  29
BRANCH  27  31
HETATM   31  C16 UNL     1      17.293   7.145  17.171  1.00  0.00     0.228 C 
BRANCH  31  32
HETATM   32  O6  UNL     1      17.593   8.258  16.381  1.00  0.00    -0.394 OA
ATOM     33  H6  UNL     1      18.433   8.082  15.973  1.00  0.00     0.209 HD
ENDBRANCH  31  32
ENDBRANCH  27  31
ENDBRANCH  26  27
ENDBRANCH   3  26
BRANCH  10  34
HETATM   34  O7  UNL     1      12.347  11.091  15.992  1.00  0.00    -0.381 OA
HETATM   35  C22 UNL     1      13.138  11.844  16.766  1.00  0.00     0.202 C 
ENDBRANCH  10  34
TORSDOF 14
ENDMDL
MODEL 5
REMARK VINA RESULT: -5.835497964      2.456      5.556
REMARK  14 active torsions:
REMARK  status: ('A' for Active; 'I' for Inactive)
REMARK    1  A    between atoms: C3_3  and  C4_4 
REMARK    2  A    between atoms: C4_4  and  O2_6 
REMARK    3  A    between atoms: O2_6  and  C5_7 
REMARK    4  A    between atoms: C5_7  and  C6_8 
REMARK    5  A    between atoms: C5_7  and  C9_13 
REMARK    6  A    between atoms: C6_8  and  O3_9 
REMARK    7  A    between atoms: O3_9  and  C7_10 
REMARK    8  A    between atoms: C11_15  and  O5_16 
REMARK    9  A    between atoms: O5_16  and  C12_17 
REMARK   10  A    between atoms: C12_17  and  C16_21 
REMARK   11  A    between atoms: C13_18  and  C14_19 
REMARK   12  A    between atoms: C16_21  and  O6_22 
REMARK   13  A    between atoms: C21_30  and  O7_31 
REMARK   14  A    between atoms: C23_33  and  O8_34 
ROOT
HETATM    1  C9  UNL     1      14.169   6.864  16.817  1.00  0.00     0.056 C 
HETATM    2  C10 UNL     1      14.584   7.654  15.619  1.00  0.00     0.030 C 
HETATM    3  C11 UNL     1      13.886   7.065  14.378  1.00  0.00     0.141 C 
HETATM    4  C17 UNL     1      12.728   7.926  14.728  1.00  0.00     0.060 C 
HETATM    5  C18 UNL     1      13.708   8.852  15.403  1.00  0.00     0.018 C 
HETATM    6  C19 UNL     1      12.955   9.401  16.570  1.00  0.00     0.080 C 
HETATM    7 BR1  UNL     1      12.583  11.279  16.155  1.00  0.00    -0.089 Br
HETATM    8  C20 UNL     1      11.643   8.647  16.650  1.00  0.00     0.110 C 
HETATM    9 BR2  UNL     1      11.168   8.482  18.482  1.00  0.00    -0.087 Br
HETATM   10  C21 UNL     1      11.926   7.374  15.916  1.00  0.00     0.107 C 
HETATM   11  C23 UNL     1      12.767   6.394  16.676  1.00  0.00     0.161 C 
ENDROOT
BRANCH   1  12
HETATM   12  C5  UNL     1      15.099   5.714  17.138  1.00  0.00     0.163 C 
BRANCH  12  13
HETATM   13  O2  UNL     1      15.653   5.141  15.979  1.00  0.00    -0.310 OA
BRANCH  13  14
HETATM   14  C4  UNL     1      15.593   3.757  15.736  1.00  0.00     0.283 C 
HETATM   15  O1  UNL     1      15.970   3.004  16.669  1.00  0.00    -0.260 OA
BRANCH  14  16
HETATM   16  C3  UNL     1      15.124   3.216  14.481  1.00  0.00     0.077 C 
HETATM   17  C2  UNL     1      14.053   3.669  13.859  1.00  0.00    -0.025 C 
HETATM   18  C1  UNL     1      13.592   3.104  12.583  1.00  0.00     0.036 C 
ENDBRANCH  14  16
ENDBRANCH  13  14
ENDBRANCH  12  13
BRANCH  12  19
HETATM   19  C6  UNL     1      16.144   6.161  18.116  1.00  0.00     0.211 C 
BRANCH  19  20
HETATM   20  O3  UNL     1      17.462   6.050  17.666  1.00  0.00    -0.319 OA
BRANCH  20  21
HETATM   21  C7  UNL     1      18.279   7.109  17.369  1.00  0.00     0.254 C 
HETATM   22  C8  UNL     1      19.630   7.288  18.008  1.00  0.00     0.126 C 
HETATM   23  O4  UNL     1      17.916   7.972  16.543  1.00  0.00    -0.266 OA
ENDBRANCH  20  21
ENDBRANCH  19  20
ENDBRANCH  12  19
ENDBRANCH   1  12
BRANCH  11  24
HETATM   24  O8  UNL     1      12.236   6.124  17.940  1.00  0.00    -0.392 OA
ATOM     25  H8  UNL     1      11.356   5.780  17.847  1.00  0.00     0.210 HD
ENDBRANCH  11  24
BRANCH   3  26
HETATM   26  O5  UNL     1      14.451   7.322  13.162  1.00  0.00    -0.347 OA
BRANCH  26  27
HETATM   27  C12 UNL     1      14.290   6.939  11.888  1.00  0.00     0.066 C 
HETATM   28  C13 UNL     1      15.263   6.346  11.164  1.00  0.00     0.007 C 
BRANCH  28  29
HETATM   29  C14 UNL     1      16.610   6.063  11.714  1.00  0.00     0.025 C 
HETATM   30  C15 UNL     1      16.820   4.568  11.645  1.00  0.00     0.009 C 
ENDBRANCH  28  29
BRANCH  27  31
HETATM   31  C16 UNL     1      12.994   7.140  11.167  1.00  0.00     0.228 C 
BRANCH  31  32
HETATM   32  O6  UNL     1      12.675   5.914  10.575  1.00  0.00    -0.394 OA
ATOM     33  H6  UNL     1      11.840   6.035  10.137  1.00  0.00     0.209 HD
ENDBRANCH  31  32
ENDBRANCH  27  31
ENDBRANCH  26  27
ENDBRANCH   3  26
BRANCH  10  34
HETATM   34  O7  UNL     1      10.858   6.717  15.427  1.00  0.00    -0.381 OA
HETATM   35  C22 UNL     1       9.734   7.335  15.049  1.00  0.00     0.202 C 
ENDBRANCH  10  34
TORSDOF 14
ENDMDL
