MODEL 1
REMARK VINA RESULT: -8.444702731      0.000      0.000
REMARK  9 active torsions:
REMARK  status: ('A' for Active; 'I' for Inactive)
REMARK    1  A    between atoms: C4_5  and  C5_6 
REMARK    2  A    between atoms: C5_6  and  C6_9 
REMARK       I    between atoms: C6_9  and  N2_11 
REMARK    3  A    between atoms: C7_13  and  C8_14 
REMARK    4  A    between atoms: C7_13  and  C10_18 
REMARK    5  A    between atoms: C8_14  and  C9_15 
REMARK    6  A    between atoms: C10_18  and  C11_20 
REMARK    7  A    between atoms: C11_20  and  C12_21 
REMARK    8  A    between atoms: C20_29  and  N3_30 
REMARK    9  A    between atoms: C23_33  and  N4_34 
ROOT
HETATM    1  C11 UNL     1      22.035   7.103 -13.712  1.00  0.00     0.032 C 
HETATM    2  C18 UNL     1      21.466   8.241 -12.949  1.00  0.00     0.020 C 
HETATM    3  C19 UNL     1      22.584   9.177 -12.597  1.00  0.00     0.037 C 
HETATM    4  C20 UNL     1      23.838   8.625 -13.224  1.00  0.00     0.224 C 
HETATM    5  C29 UNL     1      23.492   7.392 -13.989  1.00  0.00     0.053 C 
ENDROOT
BRANCH   1   6
HETATM    6  C10 UNL     1      21.366   6.862 -15.032  1.00  0.00     0.181 C 
HETATM    7  O4  UNL     1      20.418   7.673 -15.216  1.00  0.00    -0.290 OA
BRANCH   6   8
HETATM    8  C7  UNL     1      21.634   5.926 -16.021  1.00  0.00     0.069 C 
HETATM    9  N2  UNL     1      22.233   4.720 -16.208  1.00  0.00    -0.323 N 
HETATM   10  C6  UNL     1      21.979   3.354 -15.991  1.00  0.00     0.284 C 
ATOM     11  H2  UNL     1      23.150   4.845 -16.638  1.00  0.00     0.169 HD
HETATM   12  O1  UNL     1      20.973   2.951 -15.406  1.00  0.00    -0.268 OA
BRANCH  10  13
HETATM   13  C5  UNL     1      22.913   2.299 -16.504  1.00  0.00     0.302 C 
HETATM   14  F1  UNL     1      23.774   3.000 -17.361  1.00  0.00    -0.207 F 
HETATM   15 CL1  UNL     1      22.074   1.011 -17.312  1.00  0.00    -0.066 Cl
BRANCH  13  16
HETATM   16  C4  UNL     1      23.700   1.782 -15.351  1.00  0.00     0.091 A 
HETATM   17  C3  UNL     1      24.194   2.430 -14.237  1.00  0.00     0.050 A 
HETATM   18  C2  UNL     1      24.806   1.526 -13.433  1.00  0.00     0.112 A 
HETATM   19  N1  UNL     1      24.680   0.324 -14.062  1.00  0.00    -0.307 N 
HETATM   20  C1  UNL     1      25.118  -0.919 -13.498  1.00  0.00     0.177 C 
HETATM   21  N5  UNL     1      24.033   0.463 -15.198  1.00  0.00    -0.298 N 
ATOM     22  H5  UNL     1      23.816  -0.286 -15.856  1.00  0.00     0.187 HD
ENDBRANCH  13  16
ENDBRANCH  10  13
BRANCH   8  23
HETATM   23  C8  UNL     1      20.119   5.691 -16.677  1.00  0.00     0.174 C 
BRANCH  23  24
HETATM   24  C9  UNL     1      20.144   5.760 -18.093  1.00  0.00     0.178 C 
HETATM   25  O2  UNL     1      19.594   6.747 -18.673  1.00  0.00    -0.648 OA
HETATM   26  O3  UNL     1      20.733   4.862 -18.933  1.00  0.00    -0.648 OA
ENDBRANCH  23  24
ENDBRANCH   8  23
ENDBRANCH   6   8
ENDBRANCH   1   6
BRANCH   1  27
HETATM   27  C12 UNL     1      21.821   5.803 -12.936  1.00  0.00     0.002 C 
HETATM   28  C13 UNL     1      22.674   5.717 -11.744  1.00  0.00     0.006 C 
HETATM   29  C14 UNL     1      21.962   5.431 -10.461  1.00  0.00     0.000 C 
HETATM   30  C15 UNL     1      20.979   4.297 -10.768  1.00  0.00     0.000 C 
HETATM   31  C16 UNL     1      19.873   4.933 -11.559  1.00  0.00     0.000 C 
HETATM   32  C17 UNL     1      20.336   5.776 -12.683  1.00  0.00     0.006 C 
ENDBRANCH   1  27
BRANCH   4  33
HETATM   33  N3  UNL     1      24.566   9.582 -13.995  1.00  0.00     0.095 N 
HETATM   34  C21 UNL     1      25.607   9.079 -14.832  1.00  0.00     0.275 C 
HETATM   35  C22 UNL     1      25.931  10.289 -15.740  1.00  0.00     0.068 C 
HETATM   36  C23 UNL     1      24.651  11.027 -15.747  1.00  0.00     0.253 C 
HETATM   37  C28 UNL     1      23.686  10.369 -14.793  1.00  0.00     0.308 C 
BRANCH  36  38
HETATM   38  N4  UNL     1      24.061  11.388 -16.983  1.00  0.00     0.099 N 
HETATM   39  C24 UNL     1      23.253  10.315 -17.533  1.00  0.00     0.299 C 
HETATM   40  C25 UNL     1      21.985  10.832 -18.102  1.00  0.00     0.198 C 
HETATM   41  O5  UNL     1      22.256  11.904 -18.932  1.00  0.00    -0.388 OA
HETATM   42  C26 UNL     1      22.825  12.976 -18.272  1.00  0.00     0.198 C 
HETATM   43  C27 UNL     1      23.257  12.607 -16.871  1.00  0.00     0.299 C 
ENDBRANCH  36  38
ENDBRANCH   4  33
TORSDOF 9
ENDMDL
MODEL 2
REMARK VINA RESULT: -8.299435430      1.173      1.332
REMARK  9 active torsions:
REMARK  status: ('A' for Active; 'I' for Inactive)
REMARK    1  A    between atoms: C4_5  and  C5_6 
REMARK    2  A    between atoms: C5_6  and  C6_9 
REMARK       I    between atoms: C6_9  and  N2_11 
REMARK    3  A    between atoms: C7_13  and  C8_14 
REMARK    4  A    between atoms: C7_13  and  C10_18 
REMARK    5  A    between atoms: C8_14  and  C9_15 
REMARK    6  A    between atoms: C10_18  and  C11_20 
REMARK    7  A    between atoms: C11_20  and  C12_21 
REMARK    8  A    between atoms: C20_29  and  N3_30 
REMARK    9  A    between atoms: C23_33  and  N4_34 
ROOT
HETATM    1  C11 UNL     1      22.226   6.913 -13.707  1.00  0.00     0.032 C 
HETATM    2  C18 UNL     1      21.424   8.049 -13.190  1.00  0.00     0.020 C 
HETATM    3  C19 UNL     1      22.367   9.149 -12.799  1.00  0.00     0.037 C 
HETATM    4  C20 UNL     1      23.757   8.690 -13.156  1.00  0.00     0.224 C 
HETATM    5  C29 UNL     1      23.670   7.346 -13.798  1.00  0.00     0.053 C 
ENDROOT
BRANCH   1   6
HETATM    6  C10 UNL     1      21.809   6.446 -15.070  1.00  0.00     0.181 C 
HETATM    7  O4  UNL     1      20.894   7.175 -15.539  1.00  0.00    -0.290 OA
BRANCH   6   8
HETATM    8  C7  UNL     1      22.269   5.387 -15.840  1.00  0.00     0.069 C 
HETATM    9  N2  UNL     1      23.261   4.458 -15.884  1.00  0.00    -0.323 N 
HETATM   10  C6  UNL     1      23.606   3.233 -15.286  1.00  0.00     0.284 C 
ATOM     11  H2  UNL     1      23.974   4.735 -16.558  1.00  0.00     0.169 HD
HETATM   12  O1  UNL     1      22.947   2.729 -14.376  1.00  0.00    -0.268 OA
BRANCH  10  13
HETATM   13  C5  UNL     1      24.790   2.444 -15.760  1.00  0.00     0.302 C 
HETATM   14  F1  UNL     1      25.860   3.345 -15.652  1.00  0.00    -0.207 F 
HETATM   15 CL1  UNL     1      24.582   1.850 -17.378  1.00  0.00    -0.066 Cl
BRANCH  13  16
HETATM   16  C4  UNL     1      25.008   1.323 -14.804  1.00  0.00     0.091 A 
HETATM   17  C3  UNL     1      24.623  -0.001 -14.870  1.00  0.00     0.050 A 
HETATM   18  C2  UNL     1      25.099  -0.655 -13.780  1.00  0.00     0.112 A 
HETATM   19  N1  UNL     1      25.776   0.277 -13.054  1.00  0.00    -0.307 N 
HETATM   20  C1  UNL     1      26.512  -0.025 -11.861  1.00  0.00     0.177 C 
HETATM   21  N5  UNL     1      25.725   1.450 -13.645  1.00  0.00    -0.298 N 
ATOM     22  H5  UNL     1      26.149   2.311 -13.298  1.00  0.00     0.187 HD
ENDBRANCH  13  16
ENDBRANCH  10  13
BRANCH   8  23
HETATM   23  C8  UNL     1      20.891   4.463 -15.994  1.00  0.00     0.174 C 
BRANCH  23  24
HETATM   24  C9  UNL     1      20.642   4.113 -17.345  1.00  0.00     0.178 C 
HETATM   25  O2  UNL     1      19.622   4.592 -17.931  1.00  0.00    -0.648 OA
HETATM   26  O3  UNL     1      21.417   3.305 -18.123  1.00  0.00    -0.648 OA
ENDBRANCH  23  24
ENDBRANCH   8  23
ENDBRANCH   6   8
ENDBRANCH   1   6
BRANCH   1  27
HETATM   27  C12 UNL     1      22.025   5.690 -12.810  1.00  0.00     0.002 C 
HETATM   28  C13 UNL     1      22.789   5.782 -11.560  1.00  0.00     0.006 C 
HETATM   29  C14 UNL     1      22.000   5.589 -10.305  1.00  0.00     0.000 C 
HETATM   30  C15 UNL     1      21.105   4.370 -10.555  1.00  0.00     0.000 C 
HETATM   31  C16 UNL     1      20.029   4.850 -11.484  1.00  0.00     0.000 C 
HETATM   32  C17 UNL     1      20.529   5.598 -12.659  1.00  0.00     0.006 C 
ENDBRANCH   1  27
BRANCH   4  33
HETATM   33  N3  UNL     1      24.497   9.637 -13.926  1.00  0.00     0.095 N 
HETATM   34  C21 UNL     1      25.553   9.125 -14.737  1.00  0.00     0.275 C 
HETATM   35  C22 UNL     1      25.892  10.323 -15.656  1.00  0.00     0.068 C 
HETATM   36  C23 UNL     1      24.611  11.059 -15.695  1.00  0.00     0.253 C 
HETATM   37  C28 UNL     1      23.630  10.412 -14.750  1.00  0.00     0.308 C 
BRANCH  36  38
HETATM   38  N4  UNL     1      24.042  11.402 -16.947  1.00  0.00     0.099 N 
HETATM   39  C24 UNL     1      23.192  10.346 -17.465  1.00  0.00     0.299 C 
HETATM   40  C25 UNL     1      21.950  10.897 -18.058  1.00  0.00     0.198 C 
HETATM   41  O5  UNL     1      22.270  11.928 -18.922  1.00  0.00    -0.388 OA
HETATM   42  C26 UNL     1      22.880  12.996 -18.295  1.00  0.00     0.198 C 
HETATM   43  C27 UNL     1      23.290  12.658 -16.881  1.00  0.00     0.299 C 
ENDBRANCH  36  38
ENDBRANCH   4  33
TORSDOF 9
ENDMDL
MODEL 3
REMARK VINA RESULT: -8.290527606      1.602      2.001
REMARK  9 active torsions:
REMARK  status: ('A' for Active; 'I' for Inactive)
REMARK    1  A    between atoms: C4_5  and  C5_6 
REMARK    2  A    between atoms: C5_6  and  C6_9 
REMARK       I    between atoms: C6_9  and  N2_11 
REMARK    3  A    between atoms: C7_13  and  C8_14 
REMARK    4  A    between atoms: C7_13  and  C10_18 
REMARK    5  A    between atoms: C8_14  and  C9_15 
REMARK    6  A    between atoms: C10_18  and  C11_20 
REMARK    7  A    between atoms: C11_20  and  C12_21 
REMARK    8  A    between atoms: C20_29  and  N3_30 
REMARK    9  A    between atoms: C23_33  and  N4_34 
ROOT
HETATM    1  C11 UNL     1      22.394   6.755 -13.736  1.00  0.00     0.032 C 
HETATM    2  C18 UNL     1      21.415   7.834 -13.456  1.00  0.00     0.020 C 
HETATM    3  C19 UNL     1      22.173   9.058 -13.032  1.00  0.00     0.037 C 
HETATM    4  C20 UNL     1      23.639   8.727 -13.130  1.00  0.00     0.224 C 
HETATM    5  C29 UNL     1      23.786   7.336 -13.649  1.00  0.00     0.053 C 
ENDROOT
BRANCH   1   6
HETATM    6  C10 UNL     1      22.247   6.141 -15.097  1.00  0.00     0.181 C 
HETATM    7  O4  UNL     1      21.449   6.806 -15.811  1.00  0.00    -0.290 OA
BRANCH   6   8
HETATM    8  C7  UNL     1      22.838   5.011 -15.644  1.00  0.00     0.069 C 
HETATM    9  N2  UNL     1      23.721   4.022 -15.342  1.00  0.00    -0.323 N 
HETATM   10  C6  UNL     1      23.771   2.817 -14.619  1.00  0.00     0.284 C 
ATOM     11  H2  UNL     1      24.626   4.213 -15.772  1.00  0.00     0.169 HD
HETATM   12  O1  UNL     1      22.828   2.411 -13.939  1.00  0.00    -0.268 OA
BRANCH  10  13
HETATM   13  C5  UNL     1      24.979   1.930 -14.671  1.00  0.00     0.302 C 
HETATM   14  F1  UNL     1      25.293   1.709 -13.323  1.00  0.00    -0.207 F 
HETATM   15 CL1  UNL     1      26.290   2.653 -15.551  1.00  0.00    -0.066 Cl
BRANCH  13  16
HETATM   16  C4  UNL     1      24.573   0.636 -15.288  1.00  0.00     0.091 A 
HETATM   17  C3  UNL     1      24.957  -0.658 -14.996  1.00  0.00     0.050 A 
HETATM   18  C2  UNL     1      24.275  -1.513 -15.798  1.00  0.00     0.112 A 
HETATM   19  N1  UNL     1      23.473  -0.734 -16.576  1.00  0.00    -0.307 N 
HETATM   20  C1  UNL     1      22.517  -1.258 -17.506  1.00  0.00     0.177 C 
HETATM   21  N5  UNL     1      23.644   0.537 -16.288  1.00  0.00    -0.298 N 
ATOM     22  H5  UNL     1      23.165   1.319 -16.735  1.00  0.00     0.187 HD
ENDBRANCH  13  16
ENDBRANCH  10  13
BRANCH   8  23
HETATM   23  C8  UNL     1      21.506   4.166 -16.182  1.00  0.00     0.174 C 
BRANCH  23  24
HETATM   24  C9  UNL     1      21.676   3.709 -17.513  1.00  0.00     0.178 C 
HETATM   25  O2  UNL     1      21.078   4.314 -18.456  1.00  0.00    -0.648 OA
HETATM   26  O3  UNL     1      22.458   2.666 -17.913  1.00  0.00    -0.648 OA
ENDBRANCH  23  24
ENDBRANCH   8  23
ENDBRANCH   6   8
ENDBRANCH   1   6
BRANCH   1  27
HETATM   27  C12 UNL     1      22.170   5.592 -12.769  1.00  0.00     0.002 C 
HETATM   28  C13 UNL     1      22.832   5.805 -11.476  1.00  0.00     0.006 C 
HETATM   29  C14 UNL     1      21.956   5.667 -10.273  1.00  0.00     0.000 C 
HETATM   30  C15 UNL     1      21.130   4.396 -10.497  1.00  0.00     0.000 C 
HETATM   31  C16 UNL     1      20.111   4.763 -11.537  1.00  0.00     0.000 C 
HETATM   32  C17 UNL     1      20.671   5.447 -12.723  1.00  0.00     0.006 C 
ENDBRANCH   1  27
BRANCH   4  33
HETATM   33  N3  UNL     1      24.398   9.687 -13.866  1.00  0.00     0.095 N 
HETATM   34  C21 UNL     1      25.511   9.195 -14.612  1.00  0.00     0.275 C 
HETATM   35  C22 UNL     1      25.872  10.394 -15.520  1.00  0.00     0.068 C 
HETATM   36  C23 UNL     1      24.578  11.098 -15.638  1.00  0.00     0.253 C 
HETATM   37  C28 UNL     1      23.561  10.434 -14.744  1.00  0.00     0.308 C 
BRANCH  36  38
HETATM   38  N4  UNL     1      24.073  11.418 -16.922  1.00  0.00     0.099 N 
HETATM   39  C24 UNL     1      23.277  10.339 -17.477  1.00  0.00     0.299 C 
HETATM   40  C25 UNL     1      22.058  10.857 -18.144  1.00  0.00     0.198 C 
HETATM   41  O5  UNL     1      22.403  11.887 -18.999  1.00  0.00    -0.388 OA
HETATM   42  C26 UNL     1      22.953  12.974 -18.348  1.00  0.00     0.198 C 
HETATM   43  C27 UNL     1      23.291  12.656 -16.910  1.00  0.00     0.299 C 
ENDBRANCH  36  38
ENDBRANCH   4  33
TORSDOF 9
ENDMDL
MODEL 4
REMARK VINA RESULT: -8.268921679      3.806      6.365
REMARK  9 active torsions:
REMARK  status: ('A' for Active; 'I' for Inactive)
REMARK    1  A    between atoms: C4_5  and  C5_6 
REMARK    2  A    between atoms: C5_6  and  C6_9 
REMARK       I    between atoms: C6_9  and  N2_11 
REMARK    3  A    between atoms: C7_13  and  C8_14 
REMARK    4  A    between atoms: C7_13  and  C10_18 
REMARK    5  A    between atoms: C8_14  and  C9_15 
REMARK    6  A    between atoms: C10_18  and  C11_20 
REMARK    7  A    between atoms: C11_20  and  C12_21 
REMARK    8  A    between atoms: C20_29  and  N3_30 
REMARK    9  A    between atoms: C23_33  and  N4_34 
ROOT
HETATM    1  C11 UNL     1      22.015   7.223 -14.273  1.00  0.00     0.032 C 
HETATM    2  C18 UNL     1      21.793   8.457 -13.480  1.00  0.00     0.020 C 
HETATM    3  C19 UNL     1      23.131   8.994 -13.062  1.00  0.00     0.037 C 
HETATM    4  C20 UNL     1      24.178   8.103 -13.679  1.00  0.00     0.224 C 
HETATM    5  C29 UNL     1      23.500   7.059 -14.501  1.00  0.00     0.053 C 
ENDROOT
BRANCH   1   6
HETATM    6  C10 UNL     1      21.353   7.239 -15.619  1.00  0.00     0.181 C 
HETATM    7  O4  UNL     1      21.136   6.068 -16.032  1.00  0.00    -0.290 OA
BRANCH   6   8
HETATM    8  C7  UNL     1      20.967   8.304 -16.421  1.00  0.00     0.069 C 
HETATM    9  N2  UNL     1      21.478   9.378 -17.080  1.00  0.00    -0.323 N 
HETATM   10  C6  UNL     1      22.175   9.674 -18.264  1.00  0.00     0.284 C 
ATOM     11  H2  UNL     1      21.301  10.232 -16.552  1.00  0.00     0.169 HD
HETATM   12  O1  UNL     1      22.581   8.800 -19.032  1.00  0.00    -0.268 OA
BRANCH  10  13
HETATM   13  C5  UNL     1      22.431  11.091 -18.682  1.00  0.00     0.302 C 
HETATM   14  F1  UNL     1      23.422  10.978 -19.667  1.00  0.00    -0.207 F 
HETATM   15 CL1  UNL     1      22.926  12.091 -17.351  1.00  0.00    -0.066 Cl
BRANCH  13  16
HETATM   16  C4  UNL     1      21.187  11.617 -19.310  1.00  0.00     0.091 A 
HETATM   17  C3  UNL     1      20.618  12.873 -19.260  1.00  0.00     0.050 A 
HETATM   18  C2  UNL     1      19.507  12.887 -20.038  1.00  0.00     0.112 A 
HETATM   19  N1  UNL     1      19.405  11.634 -20.563  1.00  0.00    -0.307 N 
HETATM   20  C1  UNL     1      18.408  11.250 -21.518  1.00  0.00     0.177 C 
HETATM   21  N5  UNL     1      20.388  10.873 -20.136  1.00  0.00    -0.298 N 
ATOM     22  H5  UNL     1      20.532   9.893 -20.379  1.00  0.00     0.187 HD
ENDBRANCH  13  16
ENDBRANCH  10  13
BRANCH   8  23
HETATM   23  C8  UNL     1      20.091   7.526 -17.607  1.00  0.00     0.174 C 
BRANCH  23  24
HETATM   24  C9  UNL     1      18.816   8.119 -17.792  1.00  0.00     0.178 C 
HETATM   25  O2  UNL     1      18.700   9.100 -18.592  1.00  0.00    -0.648 OA
HETATM   26  O3  UNL     1      17.652   7.726 -17.202  1.00  0.00    -0.648 OA
ENDBRANCH  23  24
ENDBRANCH   8  23
ENDBRANCH   6   8
ENDBRANCH   1   6
BRANCH   1  27
HETATM   27  C12 UNL     1      21.386   6.028 -13.556  1.00  0.00     0.002 C 
HETATM   28  C13 UNL     1      22.279   5.450 -12.544  1.00  0.00     0.006 C 
HETATM   29  C14 UNL     1      21.696   5.307 -11.175  1.00  0.00     0.000 C 
HETATM   30  C15 UNL     1      20.297   4.715 -11.374  1.00  0.00     0.000 C 
HETATM   31  C16 UNL     1      19.461   5.839 -11.911  1.00  0.00     0.000 C 
HETATM   32  C17 UNL     1      20.075   6.567 -13.044  1.00  0.00     0.006 C 
ENDBRANCH   1  27
BRANCH   4  33
HETATM   33  N3  UNL     1      25.191   8.814 -14.391  1.00  0.00     0.095 N 
HETATM   34  C21 UNL     1      26.395   8.104 -14.681  1.00  0.00     0.275 C 
HETATM   35  C22 UNL     1      27.091   9.018 -15.717  1.00  0.00     0.068 C 
HETATM   36  C23 UNL     1      25.947   9.723 -16.332  1.00  0.00     0.253 C 
HETATM   37  C28 UNL     1      24.678   9.349 -15.608  1.00  0.00     0.308 C 
BRANCH  36  38
HETATM   38  N4  UNL     1      25.809   9.728 -17.742  1.00  0.00     0.099 N 
HETATM   39  C24 UNL     1      26.491  10.857 -18.350  1.00  0.00     0.299 C 
HETATM   40  C25 UNL     1      27.208  10.452 -19.584  1.00  0.00     0.198 C 
HETATM   41  O5  UNL     1      26.357   9.722 -20.392  1.00  0.00    -0.388 OA
HETATM   42  C26 UNL     1      25.933   8.542 -19.813  1.00  0.00     0.198 C 
HETATM   43  C27 UNL     1      26.283   8.480 -18.344  1.00  0.00     0.299 C 
ENDBRANCH  36  38
ENDBRANCH   4  33
TORSDOF 9
ENDMDL
MODEL 5
REMARK VINA RESULT: -8.214790645      3.853      7.320
REMARK  9 active torsions:
REMARK  status: ('A' for Active; 'I' for Inactive)
REMARK    1  A    between atoms: C4_5  and  C5_6 
REMARK    2  A    between atoms: C5_6  and  C6_9 
REMARK       I    between atoms: C6_9  and  N2_11 
REMARK    3  A    between atoms: C7_13  and  C8_14 
REMARK    4  A    between atoms: C7_13  and  C10_18 
REMARK    5  A    between atoms: C8_14  and  C9_15 
REMARK    6  A    between atoms: C10_18  and  C11_20 
REMARK    7  A    between atoms: C11_20  and  C12_21 
REMARK    8  A    between atoms: C20_29  and  N3_30 
REMARK    9  A    between atoms: C23_33  and  N4_34 
ROOT
HETATM    1  C11 UNL     1      21.990   6.472 -14.158  1.00  0.00     0.032 C 
HETATM    2  C18 UNL     1      22.583   5.313 -14.870  1.00  0.00     0.020 C 
HETATM    3  C19 UNL     1      21.613   4.863 -15.923  1.00  0.00     0.037 C 
HETATM    4  C20 UNL     1      20.447   5.816 -15.889  1.00  0.00     0.224 C 
HETATM    5  C29 UNL     1      20.712   6.865 -14.862  1.00  0.00     0.053 C 
ENDROOT
BRANCH   1   6
HETATM    6  C10 UNL     1      22.876   7.682 -14.125  1.00  0.00     0.181 C 
HETATM    7  O4  UNL     1      22.980   8.136 -12.954  1.00  0.00    -0.290 OA
BRANCH   6   8
HETATM    8  C7  UNL     1      23.558   8.329 -15.146  1.00  0.00     0.069 C 
HETATM    9  N2  UNL     1      23.468   9.411 -15.965  1.00  0.00    -0.323 N 
HETATM   10  C6  UNL     1      23.669  10.802 -15.925  1.00  0.00     0.284 C 
ATOM     11  H2  UNL     1      23.160   9.125 -16.894  1.00  0.00     0.169 HD
HETATM   12  O1  UNL     1      23.960  11.401 -14.889  1.00  0.00    -0.268 OA
BRANCH  10  13
HETATM   13  C5  UNL     1      23.576  11.636 -17.168  1.00  0.00     0.302 C 
HETATM   14  F1  UNL     1      23.579  12.954 -16.689  1.00  0.00    -0.207 F 
HETATM   15 CL1  UNL     1      22.159  11.270 -18.103  1.00  0.00    -0.066 Cl
BRANCH  13  16
HETATM   16  C4  UNL     1      24.814  11.412 -17.966  1.00  0.00     0.091 A 
HETATM   17  C3  UNL     1      25.139  11.803 -19.248  1.00  0.00     0.050 A 
HETATM   18  C2  UNL     1      26.407  11.409 -19.524  1.00  0.00     0.112 A 
HETATM   19  N1  UNL     1      26.852  10.778 -18.402  1.00  0.00    -0.307 N 
HETATM   20  C1  UNL     1      28.188  10.284 -18.244  1.00  0.00     0.177 C 
HETATM   21  N5  UNL     1      25.918  10.768 -17.476  1.00  0.00    -0.298 N 
ATOM     22  H5  UNL     1      26.002  10.351 -16.549  1.00  0.00     0.187 HD
ENDBRANCH  13  16
ENDBRANCH  10  13
BRANCH   8  23
HETATM   23  C8  UNL     1      25.076   8.496 -14.479  1.00  0.00     0.174 C 
BRANCH  23  24
HETATM   24  C9  UNL     1      26.056   7.785 -15.217  1.00  0.00     0.178 C 
HETATM   25  O2  UNL     1      27.099   8.395 -15.609  1.00  0.00    -0.648 OA
HETATM   26  O3  UNL     1      26.012   6.463 -15.547  1.00  0.00    -0.648 OA
ENDBRANCH  23  24
ENDBRANCH   8  23
ENDBRANCH   6   8
ENDBRANCH   1   6
BRANCH   1  27
HETATM   27  C12 UNL     1      21.777   6.119 -12.686  1.00  0.00     0.002 C 
HETATM   28  C13 UNL     1      20.355   6.065 -12.325  1.00  0.00     0.006 C 
HETATM   29  C14 UNL     1      19.906   4.803 -11.660  1.00  0.00     0.000 C 
HETATM   30  C15 UNL     1      20.966   4.485 -10.601  1.00  0.00     0.000 C 
HETATM   31  C16 UNL     1      22.155   3.983 -11.366  1.00  0.00     0.000 C 
HETATM   32  C17 UNL     1      22.548   4.837 -12.509  1.00  0.00     0.006 C 
ENDBRANCH   1  27
BRANCH   4  33
HETATM   33  N3  UNL     1      20.103   6.350 -17.167  1.00  0.00     0.095 N 
HETATM   34  C21 UNL     1      19.649   5.423 -18.153  1.00  0.00     0.275 C 
HETATM   35  C22 UNL     1      19.059   6.346 -19.246  1.00  0.00     0.068 C 
HETATM   36  C23 UNL     1      18.671   7.542 -18.469  1.00  0.00     0.253 C 
HETATM   37  C28 UNL     1      19.133   7.386 -17.042  1.00  0.00     0.308 C 
BRANCH  36  38
HETATM   38  N4  UNL     1      17.353   8.049 -18.582  1.00  0.00     0.099 N 
HETATM   39  C24 UNL     1      17.091   8.590 -19.903  1.00  0.00     0.299 C 
HETATM   40  C25 UNL     1      15.742   8.207 -20.384  1.00  0.00     0.198 C 
HETATM   41  O5  UNL     1      14.809   8.472 -19.399  1.00  0.00    -0.388 OA
HETATM   42  C26 UNL     1      15.008   7.737 -18.247  1.00  0.00     0.198 C 
HETATM   43  C27 UNL     1      16.347   7.037 -18.252  1.00  0.00     0.299 C 
ENDBRANCH  36  38
ENDBRANCH   4  33
TORSDOF 9
ENDMDL
