MODEL 1
REMARK VINA RESULT: -8.767174903      0.000      0.000
REMARK  13 active torsions:
REMARK  status: ('A' for Active; 'I' for Inactive)
REMARK       I    between atoms: N1_2  and  C3_4 
REMARK    1  A    between atoms: C3_4  and  C4_6 
REMARK    2  A    between atoms: C4_6  and  O2_7 
REMARK    3  A    between atoms: O2_7  and  C5_8 
REMARK    4  A    between atoms: C8_11  and  C9_12 
REMARK    5  A    between atoms: C9_12  and  C10_13 
REMARK    6  A    between atoms: C11_14  and  C12_15 
REMARK    7  A    between atoms: C15_20  and  N3_21 
REMARK    8  A    between atoms: N3_21  and  C16_23 
REMARK    9  A    between atoms: C22_35  and  N6_36 
REMARK   10  A    between atoms: N6_36  and  C23_38 
REMARK   11  A    between atoms: C23_38  and  C24_39 
REMARK   12  A    between atoms: C24_39  and  C25_40 
REMARK   13  A    between atoms: N9_49  and  O3_50 
ROOT
HETATM    1  C10 UNL     1      25.765   8.635 -16.333  1.00  0.00     0.093 A 
HETATM    2  C11 UNL     1      24.830   7.641 -16.323  1.00  0.00     0.103 A 
HETATM    3  N5  UNL     1      25.224   6.389 -16.667  1.00  0.00    -0.186 N 
ATOM      4  H5  UNL     1      24.532   5.639 -16.657  1.00  0.00     0.184 HD
HETATM    5  C22 UNL     1      26.479   6.100 -17.017  1.00  0.00     0.695 A 
HETATM    6  N8  UNL     1      27.387   7.083 -17.027  1.00  0.00    -0.106 N 
ATOM      7  H8  UNL     1      28.350   6.873 -17.293  1.00  0.00     0.208 HD
HETATM    8  N9  UNL     1      27.063   8.310 -16.702  1.00  0.00    -0.151 N 
ENDROOT
BRANCH   2   9
HETATM    9  C12 UNL     1      23.394   7.868 -16.040  1.00  0.00     0.080 A 
HETATM   10  C13 UNL     1      22.478   8.072 -17.050  1.00  0.00     0.050 A 
HETATM   11  C14 UNL     1      21.116   8.289 -16.784  1.00  0.00     0.108 A 
HETATM   12  N2  UNL     1      20.670   8.304 -15.529  1.00  0.00    -0.202 N 
HETATM   13  C15 UNL     1      21.567   8.106 -14.549  1.00  0.00     0.683 A 
ATOM     14  H2  UNL     1      19.684   8.461 -15.320  1.00  0.00     0.183 HD
HETATM   15  N4  UNL     1      22.861   7.900 -14.813  1.00  0.00    -0.189 N 
ATOM     16  H4  UNL     1      23.488   7.755 -14.022  1.00  0.00     0.184 HD
BRANCH  13  17
HETATM   17  N3  UNL     1      21.109   8.123 -13.320  1.00  0.00    -0.189 N 
ATOM     18  H3  UNL     1      20.687   8.980 -12.964  1.00  0.00     0.184 HD
BRANCH  17  19
HETATM   19  C16 UNL     1      21.180   7.001 -12.481  1.00  0.00     0.087 A 
HETATM   20  C17 UNL     1      22.287   6.668 -11.704  1.00  0.00     0.036 A 
HETATM   21  C18 UNL     1      22.335   5.564 -10.892  1.00  0.00     0.044 A 
HETATM   22  C19 UNL     1      21.238   4.731 -10.829  1.00  0.00     0.119 A 
HETATM   23  F1  UNL     1      21.303   3.639 -10.018  1.00  0.00    -0.206 F 
HETATM   24  C20 UNL     1      20.132   5.028 -11.579  1.00  0.00     0.086 A 
HETATM   25  C21 UNL     1      20.102   6.147 -12.394  1.00  0.00     0.146 A 
HETATM   26  F2  UNL     1      18.996   6.432 -13.135  1.00  0.00    -0.204 F 
ENDBRANCH  17  19
ENDBRANCH  13  17
ENDBRANCH   2   9
BRANCH   1  27
HETATM   27  C9  UNL     1      25.568  10.008 -15.854  1.00  0.00     0.102 C 
BRANCH  27  28
HETATM   28  C8  UNL     1      24.859  10.903 -16.808  1.00  0.00    -0.052 A 
HETATM   29  C7  UNL     1      25.112  11.058 -18.136  1.00  0.00     0.010 A 
HETATM   30  C6  UNL     1      24.397  11.950 -18.921  1.00  0.00     0.037 A 
HETATM   31  C5  UNL     1      23.400  12.710 -18.369  1.00  0.00     0.069 A 
HETATM   32  C31 UNL     1      23.115  12.585 -17.046  1.00  0.00     0.037 A 
HETATM   33  C30 UNL     1      23.827  11.695 -16.259  1.00  0.00     0.010 A 
BRANCH  31  34
HETATM   34  O2  UNL     1      22.698  13.595 -19.163  1.00  0.00    -0.342 OA
BRANCH  34  35
HETATM   35  C4  UNL     1      21.791  14.528 -18.612  1.00  0.00     0.278 C 
BRANCH  35  36
HETATM   36  C3  UNL     1      20.409  14.187 -19.026  1.00  0.00     0.243 C 
HETATM   37  N1  UNL     1      19.531  15.208 -19.441  1.00  0.00    -0.359 N 
HETATM   38  C1  UNL     1      19.961  16.592 -19.467  1.00  0.00     0.152 C 
HETATM   39  C2  UNL     1      18.187  14.863 -19.845  1.00  0.00     0.152 C 
HETATM   40  O1  UNL     1      20.031  12.982 -19.003  1.00  0.00    -0.271 OA
ENDBRANCH  35  36
ENDBRANCH  34  35
ENDBRANCH  31  34
ENDBRANCH  27  28
ENDBRANCH   1  27
BRANCH   8  41
HETATM   41  O3  UNL     1      28.029   9.290 -16.726  1.00  0.00    -0.267 OA
ATOM     42  H3  UNL     1      28.194   9.807 -15.946  1.00  0.00     0.247 HD
ENDBRANCH   8  41
BRANCH   5  43
HETATM   43  N6  UNL     1      26.810   4.878 -17.350  1.00  0.00    -0.224 N 
ATOM     44  H6  UNL     1      27.783   4.649 -17.556  1.00  0.00     0.177 HD
BRANCH  43  45
HETATM   45  C23 UNL     1      25.802   3.867 -17.422  1.00  0.00     0.144 C 
BRANCH  45  46
HETATM   46  C24 UNL     1      25.592   3.085 -16.180  1.00  0.00     0.077 C 
BRANCH  46  47
HETATM   47  C25 UNL     1      24.247   3.177 -15.582  1.00  0.00     0.010 A 
HETATM   48  C26 UNL     1      23.106   3.594 -16.209  1.00  0.00     0.025 A 
HETATM   49  C27 UNL     1      21.909   3.639 -15.513  1.00  0.00     0.003 A 
HETATM   50  C28 UNL     1      21.888   3.260 -14.192  1.00  0.00     0.017 A 
HETATM   51  C29 UNL     1      23.038   2.841 -13.564  1.00  0.00     0.088 A 
HETATM   52  N7  UNL     1      24.178   2.809 -14.266  1.00  0.00    -0.369 N 
ATOM     53  H7  UNL     1      25.031   2.498 -13.801  1.00  0.00     0.165 HD
ENDBRANCH  46  47
ENDBRANCH  45  46
ENDBRANCH  43  45
ENDBRANCH   5  43
TORSDOF 13
ENDMDL
MODEL 2
REMARK VINA RESULT: -8.742354495      4.378      9.814
REMARK  13 active torsions:
REMARK  status: ('A' for Active; 'I' for Inactive)
REMARK       I    between atoms: N1_2  and  C3_4 
REMARK    1  A    between atoms: C3_4  and  C4_6 
REMARK    2  A    between atoms: C4_6  and  O2_7 
REMARK    3  A    between atoms: O2_7  and  C5_8 
REMARK    4  A    between atoms: C8_11  and  C9_12 
REMARK    5  A    between atoms: C9_12  and  C10_13 
REMARK    6  A    between atoms: C11_14  and  C12_15 
REMARK    7  A    between atoms: C15_20  and  N3_21 
REMARK    8  A    between atoms: N3_21  and  C16_23 
REMARK    9  A    between atoms: C22_35  and  N6_36 
REMARK   10  A    between atoms: N6_36  and  C23_38 
REMARK   11  A    between atoms: C23_38  and  C24_39 
REMARK   12  A    between atoms: C24_39  and  C25_40 
REMARK   13  A    between atoms: N9_49  and  O3_50 
ROOT
HETATM    1  C10 UNL     1      26.510   4.061 -16.317  1.00  0.00     0.093 A 
HETATM    2  C11 UNL     1      25.284   4.660 -16.311  1.00  0.00     0.103 A 
HETATM    3  N5  UNL     1      25.229   6.008 -16.453  1.00  0.00    -0.186 N 
ATOM      4  H5  UNL     1      24.316   6.463 -16.456  1.00  0.00     0.184 HD
HETATM    5  C22 UNL     1      26.322   6.762 -16.591  1.00  0.00     0.695 A 
HETATM    6  N8  UNL     1      27.520   6.165 -16.590  1.00  0.00    -0.106 N 
ATOM      7  H8  UNL     1      28.362   6.732 -16.694  1.00  0.00     0.208 HD
HETATM    8  N9  UNL     1      27.631   4.867 -16.459  1.00  0.00    -0.151 N 
ENDROOT
BRANCH   2   9
HETATM    9  C12 UNL     1      24.016   3.930 -16.076  1.00  0.00     0.080 A 
HETATM   10  C13 UNL     1      23.354   3.278 -17.093  1.00  0.00     0.050 A 
HETATM   11  C14 UNL     1      22.151   2.587 -16.873  1.00  0.00     0.108 A 
HETATM   12  N2  UNL     1      21.612   2.547 -15.656  1.00  0.00    -0.202 N 
HETATM   13  C15 UNL     1      22.261   3.185 -14.668  1.00  0.00     0.683 A 
ATOM     14  H2  UNL     1      20.739   2.050 -15.480  1.00  0.00     0.183 HD
HETATM   15  N4  UNL     1      23.406   3.839 -14.888  1.00  0.00    -0.189 N 
ATOM     16  H4  UNL     1      23.847   4.302 -14.094  1.00  0.00     0.184 HD
BRANCH  13  17
HETATM   17  N3  UNL     1      21.716   3.133 -13.477  1.00  0.00    -0.189 N 
ATOM     18  H3  UNL     1      21.661   2.234 -12.999  1.00  0.00     0.184 HD
BRANCH  17  19
HETATM   19  C16 UNL     1      21.207   4.273 -12.838  1.00  0.00     0.087 A 
HETATM   20  C17 UNL     1      20.405   5.230 -13.456  1.00  0.00     0.036 A 
HETATM   21  C18 UNL     1      19.919   6.339 -12.811  1.00  0.00     0.044 A 
HETATM   22  C19 UNL     1      20.230   6.530 -11.482  1.00  0.00     0.119 A 
HETATM   23  F1  UNL     1      19.741   7.637 -10.858  1.00  0.00    -0.206 F 
HETATM   24  C20 UNL     1      21.016   5.609 -10.842  1.00  0.00     0.086 A 
HETATM   25  C21 UNL     1      21.497   4.496 -11.509  1.00  0.00     0.146 A 
HETATM   26  F2  UNL     1      22.278   3.586 -10.863  1.00  0.00    -0.204 F 
ENDBRANCH  17  19
ENDBRANCH  13  17
ENDBRANCH   2   9
BRANCH   1  27
HETATM   27  C9  UNL     1      26.764   2.615 -16.326  1.00  0.00     0.102 C 
BRANCH  27  28
HETATM   28  C8  UNL     1      26.890   2.000 -14.978  1.00  0.00    -0.052 A 
HETATM   29  C7  UNL     1      25.888   1.731 -14.097  1.00  0.00     0.010 A 
HETATM   30  C6  UNL     1      26.135   1.178 -12.848  1.00  0.00     0.037 A 
HETATM   31  C5  UNL     1      27.417   0.882 -12.466  1.00  0.00     0.069 A 
HETATM   32  C31 UNL     1      28.446   1.134 -13.317  1.00  0.00     0.037 A 
HETATM   33  C30 UNL     1      28.204   1.686 -14.564  1.00  0.00     0.010 A 
BRANCH  31  34
HETATM   34  O2  UNL     1      27.648   0.333 -11.220  1.00  0.00    -0.342 OA
BRANCH  34  35
HETATM   35  C4  UNL     1      28.008  -1.024 -11.062  1.00  0.00     0.278 C 
BRANCH  35  36
HETATM   36  C3  UNL     1      27.275  -1.606  -9.912  1.00  0.00     0.243 C 
HETATM   37  N1  UNL     1      26.403  -2.693 -10.117  1.00  0.00    -0.359 N 
HETATM   38  C1  UNL     1      26.210  -3.253 -11.440  1.00  0.00     0.152 C 
HETATM   39  C2  UNL     1      25.696  -3.254  -8.986  1.00  0.00     0.152 C 
HETATM   40  O1  UNL     1      27.441  -1.119  -8.758  1.00  0.00    -0.271 OA
ENDBRANCH  35  36
ENDBRANCH  34  35
ENDBRANCH  31  34
ENDBRANCH  27  28
ENDBRANCH   1  27
BRANCH   8  41
HETATM   41  O3  UNL     1      28.884   4.295 -16.464  1.00  0.00    -0.267 OA
ATOM     42  H3  UNL     1      29.494   4.495 -15.764  1.00  0.00     0.247 HD
ENDBRANCH   8  41
BRANCH   5  43
HETATM   43  N6  UNL     1      26.221   8.061 -16.715  1.00  0.00    -0.224 N 
ATOM     44  H6  UNL     1      26.058   8.476 -17.633  1.00  0.00     0.177 HD
BRANCH  43  45
HETATM   45  C23 UNL     1      26.340   8.893 -15.559  1.00  0.00     0.144 C 
BRANCH  45  46
HETATM   46  C24 UNL     1      25.132   9.681 -15.213  1.00  0.00     0.077 C 
BRANCH  46  47
HETATM   47  C25 UNL     1      24.405   9.246 -14.006  1.00  0.00     0.010 A 
HETATM   48  C26 UNL     1      24.912   8.506 -12.975  1.00  0.00     0.025 A 
HETATM   49  C27 UNL     1      24.101   8.160 -11.905  1.00  0.00     0.003 A 
HETATM   50  C28 UNL     1      22.790   8.570 -11.898  1.00  0.00     0.017 A 
HETATM   51  C29 UNL     1      22.282   9.315 -12.938  1.00  0.00     0.088 A 
HETATM   52  N7  UNL     1      23.093   9.632 -13.956  1.00  0.00    -0.369 N 
ATOM     53  H7  UNL     1      22.717  10.184 -14.727  1.00  0.00     0.165 HD
ENDBRANCH  46  47
ENDBRANCH  45  46
ENDBRANCH  43  45
ENDBRANCH   5  43
TORSDOF 13
ENDMDL
MODEL 3
REMARK VINA RESULT: -8.636595009      4.682      9.923
REMARK  13 active torsions:
REMARK  status: ('A' for Active; 'I' for Inactive)
REMARK       I    between atoms: N1_2  and  C3_4 
REMARK    1  A    between atoms: C3_4  and  C4_6 
REMARK    2  A    between atoms: C4_6  and  O2_7 
REMARK    3  A    between atoms: O2_7  and  C5_8 
REMARK    4  A    between atoms: C8_11  and  C9_12 
REMARK    5  A    between atoms: C9_12  and  C10_13 
REMARK    6  A    between atoms: C11_14  and  C12_15 
REMARK    7  A    between atoms: C15_20  and  N3_21 
REMARK    8  A    between atoms: N3_21  and  C16_23 
REMARK    9  A    between atoms: C22_35  and  N6_36 
REMARK   10  A    between atoms: N6_36  and  C23_38 
REMARK   11  A    between atoms: C23_38  and  C24_39 
REMARK   12  A    between atoms: C24_39  and  C25_40 
REMARK   13  A    between atoms: N9_49  and  O3_50 
ROOT
HETATM    1  C10 UNL     1      26.616   3.493 -16.255  1.00  0.00     0.093 A 
HETATM    2  C11 UNL     1      25.487   4.255 -16.173  1.00  0.00     0.103 A 
HETATM    3  N5  UNL     1      25.620   5.604 -16.216  1.00  0.00    -0.186 N 
ATOM      4  H5  UNL     1      24.781   6.181 -16.160  1.00  0.00     0.184 HD
HETATM    5  C22 UNL     1      26.806   6.207 -16.329  1.00  0.00     0.695 A 
HETATM    6  N8  UNL     1      27.908   5.450 -16.405  1.00  0.00    -0.106 N 
ATOM      7  H8  UNL     1      28.819   5.900 -16.491  1.00  0.00     0.208 HD
HETATM    8  N9  UNL     1      27.837   4.142 -16.371  1.00  0.00    -0.151 N 
ENDROOT
BRANCH   2   9
HETATM    9  C12 UNL     1      24.132   3.694 -15.954  1.00  0.00     0.080 A 
HETATM   10  C13 UNL     1      23.390   3.168 -16.989  1.00  0.00     0.050 A 
HETATM   11  C14 UNL     1      22.105   2.637 -16.786  1.00  0.00     0.108 A 
HETATM   12  N2  UNL     1      21.566   2.631 -15.568  1.00  0.00    -0.202 N 
HETATM   13  C15 UNL     1      22.294   3.145 -14.564  1.00  0.00     0.683 A 
ATOM     14  H2  UNL     1      20.634   2.249 -15.404  1.00  0.00     0.183 HD
HETATM   15  N4  UNL     1      23.516   3.647 -14.768  1.00  0.00    -0.189 N 
ATOM     16  H4  UNL     1      24.015   4.022 -13.961  1.00  0.00     0.184 HD
BRANCH  13  17
HETATM   17  N3  UNL     1      21.747   3.128 -13.372  1.00  0.00    -0.189 N 
ATOM     18  H3  UNL     1      21.679   2.241 -12.873  1.00  0.00     0.184 HD
BRANCH  17  19
HETATM   19  C16 UNL     1      21.253   4.290 -12.761  1.00  0.00     0.087 A 
HETATM   20  C17 UNL     1      20.459   5.239 -13.400  1.00  0.00     0.036 A 
HETATM   21  C18 UNL     1      19.988   6.370 -12.783  1.00  0.00     0.044 A 
HETATM   22  C19 UNL     1      20.306   6.592 -11.460  1.00  0.00     0.119 A 
HETATM   23  F1  UNL     1      19.831   7.719 -10.863  1.00  0.00    -0.206 F 
HETATM   24  C20 UNL     1      21.084   5.679 -10.800  1.00  0.00     0.086 A 
HETATM   25  C21 UNL     1      21.550   4.544 -11.439  1.00  0.00     0.146 A 
HETATM   26  F2  UNL     1      22.324   3.642 -10.772  1.00  0.00    -0.204 F 
ENDBRANCH  17  19
ENDBRANCH  13  17
ENDBRANCH   2   9
BRANCH   1  27
HETATM   27  C9  UNL     1      26.662   2.031 -16.375  1.00  0.00     0.102 C 
BRANCH  27  28
HETATM   28  C8  UNL     1      26.610   1.300 -15.081  1.00  0.00    -0.052 A 
HETATM   29  C7  UNL     1      27.516   1.353 -14.067  1.00  0.00     0.010 A 
HETATM   30  C6  UNL     1      27.372   0.598 -12.911  1.00  0.00     0.037 A 
HETATM   31  C5  UNL     1      26.293  -0.233 -12.760  1.00  0.00     0.069 A 
HETATM   32  C31 UNL     1      25.364  -0.314 -13.749  1.00  0.00     0.037 A 
HETATM   33  C30 UNL     1      25.505   0.438 -14.904  1.00  0.00     0.010 A 
BRANCH  31  34
HETATM   34  O2  UNL     1      26.163  -0.979 -11.606  1.00  0.00    -0.342 OA
BRANCH  34  35
HETATM   35  C4  UNL     1      27.205  -1.812 -11.140  1.00  0.00     0.278 C 
BRANCH  35  36
HETATM   36  C3  UNL     1      27.375  -1.631  -9.678  1.00  0.00     0.243 C 
HETATM   37  N1  UNL     1      28.518  -0.972  -9.183  1.00  0.00    -0.359 N 
HETATM   38  C1  UNL     1      29.534  -0.468 -10.085  1.00  0.00     0.152 C 
HETATM   39  C2  UNL     1      28.671  -0.800  -7.756  1.00  0.00     0.152 C 
HETATM   40  O1  UNL     1      26.492  -2.071  -8.889  1.00  0.00    -0.271 OA
ENDBRANCH  35  36
ENDBRANCH  34  35
ENDBRANCH  31  34
ENDBRANCH  27  28
ENDBRANCH   1  27
BRANCH   8  41
HETATM   41  O3  UNL     1      28.995   3.404 -16.452  1.00  0.00    -0.267 OA
ATOM     42  H3  UNL     1      29.781   3.713 -16.016  1.00  0.00     0.247 HD
ENDBRANCH   8  41
BRANCH   5  43
HETATM   43  N6  UNL     1      26.887   7.513 -16.357  1.00  0.00    -0.224 N 
ATOM     44  H6  UNL     1      27.005   8.000 -17.246  1.00  0.00     0.177 HD
BRANCH  43  45
HETATM   45  C23 UNL     1      26.808   8.252 -15.136  1.00  0.00     0.144 C 
BRANCH  45  46
HETATM   46  C24 UNL     1      25.760   9.300 -15.090  1.00  0.00     0.077 C 
BRANCH  46  47
HETATM   47  C25 UNL     1      24.697   9.102 -14.088  1.00  0.00     0.010 A 
HETATM   48  C26 UNL     1      23.419   9.585 -14.153  1.00  0.00     0.025 A 
HETATM   49  C27 UNL     1      22.527   9.327 -13.125  1.00  0.00     0.003 A 
HETATM   50  C28 UNL     1      22.944   8.583 -12.047  1.00  0.00     0.017 A 
HETATM   51  C29 UNL     1      24.231   8.099 -11.985  1.00  0.00     0.088 A 
HETATM   52  N7  UNL     1      25.067   8.367 -12.996  1.00  0.00    -0.369 N 
ATOM     53  H7  UNL     1      26.021   8.008 -12.950  1.00  0.00     0.165 HD
ENDBRANCH  46  47
ENDBRANCH  45  46
ENDBRANCH  43  45
ENDBRANCH   5  43
TORSDOF 13
ENDMDL
MODEL 4
REMARK VINA RESULT: -8.520105727      1.451      2.082
REMARK  13 active torsions:
REMARK  status: ('A' for Active; 'I' for Inactive)
REMARK       I    between atoms: N1_2  and  C3_4 
REMARK    1  A    between atoms: C3_4  and  C4_6 
REMARK    2  A    between atoms: C4_6  and  O2_7 
REMARK    3  A    between atoms: O2_7  and  C5_8 
REMARK    4  A    between atoms: C8_11  and  C9_12 
REMARK    5  A    between atoms: C9_12  and  C10_13 
REMARK    6  A    between atoms: C11_14  and  C12_15 
REMARK    7  A    between atoms: C15_20  and  N3_21 
REMARK    8  A    between atoms: N3_21  and  C16_23 
REMARK    9  A    between atoms: C22_35  and  N6_36 
REMARK   10  A    between atoms: N6_36  and  C23_38 
REMARK   11  A    between atoms: C23_38  and  C24_39 
REMARK   12  A    between atoms: C24_39  and  C25_40 
REMARK   13  A    between atoms: N9_49  and  O3_50 
ROOT
HETATM    1  C10 UNL     1      25.752   8.704 -16.309  1.00  0.00     0.093 A 
HETATM    2  C11 UNL     1      24.821   7.713 -16.409  1.00  0.00     0.103 A 
HETATM    3  N5  UNL     1      25.220   6.506 -16.883  1.00  0.00    -0.186 N 
ATOM      4  H5  UNL     1      24.531   5.757 -16.957  1.00  0.00     0.184 HD
HETATM    5  C22 UNL     1      26.477   6.259 -17.257  1.00  0.00     0.695 A 
HETATM    6  N8  UNL     1      27.382   7.241 -17.159  1.00  0.00    -0.106 N 
ATOM      7  H8  UNL     1      28.346   7.063 -17.443  1.00  0.00     0.208 HD
HETATM    8  N9  UNL     1      27.052   8.425 -16.705  1.00  0.00    -0.151 N 
ENDROOT
BRANCH   2   9
HETATM    9  C12 UNL     1      23.383   7.904 -16.108  1.00  0.00     0.080 A 
HETATM   10  C13 UNL     1      22.448   8.068 -17.107  1.00  0.00     0.050 A 
HETATM   11  C14 UNL     1      21.083   8.251 -16.824  1.00  0.00     0.108 A 
HETATM   12  N2  UNL     1      20.656   8.271 -15.564  1.00  0.00    -0.202 N 
HETATM   13  C15 UNL     1      21.572   8.112 -14.594  1.00  0.00     0.683 A 
ATOM     14  H2  UNL     1      19.669   8.404 -15.342  1.00  0.00     0.183 HD
HETATM   15  N4  UNL     1      22.867   7.938 -14.874  1.00  0.00    -0.189 N 
ATOM     16  H4  UNL     1      23.509   7.822 -14.090  1.00  0.00     0.184 HD
BRANCH  13  17
HETATM   17  N3  UNL     1      21.130   8.133 -13.359  1.00  0.00    -0.189 N 
ATOM     18  H3  UNL     1      20.755   9.005 -12.985  1.00  0.00     0.184 HD
BRANCH  17  19
HETATM   19  C16 UNL     1      21.157   6.998 -12.537  1.00  0.00     0.087 A 
HETATM   20  C17 UNL     1      20.280   5.921 -12.652  1.00  0.00     0.036 A 
HETATM   21  C18 UNL     1      20.324   4.821 -11.834  1.00  0.00     0.044 A 
HETATM   22  C19 UNL     1      21.279   4.761 -10.843  1.00  0.00     0.119 A 
HETATM   23  F1  UNL     1      21.307   3.662 -10.039  1.00  0.00    -0.206 F 
HETATM   24  C20 UNL     1      22.158   5.802 -10.701  1.00  0.00     0.086 A 
HETATM   25  C21 UNL     1      22.099   6.904 -11.535  1.00  0.00     0.146 A 
HETATM   26  F2  UNL     1      22.979   7.933 -11.385  1.00  0.00    -0.204 F 
ENDBRANCH  17  19
ENDBRANCH  13  17
ENDBRANCH   2   9
BRANCH   1  27
HETATM   27  C9  UNL     1      25.549  10.018 -15.685  1.00  0.00     0.102 C 
BRANCH  27  28
HETATM   28  C8  UNL     1      24.788  10.988 -16.517  1.00  0.00    -0.052 A 
HETATM   29  C7  UNL     1      23.817  11.847 -16.102  1.00  0.00     0.010 A 
HETATM   30  C6  UNL     1      23.154  12.689 -16.983  1.00  0.00     0.037 A 
HETATM   31  C5  UNL     1      23.467  12.676 -18.316  1.00  0.00     0.069 A 
HETATM   32  C31 UNL     1      24.431  11.834 -18.772  1.00  0.00     0.037 A 
HETATM   33  C30 UNL     1      25.095  10.992 -17.896  1.00  0.00     0.010 A 
BRANCH  31  34
HETATM   34  O2  UNL     1      22.797  13.519 -19.181  1.00  0.00    -0.342 OA
BRANCH  34  35
HETATM   35  C4  UNL     1      22.072  13.023 -20.288  1.00  0.00     0.278 C 
BRANCH  35  36
HETATM   36  C3  UNL     1      20.894  12.258 -19.814  1.00  0.00     0.243 C 
HETATM   37  N1  UNL     1      20.775  10.891 -20.129  1.00  0.00    -0.359 N 
HETATM   38  C1  UNL     1      21.790  10.218 -20.915  1.00  0.00     0.152 C 
HETATM   39  C2  UNL     1      19.622  10.155 -19.658  1.00  0.00     0.152 C 
HETATM   40  O1  UNL     1      20.007  12.843 -19.129  1.00  0.00    -0.271 OA
ENDBRANCH  35  36
ENDBRANCH  34  35
ENDBRANCH  31  34
ENDBRANCH  27  28
ENDBRANCH   1  27
BRANCH   8  41
HETATM   41  O3  UNL     1      28.016   9.404 -16.621  1.00  0.00    -0.267 OA
ATOM     42  H3  UNL     1      27.835  10.201 -16.135  1.00  0.00     0.247 HD
ENDBRANCH   8  41
BRANCH   5  43
HETATM   43  N6  UNL     1      26.814   5.081 -17.718  1.00  0.00    -0.224 N 
ATOM     44  H6  UNL     1      27.729   4.941 -18.146  1.00  0.00     0.177 HD
BRANCH  43  45
HETATM   45  C23 UNL     1      25.891   3.993 -17.618  1.00  0.00     0.144 C 
BRANCH  45  46
HETATM   46  C24 UNL     1      26.163   3.025 -16.528  1.00  0.00     0.077 C 
BRANCH  46  47
HETATM   47  C25 UNL     1      25.116   2.908 -15.496  1.00  0.00     0.010 A 
HETATM   48  C26 UNL     1      25.076   1.994 -14.480  1.00  0.00     0.025 A 
HETATM   49  C27 UNL     1      24.017   1.997 -13.586  1.00  0.00     0.003 A 
HETATM   50  C28 UNL     1      23.016   2.927 -13.737  1.00  0.00     0.017 A 
HETATM   51  C29 UNL     1      23.060   3.845 -14.761  1.00  0.00     0.088 A 
HETATM   52  N7  UNL     1      24.098   3.814 -15.607  1.00  0.00    -0.369 N 
ATOM     53  H7  UNL     1      24.130   4.495 -16.366  1.00  0.00     0.165 HD
ENDBRANCH  46  47
ENDBRANCH  45  46
ENDBRANCH  43  45
ENDBRANCH   5  43
TORSDOF 13
ENDMDL
MODEL 5
REMARK VINA RESULT: -8.482146525      4.082      8.942
REMARK  13 active torsions:
REMARK  status: ('A' for Active; 'I' for Inactive)
REMARK       I    between atoms: N1_2  and  C3_4 
REMARK    1  A    between atoms: C3_4  and  C4_6 
REMARK    2  A    between atoms: C4_6  and  O2_7 
REMARK    3  A    between atoms: O2_7  and  C5_8 
REMARK    4  A    between atoms: C8_11  and  C9_12 
REMARK    5  A    between atoms: C9_12  and  C10_13 
REMARK    6  A    between atoms: C11_14  and  C12_15 
REMARK    7  A    between atoms: C15_20  and  N3_21 
REMARK    8  A    between atoms: N3_21  and  C16_23 
REMARK    9  A    between atoms: C22_35  and  N6_36 
REMARK   10  A    between atoms: N6_36  and  C23_38 
REMARK   11  A    between atoms: C23_38  and  C24_39 
REMARK   12  A    between atoms: C24_39  and  C25_40 
REMARK   13  A    between atoms: N9_49  and  O3_50 
ROOT
HETATM    1  C10 UNL     1      25.765   5.371 -16.927  1.00  0.00     0.093 A 
HETATM    2  C11 UNL     1      24.683   6.202 -16.926  1.00  0.00     0.103 A 
HETATM    3  N5  UNL     1      24.900   7.535 -16.797  1.00  0.00    -0.186 N 
ATOM      4  H5  UNL     1      24.097   8.165 -16.800  1.00  0.00     0.184 HD
HETATM    5  C22 UNL     1      26.122   8.056 -16.667  1.00  0.00     0.695 A 
HETATM    6  N8  UNL     1      27.177   7.231 -16.664  1.00  0.00    -0.106 N 
ATOM      7  H8  UNL     1      28.115   7.619 -16.565  1.00  0.00     0.208 HD
HETATM    8  N9  UNL     1      27.025   5.936 -16.788  1.00  0.00    -0.151 N 
ENDROOT
BRANCH   2   9
HETATM    9  C12 UNL     1      23.281   5.725 -16.973  1.00  0.00     0.080 A 
HETATM   10  C13 UNL     1      22.766   5.097 -18.086  1.00  0.00     0.050 A 
HETATM   11  C14 UNL     1      21.436   4.644 -18.134  1.00  0.00     0.108 A 
HETATM   12  N2  UNL     1      20.630   4.816 -17.088  1.00  0.00    -0.202 N 
HETATM   13  C15 UNL     1      21.138   5.429 -16.006  1.00  0.00     0.683 A 
ATOM     14  H2  UNL     1      19.663   4.493 -17.108  1.00  0.00     0.183 HD
HETATM   15  N4  UNL     1      22.404   5.855 -15.971  1.00  0.00    -0.189 N 
ATOM     16  H4  UNL     1      22.726   6.313 -15.118  1.00  0.00     0.184 HD
BRANCH  13  17
HETATM   17  N3  UNL     1      20.329   5.587 -14.986  1.00  0.00    -0.189 N 
ATOM     18  H3  UNL     1      19.416   6.014 -15.143  1.00  0.00     0.184 HD
BRANCH  17  19
HETATM   19  C16 UNL     1      20.678   5.189 -13.688  1.00  0.00     0.087 A 
HETATM   20  C17 UNL     1      21.742   4.344 -13.382  1.00  0.00     0.036 A 
HETATM   21  C18 UNL     1      22.064   3.965 -12.104  1.00  0.00     0.044 A 
HETATM   22  C19 UNL     1      21.305   4.438 -11.055  1.00  0.00     0.119 A 
HETATM   23  F1  UNL     1      21.638   4.052  -9.793  1.00  0.00    -0.206 F 
HETATM   24  C20 UNL     1      20.251   5.272 -11.318  1.00  0.00     0.086 A 
HETATM   25  C21 UNL     1      19.941   5.643 -12.615  1.00  0.00     0.146 A 
HETATM   26  F2  UNL     1      18.891   6.473 -12.864  1.00  0.00    -0.204 F 
ENDBRANCH  17  19
ENDBRANCH  13  17
ENDBRANCH   2   9
BRANCH   1  27
HETATM   27  C9  UNL     1      25.744   3.929 -17.202  1.00  0.00     0.102 C 
BRANCH  27  28
HETATM   28  C8  UNL     1      25.833   3.066 -15.994  1.00  0.00    -0.052 A 
HETATM   29  C7  UNL     1      26.936   2.427 -15.516  1.00  0.00     0.010 A 
HETATM   30  C6  UNL     1      26.887   1.621 -14.388  1.00  0.00     0.037 A 
HETATM   31  C5  UNL     1      25.707   1.446 -13.715  1.00  0.00     0.069 A 
HETATM   32  C31 UNL     1      24.583   2.067 -14.159  1.00  0.00     0.037 A 
HETATM   33  C30 UNL     1      24.627   2.873 -15.285  1.00  0.00     0.010 A 
BRANCH  31  34
HETATM   34  O2  UNL     1      25.674   0.639 -12.595  1.00  0.00    -0.342 OA
BRANCH  34  35
HETATM   35  C4  UNL     1      26.636  -0.374 -12.381  1.00  0.00     0.278 C 
BRANCH  35  36
HETATM   36  C3  UNL     1      27.440  -0.055 -11.177  1.00  0.00     0.243 C 
HETATM   37  N1  UNL     1      27.371  -0.894 -10.047  1.00  0.00    -0.359 N 
HETATM   38  C1  UNL     1      26.522  -2.069 -10.045  1.00  0.00     0.152 C 
HETATM   39  C2  UNL     1      28.162  -0.573  -8.880  1.00  0.00     0.152 C 
HETATM   40  O1  UNL     1      28.179   0.970 -11.176  1.00  0.00    -0.271 OA
ENDBRANCH  35  36
ENDBRANCH  34  35
ENDBRANCH  31  34
ENDBRANCH  27  28
ENDBRANCH   1  27
BRANCH   8  41
HETATM   41  O3  UNL     1      28.138   5.125 -16.781  1.00  0.00    -0.267 OA
ATOM     42  H3  UNL     1      28.646   5.032 -15.983  1.00  0.00     0.247 HD
ENDBRANCH   8  41
BRANCH   5  43
HETATM   43  N6  UNL     1      26.283   9.348 -16.536  1.00  0.00    -0.224 N 
ATOM     44  H6  UNL     1      26.523   9.920 -17.346  1.00  0.00     0.177 HD
BRANCH  43  45
HETATM   45  C23 UNL     1      26.120   9.954 -15.251  1.00  0.00     0.144 C 
BRANCH  45  46
HETATM   46  C24 UNL     1      24.729  10.323 -14.891  1.00  0.00     0.077 C 
BRANCH  46  47
HETATM   47  C25 UNL     1      24.114   9.534 -13.809  1.00  0.00     0.010 A 
HETATM   48  C26 UNL     1      24.772   8.772 -12.884  1.00  0.00     0.025 A 
HETATM   49  C27 UNL     1      24.057   8.071 -11.926  1.00  0.00     0.003 A 
HETATM   50  C28 UNL     1      22.685   8.154 -11.921  1.00  0.00     0.017 A 
HETATM   51  C29 UNL     1      22.025   8.921 -12.854  1.00  0.00     0.088 A 
HETATM   52  N7  UNL     1      22.748   9.586 -13.765  1.00  0.00    -0.369 N 
ATOM     53  H7  UNL     1      22.259  10.155 -14.456  1.00  0.00     0.165 HD
ENDBRANCH  46  47
ENDBRANCH  45  46
ENDBRANCH  43  45
ENDBRANCH   5  43
TORSDOF 13
ENDMDL
