MODEL 1
REMARK VINA RESULT: -7.224109134      0.000      0.000
REMARK  12 active torsions:
REMARK  status: ('A' for Active; 'I' for Inactive)
REMARK    1  A    between atoms: C2_2  and  C3_3 
REMARK    2  A    between atoms: C3_3  and  C5_5 
REMARK    3  A    between atoms: C5_5  and  C6_6 
REMARK    4  A    between atoms: C6_6  and  N1_7 
REMARK    5  A    between atoms: N1_7  and  C7_9 
REMARK    6  A    between atoms: C8_12  and  N3_13 
REMARK    7  A    between atoms: C10_15  and  C11_16 
REMARK    8  A    between atoms: C11_16  and  N4_17 
REMARK       I    between atoms: N4_17  and  C12_19 
REMARK       I    between atoms: C12_19  and  N5_21 
REMARK    9  A    between atoms: C17_29  and  N6_30 
REMARK   10  A    between atoms: N7_36  and  C23_37 
REMARK   11  A    between atoms: C23_37  and  C24_38 
REMARK   12  A    between atoms: C24_38  and  O4_39 
ROOT
HETATM    1  C7  UNL     1      21.968   4.844 -14.175  1.00  0.00     0.681 A 
HETATM    2  N2  UNL     1      23.041   5.603 -14.203  1.00  0.00    -0.173 N 
ATOM      3  H2  UNL     1      23.785   5.404 -13.535  1.00  0.00     0.186 HD
HETATM    4  C8  UNL     1      23.218   6.639 -15.070  1.00  0.00     0.170 A 
HETATM    5  C16 UNL     1      22.199   6.885 -15.955  1.00  0.00     0.205 A 
HETATM    6  F1  UNL     1      22.321   7.901 -16.835  1.00  0.00    -0.198 F 
HETATM    7  C17 UNL     1      21.047   6.101 -15.952  1.00  0.00     0.162 A 
HETATM    8  N8  UNL     1      20.960   5.102 -15.063  1.00  0.00    -0.174 N 
ATOM      9  H8  UNL     1      20.122   4.521 -15.048  1.00  0.00     0.186 HD
ENDROOT
BRANCH   7  10
HETATM   10  N6  UNL     1      19.993   6.328 -16.867  1.00  0.00    -0.364 N 
HETATM   11  C18 UNL     1      19.212   7.552 -16.880  1.00  0.00     0.125 C 
HETATM   12  C19 UNL     1      17.826   7.315 -17.438  1.00  0.00     0.029 C 
HETATM   13  C20 UNL     1      17.881   6.808 -18.865  1.00  0.00    -0.035 C 
HETATM   14  C21 UNL     1      17.944   7.990 -19.812  1.00  0.00     0.029 C 
HETATM   15  C27 UNL     1      16.653   5.988 -19.109  1.00  0.00     0.029 C 
HETATM   16  C28 UNL     1      19.126   5.988 -19.075  1.00  0.00     0.029 C 
HETATM   17  C22 UNL     1      16.537   8.488 -20.091  1.00  0.00     0.117 C 
HETATM   18  N7  UNL     1      15.715   7.505 -20.708  1.00  0.00    -0.410 N 
HETATM   19  C26 UNL     1      16.081   6.145 -20.495  1.00  0.00     0.117 C 
HETATM   20  C29 UNL     1      19.631   5.323 -17.841  1.00  0.00     0.125 C 
BRANCH  18  21
HETATM   21  C23 UNL     1      15.219   7.822 -22.013  1.00  0.00     0.143 C 
BRANCH  21  22
HETATM   22  C24 UNL     1      15.733   9.101 -22.573  1.00  0.00     0.186 C 
BRANCH  22  23
HETATM   23  O4  UNL     1      14.713   9.871 -23.056  1.00  0.00    -0.394 OA
HETATM   24  C25 UNL     1      13.929  10.515 -22.139  1.00  0.00     0.201 C 
ENDBRANCH  22  23
ENDBRANCH  21  22
ENDBRANCH  18  21
ENDBRANCH   7  10
BRANCH   4  25
HETATM   25  N3  UNL     1      24.401   7.436 -15.080  1.00  0.00    -0.274 N 
HETATM   26  C9  UNL     1      25.309   7.688 -16.169  1.00  0.00     0.170 C 
HETATM   27  C10 UNL     1      26.239   8.739 -15.649  1.00  0.00     0.170 C 
HETATM   28  O2  UNL     1      26.207   8.582 -14.255  1.00  0.00    -0.295 OA
HETATM   29  C15 UNL     1      24.900   8.142 -13.960  1.00  0.00     0.369 C 
HETATM   30  O3  UNL     1      24.295   8.355 -12.867  1.00  0.00    -0.238 OA
BRANCH  27  31
HETATM   31  C11 UNL     1      25.685  10.104 -15.991  1.00  0.00     0.158 C 
BRANCH  31  32
HETATM   32  N4  UNL     1      24.910  10.116 -17.192  1.00  0.00    -0.340 N 
HETATM   33  C12 UNL     1      23.796  10.979 -17.309  1.00  0.00     0.317 C 
HETATM   34  O1  UNL     1      23.524  11.732 -16.327  1.00  0.00    -0.247 OA
HETATM   35  N5  UNL     1      22.977  11.043 -18.460  1.00  0.00    -0.343 N 
HETATM   36  C13 UNL     1      21.851  11.973 -18.460  1.00  0.00     0.154 C 
HETATM   37  C14 UNL     1      23.154  10.256 -19.658  1.00  0.00     0.154 C 
ATOM     38  H4  UNL     1      25.161   9.500 -17.966  1.00  0.00     0.164 HD
ENDBRANCH  31  32
ENDBRANCH  27  31
ENDBRANCH   4  25
BRANCH   1  39
HETATM   39  N1  UNL     1      21.766   3.862 -13.387  1.00  0.00    -0.226 N 
ATOM     40  H1  UNL     1      21.281   3.024 -13.707  1.00  0.00     0.177 HD
BRANCH  39  41
HETATM   41  C6  UNL     1      22.252   3.972 -12.013  1.00  0.00     0.138 C 
BRANCH  41  42
HETATM   42  C5  UNL     1      21.083   4.499 -11.206  1.00  0.00     0.024 C 
BRANCH  42  43
HETATM   43  C3  UNL     1      21.395   5.828 -10.554  1.00  0.00    -0.017 C 
HETATM   44  C4  UNL     1      22.879   6.079 -10.707  1.00  0.00     0.010 C 
BRANCH  43  45
HETATM   45  C2  UNL     1      20.586   6.870 -11.322  1.00  0.00    -0.000 C 
HETATM   46  C1  UNL     1      19.406   6.292 -12.039  1.00  0.00     0.005 C 
ENDBRANCH  43  45
ENDBRANCH  42  43
ENDBRANCH  41  42
ENDBRANCH  39  41
ENDBRANCH   1  39
TORSDOF 12
ENDMDL
MODEL 2
REMARK VINA RESULT: -7.056426746      3.816      4.899
REMARK  12 active torsions:
REMARK  status: ('A' for Active; 'I' for Inactive)
REMARK    1  A    between atoms: C2_2  and  C3_3 
REMARK    2  A    between atoms: C3_3  and  C5_5 
REMARK    3  A    between atoms: C5_5  and  C6_6 
REMARK    4  A    between atoms: C6_6  and  N1_7 
REMARK    5  A    between atoms: N1_7  and  C7_9 
REMARK    6  A    between atoms: C8_12  and  N3_13 
REMARK    7  A    between atoms: C10_15  and  C11_16 
REMARK    8  A    between atoms: C11_16  and  N4_17 
REMARK       I    between atoms: N4_17  and  C12_19 
REMARK       I    between atoms: C12_19  and  N5_21 
REMARK    9  A    between atoms: C17_29  and  N6_30 
REMARK   10  A    between atoms: N7_36  and  C23_37 
REMARK   11  A    between atoms: C23_37  and  C24_38 
REMARK   12  A    between atoms: C24_38  and  O4_39 
ROOT
HETATM    1  C7  UNL     1      21.537   7.271 -14.062  1.00  0.00     0.681 A 
HETATM    2  N2  UNL     1      22.715   7.723 -14.425  1.00  0.00    -0.173 N 
ATOM      3  H2  UNL     1      23.077   8.552 -13.955  1.00  0.00     0.186 HD
HETATM    4  C8  UNL     1      23.485   7.150 -15.394  1.00  0.00     0.170 A 
HETATM    5  C16 UNL     1      22.973   6.039 -16.012  1.00  0.00     0.205 A 
HETATM    6  F1  UNL     1      23.692   5.433 -16.982  1.00  0.00    -0.198 F 
HETATM    7  C17 UNL     1      21.726   5.532 -15.653  1.00  0.00     0.162 A 
HETATM    8  N8  UNL     1      21.039   6.161 -14.688  1.00  0.00    -0.174 N 
ATOM      9  H8  UNL     1      20.124   5.803 -14.415  1.00  0.00     0.186 HD
ENDROOT
BRANCH   7  10
HETATM   10  N6  UNL     1      21.188   4.378 -16.266  1.00  0.00    -0.364 N 
HETATM   11  C18 UNL     1      21.240   3.063 -15.653  1.00  0.00     0.125 C 
HETATM   12  C19 UNL     1      21.218   1.967 -16.696  1.00  0.00     0.029 C 
HETATM   13  C20 UNL     1      19.953   2.019 -17.528  1.00  0.00    -0.035 C 
HETATM   14  C21 UNL     1      18.863   1.229 -16.829  1.00  0.00     0.029 C 
HETATM   15  C27 UNL     1      20.262   1.435 -18.871  1.00  0.00     0.029 C 
HETATM   16  C28 UNL     1      19.475   3.440 -17.655  1.00  0.00     0.029 C 
HETATM   17  C22 UNL     1      18.992  -0.239 -17.195  1.00  0.00     0.117 C 
HETATM   18  N7  UNL     1      18.845  -0.476 -18.590  1.00  0.00    -0.410 N 
HETATM   19  C26 UNL     1      19.137   0.618 -19.454  1.00  0.00     0.117 C 
HETATM   20  C29 UNL     1      20.561   4.456 -17.567  1.00  0.00     0.125 C 
BRANCH  18  21
HETATM   21  C23 UNL     1      17.746  -1.305 -18.980  1.00  0.00     0.143 C 
BRANCH  21  22
HETATM   22  C24 UNL     1      16.593  -0.566 -19.563  1.00  0.00     0.186 C 
BRANCH  22  23
HETATM   23  O4  UNL     1      15.633  -0.331 -18.619  1.00  0.00    -0.394 OA
HETATM   24  C25 UNL     1      15.195  -1.405 -17.895  1.00  0.00     0.201 C 
ENDBRANCH  22  23
ENDBRANCH  21  22
ENDBRANCH  18  21
ENDBRANCH   7  10
BRANCH   4  25
HETATM   25  N3  UNL     1      24.767   7.662 -15.757  1.00  0.00    -0.274 N 
HETATM   26  C9  UNL     1      25.284   7.950 -17.069  1.00  0.00     0.170 C 
HETATM   27  C10 UNL     1      26.587   8.640 -16.818  1.00  0.00     0.170 C 
HETATM   28  O2  UNL     1      26.987   8.191 -15.550  1.00  0.00    -0.295 OA
HETATM   29  C15 UNL     1      25.790   7.983 -14.834  1.00  0.00     0.369 C 
HETATM   30  O3  UNL     1      25.675   8.073 -13.575  1.00  0.00    -0.238 OA
BRANCH  27  31
HETATM   31  C11 UNL     1      26.351  10.133 -16.746  1.00  0.00     0.158 C 
BRANCH  31  32
HETATM   32  N4  UNL     1      25.596  10.640 -17.848  1.00  0.00    -0.340 N 
HETATM   33  C12 UNL     1      24.415  11.383 -17.617  1.00  0.00     0.317 C 
HETATM   34  O1  UNL     1      24.066  11.582 -16.416  1.00  0.00    -0.247 OA
HETATM   35  N5  UNL     1      23.610  11.910 -18.653  1.00  0.00    -0.343 N 
HETATM   36  C13 UNL     1      22.411  12.658 -18.288  1.00  0.00     0.154 C 
HETATM   37  C14 UNL     1      23.871  11.775 -20.067  1.00  0.00     0.154 C 
ATOM     38  H4  UNL     1      25.909  10.467 -18.803  1.00  0.00     0.164 HD
ENDBRANCH  31  32
ENDBRANCH  27  31
ENDBRANCH   4  25
BRANCH   1  39
HETATM   39  N1  UNL     1      20.790   7.770 -13.157  1.00  0.00    -0.226 N 
ATOM     40  H1  UNL     1      20.650   8.778 -13.089  1.00  0.00     0.177 HD
BRANCH  39  41
HETATM   41  C6  UNL     1      20.142   6.855 -12.220  1.00  0.00     0.138 C 
BRANCH  41  42
HETATM   42  C5  UNL     1      20.939   6.950 -10.935  1.00  0.00     0.024 C 
BRANCH  42  43
HETATM   43  C3  UNL     1      21.510   5.612 -10.520  1.00  0.00    -0.017 C 
HETATM   44  C4  UNL     1      20.774   4.539 -11.291  1.00  0.00     0.010 C 
BRANCH  43  45
HETATM   45  C2  UNL     1      22.985   5.647 -10.911  1.00  0.00    -0.000 C 
HETATM   46  C1  UNL     1      23.576   7.022 -10.867  1.00  0.00     0.005 C 
ENDBRANCH  43  45
ENDBRANCH  42  43
ENDBRANCH  41  42
ENDBRANCH  39  41
ENDBRANCH   1  39
TORSDOF 12
ENDMDL
MODEL 3
REMARK VINA RESULT: -7.045021228      2.406      3.616
REMARK  12 active torsions:
REMARK  status: ('A' for Active; 'I' for Inactive)
REMARK    1  A    between atoms: C2_2  and  C3_3 
REMARK    2  A    between atoms: C3_3  and  C5_5 
REMARK    3  A    between atoms: C5_5  and  C6_6 
REMARK    4  A    between atoms: C6_6  and  N1_7 
REMARK    5  A    between atoms: N1_7  and  C7_9 
REMARK    6  A    between atoms: C8_12  and  N3_13 
REMARK    7  A    between atoms: C10_15  and  C11_16 
REMARK    8  A    between atoms: C11_16  and  N4_17 
REMARK       I    between atoms: N4_17  and  C12_19 
REMARK       I    between atoms: C12_19  and  N5_21 
REMARK    9  A    between atoms: C17_29  and  N6_30 
REMARK   10  A    between atoms: N7_36  and  C23_37 
REMARK   11  A    between atoms: C23_37  and  C24_38 
REMARK   12  A    between atoms: C24_38  and  O4_39 
ROOT
HETATM    1  C7  UNL     1      21.704   8.302 -13.352  1.00  0.00     0.681 A 
HETATM    2  N2  UNL     1      22.944   8.623 -13.642  1.00  0.00    -0.173 N 
ATOM      3  H2  UNL     1      23.558   8.904 -12.878  1.00  0.00     0.186 HD
HETATM    4  C8  UNL     1      23.461   8.604 -14.904  1.00  0.00     0.170 A 
HETATM    5  C16 UNL     1      22.613   8.225 -15.912  1.00  0.00     0.205 A 
HETATM    6  F1  UNL     1      23.071   8.191 -17.182  1.00  0.00    -0.198 F 
HETATM    7  C17 UNL     1      21.291   7.879 -15.641  1.00  0.00     0.162 A 
HETATM    8  N8  UNL     1      20.870   7.927 -14.370  1.00  0.00    -0.174 N 
ATOM      9  H8  UNL     1      19.904   7.677 -14.156  1.00  0.00     0.186 HD
ENDROOT
BRANCH   7  10
HETATM   10  N6  UNL     1      20.406   7.470 -16.665  1.00  0.00    -0.364 N 
HETATM   11  C18 UNL     1      20.477   6.162 -17.292  1.00  0.00     0.125 C 
HETATM   12  C19 UNL     1      19.924   6.196 -18.700  1.00  0.00     0.029 C 
HETATM   13  C20 UNL     1      18.469   6.616 -18.714  1.00  0.00    -0.035 C 
HETATM   14  C21 UNL     1      17.594   5.393 -18.514  1.00  0.00     0.029 C 
HETATM   15  C27 UNL     1      18.191   7.265 -20.034  1.00  0.00     0.029 C 
HETATM   16  C28 UNL     1      18.193   7.565 -17.579  1.00  0.00     0.029 C 
HETATM   17  C22 UNL     1      17.365   4.713 -19.852  1.00  0.00     0.117 C 
HETATM   18  N7  UNL     1      16.700   5.549 -20.791  1.00  0.00    -0.410 N 
HETATM   19  C26 UNL     1      16.824   6.953 -20.591  1.00  0.00     0.117 C 
HETATM   20  C29 UNL     1      19.377   8.362 -17.152  1.00  0.00     0.125 C 
BRANCH  18  21
HETATM   21  C23 UNL     1      15.423   5.094 -21.252  1.00  0.00     0.143 C 
BRANCH  21  22
HETATM   22  C24 UNL     1      14.262   5.783 -20.629  1.00  0.00     0.186 C 
BRANCH  22  23
HETATM   23  O4  UNL     1      13.772   5.065 -19.574  1.00  0.00    -0.394 OA
HETATM   24  C25 UNL     1      13.893   5.622 -18.332  1.00  0.00     0.201 C 
ENDBRANCH  22  23
ENDBRANCH  21  22
ENDBRANCH  18  21
ENDBRANCH   7  10
BRANCH   4  25
HETATM   25  N3  UNL     1      24.818   8.949 -15.181  1.00  0.00    -0.274 N 
HETATM   26  C9  UNL     1      25.983   8.105 -15.165  1.00  0.00     0.170 C 
HETATM   27  C10 UNL     1      27.077   8.960 -15.723  1.00  0.00     0.170 C 
HETATM   28  O2  UNL     1      26.665  10.276 -15.462  1.00  0.00    -0.295 OA
HETATM   29  C15 UNL     1      25.257  10.247 -15.533  1.00  0.00     0.369 C 
HETATM   30  O3  UNL     1      24.529  11.232 -15.860  1.00  0.00    -0.238 OA
BRANCH  27  31
HETATM   31  C11 UNL     1      27.140   8.767 -17.222  1.00  0.00     0.158 C 
BRANCH  31  32
HETATM   32  N4  UNL     1      27.321   7.403 -17.610  1.00  0.00    -0.340 N 
HETATM   33  C12 UNL     1      26.459   6.815 -18.563  1.00  0.00     0.317 C 
HETATM   34  O1  UNL     1      25.540   7.536 -19.055  1.00  0.00    -0.247 OA
HETATM   35  N5  UNL     1      26.568   5.472 -18.991  1.00  0.00    -0.343 N 
HETATM   36  C13 UNL     1      25.614   4.978 -19.979  1.00  0.00     0.154 C 
HETATM   37  C14 UNL     1      27.557   4.525 -18.531  1.00  0.00     0.154 C 
ATOM     38  H4  UNL     1      28.075   6.852 -17.198  1.00  0.00     0.164 HD
ENDBRANCH  31  32
ENDBRANCH  27  31
ENDBRANCH   4  25
BRANCH   1  39
HETATM   39  N1  UNL     1      21.184   8.298 -12.188  1.00  0.00    -0.226 N 
ATOM     40  H1  UNL     1      21.249   9.116 -11.582  1.00  0.00     0.177 HD
BRANCH  39  41
HETATM   41  C6  UNL     1      20.493   7.088 -11.749  1.00  0.00     0.138 C 
BRANCH  41  42
HETATM   42  C5  UNL     1      21.451   6.386 -10.808  1.00  0.00     0.024 C 
BRANCH  42  43
HETATM   43  C3  UNL     1      21.213   4.894 -10.762  1.00  0.00    -0.017 C 
HETATM   44  C4  UNL     1      19.989   4.597 -11.600  1.00  0.00     0.010 C 
BRANCH  43  45
HETATM   45  C2  UNL     1      22.457   4.252 -11.372  1.00  0.00    -0.000 C 
HETATM   46  C1  UNL     1      22.260   3.814 -12.790  1.00  0.00     0.005 C 
ENDBRANCH  43  45
ENDBRANCH  42  43
ENDBRANCH  41  42
ENDBRANCH  39  41
ENDBRANCH   1  39
TORSDOF 12
ENDMDL
MODEL 4
REMARK VINA RESULT: -7.034132849      4.071      9.025
REMARK  12 active torsions:
REMARK  status: ('A' for Active; 'I' for Inactive)
REMARK    1  A    between atoms: C2_2  and  C3_3 
REMARK    2  A    between atoms: C3_3  and  C5_5 
REMARK    3  A    between atoms: C5_5  and  C6_6 
REMARK    4  A    between atoms: C6_6  and  N1_7 
REMARK    5  A    between atoms: N1_7  and  C7_9 
REMARK    6  A    between atoms: C8_12  and  N3_13 
REMARK    7  A    between atoms: C10_15  and  C11_16 
REMARK    8  A    between atoms: C11_16  and  N4_17 
REMARK       I    between atoms: N4_17  and  C12_19 
REMARK       I    between atoms: C12_19  and  N5_21 
REMARK    9  A    between atoms: C17_29  and  N6_30 
REMARK   10  A    between atoms: N7_36  and  C23_37 
REMARK   11  A    between atoms: C23_37  and  C24_38 
REMARK   12  A    between atoms: C24_38  and  O4_39 
ROOT
HETATM    1  C7  UNL     1      22.478   7.826 -14.178  1.00  0.00     0.681 A 
HETATM    2  N2  UNL     1      21.668   8.213 -15.138  1.00  0.00    -0.173 N 
ATOM      3  H2  UNL     1      21.254   9.142 -15.070  1.00  0.00     0.186 HD
HETATM    4  C8  UNL     1      21.349   7.447 -16.219  1.00  0.00     0.170 A 
HETATM    5  C16 UNL     1      21.919   6.202 -16.283  1.00  0.00     0.205 A 
HETATM    6  F1  UNL     1      21.635   5.399 -17.332  1.00  0.00    -0.198 F 
HETATM    7  C17 UNL     1      22.781   5.759 -15.283  1.00  0.00     0.162 A 
HETATM    8  N8  UNL     1      23.038   6.581 -14.256  1.00  0.00    -0.174 N 
ATOM      9  H8  UNL     1      23.667   6.270 -13.515  1.00  0.00     0.186 HD
ENDROOT
BRANCH   7  10
HETATM   10  N6  UNL     1      23.391   4.485 -15.339  1.00  0.00    -0.364 N 
HETATM   11  C18 UNL     1      24.668   4.251 -15.991  1.00  0.00     0.125 C 
HETATM   12  C19 UNL     1      24.784   2.823 -16.478  1.00  0.00     0.029 C 
HETATM   13  C20 UNL     1      24.683   1.836 -15.333  1.00  0.00    -0.035 C 
HETATM   14  C21 UNL     1      26.058   1.630 -14.729  1.00  0.00     0.029 C 
HETATM   15  C27 UNL     1      24.137   0.554 -15.879  1.00  0.00     0.029 C 
HETATM   16  C28 UNL     1      23.789   2.385 -14.254  1.00  0.00     0.029 C 
HETATM   17  C22 UNL     1      26.802   0.568 -15.521  1.00  0.00     0.117 C 
HETATM   18  N7  UNL     1      26.147  -0.695 -15.502  1.00  0.00    -0.410 N 
HETATM   19  C26 UNL     1      24.744  -0.680 -15.259  1.00  0.00     0.117 C 
HETATM   20  C29 UNL     1      22.750   3.331 -14.749  1.00  0.00     0.125 C 
BRANCH  18  21
HETATM   21  C23 UNL     1      26.873  -1.777 -14.910  1.00  0.00     0.143 C 
BRANCH  21  22
HETATM   22  C24 UNL     1      26.502  -2.068 -13.499  1.00  0.00     0.186 C 
BRANCH  22  23
HETATM   23  O4  UNL     1      27.312  -1.396 -12.628  1.00  0.00    -0.394 OA
HETATM   24  C25 UNL     1      26.704  -0.596 -11.701  1.00  0.00     0.201 C 
ENDBRANCH  22  23
ENDBRANCH  21  22
ENDBRANCH  18  21
ENDBRANCH   7  10
BRANCH   4  25
HETATM   25  N3  UNL     1      20.473   7.903 -17.250  1.00  0.00    -0.274 N 
HETATM   26  C9  UNL     1      20.775   8.187 -18.628  1.00  0.00     0.170 C 
HETATM   27  C10 UNL     1      19.443   8.434 -19.263  1.00  0.00     0.170 C 
HETATM   28  O2  UNL     1      18.619   8.852 -18.207  1.00  0.00    -0.295 OA
HETATM   29  C15 UNL     1      19.095   8.166 -17.070  1.00  0.00     0.369 C 
HETATM   30  O3  UNL     1      18.387   7.849 -16.068  1.00  0.00    -0.238 OA
BRANCH  27  31
HETATM   31  C11 UNL     1      18.903   7.129 -19.805  1.00  0.00     0.158 C 
BRANCH  31  32
HETATM   32  N4  UNL     1      17.476   7.092 -19.874  1.00  0.00    -0.340 N 
HETATM   33  C12 UNL     1      16.762   6.046 -19.246  1.00  0.00     0.317 C 
HETATM   34  O1  UNL     1      17.428   5.164 -18.624  1.00  0.00    -0.247 OA
HETATM   35  N5  UNL     1      15.353   5.935 -19.276  1.00  0.00    -0.343 N 
HETATM   36  C13 UNL     1      14.731   4.806 -18.591  1.00  0.00     0.154 C 
HETATM   37  C14 UNL     1      14.455   6.854 -19.934  1.00  0.00     0.154 C 
ATOM     38  H4  UNL     1      16.971   7.822 -20.377  1.00  0.00     0.164 HD
ENDBRANCH  31  32
ENDBRANCH  27  31
ENDBRANCH   4  25
BRANCH   1  39
HETATM   39  N1  UNL     1      22.809   8.513 -13.156  1.00  0.00    -0.226 N 
ATOM     40  H1  UNL     1      23.213   9.445 -13.259  1.00  0.00     0.177 HD
BRANCH  39  41
HETATM   41  C6  UNL     1      22.593   7.928 -11.835  1.00  0.00     0.138 C 
BRANCH  41  42
HETATM   42  C5  UNL     1      21.106   8.049 -11.570  1.00  0.00     0.024 C 
BRANCH  42  43
HETATM   43  C3  UNL     1      20.496   6.736 -11.135  1.00  0.00    -0.017 C 
HETATM   44  C4  UNL     1      19.694   6.193 -12.297  1.00  0.00     0.010 C 
BRANCH  43  45
HETATM   45  C2  UNL     1      21.671   5.817 -10.809  1.00  0.00    -0.000 C 
HETATM   46  C1  UNL     1      21.285   4.373 -10.722  1.00  0.00     0.005 C 
ENDBRANCH  43  45
ENDBRANCH  42  43
ENDBRANCH  41  42
ENDBRANCH  39  41
ENDBRANCH   1  39
TORSDOF 12
ENDMDL
MODEL 5
REMARK VINA RESULT: -6.999289202      4.457      9.715
REMARK  12 active torsions:
REMARK  status: ('A' for Active; 'I' for Inactive)
REMARK    1  A    between atoms: C2_2  and  C3_3 
REMARK    2  A    between atoms: C3_3  and  C5_5 
REMARK    3  A    between atoms: C5_5  and  C6_6 
REMARK    4  A    between atoms: C6_6  and  N1_7 
REMARK    5  A    between atoms: N1_7  and  C7_9 
REMARK    6  A    between atoms: C8_12  and  N3_13 
REMARK    7  A    between atoms: C10_15  and  C11_16 
REMARK    8  A    between atoms: C11_16  and  N4_17 
REMARK       I    between atoms: N4_17  and  C12_19 
REMARK       I    between atoms: C12_19  and  N5_21 
REMARK    9  A    between atoms: C17_29  and  N6_30 
REMARK   10  A    between atoms: N7_36  and  C23_37 
REMARK   11  A    between atoms: C23_37  and  C24_38 
REMARK   12  A    between atoms: C24_38  and  O4_39 
ROOT
HETATM    1  C7  UNL     1      22.323   7.256 -14.439  1.00  0.00     0.681 A 
HETATM    2  N2  UNL     1      21.413   7.386 -15.378  1.00  0.00    -0.173 N 
ATOM      3  H2  UNL     1      20.919   8.275 -15.446  1.00  0.00     0.186 HD
HETATM    4  C8  UNL     1      21.091   6.404 -16.266  1.00  0.00     0.170 A 
HETATM    5  C16 UNL     1      21.770   5.219 -16.150  1.00  0.00     0.205 A 
HETATM    6  F1  UNL     1      21.488   4.210 -17.002  1.00  0.00    -0.198 F 
HETATM    7  C17 UNL     1      22.740   5.046 -15.165  1.00  0.00     0.162 A 
HETATM    8  N8  UNL     1      22.991   6.067 -14.335  1.00  0.00    -0.174 N 
ATOM      9  H8  UNL     1      23.698   5.955 -13.608  1.00  0.00     0.186 HD
ENDROOT
BRANCH   7  10
HETATM   10  N6  UNL     1      23.462   3.837 -15.039  1.00  0.00    -0.364 N 
HETATM   11  C18 UNL     1      24.666   3.555 -15.802  1.00  0.00     0.125 C 
HETATM   12  C19 UNL     1      24.862   2.067 -15.990  1.00  0.00     0.029 C 
HETATM   13  C20 UNL     1      25.002   1.353 -14.661  1.00  0.00    -0.035 C 
HETATM   14  C21 UNL     1      26.455   1.383 -14.229  1.00  0.00     0.029 C 
HETATM   15  C27 UNL     1      24.524  -0.053 -14.842  1.00  0.00     0.029 C 
HETATM   16  C28 UNL     1      24.198   2.063 -13.605  1.00  0.00     0.029 C 
HETATM   17  C22 UNL     1      27.197   0.227 -14.878  1.00  0.00     0.117 C 
HETATM   18  N7  UNL     1      26.679  -1.043 -14.502  1.00  0.00    -0.410 N 
HETATM   19  C26 UNL     1      25.322  -1.073 -14.070  1.00  0.00     0.117 C 
HETATM   20  C29 UNL     1      23.017   2.801 -14.135  1.00  0.00     0.125 C 
BRANCH  18  21
HETATM   21  C23 UNL     1      27.577  -1.913 -13.804  1.00  0.00     0.143 C 
BRANCH  21  22
HETATM   22  C24 UNL     1      27.420  -1.902 -12.325  1.00  0.00     0.186 C 
BRANCH  22  23
HETATM   23  O4  UNL     1      28.309  -1.044 -11.743  1.00  0.00    -0.394 OA
HETATM   24  C25 UNL     1      27.791  -0.021 -10.998  1.00  0.00     0.201 C 
ENDBRANCH  22  23
ENDBRANCH  21  22
ENDBRANCH  18  21
ENDBRANCH   7  10
BRANCH   4  25
HETATM   25  N3  UNL     1      20.104   6.583 -17.282  1.00  0.00    -0.274 N 
HETATM   26  C9  UNL     1      20.091   6.069 -18.626  1.00  0.00     0.170 C 
HETATM   27  C10 UNL     1      18.732   6.414 -19.149  1.00  0.00     0.170 C 
HETATM   28  O2  UNL     1      18.331   7.523 -18.389  1.00  0.00    -0.295 OA
HETATM   29  C15 UNL     1      18.918   7.338 -17.120  1.00  0.00     0.369 C 
HETATM   30  O3  UNL     1      18.444   7.782 -16.032  1.00  0.00    -0.238 OA
BRANCH  27  31
HETATM   31  C11 UNL     1      17.786   5.268 -18.861  1.00  0.00     0.158 C 
BRANCH  31  32
HETATM   32  N4  UNL     1      18.452   4.018 -18.673  1.00  0.00    -0.340 N 
HETATM   33  C12 UNL     1      17.703   2.846 -18.418  1.00  0.00     0.317 C 
HETATM   34  O1  UNL     1      16.441   2.948 -18.372  1.00  0.00    -0.247 OA
HETATM   35  N5  UNL     1      18.289   1.575 -18.213  1.00  0.00    -0.343 N 
HETATM   36  C13 UNL     1      17.409   0.440 -17.955  1.00  0.00     0.154 C 
HETATM   37  C14 UNL     1      19.704   1.293 -18.237  1.00  0.00     0.154 C 
ATOM     38  H4  UNL     1      19.470   3.971 -18.723  1.00  0.00     0.164 HD
ENDBRANCH  31  32
ENDBRANCH  27  31
ENDBRANCH   4  25
BRANCH   1  39
HETATM   39  N1  UNL     1      22.661   8.151 -13.595  1.00  0.00    -0.226 N 
ATOM     40  H1  UNL     1      22.969   9.073 -13.903  1.00  0.00     0.177 HD
BRANCH  39  41
HETATM   41  C6  UNL     1      22.592   7.815 -12.175  1.00  0.00     0.138 C 
BRANCH  41  42
HETATM   42  C5  UNL     1      21.153   8.057 -11.764  1.00  0.00     0.024 C 
BRANCH  42  43
HETATM   43  C3  UNL     1      20.537   6.844 -11.107  1.00  0.00    -0.017 C 
HETATM   44  C4  UNL     1      19.625   6.185 -12.118  1.00  0.00     0.010 C 
BRANCH  43  45
HETATM   45  C2  UNL     1      21.703   5.925 -10.748  1.00  0.00    -0.000 C 
HETATM   46  C1  UNL     1      21.326   4.477 -10.718  1.00  0.00     0.005 C 
ENDBRANCH  43  45
ENDBRANCH  42  43
ENDBRANCH  41  42
ENDBRANCH  39  41
ENDBRANCH   1  39
TORSDOF 12
ENDMDL
