MODEL 1
REMARK VINA RESULT: -7.983214012      0.000      0.000
REMARK  14 active torsions:
REMARK  status: ('A' for Active; 'I' for Inactive)
REMARK    1  A    between atoms: N1_2  and  C2_4 
REMARK    2  A    between atoms: C2_4  and  O1_5 
REMARK    3  A    between atoms: C2_4  and  C3_7 
REMARK    4  A    between atoms: C3_7  and  C4_8 
REMARK    5  A    between atoms: C4_8  and  C5_9 
REMARK    6  A    between atoms: C4_8  and  C27_43 
REMARK    7  A    between atoms: C5_9  and  N2_10 
REMARK    8  A    between atoms: C9_16  and  N4_17 
REMARK    9  A    between atoms: C15_25  and  N6_26 
REMARK   10  A    between atoms: N6_26  and  C17_28 
REMARK   11  A    between atoms: C20_31  and  C21_32 
REMARK   12  A    between atoms: C21_32  and  S1_33 
REMARK   13  A    between atoms: S1_33  and  N7_36 
REMARK   14  A    between atoms: C27_43  and  C28_44 
ROOT
HETATM    1  N2  UNL     1      23.152   8.385 -13.965  1.00  0.00    -0.385 N 
HETATM    2  C6  UNL     1      23.385   9.695 -13.675  1.00  0.00     0.128 C 
HETATM    3  C7  UNL     1      24.180  10.457 -14.749  1.00  0.00     0.078 C 
HETATM    4  C8  UNL     1      23.320  10.367 -15.975  1.00  0.00     0.040 A 
HETATM    5  N3  UNL     1      23.031  11.394 -16.767  1.00  0.00    -0.195 N 
ATOM      6  H3  UNL     1      23.413  12.311 -16.537  1.00  0.00     0.184 HD
HETATM    7  C9  UNL     1      22.254  11.273 -17.862  1.00  0.00     0.682 A 
HETATM    8  N5  UNL     1      21.766  10.051 -18.141  1.00  0.00    -0.176 N 
ATOM      9  H5  UNL     1      21.176   9.933 -18.964  1.00  0.00     0.186 HD
HETATM   10  C15 UNL     1      22.036   8.955 -17.354  1.00  0.00     0.129 A 
HETATM   11  C25 UNL     1      22.824   9.114 -16.253  1.00  0.00     0.027 A 
HETATM   12  C26 UNL     1      23.159   8.007 -15.375  1.00  0.00     0.166 C 
ENDROOT
BRANCH  10  13
HETATM   13  N6  UNL     1      21.435   7.740 -17.786  1.00  0.00    -0.366 N 
HETATM   14  C16 UNL     1      22.116   6.982 -18.810  1.00  0.00     0.151 C 
BRANCH  13  15
HETATM   15  C17 UNL     1      20.190   7.295 -17.179  1.00  0.00     0.085 C 
HETATM   16  C18 UNL     1      19.801   5.925 -17.578  1.00  0.00     0.026 C 
HETATM   17  C19 UNL     1      18.709   5.802 -18.603  1.00  0.00     0.007 C 
HETATM   18  C20 UNL     1      17.573   6.710 -18.240  1.00  0.00     0.001 C 
HETATM   19  C23 UNL     1      18.148   8.134 -18.401  1.00  0.00     0.007 C 
HETATM   20  C24 UNL     1      19.143   8.340 -17.329  1.00  0.00     0.026 C 
BRANCH  18  21
HETATM   21  C21 UNL     1      16.324   6.560 -19.027  1.00  0.00     0.167 C 
BRANCH  21  22
HETATM   22  S1  UNL     1      14.939   7.410 -18.348  1.00  0.00     0.226 S 
HETATM   23  O2  UNL     1      15.227   8.001 -16.975  1.00  0.00    -0.206 OA
HETATM   24  O3  UNL     1      14.450   8.526 -19.215  1.00  0.00    -0.206 OA
BRANCH  22  25
HETATM   25  N7  UNL     1      13.639   6.280 -18.057  1.00  0.00    -0.324 N 
HETATM   26  C22 UNL     1      14.105   4.921 -18.182  1.00  0.00     0.159 C 
ATOM     27  H7  UNL     1      12.681   6.545 -17.829  1.00  0.00     0.171 HD
ENDBRANCH  22  25
ENDBRANCH  21  22
ENDBRANCH  18  21
ENDBRANCH  13  15
ENDBRANCH  10  13
BRANCH   7  28
HETATM   28  N4  UNL     1      21.950  12.374 -18.693  1.00  0.00    -0.218 N 
HETATM   29  C10 UNL     1      21.305  12.192 -19.967  1.00  0.00     0.141 C 
HETATM   30  C11 UNL     1      19.985  12.920 -20.007  1.00  0.00     0.020 C 
HETATM   31  C12 UNL     1      19.934  14.060 -19.041  1.00  0.00     0.003 C 
HETATM   32  C13 UNL     1      21.268  14.716 -18.779  1.00  0.00     0.020 C 
HETATM   33  C14 UNL     1      22.287  13.711 -18.267  1.00  0.00     0.141 C 
ENDBRANCH   7  28
BRANCH   1  34
HETATM   34  C5  UNL     1      22.850   7.414 -13.053  1.00  0.00     0.093 C 
BRANCH  34  35
HETATM   35  C4  UNL     1      21.890   6.309 -13.419  1.00  0.00    -0.030 C 
BRANCH  35  36
HETATM   36  C3  UNL     1      22.489   5.170 -13.756  1.00  0.00     0.064 C 
BRANCH  36  37
HETATM   37  C2  UNL     1      22.316   3.793 -13.512  1.00  0.00     0.135 C 
BRANCH  37  38
HETATM   38  N1  UNL     1      21.650   2.754 -14.159  1.00  0.00    -0.375 N 
HETATM   39  C1  UNL     1      20.982   2.990 -15.478  1.00  0.00     0.148 C 
ATOM     40  H1  UNL     1      21.617   1.829 -13.733  1.00  0.00     0.161 HD
ENDBRANCH  37  38
BRANCH  37  41
HETATM   41  O1  UNL     1      22.922   3.336 -12.398  1.00  0.00    -0.346 OA
ATOM     42  H1  UNL     1      23.340   4.051 -11.934  1.00  0.00     0.219 HD
ENDBRANCH  37  41
ENDBRANCH  36  37
ENDBRANCH  35  36
BRANCH  35  43
HETATM   43  C27 UNL     1      20.442   6.401 -13.378  1.00  0.00     0.157 C 
BRANCH  43  44
HETATM   44  C28 UNL     1      19.787   6.212 -12.043  1.00  0.00     0.391 C 
HETATM   45  F1  UNL     1      18.389   6.262 -12.189  1.00  0.00    -0.171 F 
HETATM   46  F2  UNL     1      20.075   7.321 -11.232  1.00  0.00    -0.171 F 
HETATM   47  F3  UNL     1      20.167   5.106 -11.364  1.00  0.00    -0.171 F 
ENDBRANCH  43  44
ENDBRANCH  35  43
ENDBRANCH  34  35
ENDBRANCH   1  34
TORSDOF 14
ENDMDL
MODEL 2
REMARK VINA RESULT: -7.836344774      3.729      6.609
REMARK  14 active torsions:
REMARK  status: ('A' for Active; 'I' for Inactive)
REMARK    1  A    between atoms: N1_2  and  C2_4 
REMARK    2  A    between atoms: C2_4  and  O1_5 
REMARK    3  A    between atoms: C2_4  and  C3_7 
REMARK    4  A    between atoms: C3_7  and  C4_8 
REMARK    5  A    between atoms: C4_8  and  C5_9 
REMARK    6  A    between atoms: C4_8  and  C27_43 
REMARK    7  A    between atoms: C5_9  and  N2_10 
REMARK    8  A    between atoms: C9_16  and  N4_17 
REMARK    9  A    between atoms: C15_25  and  N6_26 
REMARK   10  A    between atoms: N6_26  and  C17_28 
REMARK   11  A    between atoms: C20_31  and  C21_32 
REMARK   12  A    between atoms: C21_32  and  S1_33 
REMARK   13  A    between atoms: S1_33  and  N7_36 
REMARK   14  A    between atoms: C27_43  and  C28_44 
ROOT
HETATM    1  N2  UNL     1      24.903  10.068 -16.355  1.00  0.00    -0.385 N 
HETATM    2  C6  UNL     1      25.237  10.340 -15.062  1.00  0.00     0.128 C 
HETATM    3  C7  UNL     1      24.042  10.652 -14.146  1.00  0.00     0.078 C 
HETATM    4  C8  UNL     1      23.208   9.406 -14.190  1.00  0.00     0.040 A 
HETATM    5  N3  UNL     1      22.697   8.805 -13.121  1.00  0.00    -0.195 N 
ATOM      6  H3  UNL     1      22.876   9.208 -12.202  1.00  0.00     0.184 HD
HETATM    7  C9  UNL     1      21.951   7.684 -13.202  1.00  0.00     0.682 A 
HETATM    8  N5  UNL     1      21.731   7.177 -14.428  1.00  0.00    -0.176 N 
ATOM      9  H5  UNL     1      21.169   6.330 -14.516  1.00  0.00     0.186 HD
HETATM   10  C15 UNL     1      22.237   7.761 -15.567  1.00  0.00     0.129 A 
HETATM   11  C25 UNL     1      22.988   8.892 -15.448  1.00  0.00     0.027 A 
HETATM   12  C26 UNL     1      23.554   9.570 -16.600  1.00  0.00     0.166 C 
ENDROOT
BRANCH  10  13
HETATM   13  N6  UNL     1      21.917   7.092 -16.781  1.00  0.00    -0.366 N 
HETATM   14  C16 UNL     1      22.598   5.850 -17.063  1.00  0.00     0.151 C 
BRANCH  13  15
HETATM   15  C17 UNL     1      20.916   7.657 -17.674  1.00  0.00     0.085 C 
HETATM   16  C18 UNL     1      19.763   8.248 -16.962  1.00  0.00     0.026 C 
HETATM   17  C19 UNL     1      18.494   7.442 -16.938  1.00  0.00     0.007 C 
HETATM   18  C20 UNL     1      18.201   6.926 -18.315  1.00  0.00     0.001 C 
HETATM   19  C23 UNL     1      19.337   5.922 -18.604  1.00  0.00     0.007 C 
HETATM   20  C24 UNL     1      20.589   6.691 -18.756  1.00  0.00     0.026 C 
BRANCH  18  21
HETATM   21  C21 UNL     1      16.877   6.288 -18.518  1.00  0.00     0.167 C 
BRANCH  21  22
HETATM   22  S1  UNL     1      15.542   7.428 -18.661  1.00  0.00     0.226 S 
HETATM   23  O2  UNL     1      15.132   8.023 -17.322  1.00  0.00    -0.206 OA
HETATM   24  O3  UNL     1      15.839   8.569 -19.581  1.00  0.00    -0.206 OA
BRANCH  22  25
HETATM   25  N7  UNL     1      14.109   6.591 -19.208  1.00  0.00    -0.324 N 
HETATM   26  C22 UNL     1      13.832   5.450 -18.370  1.00  0.00     0.159 C 
ATOM     27  H7  UNL     1      13.546   6.871 -20.010  1.00  0.00     0.171 HD
ENDBRANCH  22  25
ENDBRANCH  21  22
ENDBRANCH  18  21
ENDBRANCH  13  15
ENDBRANCH  10  13
BRANCH   7  28
HETATM   28  N4  UNL     1      21.417   7.053 -12.057  1.00  0.00    -0.218 N 
HETATM   29  C10 UNL     1      20.000   6.851 -11.909  1.00  0.00     0.141 C 
HETATM   30  C11 UNL     1      19.677   5.383 -11.790  1.00  0.00     0.020 C 
HETATM   31  C12 UNL     1      20.835   4.585 -11.282  1.00  0.00     0.003 C 
HETATM   32  C13 UNL     1      21.752   5.341 -10.350  1.00  0.00     0.020 C 
HETATM   33  C14 UNL     1      22.299   6.595 -11.011  1.00  0.00     0.141 C 
ENDBRANCH   7  28
BRANCH   1  34
HETATM   34  C5  UNL     1      25.746  10.161 -17.426  1.00  0.00     0.093 C 
BRANCH  34  35
HETATM   35  C4  UNL     1      26.737   9.057 -17.703  1.00  0.00    -0.030 C 
BRANCH  35  36
HETATM   36  C3  UNL     1      27.934   9.497 -18.082  1.00  0.00     0.064 C 
BRANCH  36  37
HETATM   37  C2  UNL     1      28.887   9.192 -19.075  1.00  0.00     0.135 C 
BRANCH  37  38
HETATM   38  N1  UNL     1      29.107   9.604 -20.388  1.00  0.00    -0.375 N 
HETATM   39  C1  UNL     1      28.094  10.447 -21.096  1.00  0.00     0.148 C 
ATOM     40  H1  UNL     1      29.964   9.329 -20.868  1.00  0.00     0.161 HD
ENDBRANCH  37  38
BRANCH  37  41
HETATM   41  O1  UNL     1      29.820   8.293 -18.705  1.00  0.00    -0.346 OA
ATOM     42  H1  UNL     1      29.665   8.006 -17.813  1.00  0.00     0.219 HD
ENDBRANCH  37  41
ENDBRANCH  36  37
ENDBRANCH  35  36
BRANCH  35  43
HETATM   43  C27 UNL     1      26.487   7.638 -17.540  1.00  0.00     0.157 C 
BRANCH  43  44
HETATM   44  C28 UNL     1      26.651   7.072 -16.162  1.00  0.00     0.391 C 
HETATM   45  F1  UNL     1      27.331   5.843 -16.231  1.00  0.00    -0.171 F 
HETATM   46  F2  UNL     1      25.388   6.723 -15.659  1.00  0.00    -0.171 F 
HETATM   47  F3  UNL     1      27.227   7.900 -15.262  1.00  0.00    -0.171 F 
ENDBRANCH  43  44
ENDBRANCH  35  43
ENDBRANCH  34  35
ENDBRANCH   1  34
TORSDOF 14
ENDMDL
MODEL 3
REMARK VINA RESULT: -7.757225955      2.202      2.816
REMARK  14 active torsions:
REMARK  status: ('A' for Active; 'I' for Inactive)
REMARK    1  A    between atoms: N1_2  and  C2_4 
REMARK    2  A    between atoms: C2_4  and  O1_5 
REMARK    3  A    between atoms: C2_4  and  C3_7 
REMARK    4  A    between atoms: C3_7  and  C4_8 
REMARK    5  A    between atoms: C4_8  and  C5_9 
REMARK    6  A    between atoms: C4_8  and  C27_43 
REMARK    7  A    between atoms: C5_9  and  N2_10 
REMARK    8  A    between atoms: C9_16  and  N4_17 
REMARK    9  A    between atoms: C15_25  and  N6_26 
REMARK   10  A    between atoms: N6_26  and  C17_28 
REMARK   11  A    between atoms: C20_31  and  C21_32 
REMARK   12  A    between atoms: C21_32  and  S1_33 
REMARK   13  A    between atoms: S1_33  and  N7_36 
REMARK   14  A    between atoms: C27_43  and  C28_44 
ROOT
HETATM    1  N2  UNL     1      22.562   9.028 -13.840  1.00  0.00    -0.385 N 
HETATM    2  C6  UNL     1      23.557   9.958 -13.842  1.00  0.00     0.128 C 
HETATM    3  C7  UNL     1      24.770   9.596 -14.716  1.00  0.00     0.078 C 
HETATM    4  C8  UNL     1      24.202   9.476 -16.099  1.00  0.00     0.040 A 
HETATM    5  N3  UNL     1      24.742  10.024 -17.183  1.00  0.00    -0.195 N 
ATOM      6  H3  UNL     1      25.600  10.565 -17.081  1.00  0.00     0.184 HD
HETATM    7  C9  UNL     1      24.201   9.893 -18.411  1.00  0.00     0.682 A 
HETATM    8  N5  UNL     1      23.071   9.172 -18.515  1.00  0.00    -0.176 N 
ATOM      9  H5  UNL     1      22.643   9.057 -19.434  1.00  0.00     0.186 HD
HETATM   10  C15 UNL     1      22.473   8.583 -17.425  1.00  0.00     0.129 A 
HETATM   11  C25 UNL     1      23.045   8.737 -16.197  1.00  0.00     0.027 A 
HETATM   12  C26 UNL     1      22.479   8.145 -14.999  1.00  0.00     0.166 C 
ENDROOT
BRANCH  10  13
HETATM   13  N6  UNL     1      21.279   7.863 -17.707  1.00  0.00    -0.366 N 
HETATM   14  C16 UNL     1      21.411   6.514 -18.210  1.00  0.00     0.151 C 
BRANCH  13  15
HETATM   15  C17 UNL     1      19.986   8.485 -17.466  1.00  0.00     0.085 C 
HETATM   16  C18 UNL     1      19.044   7.613 -16.732  1.00  0.00     0.026 C 
HETATM   17  C19 UNL     1      17.962   6.952 -17.540  1.00  0.00     0.007 C 
HETATM   18  C20 UNL     1      17.326   7.960 -18.448  1.00  0.00     0.001 C 
HETATM   19  C23 UNL     1      18.437   8.334 -19.453  1.00  0.00     0.007 C 
HETATM   20  C24 UNL     1      19.468   9.096 -18.719  1.00  0.00     0.026 C 
BRANCH  18  21
HETATM   21  C21 UNL     1      16.100   7.530 -19.164  1.00  0.00     0.167 C 
BRANCH  21  22
HETATM   22  S1  UNL     1      14.610   7.788 -18.260  1.00  0.00     0.226 S 
HETATM   23  O2  UNL     1      14.862   8.189 -16.814  1.00  0.00    -0.206 OA
HETATM   24  O3  UNL     1      13.729   8.836 -18.863  1.00  0.00    -0.206 OA
BRANCH  22  25
HETATM   25  N7  UNL     1      13.730   6.284 -18.134  1.00  0.00    -0.324 N 
HETATM   26  C22 UNL     1      14.565   5.170 -18.510  1.00  0.00     0.159 C 
ATOM     27  H7  UNL     1      12.758   6.204 -17.835  1.00  0.00     0.171 HD
ENDBRANCH  22  25
ENDBRANCH  21  22
ENDBRANCH  18  21
ENDBRANCH  13  15
ENDBRANCH  10  13
BRANCH   7  28
HETATM   28  N4  UNL     1      24.783  10.484 -19.555  1.00  0.00    -0.218 N 
HETATM   29  C10 UNL     1      25.031  11.901 -19.618  1.00  0.00     0.141 C 
HETATM   30  C11 UNL     1      26.501  12.179 -19.807  1.00  0.00     0.020 C 
HETATM   31  C12 UNL     1      27.220  11.033 -20.443  1.00  0.00     0.003 C 
HETATM   32  C13 UNL     1      26.373  10.212 -21.386  1.00  0.00     0.020 C 
HETATM   33  C14 UNL     1      25.141   9.663 -20.686  1.00  0.00     0.141 C 
ENDBRANCH   7  28
BRANCH   1  34
HETATM   34  C5  UNL     1      21.601   8.898 -12.877  1.00  0.00     0.093 C 
BRANCH  34  35
HETATM   35  C4  UNL     1      21.487   7.614 -12.094  1.00  0.00    -0.030 C 
BRANCH  35  36
HETATM   36  C3  UNL     1      22.642   6.967 -11.959  1.00  0.00     0.064 C 
BRANCH  36  37
HETATM   37  C2  UNL     1      23.146   5.887 -11.207  1.00  0.00     0.135 C 
BRANCH  37  38
HETATM   38  N1  UNL     1      23.076   4.499 -11.309  1.00  0.00    -0.375 N 
HETATM   39  C1  UNL     1      22.480   3.859 -12.524  1.00  0.00     0.148 C 
ATOM     40  H1  UNL     1      23.432   3.916 -10.552  1.00  0.00     0.161 HD
ENDBRANCH  37  38
BRANCH  37  41
HETATM   41  O1  UNL     1      23.872   6.240 -10.128  1.00  0.00    -0.346 OA
ATOM     42  H1  UNL     1      23.299   6.519  -9.423  1.00  0.00     0.219 HD
ENDBRANCH  37  41
ENDBRANCH  36  37
ENDBRANCH  35  36
BRANCH  35  43
HETATM   43  C27 UNL     1      20.277   7.106 -11.476  1.00  0.00     0.157 C 
BRANCH  43  44
HETATM   44  C28 UNL     1      19.505   6.074 -12.241  1.00  0.00     0.391 C 
HETATM   45  F1  UNL     1      18.140   6.413 -12.253  1.00  0.00    -0.171 F 
HETATM   46  F2  UNL     1      19.538   4.862 -11.534  1.00  0.00    -0.171 F 
HETATM   47  F3  UNL     1      19.957   5.823 -13.491  1.00  0.00    -0.171 F 
ENDBRANCH  43  44
ENDBRANCH  35  43
ENDBRANCH  34  35
ENDBRANCH   1  34
TORSDOF 14
ENDMDL
MODEL 4
REMARK VINA RESULT: -7.620801943      3.989      6.862
REMARK  14 active torsions:
REMARK  status: ('A' for Active; 'I' for Inactive)
REMARK    1  A    between atoms: N1_2  and  C2_4 
REMARK    2  A    between atoms: C2_4  and  O1_5 
REMARK    3  A    between atoms: C2_4  and  C3_7 
REMARK    4  A    between atoms: C3_7  and  C4_8 
REMARK    5  A    between atoms: C4_8  and  C5_9 
REMARK    6  A    between atoms: C4_8  and  C27_43 
REMARK    7  A    between atoms: C5_9  and  N2_10 
REMARK    8  A    between atoms: C9_16  and  N4_17 
REMARK    9  A    between atoms: C15_25  and  N6_26 
REMARK   10  A    between atoms: N6_26  and  C17_28 
REMARK   11  A    between atoms: C20_31  and  C21_32 
REMARK   12  A    between atoms: C21_32  and  S1_33 
REMARK   13  A    between atoms: S1_33  and  N7_36 
REMARK   14  A    between atoms: C27_43  and  C28_44 
ROOT
HETATM    1  N2  UNL     1      24.827   9.210 -17.031  1.00  0.00    -0.385 N 
HETATM    2  C6  UNL     1      25.512   9.155 -15.854  1.00  0.00     0.128 C 
HETATM    3  C7  UNL     1      24.756   9.732 -14.646  1.00  0.00     0.078 C 
HETATM    4  C8  UNL     1      23.526   8.879 -14.543  1.00  0.00     0.040 A 
HETATM    5  N3  UNL     1      23.073   8.348 -13.412  1.00  0.00    -0.195 N 
ATOM      6  H3  UNL     1      23.587   8.524 -12.549  1.00  0.00     0.184 HD
HETATM    7  C9  UNL     1      21.961   7.586 -13.359  1.00  0.00     0.682 A 
HETATM    8  N5  UNL     1      21.303   7.373 -14.512  1.00  0.00    -0.176 N 
ATOM      9  H5  UNL     1      20.460   6.801 -14.498  1.00  0.00     0.186 HD
HETATM   10  C15 UNL     1      21.730   7.900 -15.709  1.00  0.00     0.129 A 
HETATM   11  C25 UNL     1      22.858   8.665 -15.726  1.00  0.00     0.027 A 
HETATM   12  C26 UNL     1      23.371   9.260 -16.947  1.00  0.00     0.166 C 
ENDROOT
BRANCH  10  13
HETATM   13  N6  UNL     1      20.924   7.571 -16.835  1.00  0.00    -0.366 N 
HETATM   14  C16 UNL     1      21.351   6.470 -17.668  1.00  0.00     0.151 C 
BRANCH  13  15
HETATM   15  C17 UNL     1      19.706   8.324 -17.095  1.00  0.00     0.085 C 
HETATM   16  C18 UNL     1      18.473   7.546 -16.853  1.00  0.00     0.026 C 
HETATM   17  C19 UNL     1      17.755   7.019 -18.064  1.00  0.00     0.007 C 
HETATM   18  C20 UNL     1      17.636   8.105 -19.090  1.00  0.00     0.001 C 
HETATM   19  C23 UNL     1      19.087   8.376 -19.541  1.00  0.00     0.007 C 
HETATM   20  C24 UNL     1      19.798   9.010 -18.411  1.00  0.00     0.026 C 
BRANCH  18  21
HETATM   21  C21 UNL     1      16.770   7.822 -20.261  1.00  0.00     0.167 C 
BRANCH  21  22
HETATM   22  S1  UNL     1      15.052   8.066 -19.963  1.00  0.00     0.226 S 
HETATM   23  O2  UNL     1      14.757   8.475 -18.527  1.00  0.00    -0.206 OA
HETATM   24  O3  UNL     1      14.441   9.101 -20.852  1.00  0.00    -0.206 OA
BRANCH  22  25
HETATM   25  N7  UNL     1      14.200   6.552 -20.155  1.00  0.00    -0.324 N 
HETATM   26  C22 UNL     1      14.038   5.892 -18.882  1.00  0.00     0.159 C 
ATOM     27  H7  UNL     1      13.864   6.185 -21.045  1.00  0.00     0.171 HD
ENDBRANCH  22  25
ENDBRANCH  21  22
ENDBRANCH  18  21
ENDBRANCH  13  15
ENDBRANCH  10  13
BRANCH   7  28
HETATM   28  N4  UNL     1      21.493   7.024 -12.151  1.00  0.00    -0.218 N 
HETATM   29  C10 UNL     1      20.089   6.802 -11.925  1.00  0.00     0.141 C 
HETATM   30  C11 UNL     1      19.809   5.339 -11.693  1.00  0.00     0.020 C 
HETATM   31  C12 UNL     1      21.007   4.603 -11.184  1.00  0.00     0.003 C 
HETATM   32  C13 UNL     1      21.944   5.442 -10.348  1.00  0.00     0.020 C 
HETATM   33  C14 UNL     1      22.431   6.659 -11.116  1.00  0.00     0.141 C 
ENDBRANCH   7  28
BRANCH   1  34
HETATM   34  C5  UNL     1      25.387   9.155 -18.276  1.00  0.00     0.093 C 
BRANCH  34  35
HETATM   35  C4  UNL     1      25.779  10.429 -18.983  1.00  0.00    -0.030 C 
BRANCH  35  36
HETATM   36  C3  UNL     1      27.049  10.776 -18.792  1.00  0.00     0.064 C 
BRANCH  36  37
HETATM   37  C2  UNL     1      28.170  10.277 -18.098  1.00  0.00     0.135 C 
BRANCH  37  38
HETATM   38  N1  UNL     1      29.028   9.192 -18.266  1.00  0.00    -0.375 N 
HETATM   39  C1  UNL     1      29.033   8.422 -19.549  1.00  0.00     0.148 C 
ATOM     40  H1  UNL     1      29.657   8.922 -17.510  1.00  0.00     0.161 HD
ENDBRANCH  37  38
BRANCH  37  41
HETATM   41  O1  UNL     1      28.524  10.990 -17.011  1.00  0.00    -0.346 OA
ATOM     42  H1  UNL     1      27.763  11.414 -16.633  1.00  0.00     0.219 HD
ENDBRANCH  37  41
ENDBRANCH  36  37
ENDBRANCH  35  36
BRANCH  35  43
HETATM   43  C27 UNL     1      24.916  11.217 -19.843  1.00  0.00     0.157 C 
BRANCH  43  44
HETATM   44  C28 UNL     1      23.856  12.039 -19.174  1.00  0.00     0.391 C 
HETATM   45  F1  UNL     1      22.617  11.382 -19.266  1.00  0.00    -0.171 F 
HETATM   46  F2  UNL     1      23.662  13.218 -19.911  1.00  0.00    -0.171 F 
HETATM   47  F3  UNL     1      24.125  12.401 -17.899  1.00  0.00    -0.171 F 
ENDBRANCH  43  44
ENDBRANCH  35  43
ENDBRANCH  34  35
ENDBRANCH   1  34
TORSDOF 14
ENDMDL
MODEL 5
REMARK VINA RESULT: -7.557902077      3.838      6.535
REMARK  14 active torsions:
REMARK  status: ('A' for Active; 'I' for Inactive)
REMARK    1  A    between atoms: N1_2  and  C2_4 
REMARK    2  A    between atoms: C2_4  and  O1_5 
REMARK    3  A    between atoms: C2_4  and  C3_7 
REMARK    4  A    between atoms: C3_7  and  C4_8 
REMARK    5  A    between atoms: C4_8  and  C5_9 
REMARK    6  A    between atoms: C4_8  and  C27_43 
REMARK    7  A    between atoms: C5_9  and  N2_10 
REMARK    8  A    between atoms: C9_16  and  N4_17 
REMARK    9  A    between atoms: C15_25  and  N6_26 
REMARK   10  A    between atoms: N6_26  and  C17_28 
REMARK   11  A    between atoms: C20_31  and  C21_32 
REMARK   12  A    between atoms: C21_32  and  S1_33 
REMARK   13  A    between atoms: S1_33  and  N7_36 
REMARK   14  A    between atoms: C27_43  and  C28_44 
ROOT
HETATM    1  N2  UNL     1      24.747   9.967 -16.606  1.00  0.00    -0.385 N 
HETATM    2  C6  UNL     1      25.381   9.916 -15.401  1.00  0.00     0.128 C 
HETATM    3  C7  UNL     1      24.508  10.317 -14.201  1.00  0.00     0.078 C 
HETATM    4  C8  UNL     1      23.388   9.319 -14.212  1.00  0.00     0.040 A 
HETATM    5  N3  UNL     1      22.954   8.665 -13.140  1.00  0.00    -0.195 N 
ATOM      6  H3  UNL     1      23.405   8.843 -12.243  1.00  0.00     0.184 HD
HETATM    7  C9  UNL     1      21.942   7.774 -13.191  1.00  0.00     0.682 A 
HETATM    8  N5  UNL     1      21.366   7.561 -14.387  1.00  0.00    -0.176 N 
ATOM      9  H5  UNL     1      20.598   6.893 -14.451  1.00  0.00     0.186 HD
HETATM   10  C15 UNL     1      21.777   8.214 -15.526  1.00  0.00     0.129 A 
HETATM   11  C25 UNL     1      22.804   9.106 -15.439  1.00  0.00     0.027 A 
HETATM   12  C26 UNL     1      23.293   9.838 -16.594  1.00  0.00     0.166 C 
ENDROOT
BRANCH  10  13
HETATM   13  N6  UNL     1      21.067   7.867 -16.709  1.00  0.00    -0.366 N 
HETATM   14  C16 UNL     1      21.660   6.882 -17.584  1.00  0.00     0.151 C 
BRANCH  13  15
HETATM   15  C17 UNL     1      19.780   8.487 -16.986  1.00  0.00     0.085 C 
HETATM   16  C18 UNL     1      18.631   7.592 -16.727  1.00  0.00     0.026 C 
HETATM   17  C19 UNL     1      17.973   6.970 -17.927  1.00  0.00     0.007 C 
HETATM   18  C20 UNL     1      17.746   8.016 -18.976  1.00  0.00     0.001 C 
HETATM   19  C23 UNL     1      19.164   8.423 -19.432  1.00  0.00     0.007 C 
HETATM   20  C24 UNL     1      19.804   9.150 -18.317  1.00  0.00     0.026 C 
BRANCH  18  21
HETATM   21  C21 UNL     1      16.917   7.621 -20.141  1.00  0.00     0.167 C 
BRANCH  21  22
HETATM   22  S1  UNL     1      15.192   7.521 -19.797  1.00  0.00     0.226 S 
HETATM   23  O2  UNL     1      14.726   6.095 -19.543  1.00  0.00    -0.206 OA
HETATM   24  O3  UNL     1      14.780   8.338 -18.614  1.00  0.00    -0.206 OA
BRANCH  22  25
HETATM   25  N7  UNL     1      14.281   8.020 -21.201  1.00  0.00    -0.324 N 
HETATM   26  C22 UNL     1      14.689   9.334 -21.635  1.00  0.00     0.159 C 
ATOM     27  H7  UNL     1      13.559   7.459 -21.653  1.00  0.00     0.171 HD
ENDBRANCH  22  25
ENDBRANCH  21  22
ENDBRANCH  18  21
ENDBRANCH  13  15
ENDBRANCH  10  13
BRANCH   7  28
HETATM   28  N4  UNL     1      21.494   7.081 -12.044  1.00  0.00    -0.218 N 
HETATM   29  C10 UNL     1      20.093   6.844 -11.816  1.00  0.00     0.141 C 
HETATM   30  C11 UNL     1      19.805   5.366 -11.745  1.00  0.00     0.020 C 
HETATM   31  C12 UNL     1      21.006   4.570 -11.348  1.00  0.00     0.003 C 
HETATM   32  C13 UNL     1      21.968   5.302 -10.442  1.00  0.00     0.020 C 
HETATM   33  C14 UNL     1      22.449   6.595 -11.078  1.00  0.00     0.141 C 
ENDBRANCH   7  28
BRANCH   1  34
HETATM   34  C5  UNL     1      25.362  10.061 -17.822  1.00  0.00     0.093 C 
BRANCH  34  35
HETATM   35  C4  UNL     1      26.013   8.845 -18.434  1.00  0.00    -0.030 C 
BRANCH  35  36
HETATM   36  C3  UNL     1      27.184   9.100 -19.013  1.00  0.00     0.064 C 
BRANCH  36  37
HETATM   37  C2  UNL     1      28.550   8.991 -18.685  1.00  0.00     0.135 C 
BRANCH  37  38
HETATM   38  N1  UNL     1      29.624   8.251 -19.177  1.00  0.00    -0.375 N 
HETATM   39  C1  UNL     1      29.385   6.976 -19.923  1.00  0.00     0.148 C 
ATOM     40  H1  UNL     1      30.577   8.580 -19.028  1.00  0.00     0.161 HD
ENDBRANCH  37  38
BRANCH  37  41
HETATM   41  O1  UNL     1      28.950   9.769 -17.661  1.00  0.00    -0.346 OA
ATOM     42  H1  UNL     1      28.879  10.686 -17.897  1.00  0.00     0.219 HD
ENDBRANCH  37  41
ENDBRANCH  36  37
ENDBRANCH  35  36
BRANCH  35  43
HETATM   43  C27 UNL     1      25.490   7.493 -18.384  1.00  0.00     0.157 C 
BRANCH  43  44
HETATM   44  C28 UNL     1      25.848   6.668 -17.185  1.00  0.00     0.391 C 
HETATM   45  F1  UNL     1      26.029   5.327 -17.568  1.00  0.00    -0.171 F 
HETATM   46  F2  UNL     1      24.746   6.619 -16.319  1.00  0.00    -0.171 F 
HETATM   47  F3  UNL     1      26.903   7.118 -16.470  1.00  0.00    -0.171 F 
ENDBRANCH  43  44
ENDBRANCH  35  43
ENDBRANCH  34  35
ENDBRANCH   1  34
TORSDOF 14
ENDMDL
