MODEL 1
REMARK VINA RESULT: -8.787778026      0.000      0.000
REMARK  11 active torsions:
REMARK  status: ('A' for Active; 'I' for Inactive)
REMARK    1  A    between atoms: C1_2  and  C2_3 
REMARK       I    between atoms: C1_2  and  N1_16 
REMARK    2  A    between atoms: C2_3  and  C3_4 
REMARK    3  A    between atoms: C3_4  and  S1_5 
REMARK    4  A    between atoms: S1_5  and  C4_8 
REMARK    5  A    between atoms: C4_8  and  C5_9 
REMARK    6  A    between atoms: N1_16  and  C11_18 
REMARK    7  A    between atoms: C14_21  and  C15_22 
REMARK    8  A    between atoms: C15_22  and  C16_24 
REMARK    9  A    between atoms: C19_29  and  N3_30 
REMARK   10  A    between atoms: N3_30  and  S2_32 
REMARK   11  A    between atoms: S2_32  and  C20_35 
ROOT
HETATM    1  C11 UNL     1      23.797   3.267 -14.946  1.00  0.00     0.107 A 
HETATM    2  C12 UNL     1      23.640   2.480 -13.835  1.00  0.00     0.050 A 
HETATM    3  C13 UNL     1      24.676   1.721 -13.358  1.00  0.00     0.020 A 
HETATM    4  C14 UNL     1      25.905   1.739 -13.998  1.00  0.00     0.030 A 
HETATM    5  C26 UNL     1      26.048   2.540 -15.124  1.00  0.00     0.105 A 
HETATM    6  N5  UNL     1      25.031   3.264 -15.563  1.00  0.00    -0.351 N 
ATOM      7  H5  UNL     1      25.164   3.844 -16.391  1.00  0.00     0.166 HD
ENDROOT
BRANCH   4   8
HETATM    8  C15 UNL     1      27.045   0.987 -13.552  1.00  0.00     0.198 C 
HETATM    9  O4  UNL     1      28.124   1.099 -14.221  1.00  0.00    -0.286 OA
BRANCH   8  10
HETATM   10  C16 UNL     1      27.021   0.113 -12.386  1.00  0.00     0.071 A 
HETATM   11  C17 UNL     1      26.240  -1.054 -12.456  1.00  0.00     0.106 A 
HETATM   12  N2  UNL     1      26.126  -1.899 -11.416  1.00  0.00    -0.372 N 
HETATM   13  C18 UNL     1      26.773  -1.648 -10.241  1.00  0.00     0.121 A 
ATOM     14  H2  UNL     1      25.550  -2.735 -11.506  1.00  0.00     0.164 HD
HETATM   15  C19 UNL     1      27.561  -0.501 -10.127  1.00  0.00     0.097 A 
HETATM   16  C25 UNL     1      27.665   0.351 -11.202  1.00  0.00     0.160 A 
HETATM   17  F2  UNL     1      28.430   1.480 -11.107  1.00  0.00    -0.203 F 
BRANCH  15  18
HETATM   18  N3  UNL     1      28.251  -0.220  -8.936  1.00  0.00    -0.276 N 
ATOM     19  H3  UNL     1      27.930   0.560  -8.362  1.00  0.00     0.179 HD
BRANCH  18  20
HETATM   20  S2  UNL     1      29.608  -1.123  -8.395  1.00  0.00     0.263 S 
HETATM   21  O5  UNL     1      30.364  -1.650  -9.598  1.00  0.00    -0.200 OA
HETATM   22  O6  UNL     1      30.573  -0.255  -7.627  1.00  0.00    -0.200 OA
BRANCH  20  23
HETATM   23  C20 UNL     1      29.194  -2.462  -7.372  1.00  0.00     0.082 A 
HETATM   24  C21 UNL     1      28.494  -3.546  -7.834  1.00  0.00     0.042 A 
HETATM   25  C22 UNL     1      28.205  -4.608  -6.967  1.00  0.00     0.089 A 
HETATM   26  N4  UNL     1      28.598  -4.592  -5.686  1.00  0.00    -0.375 N 
HETATM   27  C23 UNL     1      29.284  -3.539  -5.218  1.00  0.00     0.089 A 
ATOM     28  H4  UNL     1      28.376  -5.374  -5.072  1.00  0.00     0.164 HD
HETATM   29  C24 UNL     1      29.582  -2.482  -6.047  1.00  0.00     0.042 A 
ENDBRANCH  20  23
ENDBRANCH  18  20
ENDBRANCH  15  18
ENDBRANCH   8  10
ENDBRANCH   4   8
BRANCH   1  30
HETATM   30  N1  UNL     1      22.905   4.018 -15.429  1.00  0.00    -0.313 N 
HETATM   31  C1  UNL     1      22.488   5.271 -15.087  1.00  0.00     0.224 C 
HETATM   32  O1  UNL     1      21.249   5.527 -14.807  1.00  0.00    -0.273 OA
ATOM     33  H1  UNL     1      22.403   3.615 -16.220  1.00  0.00     0.170 HD
BRANCH  31  34
HETATM   34  C2  UNL     1      23.416   6.422 -15.010  1.00  0.00     0.118 C 
BRANCH  34  35
HETATM   35  C3  UNL     1      22.530   7.688 -14.992  1.00  0.00     0.149 C 
BRANCH  35  36
HETATM   36  S1  UNL     1      23.184   8.845 -13.812  1.00  0.00     0.148 S 
HETATM   37  O2  UNL     1      24.538   8.292 -13.400  1.00  0.00    -0.228 OA
HETATM   38  O3  UNL     1      23.348  10.201 -14.386  1.00  0.00    -0.228 OA
BRANCH  36  39
HETATM   39  C4  UNL     1      22.174   8.896 -12.360  1.00  0.00     0.178 C 
BRANCH  39  40
HETATM   40  C5  UNL     1      21.912   7.526 -11.811  1.00  0.00    -0.044 A 
HETATM   41  C6  UNL     1      20.610   7.025 -11.845  1.00  0.00     0.011 A 
HETATM   42  C7  UNL     1      20.339   5.773 -11.339  1.00  0.00     0.043 A 
HETATM   43  C8  UNL     1      21.337   4.986 -10.790  1.00  0.00     0.116 A 
HETATM   44  F1  UNL     1      21.088   3.738 -10.278  1.00  0.00    -0.206 F 
HETATM   45  C9  UNL     1      22.604   5.506 -10.774  1.00  0.00     0.043 A 
HETATM   46  C10 UNL     1      22.897   6.754 -11.273  1.00  0.00     0.011 A 
ENDBRANCH  39  40
ENDBRANCH  36  39
ENDBRANCH  35  36
ENDBRANCH  34  35
ENDBRANCH  31  34
ENDBRANCH   1  30
TORSDOF 11
ENDMDL
MODEL 2
REMARK VINA RESULT: -8.769287060      6.232      8.562
REMARK  11 active torsions:
REMARK  status: ('A' for Active; 'I' for Inactive)
REMARK    1  A    between atoms: C1_2  and  C2_3 
REMARK       I    between atoms: C1_2  and  N1_16 
REMARK    2  A    between atoms: C2_3  and  C3_4 
REMARK    3  A    between atoms: C3_4  and  S1_5 
REMARK    4  A    between atoms: S1_5  and  C4_8 
REMARK    5  A    between atoms: C4_8  and  C5_9 
REMARK    6  A    between atoms: N1_16  and  C11_18 
REMARK    7  A    between atoms: C14_21  and  C15_22 
REMARK    8  A    between atoms: C15_22  and  C16_24 
REMARK    9  A    between atoms: C19_29  and  N3_30 
REMARK   10  A    between atoms: N3_30  and  S2_32 
REMARK   11  A    between atoms: S2_32  and  C20_35 
ROOT
HETATM    1  C11 UNL     1      25.534   9.195 -16.765  1.00  0.00     0.107 A 
HETATM    2  C12 UNL     1      26.771   8.610 -16.692  1.00  0.00     0.050 A 
HETATM    3  C13 UNL     1      26.937   7.277 -16.962  1.00  0.00     0.020 A 
HETATM    4  C14 UNL     1      25.848   6.496 -17.315  1.00  0.00     0.030 A 
HETATM    5  C26 UNL     1      24.600   7.103 -17.383  1.00  0.00     0.105 A 
HETATM    6  N5  UNL     1      24.468   8.393 -17.118  1.00  0.00    -0.351 N 
ATOM      7  H5  UNL     1      23.540   8.812 -17.177  1.00  0.00     0.166 HD
ENDROOT
BRANCH   4   8
HETATM    8  C15 UNL     1      25.939   5.098 -17.630  1.00  0.00     0.198 C 
HETATM    9  O4  UNL     1      26.587   4.770 -18.677  1.00  0.00    -0.286 OA
BRANCH   8  10
HETATM   10  C16 UNL     1      25.331   4.054 -16.817  1.00  0.00     0.071 A 
HETATM   11  C17 UNL     1      26.107   3.484 -15.791  1.00  0.00     0.106 A 
HETATM   12  N2  UNL     1      25.643   2.488 -15.016  1.00  0.00    -0.372 N 
HETATM   13  C18 UNL     1      24.386   1.989 -15.200  1.00  0.00     0.121 A 
ATOM     14  H2  UNL     1      26.237   2.102 -14.282  1.00  0.00     0.164 HD
HETATM   15  C19 UNL     1      23.579   2.526 -16.206  1.00  0.00     0.097 A 
HETATM   16  C25 UNL     1      24.072   3.544 -16.988  1.00  0.00     0.160 A 
HETATM   17  F2  UNL     1      23.297   4.080 -17.980  1.00  0.00    -0.203 F 
BRANCH  15  18
HETATM   18  N3  UNL     1      22.276   2.044 -16.413  1.00  0.00    -0.276 N 
ATOM     19  H3  UNL     1      22.154   1.211 -16.989  1.00  0.00     0.179 HD
BRANCH  18  20
HETATM   20  S2  UNL     1      20.878   2.786 -15.748  1.00  0.00     0.263 S 
HETATM   21  O5  UNL     1      19.669   1.923 -16.046  1.00  0.00    -0.200 OA
HETATM   22  O6  UNL     1      20.974   2.888 -14.246  1.00  0.00    -0.200 OA
BRANCH  20  23
HETATM   23  C20 UNL     1      20.579   4.384 -16.353  1.00  0.00     0.082 A 
HETATM   24  C21 UNL     1      20.073   4.608 -17.607  1.00  0.00     0.042 A 
HETATM   25  C22 UNL     1      19.833   5.920 -18.036  1.00  0.00     0.089 A 
HETATM   26  N4  UNL     1      20.088   6.972 -17.246  1.00  0.00    -0.375 N 
HETATM   27  C23 UNL     1      20.583   6.770 -16.016  1.00  0.00     0.089 A 
ATOM     28  H4  UNL     1      19.907   7.919 -17.578  1.00  0.00     0.164 HD
HETATM   29  C24 UNL     1      20.828   5.492 -15.568  1.00  0.00     0.042 A 
ENDBRANCH  20  23
ENDBRANCH  18  20
ENDBRANCH  15  18
ENDBRANCH   8  10
ENDBRANCH   4   8
BRANCH   1  30
HETATM   30  N1  UNL     1      25.302  10.419 -16.564  1.00  0.00    -0.313 N 
HETATM   31  C1  UNL     1      24.478  11.055 -15.683  1.00  0.00     0.224 C 
HETATM   32  O1  UNL     1      23.578  11.899 -16.076  1.00  0.00    -0.273 OA
ATOM     33  H1  UNL     1      25.828  11.048 -17.171  1.00  0.00     0.170 HD
BRANCH  31  34
HETATM   34  C2  UNL     1      24.553  10.829 -14.222  1.00  0.00     0.118 C 
BRANCH  34  35
HETATM   35  C3  UNL     1      23.437   9.814 -13.886  1.00  0.00     0.149 C 
BRANCH  35  36
HETATM   36  S1  UNL     1      24.170   8.320 -13.263  1.00  0.00     0.148 S 
HETATM   37  O2  UNL     1      23.616   7.198 -14.127  1.00  0.00    -0.228 OA
HETATM   38  O3  UNL     1      25.649   8.339 -13.353  1.00  0.00    -0.228 OA
BRANCH  36  39
HETATM   39  C4  UNL     1      23.645   8.010 -11.602  1.00  0.00     0.178 C 
BRANCH  39  40
HETATM   40  C5  UNL     1      22.512   7.031 -11.545  1.00  0.00    -0.044 A 
HETATM   41  C6  UNL     1      21.233   7.460 -11.903  1.00  0.00     0.011 A 
HETATM   42  C7  UNL     1      20.172   6.584 -11.851  1.00  0.00     0.043 A 
HETATM   43  C8  UNL     1      20.340   5.270 -11.449  1.00  0.00     0.116 A 
HETATM   44  F1  UNL     1      19.296   4.382 -11.386  1.00  0.00    -0.206 F 
HETATM   45  C9  UNL     1      21.607   4.880 -11.106  1.00  0.00     0.043 A 
HETATM   46  C10 UNL     1      22.683   5.739 -11.150  1.00  0.00     0.011 A 
ENDBRANCH  39  40
ENDBRANCH  36  39
ENDBRANCH  35  36
ENDBRANCH  34  35
ENDBRANCH  31  34
ENDBRANCH   1  30
TORSDOF 11
ENDMDL
MODEL 3
REMARK VINA RESULT: -8.741857470      1.944      2.824
REMARK  11 active torsions:
REMARK  status: ('A' for Active; 'I' for Inactive)
REMARK    1  A    between atoms: C1_2  and  C2_3 
REMARK       I    between atoms: C1_2  and  N1_16 
REMARK    2  A    between atoms: C2_3  and  C3_4 
REMARK    3  A    between atoms: C3_4  and  S1_5 
REMARK    4  A    between atoms: S1_5  and  C4_8 
REMARK    5  A    between atoms: C4_8  and  C5_9 
REMARK    6  A    between atoms: N1_16  and  C11_18 
REMARK    7  A    between atoms: C14_21  and  C15_22 
REMARK    8  A    between atoms: C15_22  and  C16_24 
REMARK    9  A    between atoms: C19_29  and  N3_30 
REMARK   10  A    between atoms: N3_30  and  S2_32 
REMARK   11  A    between atoms: S2_32  and  C20_35 
ROOT
HETATM    1  C11 UNL     1      23.473   3.476 -14.972  1.00  0.00     0.107 A 
HETATM    2  C12 UNL     1      23.422   2.716 -13.833  1.00  0.00     0.050 A 
HETATM    3  C13 UNL     1      24.496   1.960 -13.442  1.00  0.00     0.020 A 
HETATM    4  C14 UNL     1      25.656   1.953 -14.201  1.00  0.00     0.030 A 
HETATM    5  C26 UNL     1      25.691   2.727 -15.354  1.00  0.00     0.105 A 
HETATM    6  N5  UNL     1      24.640   3.449 -15.707  1.00  0.00    -0.351 N 
ATOM      7  H5  UNL     1      24.695   4.008 -16.559  1.00  0.00     0.166 HD
ENDROOT
BRANCH   4   8
HETATM    8  C15 UNL     1      26.830   1.202 -13.852  1.00  0.00     0.198 C 
HETATM    9  O4  UNL     1      27.850   1.317 -14.607  1.00  0.00    -0.286 OA
BRANCH   8  10
HETATM   10  C16 UNL     1      26.903   0.326 -12.690  1.00  0.00     0.071 A 
HETATM   11  C17 UNL     1      26.090  -0.822 -12.681  1.00  0.00     0.106 A 
HETATM   12  N2  UNL     1      26.062  -1.667 -11.634  1.00  0.00    -0.372 N 
HETATM   13  C18 UNL     1      26.831  -1.436 -10.531  1.00  0.00     0.121 A 
ATOM     14  H2  UNL     1      25.459  -2.489 -11.666  1.00  0.00     0.164 HD
HETATM   15  C19 UNL     1      27.655  -0.308 -10.498  1.00  0.00     0.097 A 
HETATM   16  C25 UNL     1      27.670   0.544 -11.577  1.00  0.00     0.160 A 
HETATM   17  F2  UNL     1      28.468   1.654 -11.560  1.00  0.00    -0.203 F 
BRANCH  15  18
HETATM   18  N3  UNL     1      28.469  -0.048  -9.383  1.00  0.00    -0.276 N 
ATOM     19  H3  UNL     1      28.152   0.644  -8.703  1.00  0.00     0.179 HD
BRANCH  18  20
HETATM   20  S2  UNL     1      29.970  -0.835  -9.105  1.00  0.00     0.263 S 
HETATM   21  O5  UNL     1      30.121  -1.105  -7.622  1.00  0.00    -0.200 OA
HETATM   22  O6  UNL     1      30.020  -2.177  -9.793  1.00  0.00    -0.200 OA
BRANCH  20  23
HETATM   23  C20 UNL     1      31.345   0.072  -9.645  1.00  0.00     0.082 A 
HETATM   24  C21 UNL     1      31.403   0.640 -10.891  1.00  0.00     0.042 A 
HETATM   25  C22 UNL     1      32.532   1.379 -11.267  1.00  0.00     0.089 A 
HETATM   26  N4  UNL     1      33.568   1.547 -10.433  1.00  0.00    -0.375 N 
HETATM   27  C23 UNL     1      33.527   0.998  -9.209  1.00  0.00     0.089 A 
ATOM     28  H4  UNL     1      34.380   2.088 -10.726  1.00  0.00     0.164 HD
HETATM   29  C24 UNL     1      32.430   0.267  -8.814  1.00  0.00     0.042 A 
ENDBRANCH  20  23
ENDBRANCH  18  20
ENDBRANCH  15  18
ENDBRANCH   8  10
ENDBRANCH   4   8
BRANCH   1  30
HETATM   30  N1  UNL     1      22.542   4.224 -15.382  1.00  0.00    -0.313 N 
HETATM   31  C1  UNL     1      22.187   5.498 -15.052  1.00  0.00     0.224 C 
HETATM   32  O1  UNL     1      20.994   5.792 -14.643  1.00  0.00    -0.273 OA
ATOM     33  H1  UNL     1      21.945   3.796 -16.090  1.00  0.00     0.170 HD
BRANCH  31  34
HETATM   34  C2  UNL     1      23.135   6.632 -15.138  1.00  0.00     0.118 C 
BRANCH  34  35
HETATM   35  C3  UNL     1      22.296   7.912 -14.919  1.00  0.00     0.149 C 
BRANCH  35  36
HETATM   36  S1  UNL     1      23.129   8.968 -13.757  1.00  0.00     0.148 S 
HETATM   37  O2  UNL     1      24.472   8.309 -13.491  1.00  0.00    -0.228 OA
HETATM   38  O3  UNL     1      23.336  10.335 -14.289  1.00  0.00    -0.228 OA
BRANCH  36  39
HETATM   39  C4  UNL     1      22.255   9.018 -12.219  1.00  0.00     0.178 C 
BRANCH  39  40
HETATM   40  C5  UNL     1      21.946   7.645 -11.705  1.00  0.00    -0.044 A 
HETATM   41  C6  UNL     1      22.997   6.836 -11.270  1.00  0.00     0.011 A 
HETATM   42  C7  UNL     1      22.742   5.566 -10.802  1.00  0.00     0.043 A 
HETATM   43  C8  UNL     1      21.454   5.061 -10.751  1.00  0.00     0.116 A 
HETATM   44  F1  UNL     1      21.179   3.798 -10.292  1.00  0.00    -0.206 F 
HETATM   45  C9  UNL     1      20.446   5.880 -11.184  1.00  0.00     0.043 A 
HETATM   46  C10 UNL     1      20.677   7.152 -11.655  1.00  0.00     0.011 A 
ENDBRANCH  39  40
ENDBRANCH  36  39
ENDBRANCH  35  36
ENDBRANCH  34  35
ENDBRANCH  31  34
ENDBRANCH   1  30
TORSDOF 11
ENDMDL
MODEL 4
REMARK VINA RESULT: -8.703148852      1.639      2.207
REMARK  11 active torsions:
REMARK  status: ('A' for Active; 'I' for Inactive)
REMARK    1  A    between atoms: C1_2  and  C2_3 
REMARK       I    between atoms: C1_2  and  N1_16 
REMARK    2  A    between atoms: C2_3  and  C3_4 
REMARK    3  A    between atoms: C3_4  and  S1_5 
REMARK    4  A    between atoms: S1_5  and  C4_8 
REMARK    5  A    between atoms: C4_8  and  C5_9 
REMARK    6  A    between atoms: N1_16  and  C11_18 
REMARK    7  A    between atoms: C14_21  and  C15_22 
REMARK    8  A    between atoms: C15_22  and  C16_24 
REMARK    9  A    between atoms: C19_29  and  N3_30 
REMARK   10  A    between atoms: N3_30  and  S2_32 
REMARK   11  A    between atoms: S2_32  and  C20_35 
ROOT
HETATM    1  C11 UNL     1      23.730   3.344 -15.013  1.00  0.00     0.107 A 
HETATM    2  C12 UNL     1      23.518   2.554 -13.914  1.00  0.00     0.050 A 
HETATM    3  C13 UNL     1      24.514   1.752 -13.420  1.00  0.00     0.020 A 
HETATM    4  C14 UNL     1      25.757   1.729 -14.031  1.00  0.00     0.030 A 
HETATM    5  C26 UNL     1      25.956   2.534 -15.147  1.00  0.00     0.105 A 
HETATM    6  N5  UNL     1      24.977   3.300 -15.602  1.00  0.00    -0.351 N 
ATOM      7  H5  UNL     1      25.151   3.881 -16.421  1.00  0.00     0.166 HD
ENDROOT
BRANCH   4   8
HETATM    8  C15 UNL     1      26.858   0.931 -13.567  1.00  0.00     0.198 C 
HETATM    9  O4  UNL     1      28.015   1.199 -14.026  1.00  0.00    -0.286 OA
BRANCH   8  10
HETATM   10  C16 UNL     1      26.709  -0.155 -12.608  1.00  0.00     0.071 A 
HETATM   11  C17 UNL     1      25.905  -1.250 -12.975  1.00  0.00     0.106 A 
HETATM   12  N2  UNL     1      25.678  -2.279 -12.139  1.00  0.00    -0.372 N 
HETATM   13  C18 UNL     1      26.228  -2.297 -10.890  1.00  0.00     0.121 A 
ATOM     14  H2  UNL     1      25.089  -3.054 -12.443  1.00  0.00     0.164 HD
HETATM   15  C19 UNL     1      27.034  -1.231 -10.484  1.00  0.00     0.097 A 
HETATM   16  C25 UNL     1      27.254  -0.188 -11.352  1.00  0.00     0.160 A 
HETATM   17  F2  UNL     1      28.039   0.865 -10.970  1.00  0.00    -0.203 F 
BRANCH  15  18
HETATM   18  N3  UNL     1      27.626  -1.226  -9.210  1.00  0.00    -0.276 N 
ATOM     19  H3  UNL     1      27.127  -0.767  -8.447  1.00  0.00     0.179 HD
BRANCH  18  20
HETATM   20  S2  UNL     1      29.145  -1.950  -8.871  1.00  0.00     0.263 S 
HETATM   21  O5  UNL     1      29.061  -2.679  -7.545  1.00  0.00    -0.200 OA
HETATM   22  O6  UNL     1      29.502  -2.985  -9.909  1.00  0.00    -0.200 OA
BRANCH  20  23
HETATM   23  C20 UNL     1      30.458  -0.820  -8.798  1.00  0.00     0.082 A 
HETATM   24  C21 UNL     1      30.993  -0.247  -9.923  1.00  0.00     0.042 A 
HETATM   25  C22 UNL     1      32.041   0.675  -9.803  1.00  0.00     0.089 A 
HETATM   26  N4  UNL     1      32.539   1.016  -8.606  1.00  0.00    -0.375 N 
HETATM   27  C23 UNL     1      32.027   0.465  -7.495  1.00  0.00     0.089 A 
ATOM     28  H4  UNL     1      33.302   1.688  -8.541  1.00  0.00     0.164 HD
HETATM   29  C24 UNL     1      30.998  -0.444  -7.584  1.00  0.00     0.042 A 
ENDBRANCH  20  23
ENDBRANCH  18  20
ENDBRANCH  15  18
ENDBRANCH   8  10
ENDBRANCH   4   8
BRANCH   1  30
HETATM   30  N1  UNL     1      22.877   4.132 -15.509  1.00  0.00    -0.313 N 
HETATM   31  C1  UNL     1      22.470   5.380 -15.140  1.00  0.00     0.224 C 
HETATM   32  O1  UNL     1      21.224   5.653 -14.911  1.00  0.00    -0.273 OA
ATOM     33  H1  UNL     1      22.407   3.769 -16.339  1.00  0.00     0.170 HD
BRANCH  31  34
HETATM   34  C2  UNL     1      23.416   6.506 -14.975  1.00  0.00     0.118 C 
BRANCH  34  35
HETATM   35  C3  UNL     1      22.558   7.792 -14.971  1.00  0.00     0.149 C 
BRANCH  35  36
HETATM   36  S1  UNL     1      23.226   8.941 -13.791  1.00  0.00     0.148 S 
HETATM   37  O2  UNL     1      24.584   8.382 -13.397  1.00  0.00    -0.228 OA
HETATM   38  O3  UNL     1      23.388  10.299 -14.359  1.00  0.00    -0.228 OA
BRANCH  36  39
HETATM   39  C4  UNL     1      22.232   8.985 -12.328  1.00  0.00     0.178 C 
BRANCH  39  40
HETATM   40  C5  UNL     1      21.949   7.611 -11.801  1.00  0.00    -0.044 A 
HETATM   41  C6  UNL     1      20.641   7.126 -11.852  1.00  0.00     0.011 A 
HETATM   42  C7  UNL     1      20.351   5.870 -11.366  1.00  0.00     0.043 A 
HETATM   43  C8  UNL     1      21.334   5.064 -10.821  1.00  0.00     0.116 A 
HETATM   44  F1  UNL     1      21.066   3.812 -10.328  1.00  0.00    -0.206 F 
HETATM   45  C9  UNL     1      22.607   5.568 -10.787  1.00  0.00     0.043 A 
HETATM   46  C10 UNL     1      22.920   6.820 -11.266  1.00  0.00     0.011 A 
ENDBRANCH  39  40
ENDBRANCH  36  39
ENDBRANCH  35  36
ENDBRANCH  34  35
ENDBRANCH  31  34
ENDBRANCH   1  30
TORSDOF 11
ENDMDL
MODEL 5
REMARK VINA RESULT: -8.686129347      3.378      5.604
REMARK  11 active torsions:
REMARK  status: ('A' for Active; 'I' for Inactive)
REMARK    1  A    between atoms: C1_2  and  C2_3 
REMARK       I    between atoms: C1_2  and  N1_16 
REMARK    2  A    between atoms: C2_3  and  C3_4 
REMARK    3  A    between atoms: C3_4  and  S1_5 
REMARK    4  A    between atoms: S1_5  and  C4_8 
REMARK    5  A    between atoms: C4_8  and  C5_9 
REMARK    6  A    between atoms: N1_16  and  C11_18 
REMARK    7  A    between atoms: C14_21  and  C15_22 
REMARK    8  A    between atoms: C15_22  and  C16_24 
REMARK    9  A    between atoms: C19_29  and  N3_30 
REMARK   10  A    between atoms: N3_30  and  S2_32 
REMARK   11  A    between atoms: S2_32  and  C20_35 
ROOT
HETATM    1  C11 UNL     1      25.246   9.003 -16.918  1.00  0.00     0.107 A 
HETATM    2  C12 UNL     1      26.390   8.251 -16.867  1.00  0.00     0.050 A 
HETATM    3  C13 UNL     1      26.364   6.908 -17.139  1.00  0.00     0.020 A 
HETATM    4  C14 UNL     1      25.170   6.288 -17.470  1.00  0.00     0.030 A 
HETATM    5  C26 UNL     1      24.017   7.063 -17.515  1.00  0.00     0.105 A 
HETATM    6  N5  UNL     1      24.072   8.358 -17.249  1.00  0.00    -0.351 N 
ATOM      7  H5  UNL     1      23.210   8.903 -17.290  1.00  0.00     0.166 HD
ENDROOT
BRANCH   4   8
HETATM    8  C15 UNL     1      25.059   4.890 -17.785  1.00  0.00     0.198 C 
HETATM    9  O4  UNL     1      25.574   4.489 -18.878  1.00  0.00    -0.286 OA
BRANCH   8  10
HETATM   10  C16 UNL     1      24.391   3.927 -16.919  1.00  0.00     0.071 A 
HETATM   11  C17 UNL     1      23.093   3.517 -17.271  1.00  0.00     0.106 A 
HETATM   12  N2  UNL     1      22.385   2.661 -16.512  1.00  0.00    -0.372 N 
HETATM   13  C18 UNL     1      22.910   2.155 -15.358  1.00  0.00     0.121 A 
ATOM     14  H2  UNL     1      21.446   2.388 -16.802  1.00  0.00     0.164 HD
HETATM   15  C19 UNL     1      24.198   2.534 -14.971  1.00  0.00     0.097 A 
HETATM   16  C25 UNL     1      24.905   3.410 -15.760  1.00  0.00     0.160 A 
HETATM   17  F2  UNL     1      26.166   3.793 -15.395  1.00  0.00    -0.203 F 
BRANCH  15  18
HETATM   18  N3  UNL     1      24.772   2.021 -13.796  1.00  0.00    -0.276 N 
ATOM     19  H3  UNL     1      24.679   2.561 -12.936  1.00  0.00     0.179 HD
BRANCH  18  20
HETATM   20  S2  UNL     1      25.624   0.531 -13.734  1.00  0.00     0.263 S 
HETATM   21  O5  UNL     1      24.632  -0.599 -13.550  1.00  0.00    -0.200 OA
HETATM   22  O6  UNL     1      26.349   0.260 -15.028  1.00  0.00    -0.200 OA
BRANCH  20  23
HETATM   23  C20 UNL     1      26.797   0.449 -12.459  1.00  0.00     0.082 A 
HETATM   24  C21 UNL     1      26.703  -0.456 -11.435  1.00  0.00     0.042 A 
HETATM   25  C22 UNL     1      27.691  -0.490 -10.443  1.00  0.00     0.089 A 
HETATM   26  N4  UNL     1      28.736   0.348 -10.468  1.00  0.00    -0.375 N 
HETATM   27  C23 UNL     1      28.845   1.240 -11.464  1.00  0.00     0.089 A 
ATOM     28  H4  UNL     1      29.445   0.308  -9.736  1.00  0.00     0.164 HD
HETATM   29  C24 UNL     1      27.888   1.296 -12.452  1.00  0.00     0.042 A 
ENDBRANCH  20  23
ENDBRANCH  18  20
ENDBRANCH  15  18
ENDBRANCH   8  10
ENDBRANCH   4   8
BRANCH   1  30
HETATM   30  N1  UNL     1      25.191  10.247 -16.713  1.00  0.00    -0.313 N 
HETATM   31  C1  UNL     1      24.536  10.986 -15.774  1.00  0.00     0.224 C 
HETATM   32  O1  UNL     1      23.719  11.938 -16.099  1.00  0.00    -0.273 OA
ATOM     33  H1  UNL     1      25.738  10.802 -17.372  1.00  0.00     0.170 HD
BRANCH  31  34
HETATM   34  C2  UNL     1      24.709  10.755 -14.321  1.00  0.00     0.118 C 
BRANCH  34  35
HETATM   35  C3  UNL     1      23.549   9.828 -13.892  1.00  0.00     0.149 C 
BRANCH  35  36
HETATM   36  S1  UNL     1      24.216   8.300 -13.276  1.00  0.00     0.148 S 
HETATM   37  O2  UNL     1      23.597   7.206 -14.131  1.00  0.00    -0.228 OA
HETATM   38  O3  UNL     1      25.693   8.247 -13.386  1.00  0.00    -0.228 OA
BRANCH  36  39
HETATM   39  C4  UNL     1      23.699   8.019 -11.608  1.00  0.00     0.178 C 
BRANCH  39  40
HETATM   40  C5  UNL     1      22.562   7.046 -11.530  1.00  0.00    -0.044 A 
HETATM   41  C6  UNL     1      21.284   7.475 -11.890  1.00  0.00     0.011 A 
HETATM   42  C7  UNL     1      20.218   6.604 -11.820  1.00  0.00     0.043 A 
HETATM   43  C8  UNL     1      20.382   5.297 -11.395  1.00  0.00     0.116 A 
HETATM   44  F1  UNL     1      19.334   4.415 -11.314  1.00  0.00    -0.206 F 
HETATM   45  C9  UNL     1      21.649   4.907 -11.051  1.00  0.00     0.043 A 
HETATM   46  C10 UNL     1      22.728   5.760 -11.113  1.00  0.00     0.011 A 
ENDBRANCH  39  40
ENDBRANCH  36  39
ENDBRANCH  35  36
ENDBRANCH  34  35
ENDBRANCH  31  34
ENDBRANCH   1  30
TORSDOF 11
ENDMDL
