MODEL 1
REMARK VINA RESULT: -6.317673964      0.000      0.000
REMARK  7 active torsions:
REMARK  status: ('A' for Active; 'I' for Inactive)
REMARK    1  A    between atoms: C3_3  and  C4_4 
REMARK    2  A    between atoms: C4_4  and  C5_5 
REMARK    3  A    between atoms: C5_5  and  C6_6 
REMARK    4  A    between atoms: C6_6  and  C7_7 
REMARK    5  A    between atoms: C7_7  and  N1_8 
REMARK    6  A    between atoms: N2_11  and  C10_12 
REMARK    7  A    between atoms: C13_18  and  N4_19 
ROOT
HETATM    1  C1  UNL     1      18.480 -29.646 -21.569  1.00  0.00     0.012 C 
HETATM    2  C2  UNL     1      18.505 -29.296 -20.415  1.00  0.00    -0.117 C 
HETATM    3  C3  UNL     1      18.508 -28.872 -18.989  1.00  0.00     0.093 C 
ENDROOT
BRANCH   3   4
HETATM    4  C4  UNL     1      19.760 -29.454 -18.394  1.00  0.00     0.012 C 
BRANCH   4   5
HETATM    5  C5  UNL     1      20.643 -28.381 -17.859  1.00  0.00     0.002 C 
BRANCH   5   6
HETATM    6  C6  UNL     1      21.818 -28.155 -18.761  1.00  0.00     0.030 C 
BRANCH   6   7
HETATM    7  C7  UNL     1      22.138 -26.707 -18.869  1.00  0.00     0.272 C 
BRANCH   7   8
HETATM    8  N1  UNL     1      22.040 -26.180 -20.227  1.00  0.00     0.091 N 
HETATM    9  C8  UNL     1      21.664 -27.296 -21.076  1.00  0.00     0.292 C 
HETATM   10  C9  UNL     1      20.918 -26.875 -22.313  1.00  0.00     0.154 C 
HETATM   11  N2  UNL     1      19.714 -26.169 -21.942  1.00  0.00    -0.363 N 
HETATM   12  C14 UNL     1      19.680 -25.699 -20.557  1.00  0.00     0.154 C 
HETATM   13  C15 UNL     1      21.087 -25.119 -20.336  1.00  0.00     0.292 C 
BRANCH  11  14
HETATM   14  C10 UNL     1      18.681 -25.951 -22.857  1.00  0.00     0.124 A 
HETATM   15  C11 UNL     1      17.359 -26.073 -22.492  1.00  0.00     0.123 A 
HETATM   16  C12 UNL     1      16.339 -25.837 -23.417  1.00  0.00     0.263 A 
HETATM   17  O1  UNL     1      15.130 -25.947 -23.088  1.00  0.00    -0.268 OA
HETATM   18  N3  UNL     1      16.656 -25.488 -24.675  1.00  0.00    -0.156 N 
HETATM   19  C13 UNL     1      17.946 -25.365 -25.043  1.00  0.00     0.680 A 
ATOM     20  H3  UNL     1      15.916 -25.316 -25.355  1.00  0.00     0.187 HD
HETATM   21  N5  UNL     1      18.918 -25.592 -24.153  1.00  0.00    -0.177 N 
ATOM     22  H5  UNL     1      19.886 -25.491 -24.457  1.00  0.00     0.185 HD
BRANCH  19  23
HETATM   23  N4  UNL     1      18.180 -25.022 -26.270  1.00  0.00    -0.234 N 
ATOM     24  H42 UNL     1      17.505 -24.517 -26.844  1.00  0.00     0.174 HD
ATOM     25  H41 UNL     1      19.087 -25.280 -26.661  1.00  0.00     0.174 HD
ENDBRANCH  19  23
ENDBRANCH  11  14
ENDBRANCH   7   8
ENDBRANCH   6   7
ENDBRANCH   5   6
ENDBRANCH   4   5
ENDBRANCH   3   4
TORSDOF 7
ENDMDL
MODEL 2
REMARK VINA RESULT: -5.835754080      1.484      2.508
REMARK  7 active torsions:
REMARK  status: ('A' for Active; 'I' for Inactive)
REMARK    1  A    between atoms: C3_3  and  C4_4 
REMARK    2  A    between atoms: C4_4  and  C5_5 
REMARK    3  A    between atoms: C5_5  and  C6_6 
REMARK    4  A    between atoms: C6_6  and  C7_7 
REMARK    5  A    between atoms: C7_7  and  N1_8 
REMARK    6  A    between atoms: N2_11  and  C10_12 
REMARK    7  A    between atoms: C13_18  and  N4_19 
ROOT
HETATM    1  C1  UNL     1      17.916 -25.139 -18.846  1.00  0.00     0.012 C 
HETATM    2  C2  UNL     1      18.862 -24.595 -18.334  1.00  0.00    -0.117 C 
HETATM    3  C3  UNL     1      20.015 -23.920 -17.678  1.00  0.00     0.093 C 
ENDROOT
BRANCH   3   4
HETATM    4  C4  UNL     1      21.215 -24.773 -17.985  1.00  0.00     0.012 C 
BRANCH   4   5
HETATM    5  C5  UNL     1      21.284 -25.943 -17.068  1.00  0.00     0.002 C 
BRANCH   5   6
HETATM    6  C6  UNL     1      21.547 -27.207 -17.830  1.00  0.00     0.030 C 
BRANCH   6   7
HETATM    7  C7  UNL     1      22.339 -26.935 -19.058  1.00  0.00     0.272 C 
BRANCH   7   8
HETATM    8  N1  UNL     1      21.783 -27.538 -20.266  1.00  0.00     0.091 N 
HETATM    9  C8  UNL     1      20.388 -27.823 -19.979  1.00  0.00     0.292 C 
HETATM   10  C9  UNL     1      19.520 -27.835 -21.208  1.00  0.00     0.154 C 
HETATM   11  N2  UNL     1      19.588 -26.552 -21.868  1.00  0.00    -0.363 N 
HETATM   12  C14 UNL     1      20.711 -25.708 -21.456  1.00  0.00     0.154 C 
HETATM   13  C15 UNL     1      21.899 -26.685 -21.408  1.00  0.00     0.292 C 
BRANCH  11  14
HETATM   14  C10 UNL     1      18.652 -26.173 -22.833  1.00  0.00     0.124 A 
HETATM   15  C11 UNL     1      17.300 -26.200 -22.574  1.00  0.00     0.123 A 
HETATM   16  C12 UNL     1      16.379 -25.805 -23.547  1.00  0.00     0.263 A 
HETATM   17  O1  UNL     1      15.143 -25.829 -23.314  1.00  0.00    -0.268 OA
HETATM   18  N3  UNL     1      16.821 -25.396 -24.747  1.00  0.00    -0.156 N 
HETATM   19  C13 UNL     1      18.142 -25.364 -25.012  1.00  0.00     0.680 A 
ATOM     20  H3  UNL     1      16.154 -25.108 -25.462  1.00  0.00     0.187 HD
HETATM   21  N5  UNL     1      19.019 -25.743 -24.077  1.00  0.00    -0.177 N 
ATOM     22  H5  UNL     1      20.013 -25.709 -24.302  1.00  0.00     0.185 HD
BRANCH  19  23
HETATM   23  N4  UNL     1      18.499 -24.955 -26.188  1.00  0.00    -0.234 N 
ATOM     24  H42 UNL     1      18.126 -25.350 -27.051  1.00  0.00     0.174 HD
ATOM     25  H41 UNL     1      19.188 -24.203 -26.229  1.00  0.00     0.174 HD
ENDBRANCH  19  23
ENDBRANCH  11  14
ENDBRANCH   7   8
ENDBRANCH   6   7
ENDBRANCH   5   6
ENDBRANCH   4   5
ENDBRANCH   3   4
TORSDOF 7
ENDMDL
MODEL 3
REMARK VINA RESULT: -5.798262872      1.784      3.003
REMARK  7 active torsions:
REMARK  status: ('A' for Active; 'I' for Inactive)
REMARK    1  A    between atoms: C3_3  and  C4_4 
REMARK    2  A    between atoms: C4_4  and  C5_5 
REMARK    3  A    between atoms: C5_5  and  C6_6 
REMARK    4  A    between atoms: C6_6  and  C7_7 
REMARK    5  A    between atoms: C7_7  and  N1_8 
REMARK    6  A    between atoms: N2_11  and  C10_12 
REMARK    7  A    between atoms: C13_18  and  N4_19 
ROOT
HETATM    1  C1  UNL     1      26.218 -29.702 -16.772  1.00  0.00     0.012 C 
HETATM    2  C2  UNL     1      25.088 -29.979 -17.090  1.00  0.00    -0.117 C 
HETATM    3  C3  UNL     1      23.699 -30.348 -17.476  1.00  0.00     0.093 C 
ENDROOT
BRANCH   3   4
HETATM    4  C4  UNL     1      22.816 -29.284 -16.888  1.00  0.00     0.012 C 
BRANCH   4   5
HETATM    5  C5  UNL     1      21.733 -28.907 -17.837  1.00  0.00     0.002 C 
BRANCH   5   6
HETATM    6  C6  UNL     1      22.195 -27.837 -18.780  1.00  0.00     0.030 C 
BRANCH   6   7
HETATM    7  C7  UNL     1      21.685 -26.503 -18.364  1.00  0.00     0.272 C 
BRANCH   7   8
HETATM    8  N1  UNL     1      21.462 -25.583 -19.475  1.00  0.00     0.091 N 
HETATM    9  C8  UNL     1      21.720 -26.334 -20.691  1.00  0.00     0.292 C 
HETATM   10  C9  UNL     1      20.965 -25.812 -21.883  1.00  0.00     0.154 C 
HETATM   11  N2  UNL     1      19.545 -25.857 -21.621  1.00  0.00    -0.363 N 
HETATM   12  C14 UNL     1      19.185 -26.013 -20.212  1.00  0.00     0.154 C 
HETATM   13  C15 UNL     1      20.136 -25.047 -19.485  1.00  0.00     0.292 C 
BRANCH  11  14
HETATM   14  C10 UNL     1      18.607 -25.742 -22.650  1.00  0.00     0.124 A 
HETATM   15  C11 UNL     1      17.257 -25.864 -22.409  1.00  0.00     0.123 A 
HETATM   16  C12 UNL     1      16.332 -25.732 -23.448  1.00  0.00     0.263 A 
HETATM   17  O1  UNL     1      15.098 -25.843 -23.232  1.00  0.00    -0.268 OA
HETATM   18  N3  UNL     1      16.769 -25.485 -24.693  1.00  0.00    -0.156 N 
HETATM   19  C13 UNL     1      18.088 -25.362 -24.941  1.00  0.00     0.680 A 
ATOM     20  H3  UNL     1      16.099 -25.389 -25.456  1.00  0.00     0.187 HD
HETATM   21  N5  UNL     1      18.968 -25.489 -23.943  1.00  0.00    -0.177 N 
ATOM     22  H5  UNL     1      19.960 -25.391 -24.157  1.00  0.00     0.185 HD
BRANCH  19  23
HETATM   23  N4  UNL     1      18.439 -25.119 -26.164  1.00  0.00    -0.234 N 
ATOM     24  H42 UNL     1      17.934 -24.473 -26.769  1.00  0.00     0.174 HD
ATOM     25  H41 UNL     1      19.260 -25.611 -26.518  1.00  0.00     0.174 HD
ENDBRANCH  19  23
ENDBRANCH  11  14
ENDBRANCH   7   8
ENDBRANCH   6   7
ENDBRANCH   5   6
ENDBRANCH   4   5
ENDBRANCH   3   4
TORSDOF 7
ENDMDL
MODEL 4
REMARK VINA RESULT: -5.647253434      2.343      3.676
REMARK  7 active torsions:
REMARK  status: ('A' for Active; 'I' for Inactive)
REMARK    1  A    between atoms: C3_3  and  C4_4 
REMARK    2  A    between atoms: C4_4  and  C5_5 
REMARK    3  A    between atoms: C5_5  and  C6_6 
REMARK    4  A    between atoms: C6_6  and  C7_7 
REMARK    5  A    between atoms: C7_7  and  N1_8 
REMARK    6  A    between atoms: N2_11  and  C10_12 
REMARK    7  A    between atoms: C13_18  and  N4_19 
ROOT
HETATM    1  C1  UNL     1      27.039 -29.553 -15.883  1.00  0.00     0.012 C 
HETATM    2  C2  UNL     1      25.919 -29.203 -15.603  1.00  0.00    -0.117 C 
HETATM    3  C3  UNL     1      24.546 -28.746 -15.257  1.00  0.00     0.093 C 
ENDROOT
BRANCH   3   4
HETATM    4  C4  UNL     1      23.630 -29.433 -16.230  1.00  0.00     0.012 C 
BRANCH   4   5
HETATM    5  C5  UNL     1      23.601 -28.713 -17.533  1.00  0.00     0.002 C 
BRANCH   5   6
HETATM    6  C6  UNL     1      22.398 -27.824 -17.627  1.00  0.00     0.030 C 
BRANCH   6   7
HETATM    7  C7  UNL     1      22.431 -27.011 -18.872  1.00  0.00     0.272 C 
BRANCH   7   8
HETATM    8  N1  UNL     1      21.802 -27.660 -20.018  1.00  0.00     0.091 N 
HETATM    9  C8  UNL     1      20.399 -27.823 -19.683  1.00  0.00     0.292 C 
HETATM   10  C9  UNL     1      19.501 -27.863 -20.889  1.00  0.00     0.154 C 
HETATM   11  N2  UNL     1      19.642 -26.641 -21.646  1.00  0.00    -0.363 N 
HETATM   12  C14 UNL     1      20.831 -25.852 -21.323  1.00  0.00     0.154 C 
HETATM   13  C15 UNL     1      21.948 -26.905 -21.224  1.00  0.00     0.292 C 
BRANCH  11  14
HETATM   14  C10 UNL     1      18.709 -26.269 -22.617  1.00  0.00     0.124 A 
HETATM   15  C11 UNL     1      17.355 -26.342 -22.381  1.00  0.00     0.123 A 
HETATM   16  C12 UNL     1      16.438 -25.953 -23.359  1.00  0.00     0.263 A 
HETATM   17  O1  UNL     1      15.200 -26.019 -23.147  1.00  0.00    -0.268 OA
HETATM   18  N3  UNL     1      16.886 -25.504 -24.543  1.00  0.00    -0.156 N 
HETATM   19  C13 UNL     1      18.209 -25.426 -24.786  1.00  0.00     0.680 A 
ATOM     20  H3  UNL     1      16.222 -25.219 -25.262  1.00  0.00     0.187 HD
HETATM   21  N5  UNL     1      19.082 -25.800 -23.845  1.00  0.00    -0.177 N 
ATOM     22  H5  UNL     1      20.078 -25.731 -24.053  1.00  0.00     0.185 HD
BRANCH  19  23
HETATM   23  N4  UNL     1      18.572 -24.980 -25.946  1.00  0.00    -0.234 N 
ATOM     24  H42 UNL     1      19.253 -25.456 -26.537  1.00  0.00     0.174 HD
ATOM     25  H41 UNL     1      18.147 -24.108 -26.262  1.00  0.00     0.174 HD
ENDBRANCH  19  23
ENDBRANCH  11  14
ENDBRANCH   7   8
ENDBRANCH   6   7
ENDBRANCH   5   6
ENDBRANCH   4   5
ENDBRANCH   3   4
TORSDOF 7
ENDMDL
MODEL 5
REMARK VINA RESULT: -5.623367106      1.503      1.778
REMARK  7 active torsions:
REMARK  status: ('A' for Active; 'I' for Inactive)
REMARK    1  A    between atoms: C3_3  and  C4_4 
REMARK    2  A    between atoms: C4_4  and  C5_5 
REMARK    3  A    between atoms: C5_5  and  C6_6 
REMARK    4  A    between atoms: C6_6  and  C7_7 
REMARK    5  A    between atoms: C7_7  and  N1_8 
REMARK    6  A    between atoms: N2_11  and  C10_12 
REMARK    7  A    between atoms: C13_18  and  N4_19 
ROOT
HETATM    1  C1  UNL     1      18.505 -29.535 -21.561  1.00  0.00     0.012 C 
HETATM    2  C2  UNL     1      18.610 -29.137 -20.427  1.00  0.00    -0.117 C 
HETATM    3  C3  UNL     1      18.713 -28.650 -19.025  1.00  0.00     0.093 C 
ENDROOT
BRANCH   3   4
HETATM    4  C4  UNL     1      19.938 -29.308 -18.454  1.00  0.00     0.012 C 
BRANCH   4   5
HETATM    5  C5  UNL     1      20.848 -28.298 -17.845  1.00  0.00     0.002 C 
BRANCH   5   6
HETATM    6  C6  UNL     1      21.783 -27.732 -18.871  1.00  0.00     0.030 C 
BRANCH   6   7
HETATM    7  C7  UNL     1      21.903 -26.257 -18.727  1.00  0.00     0.272 C 
BRANCH   7   8
HETATM    8  N1  UNL     1      21.569 -25.516 -19.939  1.00  0.00     0.091 N 
HETATM    9  C8  UNL     1      21.109 -26.495 -20.908  1.00  0.00     0.292 C 
HETATM   10  C9  UNL     1      20.159 -25.922 -21.924  1.00  0.00     0.154 C 
HETATM   11  N2  UNL     1      19.001 -25.373 -21.257  1.00  0.00    -0.363 N 
HETATM   12  C14 UNL     1      19.169 -25.148 -19.822  1.00  0.00     0.154 C 
HETATM   13  C15 UNL     1      20.568 -24.519 -19.714  1.00  0.00     0.292 C 
BRANCH  11  14
HETATM   14  C10 UNL     1      17.828 -25.073 -21.954  1.00  0.00     0.124 A 
HETATM   15  C11 UNL     1      17.150 -26.035 -22.669  1.00  0.00     0.123 A 
HETATM   16  C12 UNL     1      15.971 -25.720 -23.348  1.00  0.00     0.263 A 
HETATM   17  O1  UNL     1      15.348 -26.596 -24.003  1.00  0.00    -0.268 OA
HETATM   18  N3  UNL     1      15.497 -24.464 -23.301  1.00  0.00    -0.156 N 
HETATM   19  C13 UNL     1      16.151 -23.515 -22.604  1.00  0.00     0.680 A 
ATOM     20  H3  UNL     1      14.637 -24.228 -23.796  1.00  0.00     0.187 HD
HETATM   21  N5  UNL     1      17.279 -23.823 -21.955  1.00  0.00    -0.177 N 
ATOM     22  H5  UNL     1      17.755 -23.086 -21.434  1.00  0.00     0.185 HD
BRANCH  19  23
HETATM   23  N4  UNL     1      15.636 -22.326 -22.597  1.00  0.00    -0.234 N 
ATOM     24  H42 UNL     1      16.199 -21.477 -22.639  1.00  0.00     0.174 HD
ATOM     25  H41 UNL     1      14.619 -22.260 -22.543  1.00  0.00     0.174 HD
ENDBRANCH  19  23
ENDBRANCH  11  14
ENDBRANCH   7   8
ENDBRANCH   6   7
ENDBRANCH   5   6
ENDBRANCH   4   5
ENDBRANCH   3   4
TORSDOF 7
ENDMDL
