MODEL 1
REMARK VINA RESULT: -6.008438605      0.000      0.000
REMARK  7 active torsions:
REMARK  status: ('A' for Active; 'I' for Inactive)
REMARK    1  A    between atoms: C2_2  and  C3_3 
REMARK    2  A    between atoms: C3_3  and  C4_4 
REMARK    3  A    between atoms: C4_4  and  N1_5 
REMARK    4  A    between atoms: N1_5  and  C5_7 
REMARK    5  A    between atoms: C6_10  and  C7_11 
REMARK    6  A    between atoms: N5_20  and  C12_22 
REMARK    7  A    between atoms: C12_22  and  C13_23 
ROOT
HETATM    1  C13 UNL     1      21.936 -27.764 -21.972  1.00  0.00     0.143 C 
HETATM    2  C14 UNL     1      20.644 -28.402 -22.030  1.00  0.00     0.060 C 
HETATM    3  N6  UNL     1      19.606 -28.928 -22.062  1.00  0.00    -0.197 NA
ENDROOT
BRANCH   1   4
HETATM    4  C12 UNL     1      21.865 -26.267 -22.247  1.00  0.00     0.135 C 
BRANCH   4   5
HETATM    5  N5  UNL     1      21.419 -25.618 -21.056  1.00  0.00    -0.375 N 
HETATM    6  C11 UNL     1      20.295 -24.943 -21.080  1.00  0.00     0.119 A 
HETATM    7  C10 UNL     1      19.816 -24.299 -19.971  1.00  0.00     0.082 A 
HETATM    8  N7  UNL     1      19.573 -24.865 -22.210  1.00  0.00    -0.177 N 
HETATM    9  C6  UNL     1      18.620 -23.591 -20.028  1.00  0.00     0.096 A 
HETATM   10  N2  UNL     1      17.921 -23.540 -21.194  1.00  0.00    -0.188 N 
HETATM   11  C5  UNL     1      18.417 -24.181 -22.262  1.00  0.00     0.680 A 
ATOM     12  H2  UNL     1      17.041 -23.026 -21.255  1.00  0.00     0.184 HD
ATOM     13  H7  UNL     1      19.910 -25.337 -23.049  1.00  0.00     0.185 HD
ATOM     14  H5  UNL     1      21.968 -25.678 -20.198  1.00  0.00     0.161 HD
BRANCH   9  15
HETATM   15  C7  UNL     1      18.116 -22.910 -18.851  1.00  0.00     0.133 A 
HETATM   16  N3  UNL     1      18.590 -23.014 -17.623  1.00  0.00    -0.349 N 
HETATM   17  C8  UNL     1      17.864 -22.227 -16.775  1.00  0.00     0.107 A 
ATOM     18  H3  UNL     1      19.381 -23.597 -17.348  1.00  0.00     0.167 HD
HETATM   19  C9  UNL     1      16.911 -21.630 -17.559  1.00  0.00     0.107 A 
HETATM   20  N4  UNL     1      17.086 -22.064 -18.820  1.00  0.00    -0.349 N 
ATOM     21  H4  UNL     1      16.522 -21.789 -19.624  1.00  0.00     0.167 HD
ENDBRANCH   9  15
BRANCH  11  22
HETATM   22  N1  UNL     1      17.738 -24.115 -23.347  1.00  0.00    -0.226 N 
ATOM     23  H1  UNL     1      17.566 -23.215 -23.794  1.00  0.00     0.177 HD
BRANCH  22  24
HETATM   24  C4  UNL     1      17.223 -25.324 -23.926  1.00  0.00     0.138 C 
BRANCH  24  25
HETATM   25  C3  UNL     1      15.753 -25.415 -23.565  1.00  0.00     0.020 C 
BRANCH  25  26
HETATM   26  C2  UNL     1      15.482 -26.881 -23.236  1.00  0.00    -0.003 C 
HETATM   27  C1  UNL     1      16.442 -27.306 -22.156  1.00  0.00     0.005 C 
ENDBRANCH  25  26
ENDBRANCH  24  25
ENDBRANCH  22  24
ENDBRANCH  11  22
ENDBRANCH   4   5
ENDBRANCH   1   4
TORSDOF 7
ENDMDL
MODEL 2
REMARK VINA RESULT: -5.978929048      1.154      1.290
REMARK  7 active torsions:
REMARK  status: ('A' for Active; 'I' for Inactive)
REMARK    1  A    between atoms: C2_2  and  C3_3 
REMARK    2  A    between atoms: C3_3  and  C4_4 
REMARK    3  A    between atoms: C4_4  and  N1_5 
REMARK    4  A    between atoms: N1_5  and  C5_7 
REMARK    5  A    between atoms: C6_10  and  C7_11 
REMARK    6  A    between atoms: N5_20  and  C12_22 
REMARK    7  A    between atoms: C12_22  and  C13_23 
ROOT
HETATM    1  C13 UNL     1      21.907 -27.287 -21.682  1.00  0.00     0.143 C 
HETATM    2  C14 UNL     1      22.234 -27.405 -20.282  1.00  0.00     0.060 C 
HETATM    3  N6  UNL     1      22.514 -27.511 -19.157  1.00  0.00    -0.197 NA
ENDROOT
BRANCH   1   4
HETATM    4  C12 UNL     1      21.424 -25.892 -22.056  1.00  0.00     0.135 C 
BRANCH   4   5
HETATM    5  N5  UNL     1      21.034 -25.221 -20.858  1.00  0.00    -0.375 N 
HETATM    6  C11 UNL     1      19.902 -24.561 -20.836  1.00  0.00     0.119 A 
HETATM    7  C10 UNL     1      19.474 -23.898 -19.718  1.00  0.00     0.082 A 
HETATM    8  N7  UNL     1      19.119 -24.517 -21.927  1.00  0.00    -0.177 N 
HETATM    9  C6  UNL     1      18.267 -23.205 -19.726  1.00  0.00     0.096 A 
HETATM   10  N2  UNL     1      17.506 -23.189 -20.854  1.00  0.00    -0.188 N 
HETATM   11  C5  UNL     1      17.953 -23.849 -21.932  1.00  0.00     0.680 A 
ATOM     12  H2  UNL     1      16.618 -22.687 -20.879  1.00  0.00     0.184 HD
ATOM     13  H7  UNL     1      19.417 -25.004 -22.773  1.00  0.00     0.185 HD
ATOM     14  H5  UNL     1      21.629 -25.255 -20.030  1.00  0.00     0.161 HD
BRANCH   9  15
HETATM   15  C7  UNL     1      17.818 -22.504 -18.540  1.00  0.00     0.133 A 
HETATM   16  N3  UNL     1      18.398 -22.521 -17.353  1.00  0.00    -0.349 N 
HETATM   17  C8  UNL     1      17.693 -21.743 -16.479  1.00  0.00     0.107 A 
ATOM     18  H3  UNL     1      19.246 -23.039 -17.123  1.00  0.00     0.167 HD
HETATM   19  C9  UNL     1      16.641 -21.244 -17.202  1.00  0.00     0.107 A 
HETATM   20  N4  UNL     1      16.740 -21.724 -18.455  1.00  0.00    -0.349 N 
ATOM     21  H4  UNL     1      16.094 -21.522 -19.218  1.00  0.00     0.167 HD
ENDBRANCH   9  15
BRANCH  11  22
HETATM   22  N1  UNL     1      17.216 -23.816 -22.981  1.00  0.00    -0.226 N 
ATOM     23  H1  UNL     1      17.497 -23.263 -23.791  1.00  0.00     0.177 HD
BRANCH  22  24
HETATM   24  C4  UNL     1      15.992 -24.566 -23.000  1.00  0.00     0.138 C 
BRANCH  24  25
HETATM   25  C3  UNL     1      16.239 -25.824 -23.810  1.00  0.00     0.020 C 
BRANCH  25  26
HETATM   26  C2  UNL     1      15.766 -26.990 -22.945  1.00  0.00    -0.003 C 
HETATM   27  C1  UNL     1      16.943 -27.495 -22.153  1.00  0.00     0.005 C 
ENDBRANCH  25  26
ENDBRANCH  24  25
ENDBRANCH  22  24
ENDBRANCH  11  22
ENDBRANCH   4   5
ENDBRANCH   1   4
TORSDOF 7
ENDMDL
MODEL 3
REMARK VINA RESULT: -5.888627523      1.060      1.440
REMARK  7 active torsions:
REMARK  status: ('A' for Active; 'I' for Inactive)
REMARK    1  A    between atoms: C2_2  and  C3_3 
REMARK    2  A    between atoms: C3_3  and  C4_4 
REMARK    3  A    between atoms: C4_4  and  N1_5 
REMARK    4  A    between atoms: N1_5  and  C5_7 
REMARK    5  A    between atoms: C6_10  and  C7_11 
REMARK    6  A    between atoms: N5_20  and  C12_22 
REMARK    7  A    between atoms: C12_22  and  C13_23 
ROOT
HETATM    1  C13 UNL     1      21.614 -26.791 -21.002  1.00  0.00     0.143 C 
HETATM    2  C14 UNL     1      20.989 -27.747 -21.883  1.00  0.00     0.060 C 
HETATM    3  N6  UNL     1      20.480 -28.529 -22.579  1.00  0.00    -0.197 NA
ENDROOT
BRANCH   1   4
HETATM    4  C12 UNL     1      21.356 -25.349 -21.423  1.00  0.00     0.135 C 
BRANCH   4   5
HETATM    5  N5  UNL     1      20.846 -24.642 -20.293  1.00  0.00    -0.375 N 
HETATM    6  C11 UNL     1      19.676 -24.058 -20.381  1.00  0.00     0.119 A 
HETATM    7  C10 UNL     1      19.133 -23.365 -19.333  1.00  0.00     0.082 A 
HETATM    8  N7  UNL     1      18.966 -24.126 -21.520  1.00  0.00    -0.177 N 
HETATM    9  C6  UNL     1      17.888 -22.756 -19.457  1.00  0.00     0.096 A 
HETATM   10  N2  UNL     1      17.205 -22.851 -20.630  1.00  0.00    -0.188 N 
HETATM   11  C5  UNL     1      17.764 -23.538 -21.638  1.00  0.00     0.680 A 
ATOM     12  H2  UNL     1      16.291 -22.412 -20.740  1.00  0.00     0.184 HD
ATOM     13  H7  UNL     1      19.350 -24.637 -22.315  1.00  0.00     0.185 HD
ATOM     14  H5  UNL     1      21.385 -24.591 -19.428  1.00  0.00     0.161 HD
BRANCH   9  15
HETATM   15  C7  UNL     1      17.318 -22.023 -18.345  1.00  0.00     0.133 A 
HETATM   16  N3  UNL     1      16.251 -21.246 -18.383  1.00  0.00    -0.349 N 
HETATM   17  C8  UNL     1      16.011 -20.722 -17.144  1.00  0.00     0.107 A 
ATOM     18  H3  UNL     1      15.690 -21.063 -19.215  1.00  0.00     0.167 HD
HETATM   19  C9  UNL     1      16.999 -21.226 -16.338  1.00  0.00     0.107 A 
HETATM   20  N4  UNL     1      17.782 -22.016 -17.094  1.00  0.00    -0.349 N 
ATOM     21  H4  UNL     1      18.600 -22.528 -16.764  1.00  0.00     0.167 HD
ENDBRANCH   9  15
BRANCH  11  22
HETATM   22  N1  UNL     1      17.098 -23.610 -22.731  1.00  0.00    -0.226 N 
ATOM     23  H1  UNL     1      17.375 -23.057 -23.542  1.00  0.00     0.177 HD
BRANCH  22  24
HETATM   24  C4  UNL     1      15.957 -24.480 -22.800  1.00  0.00     0.138 C 
BRANCH  24  25
HETATM   25  C3  UNL     1      16.311 -25.627 -23.727  1.00  0.00     0.020 C 
BRANCH  25  26
HETATM   26  C2  UNL     1      15.847 -26.902 -23.028  1.00  0.00    -0.003 C 
HETATM   27  C1  UNL     1      16.955 -27.371 -22.122  1.00  0.00     0.005 C 
ENDBRANCH  25  26
ENDBRANCH  24  25
ENDBRANCH  22  24
ENDBRANCH  11  22
ENDBRANCH   4   5
ENDBRANCH   1   4
TORSDOF 7
ENDMDL
MODEL 4
REMARK VINA RESULT: -5.852845744      1.679      5.647
REMARK  7 active torsions:
REMARK  status: ('A' for Active; 'I' for Inactive)
REMARK    1  A    between atoms: C2_2  and  C3_3 
REMARK    2  A    between atoms: C3_3  and  C4_4 
REMARK    3  A    between atoms: C4_4  and  N1_5 
REMARK    4  A    between atoms: N1_5  and  C5_7 
REMARK    5  A    between atoms: C6_10  and  C7_11 
REMARK    6  A    between atoms: N5_20  and  C12_22 
REMARK    7  A    between atoms: C12_22  and  C13_23 
ROOT
HETATM    1  C13 UNL     1      19.184 -21.998 -15.588  1.00  0.00     0.143 C 
HETATM    2  C14 UNL     1      20.464 -21.462 -15.981  1.00  0.00     0.060 C 
HETATM    3  N6  UNL     1      21.505 -21.035 -16.281  1.00  0.00    -0.197 NA
ENDROOT
BRANCH   1   4
HETATM    4  C12 UNL     1      18.460 -22.689 -16.737  1.00  0.00     0.135 C 
BRANCH   4   5
HETATM    5  N5  UNL     1      19.372 -23.595 -17.357  1.00  0.00    -0.375 N 
HETATM    6  C11 UNL     1      19.341 -23.741 -18.659  1.00  0.00     0.119 A 
HETATM    7  C10 UNL     1      20.190 -24.594 -19.311  1.00  0.00     0.082 A 
HETATM    8  N7  UNL     1      18.463 -23.045 -19.400  1.00  0.00    -0.177 N 
HETATM    9  C6  UNL     1      20.133 -24.726 -20.695  1.00  0.00     0.096 A 
HETATM   10  N2  UNL     1      19.227 -24.002 -21.405  1.00  0.00    -0.188 N 
HETATM   11  C5  UNL     1      18.410 -23.174 -20.737  1.00  0.00     0.680 A 
ATOM     12  H2  UNL     1      19.170 -24.085 -22.420  1.00  0.00     0.184 HD
ATOM     13  H7  UNL     1      17.820 -22.403 -18.936  1.00  0.00     0.185 HD
ATOM     14  H5  UNL     1      20.040 -24.123 -16.793  1.00  0.00     0.161 HD
BRANCH   9  15
HETATM   15  C7  UNL     1      21.034 -25.631 -21.381  1.00  0.00     0.133 A 
HETATM   16  N3  UNL     1      21.369 -25.585 -22.657  1.00  0.00    -0.349 N 
HETATM   17  C8  UNL     1      22.239 -26.598 -22.947  1.00  0.00     0.107 A 
ATOM     18  H3  UNL     1      21.029 -24.895 -23.327  1.00  0.00     0.167 HD
HETATM   19  C9  UNL     1      22.418 -27.273 -21.768  1.00  0.00     0.107 A 
HETATM   20  N4  UNL     1      21.673 -26.664 -20.829  1.00  0.00    -0.349 N 
ATOM     21  H4  UNL     1      21.607 -26.947 -19.852  1.00  0.00     0.167 HD
ENDBRANCH   9  15
BRANCH  11  22
HETATM   22  N1  UNL     1      17.566 -22.505 -21.431  1.00  0.00    -0.226 N 
ATOM     23  H1  UNL     1      17.560 -21.485 -21.395  1.00  0.00     0.177 HD
BRANCH  22  24
HETATM   24  C4  UNL     1      16.629 -23.208 -22.263  1.00  0.00     0.138 C 
BRANCH  24  25
HETATM   25  C3  UNL     1      15.521 -23.726 -21.366  1.00  0.00     0.020 C 
BRANCH  25  26
HETATM   26  C2  UNL     1      15.471 -25.237 -21.576  1.00  0.00    -0.003 C 
HETATM   27  C1  UNL     1      15.461 -25.506 -23.058  1.00  0.00     0.005 C 
ENDBRANCH  25  26
ENDBRANCH  24  25
ENDBRANCH  22  24
ENDBRANCH  11  22
ENDBRANCH   4   5
ENDBRANCH   1   4
TORSDOF 7
ENDMDL
MODEL 5
REMARK VINA RESULT: -5.813897104      1.975      2.508
REMARK  7 active torsions:
REMARK  status: ('A' for Active; 'I' for Inactive)
REMARK    1  A    between atoms: C2_2  and  C3_3 
REMARK    2  A    between atoms: C3_3  and  C4_4 
REMARK    3  A    between atoms: C4_4  and  N1_5 
REMARK    4  A    between atoms: N1_5  and  C5_7 
REMARK    5  A    between atoms: C6_10  and  C7_11 
REMARK    6  A    between atoms: N5_20  and  C12_22 
REMARK    7  A    between atoms: C12_22  and  C13_23 
ROOT
HETATM    1  C13 UNL     1      21.021 -26.589 -23.462  1.00  0.00     0.143 C 
HETATM    2  C14 UNL     1      22.222 -26.812 -22.696  1.00  0.00     0.060 C 
HETATM    3  N6  UNL     1      23.202 -26.979 -22.090  1.00  0.00    -0.197 NA
ENDROOT
BRANCH   1   4
HETATM    4  C12 UNL     1      19.778 -26.482 -22.587  1.00  0.00     0.135 C 
BRANCH   4   5
HETATM    5  N5  UNL     1      20.179 -25.998 -21.305  1.00  0.00    -0.375 N 
HETATM    6  C11 UNL     1      19.723 -24.842 -20.888  1.00  0.00     0.119 A 
HETATM    7  C10 UNL     1      20.071 -24.325 -19.670  1.00  0.00     0.082 A 
HETATM    8  N7  UNL     1      18.889 -24.123 -21.657  1.00  0.00    -0.177 N 
HETATM    9  C6  UNL     1      19.570 -23.095 -19.255  1.00  0.00     0.096 A 
HETATM   10  N2  UNL     1      18.728 -22.401 -20.068  1.00  0.00    -0.188 N 
HETATM   11  C5  UNL     1      18.406 -22.935 -21.255  1.00  0.00     0.680 A 
ATOM     12  H2  UNL     1      18.350 -21.498 -19.781  1.00  0.00     0.184 HD
ATOM     13  H7  UNL     1      18.616 -24.488 -22.570  1.00  0.00     0.185 HD
ATOM     14  H5  UNL     1      20.813 -26.545 -20.721  1.00  0.00     0.161 HD
BRANCH   9  15
HETATM   15  C7  UNL     1      19.942 -22.551 -17.964  1.00  0.00     0.133 A 
HETATM   16  N3  UNL     1      19.170 -22.471 -16.896  1.00  0.00    -0.349 N 
HETATM   17  C8  UNL     1      19.859 -21.902 -15.864  1.00  0.00     0.107 A 
ATOM     18  H3  UNL     1      18.201 -22.788 -16.849  1.00  0.00     0.167 HD
HETATM   19  C9  UNL     1      21.108 -21.635 -16.363  1.00  0.00     0.107 A 
HETATM   20  N4  UNL     1      21.132 -22.040 -17.645  1.00  0.00    -0.349 N 
ATOM     21  H4  UNL     1      21.932 -21.968 -18.273  1.00  0.00     0.167 HD
ENDBRANCH   9  15
BRANCH  11  22
HETATM   22  N1  UNL     1      17.611 -22.260 -22.000  1.00  0.00    -0.226 N 
ATOM     23  H1  UNL     1      17.847 -21.307 -22.276  1.00  0.00     0.177 HD
BRANCH  22  24
HETATM   24  C4  UNL     1      16.384 -22.862 -22.442  1.00  0.00     0.138 C 
BRANCH  24  25
HETATM   25  C3  UNL     1      15.450 -22.928 -21.249  1.00  0.00     0.020 C 
BRANCH  25  26
HETATM   26  C2  UNL     1      15.089 -24.401 -21.068  1.00  0.00    -0.003 C 
HETATM   27  C1  UNL     1      15.433 -25.128 -22.342  1.00  0.00     0.005 C 
ENDBRANCH  25  26
ENDBRANCH  24  25
ENDBRANCH  22  24
ENDBRANCH  11  22
ENDBRANCH   4   5
ENDBRANCH   1   4
TORSDOF 7
ENDMDL
