MODEL 1
REMARK VINA RESULT: -6.802633120      0.000      0.000
REMARK  10 active torsions:
REMARK  status: ('A' for Active; 'I' for Inactive)
REMARK    1  A    between atoms: C4_4  and  O1_5 
REMARK    2  A    between atoms: O1_5  and  C5_6 
REMARK    3  A    between atoms: C9_10  and  O2_12 
REMARK    4  A    between atoms: C11_14  and  C12_15 
REMARK    5  A    between atoms: C17_20  and  O3_21 
REMARK    6  A    between atoms: C17_20  and  C18_23 
REMARK    7  A    between atoms: C19_24  and  C20_25 
REMARK    8  A    between atoms: C20_25  and  C21_26 
REMARK    9  A    between atoms: C21_26  and  C22_27 
REMARK   10  A    between atoms: C22_27  and  C23_28 
ROOT
HETATM    1  C23 UNL     1       9.180 155.255  34.809  1.00  0.00     0.124 C 
HETATM    2  C24 UNL     1      10.060 155.212  35.990  1.00  0.00     0.059 C 
HETATM    3  N1  UNL     1      10.756 155.186  36.907  1.00  0.00    -0.197 NA
ENDROOT
BRANCH   1   4
HETATM    4  C22 UNL     1       8.799 153.866  34.366  1.00  0.00     0.015 C 
BRANCH   4   5
HETATM    5  C21 UNL     1       7.302 153.628  34.514  1.00  0.00     0.013 C 
BRANCH   5   6
HETATM    6  C20 UNL     1       6.824 152.836  33.342  1.00  0.00     0.094 C 
BRANCH   6   7
HETATM    7  C19 UNL     1       5.408 152.537  33.550  1.00  0.00    -0.103 C 
HETATM    8  C18 UNL     1       4.238 152.296  33.741  1.00  0.00    -0.067 C 
BRANCH   8   9
HETATM    9  C17 UNL     1       2.795 151.975  33.966  1.00  0.00     0.131 C 
HETATM   10  C2  UNL     1       2.524 152.412  35.366  1.00  0.00     0.031 C 
HETATM   11  C1  UNL     1       3.290 153.685  35.701  1.00  0.00     0.014 C 
HETATM   12  C3  UNL     1       1.064 152.501  35.746  1.00  0.00     0.043 C 
HETATM   13  C4  UNL     1       0.172 152.192  34.520  1.00  0.00     0.157 C 
HETATM   14  C9  UNL     1       0.651 153.041  33.365  1.00  0.00     0.088 C 
HETATM   15  C10 UNL     1      -0.462 153.290  32.447  1.00  0.00     0.049 C 
HETATM   16  C11 UNL     1       1.999 152.708  32.901  1.00  0.00     0.073 C 
BRANCH  13  17
HETATM   17  O1  UNL     1      -1.105 152.291  34.725  1.00  0.00    -0.373 OA
BRANCH  17  18
HETATM   18  C5  UNL     1      -1.994 151.378  35.028  1.00  0.00     0.051 C 
HETATM   19  C6  UNL     1      -1.524 150.031  34.523  1.00  0.00     0.045 C 
HETATM   20  C7  UNL     1      -3.361 151.564  34.336  1.00  0.00     0.045 C 
HETATM   21  C8  UNL     1      -2.296 151.149  36.494  1.00  0.00     0.045 C 
ENDBRANCH  17  18
ENDBRANCH  13  17
BRANCH  14  22
HETATM   22  O2  UNL     1       0.783 154.319  34.042  1.00  0.00    -0.387 OA
ATOM     23  H2  UNL     1       0.170 154.185  34.755  1.00  0.00     0.210 HD
ENDBRANCH  14  22
BRANCH  16  24
HETATM   24  C12 UNL     1       2.284 152.087  31.594  1.00  0.00    -0.004 C 
HETATM   25  C13 UNL     1       2.344 152.991  30.405  1.00  0.00     0.005 C 
HETATM   26  C14 UNL     1       1.584 152.342  29.274  1.00  0.00     0.000 C 
HETATM   27  C15 UNL     1       1.195 150.974  29.723  1.00  0.00     0.000 C 
HETATM   28  C16 UNL     1       1.458 150.892  31.220  1.00  0.00     0.005 C 
ENDBRANCH  16  24
BRANCH   9  29
HETATM   29  O3  UNL     1       2.748 150.588  33.829  1.00  0.00    -0.377 OA
ATOM     30  H3  UNL     1       3.590 150.182  34.000  1.00  0.00     0.211 HD
ENDBRANCH   9  29
ENDBRANCH   8   9
ENDBRANCH   6   7
ENDBRANCH   5   6
ENDBRANCH   4   5
ENDBRANCH   1   4
TORSDOF 10
ENDMDL
MODEL 2
REMARK VINA RESULT: -6.679838534      1.298      1.636
REMARK  10 active torsions:
REMARK  status: ('A' for Active; 'I' for Inactive)
REMARK    1  A    between atoms: C4_4  and  O1_5 
REMARK    2  A    between atoms: O1_5  and  C5_6 
REMARK    3  A    between atoms: C9_10  and  O2_12 
REMARK    4  A    between atoms: C11_14  and  C12_15 
REMARK    5  A    between atoms: C17_20  and  O3_21 
REMARK    6  A    between atoms: C17_20  and  C18_23 
REMARK    7  A    between atoms: C19_24  and  C20_25 
REMARK    8  A    between atoms: C20_25  and  C21_26 
REMARK    9  A    between atoms: C21_26  and  C22_27 
REMARK   10  A    between atoms: C22_27  and  C23_28 
ROOT
HETATM    1  C23 UNL     1       9.154 154.087  33.990  1.00  0.00     0.124 C 
HETATM    2  C24 UNL     1       9.819 152.870  33.492  1.00  0.00     0.059 C 
HETATM    3  N1  UNL     1      10.333 151.920  33.091  1.00  0.00    -0.197 NA
ENDROOT
BRANCH   1   4
HETATM    4  C22 UNL     1       8.412 153.812  35.272  1.00  0.00     0.015 C 
BRANCH   4   5
HETATM    5  C21 UNL     1       7.196 152.929  35.030  1.00  0.00     0.013 C 
BRANCH   5   6
HETATM    6  C20 UNL     1       6.344 153.561  33.979  1.00  0.00     0.094 C 
BRANCH   6   7
HETATM    7  C19 UNL     1       5.017 152.952  34.052  1.00  0.00    -0.103 C 
HETATM    8  C18 UNL     1       3.910 152.466  34.117  1.00  0.00    -0.067 C 
BRANCH   8   9
HETATM    9  C17 UNL     1       2.553 151.845  34.211  1.00  0.00     0.131 C 
HETATM   10  C2  UNL     1       2.117 152.102  35.614  1.00  0.00     0.031 C 
HETATM   11  C1  UNL     1       2.585 153.470  36.093  1.00  0.00     0.014 C 
HETATM   12  C3  UNL     1       0.650 151.864  35.891  1.00  0.00     0.043 C 
HETATM   13  C4  UNL     1      -0.086 151.487  34.584  1.00  0.00     0.157 C 
HETATM   14  C9  UNL     1       0.275 152.506  33.529  1.00  0.00     0.088 C 
HETATM   15  C10 UNL     1      -0.810 152.603  32.550  1.00  0.00     0.049 C 
HETATM   16  C11 UNL     1       1.687 152.490  33.143  1.00  0.00     0.073 C 
BRANCH  13  17
HETATM   17  O1  UNL     1      -1.366 151.310  34.699  1.00  0.00    -0.373 OA
BRANCH  17  18
HETATM   18  C5  UNL     1      -2.068 150.213  34.831  1.00  0.00     0.051 C 
HETATM   19  C6  UNL     1      -2.651 150.152  36.226  1.00  0.00     0.045 C 
HETATM   20  C7  UNL     1      -1.245 148.911  34.728  1.00  0.00     0.045 C 
HETATM   21  C8  UNL     1      -3.260 150.026  33.915  1.00  0.00     0.045 C 
ENDBRANCH  17  18
ENDBRANCH  13  17
BRANCH  14  22
HETATM   22  O2  UNL     1       0.102 153.725  34.300  1.00  0.00    -0.387 OA
ATOM     23  H2  UNL     1      -0.175 153.351  35.129  1.00  0.00     0.210 HD
ENDBRANCH  14  22
BRANCH  16  24
HETATM   24  C12 UNL     1       2.169 152.049  31.821  1.00  0.00    -0.004 C 
HETATM   25  C13 UNL     1       2.219 153.074  30.734  1.00  0.00     0.005 C 
HETATM   26  C14 UNL     1       1.657 152.460  29.475  1.00  0.00     0.000 C 
HETATM   27  C15 UNL     1       1.411 151.016  29.752  1.00  0.00     0.000 C 
HETATM   28  C16 UNL     1       1.545 150.809  31.254  1.00  0.00     0.005 C 
ENDBRANCH  16  24
BRANCH   9  29
HETATM   29  O3  UNL     1       2.800 150.493  33.975  1.00  0.00    -0.377 OA
ATOM     30  H3  UNL     1       1.998 149.992  33.889  1.00  0.00     0.211 HD
ENDBRANCH   9  29
ENDBRANCH   8   9
ENDBRANCH   6   7
ENDBRANCH   5   6
ENDBRANCH   4   5
ENDBRANCH   1   4
TORSDOF 10
ENDMDL
MODEL 3
REMARK VINA RESULT: -6.643748852      0.917      1.012
REMARK  10 active torsions:
REMARK  status: ('A' for Active; 'I' for Inactive)
REMARK    1  A    between atoms: C4_4  and  O1_5 
REMARK    2  A    between atoms: O1_5  and  C5_6 
REMARK    3  A    between atoms: C9_10  and  O2_12 
REMARK    4  A    between atoms: C11_14  and  C12_15 
REMARK    5  A    between atoms: C17_20  and  O3_21 
REMARK    6  A    between atoms: C17_20  and  C18_23 
REMARK    7  A    between atoms: C19_24  and  C20_25 
REMARK    8  A    between atoms: C20_25  and  C21_26 
REMARK    9  A    between atoms: C21_26  and  C22_27 
REMARK   10  A    between atoms: C22_27  and  C23_28 
ROOT
HETATM    1  C23 UNL     1       8.768 153.995  34.751  1.00  0.00     0.124 C 
HETATM    2  C24 UNL     1      10.027 154.742  34.591  1.00  0.00     0.059 C 
HETATM    3  N1  UNL     1      11.005 155.338  34.465  1.00  0.00    -0.197 NA
ENDROOT
BRANCH   1   4
HETATM    4  C22 UNL     1       8.681 152.862  33.763  1.00  0.00     0.015 C 
BRANCH   4   5
HETATM    5  C21 UNL     1       7.249 152.642  33.296  1.00  0.00     0.013 C 
BRANCH   5   6
HETATM    6  C20 UNL     1       6.351 153.570  34.046  1.00  0.00     0.094 C 
BRANCH   6   7
HETATM    7  C19 UNL     1       5.020 152.968  34.091  1.00  0.00    -0.103 C 
HETATM    8  C18 UNL     1       3.912 152.482  34.143  1.00  0.00    -0.067 C 
BRANCH   8   9
HETATM    9  C17 UNL     1       2.555 151.859  34.206  1.00  0.00     0.131 C 
HETATM   10  C2  UNL     1       2.100 152.087  35.609  1.00  0.00     0.031 C 
HETATM   11  C1  UNL     1       2.560 153.445  36.121  1.00  0.00     0.014 C 
HETATM   12  C3  UNL     1       0.630 151.843  35.861  1.00  0.00     0.043 C 
HETATM   13  C4  UNL     1      -0.089 151.491  34.538  1.00  0.00     0.157 C 
HETATM   14  C9  UNL     1       0.285 152.532  33.509  1.00  0.00     0.088 C 
HETATM   15  C10 UNL     1      -0.788 152.648  32.518  1.00  0.00     0.049 C 
HETATM   16  C11 UNL     1       1.702 152.524  33.141  1.00  0.00     0.073 C 
BRANCH  13  17
HETATM   17  O1  UNL     1      -1.370 151.311  34.634  1.00  0.00    -0.373 OA
BRANCH  17  18
HETATM   18  C5  UNL     1      -2.073 150.211  34.733  1.00  0.00     0.051 C 
HETATM   19  C6  UNL     1      -1.311 149.068  34.097  1.00  0.00     0.045 C 
HETATM   20  C7  UNL     1      -3.405 150.232  33.955  1.00  0.00     0.045 C 
HETATM   21  C8  UNL     1      -2.410 149.714  36.123  1.00  0.00     0.045 C 
ENDBRANCH  17  18
ENDBRANCH  13  17
BRANCH  14  22
HETATM   22  O2  UNL     1       0.100 153.735  34.302  1.00  0.00    -0.387 OA
ATOM     23  H2  UNL     1       0.895 154.201  34.071  1.00  0.00     0.210 HD
ENDBRANCH  14  22
BRANCH  16  24
HETATM   24  C12 UNL     1       2.201 152.111  31.817  1.00  0.00    -0.004 C 
HETATM   25  C13 UNL     1       2.243 153.152  30.745  1.00  0.00     0.005 C 
HETATM   26  C14 UNL     1       1.701 152.548  29.472  1.00  0.00     0.000 C 
HETATM   27  C15 UNL     1       1.476 151.096  29.727  1.00  0.00     0.000 C 
HETATM   28  C16 UNL     1       1.602 150.869  31.226  1.00  0.00     0.005 C 
ENDBRANCH  16  24
BRANCH   9  29
HETATM   29  O3  UNL     1       2.806 150.512  33.947  1.00  0.00    -0.377 OA
ATOM     30  H3  UNL     1       2.012 149.990  33.963  1.00  0.00     0.211 HD
ENDBRANCH   9  29
ENDBRANCH   8   9
ENDBRANCH   6   7
ENDBRANCH   5   6
ENDBRANCH   4   5
ENDBRANCH   1   4
TORSDOF 10
ENDMDL
MODEL 4
REMARK VINA RESULT: -6.230846062      1.662      4.012
REMARK  10 active torsions:
REMARK  status: ('A' for Active; 'I' for Inactive)
REMARK    1  A    between atoms: C4_4  and  O1_5 
REMARK    2  A    between atoms: O1_5  and  C5_6 
REMARK    3  A    between atoms: C9_10  and  O2_12 
REMARK    4  A    between atoms: C11_14  and  C12_15 
REMARK    5  A    between atoms: C17_20  and  O3_21 
REMARK    6  A    between atoms: C17_20  and  C18_23 
REMARK    7  A    between atoms: C19_24  and  C20_25 
REMARK    8  A    between atoms: C20_25  and  C21_26 
REMARK    9  A    between atoms: C21_26  and  C22_27 
REMARK   10  A    between atoms: C22_27  and  C23_28 
ROOT
HETATM    1  C23 UNL     1       9.700 155.480  34.818  1.00  0.00     0.124 C 
HETATM    2  C24 UNL     1      11.028 154.995  34.403  1.00  0.00     0.059 C 
HETATM    3  N1  UNL     1      12.064 154.621  34.066  1.00  0.00    -0.197 NA
ENDROOT
BRANCH   1   4
HETATM    4  C22 UNL     1       8.891 154.375  35.444  1.00  0.00     0.015 C 
BRANCH   4   5
HETATM    5  C21 UNL     1       7.756 153.934  34.531  1.00  0.00     0.013 C 
BRANCH   5   6
HETATM    6  C20 UNL     1       7.001 152.832  35.200  1.00  0.00     0.094 C 
BRANCH   6   7
HETATM    7  C19 UNL     1       5.620 152.880  34.724  1.00  0.00    -0.103 C 
HETATM    8  C18 UNL     1       4.476 152.899  34.331  1.00  0.00    -0.067 C 
BRANCH   8   9
HETATM    9  C17 UNL     1       3.069 152.940  33.826  1.00  0.00     0.131 C 
HETATM   10  C2  UNL     1       3.131 152.298  32.481  1.00  0.00     0.031 C 
HETATM   11  C1  UNL     1       4.125 151.144  32.469  1.00  0.00     0.014 C 
HETATM   12  C3  UNL     1       1.797 151.917  31.882  1.00  0.00     0.043 C 
HETATM   13  C4  UNL     1       0.657 152.212  32.884  1.00  0.00     0.157 C 
HETATM   14  C9  UNL     1       1.031 151.603  34.215  1.00  0.00     0.088 C 
HETATM   15  C10 UNL     1      -0.186 151.279  34.964  1.00  0.00     0.049 C 
HETATM   16  C11 UNL     1       2.204 152.214  34.842  1.00  0.00     0.073 C 
BRANCH  13  17
HETATM   17  O1  UNL     1      -0.531 151.874  32.488  1.00  0.00    -0.373 OA
BRANCH  17  18
HETATM   18  C5  UNL     1      -1.474 152.579  31.917  1.00  0.00     0.051 C 
HETATM   19  C6  UNL     1      -1.498 152.280  30.433  1.00  0.00     0.045 C 
HETATM   20  C7  UNL     1      -1.254 154.106  31.973  1.00  0.00     0.045 C 
HETATM   21  C8  UNL     1      -2.900 152.347  32.372  1.00  0.00     0.045 C 
ENDBRANCH  17  18
ENDBRANCH  13  17
BRANCH  14  22
HETATM   22  O2  UNL     1       1.473 150.294  33.767  1.00  0.00    -0.387 OA
ATOM     23  H2  UNL     1       1.052 149.751  34.423  1.00  0.00     0.210 HD
ENDBRANCH  14  22
BRANCH  16  24
HETATM   24  C12 UNL     1       2.145 153.027  36.071  1.00  0.00    -0.004 C 
HETATM   25  C13 UNL     1       2.500 152.351  37.356  1.00  0.00     0.005 C 
HETATM   26  C14 UNL     1       1.484 152.747  38.400  1.00  0.00     0.000 C 
HETATM   27  C15 UNL     1       0.603 153.786  37.794  1.00  0.00     0.000 C 
HETATM   28  C16 UNL     1       0.890 153.816  36.300  1.00  0.00     0.005 C 
ENDBRANCH  16  24
BRANCH   9  29
HETATM   29  O3  UNL     1       2.794 154.304  33.746  1.00  0.00    -0.377 OA
ATOM     30  H3  UNL     1       3.395 154.758  33.167  1.00  0.00     0.211 HD
ENDBRANCH   9  29
ENDBRANCH   8   9
ENDBRANCH   6   7
ENDBRANCH   5   6
ENDBRANCH   4   5
ENDBRANCH   1   4
TORSDOF 10
ENDMDL
MODEL 5
REMARK VINA RESULT: -6.119545052      1.657      3.947
REMARK  10 active torsions:
REMARK  status: ('A' for Active; 'I' for Inactive)
REMARK    1  A    between atoms: C4_4  and  O1_5 
REMARK    2  A    between atoms: O1_5  and  C5_6 
REMARK    3  A    between atoms: C9_10  and  O2_12 
REMARK    4  A    between atoms: C11_14  and  C12_15 
REMARK    5  A    between atoms: C17_20  and  O3_21 
REMARK    6  A    between atoms: C17_20  and  C18_23 
REMARK    7  A    between atoms: C19_24  and  C20_25 
REMARK    8  A    between atoms: C20_25  and  C21_26 
REMARK    9  A    between atoms: C21_26  and  C22_27 
REMARK   10  A    between atoms: C22_27  and  C23_28 
ROOT
HETATM    1  C23 UNL     1       8.974 154.341  34.731  1.00  0.00     0.124 C 
HETATM    2  C24 UNL     1      10.328 154.906  34.598  1.00  0.00     0.059 C 
HETATM    3  N1  UNL     1      11.381 155.359  34.492  1.00  0.00    -0.197 NA
ENDROOT
BRANCH   1   4
HETATM    4  C22 UNL     1       8.798 153.140  33.839  1.00  0.00     0.015 C 
BRANCH   4   5
HETATM    5  C21 UNL     1       7.326 152.861  33.568  1.00  0.00     0.013 C 
BRANCH   5   6
HETATM    6  C20 UNL     1       6.504 153.611  34.564  1.00  0.00     0.094 C 
BRANCH   6   7
HETATM    7  C19 UNL     1       5.097 153.313  34.301  1.00  0.00    -0.103 C 
HETATM    8  C18 UNL     1       3.931 153.058  34.102  1.00  0.00    -0.067 C 
BRANCH   8   9
HETATM    9  C17 UNL     1       2.497 152.733  33.832  1.00  0.00     0.131 C 
HETATM   10  C2  UNL     1       2.522 151.922  32.580  1.00  0.00     0.031 C 
HETATM   11  C1  UNL     1       3.740 151.007  32.543  1.00  0.00     0.014 C 
HETATM   12  C3  UNL     1       1.241 151.189  32.256  1.00  0.00     0.043 C 
HETATM   13  C4  UNL     1       0.207 151.393  33.388  1.00  0.00     0.157 C 
HETATM   14  C9  UNL     1       0.883 151.081  34.703  1.00  0.00     0.088 C 
HETATM   15  C10 UNL     1      -0.118 150.631  35.673  1.00  0.00     0.049 C 
HETATM   16  C11 UNL     1       1.961 152.007  35.053  1.00  0.00     0.073 C 
BRANCH  13  17
HETATM   17  O1  UNL     1      -0.916 150.762  33.234  1.00  0.00    -0.373 OA
BRANCH  17  18
HETATM   18  C5  UNL     1      -2.068 151.171  32.765  1.00  0.00     0.051 C 
HETATM   19  C6  UNL     1      -2.247 152.640  33.084  1.00  0.00     0.045 C 
HETATM   20  C7  UNL     1      -3.297 150.508  33.421  1.00  0.00     0.045 C 
HETATM   21  C8  UNL     1      -2.292 151.078  31.270  1.00  0.00     0.045 C 
ENDBRANCH  17  18
ENDBRANCH  13  17
BRANCH  14  22
HETATM   22  O2  UNL     1       1.544 149.838  34.347  1.00  0.00    -0.387 OA
ATOM     23  H2  UNL     1       1.549 149.412  35.196  1.00  0.00     0.210 HD
ENDBRANCH  14  22
BRANCH  16  24
HETATM   24  C12 UNL     1       1.885 152.966  36.171  1.00  0.00    -0.004 C 
HETATM   25  C13 UNL     1       2.308 152.481  37.520  1.00  0.00     0.005 C 
HETATM   26  C14 UNL     1       1.296 152.953  38.535  1.00  0.00     0.000 C 
HETATM   27  C15 UNL     1       0.343 153.857  37.830  1.00  0.00     0.000 C 
HETATM   28  C16 UNL     1       0.593 153.710  36.336  1.00  0.00     0.005 C 
ENDBRANCH  16  24
BRANCH   9  29
HETATM   29  O3  UNL     1       1.914 153.984  33.637  1.00  0.00    -0.377 OA
ATOM     30  H3  UNL     1       2.496 154.693  33.882  1.00  0.00     0.211 HD
ENDBRANCH   9  29
ENDBRANCH   8   9
ENDBRANCH   6   7
ENDBRANCH   5   6
ENDBRANCH   4   5
ENDBRANCH   1   4
TORSDOF 10
ENDMDL
