MODEL 1
REMARK VINA RESULT: -7.917630689      0.000      0.000
REMARK  10 active torsions:
REMARK  status: ('A' for Active; 'I' for Inactive)
REMARK    1  A    between atoms: C2_2  and  O1_3 
REMARK    2  A    between atoms: O1_3  and  C3_4 
REMARK    3  A    between atoms: C3_4  and  C4_5 
REMARK    4  A    between atoms: C4_5  and  N1_6 
REMARK       I    between atoms: N1_6  and  C5_8 
REMARK    5  A    between atoms: C5_8  and  C6_10 
REMARK    6  A    between atoms: C6_10  and  C8_12 
REMARK    7  A    between atoms: C11_15  and  C13_17 
REMARK    8  A    between atoms: C14_18  and  C17_24 
REMARK    9  A    between atoms: C16_21  and  O4_22 
REMARK   10  A    between atoms: C22_29  and  C23_30 
ROOT
HETATM    1  C8  UNL     1      12.907 155.566  35.985  1.00  0.00     0.004 C 
HETATM    2  C9  UNL     1      13.538 154.231  36.248  1.00  0.00     0.007 C 
HETATM    3  C10 UNL     1      14.791 154.619  37.052  1.00  0.00     0.015 C 
HETATM    4  C11 UNL     1      14.793 156.101  37.162  1.00  0.00    -0.006 C 
HETATM    5  C12 UNL     1      15.460 156.663  35.882  1.00  0.00     0.021 C 
HETATM    6  C23 UNL     1      13.307 156.423  37.133  1.00  0.00     0.012 C 
ENDROOT
BRANCH   1   7
HETATM    7  C6  UNL     1      11.658 155.690  35.284  1.00  0.00     0.078 C 
HETATM    8  C7  UNL     1      10.357 155.924  35.971  1.00  0.00     0.020 C 
BRANCH   7   9
HETATM    9  C5  UNL     1      11.410 154.559  34.356  1.00  0.00     0.221 C 
HETATM   10  N1  UNL     1      10.118 153.967  34.202  1.00  0.00    -0.359 N 
ATOM     11  H1  UNL     1       9.341 154.337  34.749  1.00  0.00     0.162 HD
HETATM   12  O2  UNL     1      12.312 154.061  33.660  1.00  0.00    -0.273 OA
BRANCH  10  13
HETATM   13  C4  UNL     1       9.869 152.856  33.293  1.00  0.00     0.148 C 
BRANCH  13  14
HETATM   14  C3  UNL     1       8.406 152.502  33.392  1.00  0.00     0.187 C 
BRANCH  14  15
HETATM   15  O1  UNL     1       8.014 151.977  34.592  1.00  0.00    -0.390 OA
BRANCH  15  16
HETATM   16  C2  UNL     1       6.909 152.573  35.159  1.00  0.00     0.163 C 
HETATM   17  C1  UNL     1       6.086 153.353  34.146  1.00  0.00     0.033 C 
ENDBRANCH  15  16
ENDBRANCH  14  15
ENDBRANCH  13  14
ENDBRANCH  10  13
ENDBRANCH   7   9
ENDBRANCH   1   7
BRANCH   6  18
HETATM   18  C22 UNL     1      12.589 156.466  38.358  1.00  0.00     0.025 C 
HETATM   19  C17 UNL     1      12.051 157.832  38.638  1.00  0.00    -0.044 C 
HETATM   20  C18 UNL     1      11.129 157.852  39.612  1.00  0.00    -0.018 C 
HETATM   21  C19 UNL     1      10.720 156.575  40.274  1.00  0.00     0.028 C 
HETATM   22  C20 UNL     1      11.933 155.713  40.565  1.00  0.00     0.004 C 
HETATM   23  C21 UNL     1      13.145 156.104  39.689  1.00  0.00     0.010 C 
BRANCH  19  24
HETATM   24  C14 UNL     1      12.533 158.982  37.930  1.00  0.00     0.004 A 
HETATM   25  C13 UNL     1      12.755 160.200  38.546  1.00  0.00     0.021 A 
HETATM   26  C16 UNL     1      13.146 161.035  37.544  1.00  0.00     0.191 A 
HETATM   27  O3  UNL     1      13.171 160.395  36.396  1.00  0.00    -0.299 OA
HETATM   28  C15 UNL     1      12.812 159.154  36.568  1.00  0.00     0.157 A 
BRANCH  26  29
HETATM   29  O4  UNL     1      13.488 162.375  37.615  1.00  0.00    -0.340 OA
ATOM     30  H4  UNL     1      12.920 163.136  37.594  1.00  0.00     0.220 HD
ENDBRANCH  26  29
ENDBRANCH  19  24
ENDBRANCH   6  18
TORSDOF 10
ENDMDL
MODEL 2
REMARK VINA RESULT: -7.723400166      3.158      7.097
REMARK  10 active torsions:
REMARK  status: ('A' for Active; 'I' for Inactive)
REMARK    1  A    between atoms: C2_2  and  O1_3 
REMARK    2  A    between atoms: O1_3  and  C3_4 
REMARK    3  A    between atoms: C3_4  and  C4_5 
REMARK    4  A    between atoms: C4_5  and  N1_6 
REMARK       I    between atoms: N1_6  and  C5_8 
REMARK    5  A    between atoms: C5_8  and  C6_10 
REMARK    6  A    between atoms: C6_10  and  C8_12 
REMARK    7  A    between atoms: C11_15  and  C13_17 
REMARK    8  A    between atoms: C14_18  and  C17_24 
REMARK    9  A    between atoms: C16_21  and  O4_22 
REMARK   10  A    between atoms: C22_29  and  C23_30 
ROOT
HETATM    1  C8  UNL     1      12.243 157.295  38.679  1.00  0.00     0.004 C 
HETATM    2  C9  UNL     1      11.703 158.676  38.462  1.00  0.00     0.007 C 
HETATM    3  C10 UNL     1      12.400 159.094  37.155  1.00  0.00     0.015 C 
HETATM    4  C11 UNL     1      13.276 157.963  36.752  1.00  0.00    -0.006 C 
HETATM    5  C12 UNL     1      14.621 158.124  37.502  1.00  0.00     0.021 C 
HETATM    6  C23 UNL     1      12.529 156.766  37.318  1.00  0.00     0.012 C 
ENDROOT
BRANCH   1   7
HETATM    7  C6  UNL     1      11.822 156.481  39.786  1.00  0.00     0.078 C 
HETATM    8  C7  UNL     1      11.165 155.153  39.621  1.00  0.00     0.020 C 
BRANCH   7   9
HETATM    9  C5  UNL     1      10.966 157.222  40.746  1.00  0.00     0.221 C 
HETATM   10  N1  UNL     1      11.471 158.289  41.553  1.00  0.00    -0.359 N 
ATOM     11  H1  UNL     1      12.453 158.548  41.464  1.00  0.00     0.162 HD
HETATM   12  O2  UNL     1       9.761 156.957  40.903  1.00  0.00    -0.273 OA
BRANCH  10  13
HETATM   13  C4  UNL     1      10.636 159.019  42.497  1.00  0.00     0.148 C 
BRANCH  13  14
HETATM   14  C3  UNL     1      10.043 160.199  41.768  1.00  0.00     0.187 C 
BRANCH  14  15
HETATM   15  O1  UNL     1      10.944 160.998  41.123  1.00  0.00    -0.390 OA
BRANCH  15  16
HETATM   16  C2  UNL     1      10.798 162.349  41.350  1.00  0.00     0.163 C 
HETATM   17  C1  UNL     1      11.602 163.192  40.373  1.00  0.00     0.033 C 
ENDBRANCH  15  16
ENDBRANCH  14  15
ENDBRANCH  13  14
ENDBRANCH  10  13
ENDBRANCH   7   9
ENDBRANCH   1   7
BRANCH   6  18
HETATM   18  C22 UNL     1      11.552 156.122  36.513  1.00  0.00     0.025 C 
HETATM   19  C17 UNL     1      12.144 155.012  35.704  1.00  0.00    -0.044 C 
HETATM   20  C18 UNL     1      11.223 154.196  35.168  1.00  0.00    -0.018 C 
HETATM   21  C19 UNL     1       9.772 154.433  35.436  1.00  0.00     0.028 C 
HETATM   22  C20 UNL     1       9.446 155.911  35.334  1.00  0.00     0.004 C 
HETATM   23  C21 UNL     1      10.705 156.794  35.492  1.00  0.00     0.010 C 
BRANCH  19  24
HETATM   24  C14 UNL     1      13.560 154.897  35.521  1.00  0.00     0.004 A 
HETATM   25  C13 UNL     1      14.357 154.113  36.334  1.00  0.00     0.021 A 
HETATM   26  C16 UNL     1      15.626 154.312  35.880  1.00  0.00     0.191 A 
HETATM   27  O3  UNL     1      15.625 155.147  34.866  1.00  0.00    -0.299 OA
HETATM   28  C15 UNL     1      14.408 155.532  34.605  1.00  0.00     0.157 A 
BRANCH  26  29
HETATM   29  O4  UNL     1      16.810 153.765  36.347  1.00  0.00    -0.340 OA
ATOM     30  H4  UNL     1      17.040 152.851  36.460  1.00  0.00     0.220 HD
ENDBRANCH  26  29
ENDBRANCH  19  24
ENDBRANCH   6  18
TORSDOF 10
ENDMDL
MODEL 3
REMARK VINA RESULT: -7.689522092      3.673      7.487
REMARK  10 active torsions:
REMARK  status: ('A' for Active; 'I' for Inactive)
REMARK    1  A    between atoms: C2_2  and  O1_3 
REMARK    2  A    between atoms: O1_3  and  C3_4 
REMARK    3  A    between atoms: C3_4  and  C4_5 
REMARK    4  A    between atoms: C4_5  and  N1_6 
REMARK       I    between atoms: N1_6  and  C5_8 
REMARK    5  A    between atoms: C5_8  and  C6_10 
REMARK    6  A    between atoms: C6_10  and  C8_12 
REMARK    7  A    between atoms: C11_15  and  C13_17 
REMARK    8  A    between atoms: C14_18  and  C17_24 
REMARK    9  A    between atoms: C16_21  and  O4_22 
REMARK   10  A    between atoms: C22_29  and  C23_30 
ROOT
HETATM    1  C8  UNL     1      12.255 157.306  38.704  1.00  0.00     0.004 C 
HETATM    2  C9  UNL     1      11.720 158.690  38.489  1.00  0.00     0.007 C 
HETATM    3  C10 UNL     1      12.421 159.109  37.184  1.00  0.00     0.015 C 
HETATM    4  C11 UNL     1      13.293 157.975  36.780  1.00  0.00    -0.006 C 
HETATM    5  C12 UNL     1      14.638 158.130  37.533  1.00  0.00     0.021 C 
HETATM    6  C23 UNL     1      12.541 156.780  37.343  1.00  0.00     0.012 C 
ENDROOT
BRANCH   1   7
HETATM    7  C6  UNL     1      11.829 156.491  39.809  1.00  0.00     0.078 C 
HETATM    8  C7  UNL     1      11.242 155.132  39.642  1.00  0.00     0.020 C 
BRANCH   7   9
HETATM    9  C5  UNL     1      10.902 157.207  40.721  1.00  0.00     0.221 C 
HETATM   10  N1  UNL     1      11.333 158.285  41.555  1.00  0.00    -0.359 N 
ATOM     11  H1  UNL     1      12.312 158.571  41.521  1.00  0.00     0.162 HD
HETATM   12  O2  UNL     1       9.699 156.909  40.812  1.00  0.00    -0.273 OA
BRANCH  10  13
HETATM   13  C4  UNL     1      10.428 158.990  42.453  1.00  0.00     0.148 C 
BRANCH  13  14
HETATM   14  C3  UNL     1      11.245 159.517  43.606  1.00  0.00     0.187 C 
BRANCH  14  15
HETATM   15  O1  UNL     1      10.735 159.260  44.847  1.00  0.00    -0.390 OA
BRANCH  15  16
HETATM   16  C2  UNL     1      10.820 160.303  45.744  1.00  0.00     0.163 C 
HETATM   17  C1  UNL     1      12.197 160.947  45.757  1.00  0.00     0.033 C 
ENDBRANCH  15  16
ENDBRANCH  14  15
ENDBRANCH  13  14
ENDBRANCH  10  13
ENDBRANCH   7   9
ENDBRANCH   1   7
BRANCH   6  18
HETATM   18  C22 UNL     1      11.563 156.141  36.534  1.00  0.00     0.025 C 
HETATM   19  C17 UNL     1      12.155 155.042  35.712  1.00  0.00    -0.044 C 
HETATM   20  C18 UNL     1      11.235 154.228  35.171  1.00  0.00    -0.018 C 
HETATM   21  C19 UNL     1       9.784 154.458  35.447  1.00  0.00     0.028 C 
HETATM   22  C20 UNL     1       9.453 155.936  35.361  1.00  0.00     0.004 C 
HETATM   23  C21 UNL     1      10.710 156.821  35.523  1.00  0.00     0.010 C 
BRANCH  19  24
HETATM   24  C14 UNL     1      13.571 154.932  35.522  1.00  0.00     0.004 A 
HETATM   25  C13 UNL     1      14.371 154.128  36.312  1.00  0.00     0.021 A 
HETATM   26  C16 UNL     1      15.638 154.339  35.860  1.00  0.00     0.191 A 
HETATM   27  O3  UNL     1      15.634 155.202  34.869  1.00  0.00    -0.299 OA
HETATM   28  C15 UNL     1      14.416 155.592  34.621  1.00  0.00     0.157 A 
BRANCH  26  29
HETATM   29  O4  UNL     1      16.824 153.782  36.309  1.00  0.00    -0.340 OA
ATOM     30  H4  UNL     1      16.951 153.034  36.881  1.00  0.00     0.220 HD
ENDBRANCH  26  29
ENDBRANCH  19  24
ENDBRANCH   6  18
TORSDOF 10
ENDMDL
MODEL 4
REMARK VINA RESULT: -7.578748266      3.418      7.129
REMARK  10 active torsions:
REMARK  status: ('A' for Active; 'I' for Inactive)
REMARK    1  A    between atoms: C2_2  and  O1_3 
REMARK    2  A    between atoms: O1_3  and  C3_4 
REMARK    3  A    between atoms: C3_4  and  C4_5 
REMARK    4  A    between atoms: C4_5  and  N1_6 
REMARK       I    between atoms: N1_6  and  C5_8 
REMARK    5  A    between atoms: C5_8  and  C6_10 
REMARK    6  A    between atoms: C6_10  and  C8_12 
REMARK    7  A    between atoms: C11_15  and  C13_17 
REMARK    8  A    between atoms: C14_18  and  C17_24 
REMARK    9  A    between atoms: C16_21  and  O4_22 
REMARK   10  A    between atoms: C22_29  and  C23_30 
ROOT
HETATM    1  C8  UNL     1      12.260 157.302  38.681  1.00  0.00     0.004 C 
HETATM    2  C9  UNL     1      11.724 158.685  38.467  1.00  0.00     0.007 C 
HETATM    3  C10 UNL     1      12.425 159.106  37.163  1.00  0.00     0.015 C 
HETATM    4  C11 UNL     1      13.299 157.974  36.759  1.00  0.00    -0.006 C 
HETATM    5  C12 UNL     1      14.643 158.129  37.513  1.00  0.00     0.021 C 
HETATM    6  C23 UNL     1      12.548 156.777  37.320  1.00  0.00     0.012 C 
ENDROOT
BRANCH   1   7
HETATM    7  C6  UNL     1      11.834 156.486  39.785  1.00  0.00     0.078 C 
HETATM    8  C7  UNL     1      11.163 155.166  39.614  1.00  0.00     0.020 C 
BRANCH   7   9
HETATM    9  C5  UNL     1      10.988 157.230  40.752  1.00  0.00     0.221 C 
HETATM   10  N1  UNL     1      11.524 158.230  41.622  1.00  0.00    -0.359 N 
ATOM     11  H1  UNL     1      12.521 158.438  41.575  1.00  0.00     0.162 HD
HETATM   12  O2  UNL     1       9.767 157.026  40.861  1.00  0.00    -0.273 OA
BRANCH  10  13
HETATM   13  C4  UNL     1      10.699 158.963  42.573  1.00  0.00     0.148 C 
BRANCH  13  14
HETATM   14  C3  UNL     1      10.388 160.309  41.969  1.00  0.00     0.187 C 
BRANCH  14  15
HETATM   15  O1  UNL     1       9.382 161.003  42.580  1.00  0.00    -0.390 OA
BRANCH  15  16
HETATM   16  C2  UNL     1       8.833 160.390  43.685  1.00  0.00     0.163 C 
HETATM   17  C1  UNL     1       7.742 161.229  44.332  1.00  0.00     0.033 C 
ENDBRANCH  15  16
ENDBRANCH  14  15
ENDBRANCH  13  14
ENDBRANCH  10  13
ENDBRANCH   7   9
ENDBRANCH   1   7
BRANCH   6  18
HETATM   18  C22 UNL     1      11.571 156.137  36.510  1.00  0.00     0.025 C 
HETATM   19  C17 UNL     1      12.162 155.030  35.698  1.00  0.00    -0.044 C 
HETATM   20  C18 UNL     1      11.241 154.218  35.157  1.00  0.00    -0.018 C 
HETATM   21  C19 UNL     1       9.789 154.457  35.423  1.00  0.00     0.028 C 
HETATM   22  C20 UNL     1       9.466 155.936  35.327  1.00  0.00     0.004 C 
HETATM   23  C21 UNL     1      10.726 156.815  35.491  1.00  0.00     0.010 C 
BRANCH  19  24
HETATM   24  C14 UNL     1      13.579 154.913  35.517  1.00  0.00     0.004 A 
HETATM   25  C13 UNL     1      14.372 154.118  36.322  1.00  0.00     0.021 A 
HETATM   26  C16 UNL     1      15.642 154.318  35.873  1.00  0.00     0.191 A 
HETATM   27  O3  UNL     1      15.645 155.165  34.869  1.00  0.00    -0.299 OA
HETATM   28  C15 UNL     1      14.430 155.557  34.609  1.00  0.00     0.157 A 
BRANCH  26  29
HETATM   29  O4  UNL     1      16.823 153.763  36.336  1.00  0.00    -0.340 OA
ATOM     30  H4  UNL     1      17.662 153.695  35.895  1.00  0.00     0.220 HD
ENDBRANCH  26  29
ENDBRANCH  19  24
ENDBRANCH   6  18
TORSDOF 10
ENDMDL
MODEL 5
REMARK VINA RESULT: -7.567900544      1.627      2.104
REMARK  10 active torsions:
REMARK  status: ('A' for Active; 'I' for Inactive)
REMARK    1  A    between atoms: C2_2  and  O1_3 
REMARK    2  A    between atoms: O1_3  and  C3_4 
REMARK    3  A    between atoms: C3_4  and  C4_5 
REMARK    4  A    between atoms: C4_5  and  N1_6 
REMARK       I    between atoms: N1_6  and  C5_8 
REMARK    5  A    between atoms: C5_8  and  C6_10 
REMARK    6  A    between atoms: C6_10  and  C8_12 
REMARK    7  A    between atoms: C11_15  and  C13_17 
REMARK    8  A    between atoms: C14_18  and  C17_24 
REMARK    9  A    between atoms: C16_21  and  O4_22 
REMARK   10  A    between atoms: C22_29  and  C23_30 
ROOT
HETATM    1  C8  UNL     1      11.442 155.103  34.886  1.00  0.00     0.004 C 
HETATM    2  C9  UNL     1      12.019 153.745  34.618  1.00  0.00     0.007 C 
HETATM    3  C10 UNL     1      13.457 153.896  35.144  1.00  0.00     0.015 C 
HETATM    4  C11 UNL     1      13.594 155.292  35.634  1.00  0.00    -0.006 C 
HETATM    5  C12 UNL     1      13.962 156.180  34.419  1.00  0.00     0.021 C 
HETATM    6  C23 UNL     1      12.175 155.614  36.075  1.00  0.00     0.012 C 
ENDROOT
BRANCH   1   7
HETATM    7  C6  UNL     1      10.071 155.417  34.589  1.00  0.00     0.078 C 
HETATM    8  C7  UNL     1       9.355 156.584  35.178  1.00  0.00     0.020 C 
BRANCH   7   9
HETATM    9  C5  UNL     1       9.164 154.260  34.794  1.00  0.00     0.221 C 
HETATM   10  N1  UNL     1       8.749 153.415  33.718  1.00  0.00    -0.359 N 
ATOM     11  H1  UNL     1       9.090 153.616  32.777  1.00  0.00     0.162 HD
HETATM   12  O2  UNL     1       8.712 153.959  35.913  1.00  0.00    -0.273 OA
BRANCH  10  13
HETATM   13  C4  UNL     1       7.858 152.279  33.912  1.00  0.00     0.148 C 
BRANCH  13  14
HETATM   14  C3  UNL     1       6.469 152.712  33.516  1.00  0.00     0.187 C 
BRANCH  14  15
HETATM   15  O1  UNL     1       5.736 153.298  34.509  1.00  0.00    -0.390 OA
BRANCH  15  16
HETATM   16  C2  UNL     1       4.378 153.352  34.281  1.00  0.00     0.163 C 
HETATM   17  C1  UNL     1       3.938 152.415  33.167  1.00  0.00     0.033 C 
ENDBRANCH  15  16
ENDBRANCH  14  15
ENDBRANCH  13  14
ENDBRANCH  10  13
ENDBRANCH   7   9
ENDBRANCH   1   7
BRANCH   6  18
HETATM   18  C22 UNL     1      11.788 155.325  37.411  1.00  0.00     0.025 C 
HETATM   19  C17 UNL     1      11.881 156.531  38.289  1.00  0.00    -0.044 C 
HETATM   20  C18 UNL     1      11.250 156.383  39.464  1.00  0.00    -0.018 C 
HETATM   21  C19 UNL     1      10.524 155.111  39.764  1.00  0.00     0.028 C 
HETATM   22  C20 UNL     1      11.346 153.913  39.329  1.00  0.00     0.004 C 
HETATM   23  C21 UNL     1      12.415 154.294  38.280  1.00  0.00     0.010 C 
BRANCH  19  24
HETATM   24  C14 UNL     1      12.614 157.694  37.883  1.00  0.00     0.004 A 
HETATM   25  C13 UNL     1      12.015 158.923  37.686  1.00  0.00     0.021 A 
HETATM   26  C16 UNL     1      13.018 159.739  37.259  1.00  0.00     0.191 A 
HETATM   27  O3  UNL     1      14.152 159.078  37.196  1.00  0.00    -0.299 OA
HETATM   28  C15 UNL     1      13.969 157.841  37.561  1.00  0.00     0.157 A 
BRANCH  26  29
HETATM   29  O4  UNL     1      12.960 161.079  36.914  1.00  0.00    -0.340 OA
ATOM     30  H4  UNL     1      13.656 161.725  36.915  1.00  0.00     0.220 HD
ENDBRANCH  26  29
ENDBRANCH  19  24
ENDBRANCH   6  18
TORSDOF 10
ENDMDL
