MODEL 1
REMARK VINA RESULT: -8.336111316      0.000      0.000
REMARK  6 active torsions:
REMARK  status: ('A' for Active; 'I' for Inactive)
REMARK    1  A    between atoms: C6_8  and  O1_9 
REMARK    2  A    between atoms: O1_9  and  C7_10 
REMARK    3  A    between atoms: C7_10  and  C8_11 
REMARK    4  A    between atoms: C8_11  and  C9_12 
REMARK    5  A    between atoms: C9_12  and  N2_13 
REMARK    6  A    between atoms: C14_18  and  O2_19 
ROOT
HETATM    1  C1  UNL     1      17.081 155.923  36.651  1.00  0.00     0.012 C 
HETATM    2  C2  UNL     1      15.677 155.570  36.279  1.00  0.00     0.004 C 
HETATM    3  C3  UNL     1      15.656 154.827  34.936  1.00  0.00     0.124 C 
HETATM    4  N1  UNL     1      14.351 154.203  34.862  1.00  0.00    -0.389 N 
ATOM      5  H1  UNL     1      14.239 153.215  34.635  1.00  0.00     0.159 HD
HETATM    6  C4  UNL     1      13.218 155.056  35.125  1.00  0.00     0.044 A 
HETATM    7  C5  UNL     1      13.408 156.267  35.756  1.00  0.00     0.005 A 
HETATM    8  C6  UNL     1      12.289 157.060  35.992  1.00  0.00     0.111 A 
HETATM    9  C14 UNL     1      11.049 156.644  35.610  1.00  0.00     0.106 A 
HETATM   10  C15 UNL     1      10.881 155.397  34.962  1.00  0.00    -0.009 A 
HETATM   11  C16 UNL     1      11.978 154.610  34.726  1.00  0.00    -0.021 A 
HETATM   12  C17 UNL     1      11.557 153.345  34.034  1.00  0.00     0.047 C 
HETATM   13  C18 UNL     1      10.210 153.718  33.489  1.00  0.00    -0.002 C 
HETATM   14  C19 UNL     1       9.320 152.578  33.188  1.00  0.00     0.005 C 
HETATM   15  C20 UNL     1       8.419 152.145  34.290  1.00  0.00     0.000 C 
HETATM   16  C21 UNL     1       7.793 153.279  35.054  1.00  0.00     0.001 C 
HETATM   17  C22 UNL     1       8.951 154.111  35.622  1.00  0.00     0.010 C 
HETATM   18  C23 UNL     1       9.650 154.725  34.452  1.00  0.00     0.026 C 
HETATM   19  C24 UNL     1      14.769 156.751  36.191  1.00  0.00     0.049 C 
ENDROOT
BRANCH   8  20
HETATM   20  O1  UNL     1      12.497 158.254  36.618  1.00  0.00    -0.348 OA
BRANCH  20  21
HETATM   21  C7  UNL     1      12.586 158.539  37.970  1.00  0.00     0.177 C 
BRANCH  21  22
HETATM   22  C8  UNL     1      11.445 158.092  38.838  1.00  0.00     0.057 C 
BRANCH  22  23
HETATM   23  C9  UNL     1      12.038 157.490  40.093  1.00  0.00     0.274 C 
BRANCH  23  24
HETATM   24  N2  UNL     1      11.865 156.066  40.156  1.00  0.00     0.088 N 
HETATM   25  C10 UNL     1      10.571 155.808  40.764  1.00  0.00     0.272 C 
HETATM   26  C11 UNL     1      10.211 154.388  40.398  1.00  0.00     0.032 C 
HETATM   27  C12 UNL     1      11.068 154.136  39.180  1.00  0.00     0.032 C 
HETATM   28  C13 UNL     1      11.685 155.481  38.832  1.00  0.00     0.272 C 
ENDBRANCH  23  24
ENDBRANCH  22  23
ENDBRANCH  21  22
ENDBRANCH  20  21
ENDBRANCH   8  20
BRANCH   9  29
HETATM   29  O2  UNL     1       9.905 157.389  35.829  1.00  0.00    -0.357 OA
ATOM     30  H2  UNL     1       9.321 157.656  35.130  1.00  0.00     0.217 HD
ENDBRANCH   9  29
TORSDOF 6
ENDMDL
MODEL 2
REMARK VINA RESULT: -8.210581612      2.361      3.892
REMARK  6 active torsions:
REMARK  status: ('A' for Active; 'I' for Inactive)
REMARK    1  A    between atoms: C6_8  and  O1_9 
REMARK    2  A    between atoms: O1_9  and  C7_10 
REMARK    3  A    between atoms: C7_10  and  C8_11 
REMARK    4  A    between atoms: C8_11  and  C9_12 
REMARK    5  A    between atoms: C9_12  and  N2_13 
REMARK    6  A    between atoms: C14_18  and  O2_19 
ROOT
HETATM    1  C1  UNL     1      16.896 155.901  36.669  1.00  0.00     0.012 C 
HETATM    2  C2  UNL     1      15.500 155.528  36.283  1.00  0.00     0.004 C 
HETATM    3  C3  UNL     1      15.504 154.789  34.938  1.00  0.00     0.124 C 
HETATM    4  N1  UNL     1      14.208 154.146  34.849  1.00  0.00    -0.389 N 
ATOM      5  H1  UNL     1      14.114 153.157  34.619  1.00  0.00     0.159 HD
HETATM    6  C4  UNL     1      13.061 154.981  35.104  1.00  0.00     0.044 A 
HETATM    7  C5  UNL     1      13.227 156.193  35.740  1.00  0.00     0.005 A 
HETATM    8  C6  UNL     1      12.094 156.969  35.968  1.00  0.00     0.111 A 
HETATM    9  C14 UNL     1      10.864 156.535  35.572  1.00  0.00     0.106 A 
HETATM   10  C15 UNL     1      10.720 155.288  34.920  1.00  0.00    -0.009 A 
HETATM   11  C16 UNL     1      11.832 154.518  34.691  1.00  0.00    -0.021 A 
HETATM   12  C17 UNL     1      11.435 153.249  33.991  1.00  0.00     0.047 C 
HETATM   13  C18 UNL     1      10.089 153.603  33.435  1.00  0.00    -0.002 C 
HETATM   14  C19 UNL     1       9.219 152.451  33.122  1.00  0.00     0.005 C 
HETATM   15  C20 UNL     1       8.314 152.002  34.214  1.00  0.00     0.000 C 
HETATM   16  C21 UNL     1       7.664 153.124  34.975  1.00  0.00     0.001 C 
HETATM   17  C22 UNL     1       8.804 153.971  35.557  1.00  0.00     0.010 C 
HETATM   18  C23 UNL     1       9.505 154.600  34.395  1.00  0.00     0.026 C 
HETATM   19  C24 UNL     1      14.576 156.696  36.190  1.00  0.00     0.049 C 
ENDROOT
BRANCH   8  20
HETATM   20  O1  UNL     1      12.278 158.164  36.599  1.00  0.00    -0.348 OA
BRANCH  20  21
HETATM   21  C7  UNL     1      12.074 158.502  37.925  1.00  0.00     0.177 C 
BRANCH  21  22
HETATM   22  C8  UNL     1      12.623 159.823  38.386  1.00  0.00     0.057 C 
BRANCH  22  23
HETATM   23  C9  UNL     1      13.289 160.477  37.196  1.00  0.00     0.274 C 
BRANCH  23  24
HETATM   24  N2  UNL     1      12.981 161.876  37.092  1.00  0.00     0.088 N 
HETATM   25  C10 UNL     1      14.204 162.615  37.354  1.00  0.00     0.272 C 
HETATM   26  C11 UNL     1      13.987 163.999  36.791  1.00  0.00     0.032 C 
HETATM   27  C12 UNL     1      12.877 163.776  35.791  1.00  0.00     0.032 C 
HETATM   28  C13 UNL     1      12.694 162.269  35.717  1.00  0.00     0.272 C 
ENDBRANCH  23  24
ENDBRANCH  22  23
ENDBRANCH  21  22
ENDBRANCH  20  21
ENDBRANCH   8  20
BRANCH   9  29
HETATM   29  O2  UNL     1       9.707 157.262  35.782  1.00  0.00    -0.357 OA
ATOM     30  H2  UNL     1       8.881 156.860  36.023  1.00  0.00     0.217 HD
ENDBRANCH   9  29
TORSDOF 6
ENDMDL
MODEL 3
REMARK VINA RESULT: -8.190039042      1.445      2.121
REMARK  6 active torsions:
REMARK  status: ('A' for Active; 'I' for Inactive)
REMARK    1  A    between atoms: C6_8  and  O1_9 
REMARK    2  A    between atoms: O1_9  and  C7_10 
REMARK    3  A    between atoms: C7_10  and  C8_11 
REMARK    4  A    between atoms: C8_11  and  C9_12 
REMARK    5  A    between atoms: C9_12  and  N2_13 
REMARK    6  A    between atoms: C14_18  and  O2_19 
ROOT
HETATM    1  C1  UNL     1      16.952 155.791  36.649  1.00  0.00     0.012 C 
HETATM    2  C2  UNL     1      15.548 155.448  36.267  1.00  0.00     0.004 C 
HETATM    3  C3  UNL     1      15.528 154.760  34.895  1.00  0.00     0.124 C 
HETATM    4  N1  UNL     1      14.224 154.135  34.797  1.00  0.00    -0.389 N 
ATOM      5  H1  UNL     1      14.116 153.156  34.532  1.00  0.00     0.159 HD
HETATM    6  C4  UNL     1      13.089 154.972  35.098  1.00  0.00     0.044 A 
HETATM    7  C5  UNL     1      13.276 156.157  35.777  1.00  0.00     0.005 A 
HETATM    8  C6  UNL     1      12.155 156.936  36.047  1.00  0.00     0.111 A 
HETATM    9  C14 UNL     1      10.916 156.531  35.650  1.00  0.00     0.106 A 
HETATM   10  C15 UNL     1      10.750 155.310  34.953  1.00  0.00    -0.009 A 
HETATM   11  C16 UNL     1      11.850 154.538  34.683  1.00  0.00    -0.021 A 
HETATM   12  C17 UNL     1      11.432 153.300  33.941  1.00  0.00     0.047 C 
HETATM   13  C18 UNL     1      10.083 153.689  33.415  1.00  0.00    -0.002 C 
HETATM   14  C19 UNL     1       9.196 152.559  33.069  1.00  0.00     0.005 C 
HETATM   15  C20 UNL     1       8.299 152.079  34.154  1.00  0.00     0.000 C 
HETATM   16  C21 UNL     1       7.671 153.178  34.965  1.00  0.00     0.001 C 
HETATM   17  C22 UNL     1       8.827 153.991  35.564  1.00  0.00     0.010 C 
HETATM   18  C23 UNL     1       9.521 154.655  34.418  1.00  0.00     0.026 C 
HETATM   19  C24 UNL     1      14.636 156.629  36.228  1.00  0.00     0.049 C 
ENDROOT
BRANCH   8  20
HETATM   20  O1  UNL     1      12.360 158.104  36.720  1.00  0.00    -0.348 OA
BRANCH  20  21
HETATM   21  C7  UNL     1      12.868 158.314  37.990  1.00  0.00     0.177 C 
BRANCH  21  22
HETATM   22  C8  UNL     1      11.995 159.054  38.962  1.00  0.00     0.057 C 
BRANCH  22  23
HETATM   23  C9  UNL     1      11.254 158.021  39.783  1.00  0.00     0.274 C 
BRANCH  23  24
HETATM   24  N2  UNL     1      10.963 158.479  41.113  1.00  0.00     0.088 N 
HETATM   25  C10 UNL     1      10.943 159.932  41.081  1.00  0.00     0.272 C 
HETATM   26  C11 UNL     1      10.194 160.368  42.317  1.00  0.00     0.032 C 
HETATM   27  C12 UNL     1       9.394 159.136  42.667  1.00  0.00     0.032 C 
HETATM   28  C13 UNL     1       9.590 158.179  41.504  1.00  0.00     0.272 C 
ENDBRANCH  23  24
ENDBRANCH  22  23
ENDBRANCH  21  22
ENDBRANCH  20  21
ENDBRANCH   8  20
BRANCH   9  29
HETATM   29  O2  UNL     1       9.769 157.262  35.901  1.00  0.00    -0.357 OA
ATOM     30  H2  UNL     1       9.122 157.454  35.233  1.00  0.00     0.217 HD
ENDBRANCH   9  29
TORSDOF 6
ENDMDL
MODEL 4
REMARK VINA RESULT: -8.039002456      2.871      7.094
REMARK  6 active torsions:
REMARK  status: ('A' for Active; 'I' for Inactive)
REMARK    1  A    between atoms: C6_8  and  O1_9 
REMARK    2  A    between atoms: O1_9  and  C7_10 
REMARK    3  A    between atoms: C7_10  and  C8_11 
REMARK    4  A    between atoms: C8_11  and  C9_12 
REMARK    5  A    between atoms: C9_12  and  N2_13 
REMARK    6  A    between atoms: C14_18  and  O2_19 
ROOT
HETATM    1  C1  UNL     1      13.507 162.625  35.728  1.00  0.00     0.012 C 
HETATM    2  C2  UNL     1      12.869 161.870  36.850  1.00  0.00     0.004 C 
HETATM    3  C3  UNL     1      13.138 162.579  38.184  1.00  0.00     0.124 C 
HETATM    4  N1  UNL     1      12.185 162.015  39.118  1.00  0.00    -0.389 N 
ATOM      5  H1  UNL     1      11.593 162.604  39.704  1.00  0.00     0.159 HD
HETATM    6  C4  UNL     1      12.120 160.575  39.174  1.00  0.00     0.044 A 
HETATM    7  C5  UNL     1      12.662 159.828  38.150  1.00  0.00     0.005 A 
HETATM    8  C6  UNL     1      12.577 158.442  38.242  1.00  0.00     0.111 A 
HETATM    9  C14 UNL     1      11.975 157.851  39.313  1.00  0.00     0.106 A 
HETATM   10  C15 UNL     1      11.427 158.642  40.351  1.00  0.00    -0.009 A 
HETATM   11  C16 UNL     1      11.507 160.008  40.269  1.00  0.00    -0.021 A 
HETATM   12  C17 UNL     1      10.863 160.628  41.476  1.00  0.00     0.047 C 
HETATM   13  C18 UNL     1      10.848 159.486  42.447  1.00  0.00    -0.002 C 
HETATM   14  C19 UNL     1       9.856 159.604  43.536  1.00  0.00     0.005 C 
HETATM   15  C20 UNL     1       8.522 159.000  43.271  1.00  0.00     0.000 C 
HETATM   16  C21 UNL     1       8.577 157.666  42.578  1.00  0.00     0.001 C 
HETATM   17  C22 UNL     1       9.319 157.895  41.254  1.00  0.00     0.010 C 
HETATM   18  C23 UNL     1      10.729 158.245  41.609  1.00  0.00     0.026 C 
HETATM   19  C24 UNL     1      13.332 160.455  36.954  1.00  0.00     0.049 C 
ENDROOT
BRANCH   8  20
HETATM   20  O1  UNL     1      13.118 157.719  37.220  1.00  0.00    -0.348 OA
BRANCH  20  21
HETATM   21  C7  UNL     1      12.564 157.358  36.004  1.00  0.00     0.177 C 
BRANCH  21  22
HETATM   22  C8  UNL     1      11.267 156.602  36.042  1.00  0.00     0.057 C 
BRANCH  22  23
HETATM   23  C9  UNL     1      11.350 155.507  35.001  1.00  0.00     0.274 C 
BRANCH  23  24
HETATM   24  N2  UNL     1      10.056 155.065  34.562  1.00  0.00     0.088 N 
HETATM   25  C10 UNL     1      10.237 153.798  33.873  1.00  0.00     0.272 C 
HETATM   26  C11 UNL     1       8.879 153.139  33.844  1.00  0.00     0.032 C 
HETATM   27  C12 UNL     1       8.154 153.830  34.975  1.00  0.00     0.032 C 
HETATM   28  C13 UNL     1       9.208 154.668  35.680  1.00  0.00     0.272 C 
ENDBRANCH  23  24
ENDBRANCH  22  23
ENDBRANCH  21  22
ENDBRANCH  20  21
ENDBRANCH   8  20
BRANCH   9  29
HETATM   29  O2  UNL     1      11.856 156.480  39.448  1.00  0.00    -0.357 OA
ATOM     30  H2  UNL     1      11.499 156.067  40.225  1.00  0.00     0.217 HD
ENDBRANCH   9  29
TORSDOF 6
ENDMDL
MODEL 5
REMARK VINA RESULT: -7.995429841      4.259      7.821
REMARK  6 active torsions:
REMARK  status: ('A' for Active; 'I' for Inactive)
REMARK    1  A    between atoms: C6_8  and  O1_9 
REMARK    2  A    between atoms: O1_9  and  C7_10 
REMARK    3  A    between atoms: C7_10  and  C8_11 
REMARK    4  A    between atoms: C8_11  and  C9_12 
REMARK    5  A    between atoms: C9_12  and  N2_13 
REMARK    6  A    between atoms: C14_18  and  O2_19 
ROOT
HETATM    1  C1  UNL     1      14.134 155.270  36.292  1.00  0.00     0.012 C 
HETATM    2  C2  UNL     1      13.414 155.989  37.387  1.00  0.00     0.004 C 
HETATM    3  C3  UNL     1      12.015 155.388  37.583  1.00  0.00     0.124 C 
HETATM    4  N1  UNL     1      11.569 155.868  38.875  1.00  0.00    -0.389 N 
ATOM      5  H1  UNL     1      11.196 155.236  39.584  1.00  0.00     0.159 HD
HETATM    6  C4  UNL     1      11.680 157.287  39.104  1.00  0.00     0.044 A 
HETATM    7  C5  UNL     1      12.489 158.048  38.288  1.00  0.00     0.005 A 
HETATM    8  C6  UNL     1      12.569 159.414  38.543  1.00  0.00     0.111 A 
HETATM    9  C14 UNL     1      11.866 159.972  39.568  1.00  0.00     0.106 A 
HETATM   10  C15 UNL     1      11.041 159.169  40.391  1.00  0.00    -0.009 A 
HETATM   11  C16 UNL     1      10.957 157.823  40.147  1.00  0.00    -0.021 A 
HETATM   12  C17 UNL     1      10.029 157.183  41.140  1.00  0.00     0.047 C 
HETATM   13  C18 UNL     1       9.249 158.360  41.645  1.00  0.00    -0.002 C 
HETATM   14  C19 UNL     1       8.609 158.167  42.963  1.00  0.00     0.005 C 
HETATM   15  C20 UNL     1       9.415 158.577  44.145  1.00  0.00     0.000 C 
HETATM   16  C21 UNL     1      10.159 159.871  43.963  1.00  0.00     0.001 C 
HETATM   17  C22 UNL     1      11.077 159.676  42.748  1.00  0.00     0.010 C 
HETATM   18  C23 UNL     1      10.184 159.532  41.557  1.00  0.00     0.026 C 
HETATM   19  C24 UNL     1      13.278 157.457  37.147  1.00  0.00     0.049 C 
ENDROOT
BRANCH   8  20
HETATM   20  O1  UNL     1      13.375 160.150  37.725  1.00  0.00    -0.348 OA
BRANCH  20  21
HETATM   21  C7  UNL     1      13.047 160.920  36.622  1.00  0.00     0.177 C 
BRANCH  21  22
HETATM   22  C8  UNL     1      13.153 162.411  36.773  1.00  0.00     0.057 C 
BRANCH  22  23
HETATM   23  C9  UNL     1      12.653 163.033  35.489  1.00  0.00     0.274 C 
BRANCH  23  24
HETATM   24  N2  UNL     1      13.419 164.184  35.100  1.00  0.00     0.088 N 
HETATM   25  C10 UNL     1      12.921 165.318  35.860  1.00  0.00     0.272 C 
HETATM   26  C11 UNL     1      14.004 166.370  35.801  1.00  0.00     0.032 C 
HETATM   27  C12 UNL     1      15.233 165.557  35.469  1.00  0.00     0.032 C 
HETATM   28  C13 UNL     1      14.798 164.104  35.567  1.00  0.00     0.272 C 
ENDBRANCH  23  24
ENDBRANCH  22  23
ENDBRANCH  21  22
ENDBRANCH  20  21
ENDBRANCH   8  20
BRANCH   9  29
HETATM   29  O2  UNL     1      11.917 161.321  39.870  1.00  0.00    -0.357 OA
ATOM     30  H2  UNL     1      11.360 161.726  40.523  1.00  0.00     0.217 HD
ENDBRANCH   9  29
TORSDOF 6
ENDMDL
