MODEL 1
REMARK VINA RESULT: -8.135946402      0.000      0.000
REMARK  7 active torsions:
REMARK  status: ('A' for Active; 'I' for Inactive)
REMARK    1  A    between atoms: S1_2  and  C2_3 
REMARK    2  A    between atoms: C2_3  and  C3_4 
REMARK    3  A    between atoms: C3_4  and  C4_5 
REMARK    4  A    between atoms: C4_5  and  O1_6 
REMARK    5  A    between atoms: O1_6  and  C5_7 
REMARK    6  A    between atoms: C13_15  and  O2_16 
REMARK    7  A    between atoms: C23_27  and  O3_28 
ROOT
HETATM    1  C5  UNL     1      11.890 158.996  38.108  1.00  0.00     0.151 C 
HETATM    2  C6  UNL     1      11.915 158.473  36.661  1.00  0.00     0.040 C 
HETATM    3  C7  UNL     1      11.160 157.223  36.818  1.00  0.00     0.003 C 
HETATM    4  C8  UNL     1      10.890 156.365  35.651  1.00  0.00    -0.001 C 
HETATM    5  C9  UNL     1      12.013 155.850  34.868  1.00  0.00     0.033 C 
HETATM    6  C10 UNL     1      11.677 154.566  34.221  1.00  0.00    -0.023 C 
HETATM    7  C11 UNL     1      10.543 153.922  34.253  1.00  0.00    -0.072 C 
HETATM    8  C12 UNL     1      10.299 152.626  33.566  1.00  0.00     0.066 C 
HETATM    9  C13 UNL     1       8.883 152.339  33.234  1.00  0.00     0.122 C 
HETATM   10  C14 UNL     1       7.863 152.752  34.234  1.00  0.00     0.033 C 
HETATM   11  C15 UNL     1       8.407 153.504  35.414  1.00  0.00     0.016 C 
HETATM   12  C16 UNL     1       9.431 154.515  35.024  1.00  0.00    -0.017 C 
HETATM   13  C17 UNL     1       8.744 155.541  34.123  1.00  0.00     0.020 C 
HETATM   14  C18 UNL     1       9.979 155.273  36.180  1.00  0.00     0.003 C 
HETATM   15  C19 UNL     1      10.707 154.491  37.204  1.00  0.00     0.007 C 
HETATM   16  C20 UNL     1      10.972 155.396  38.411  1.00  0.00     0.012 C 
HETATM   17  C21 UNL     1      11.797 156.590  38.009  1.00  0.00    -0.011 C 
HETATM   18  C22 UNL     1      13.248 156.342  37.970  1.00  0.00     0.018 C 
HETATM   19  C23 UNL     1      11.597 157.766  38.983  1.00  0.00     0.155 C 
ENDROOT
BRANCH   1  20
HETATM   20  O1  UNL     1      13.061 159.601  38.454  1.00  0.00    -0.383 OA
BRANCH  20  21
HETATM   21  C4  UNL     1      13.575 160.383  37.431  1.00  0.00     0.169 C 
BRANCH  21  22
HETATM   22  C3  UNL     1      13.226 161.845  37.549  1.00  0.00     0.036 C 
BRANCH  22  23
HETATM   23  C2  UNL     1      12.745 162.378  36.196  1.00  0.00     0.075 C 
BRANCH  23  24
HETATM   24  S1  UNL     1      13.749 163.780  35.661  1.00  0.00    -0.173 SA
HETATM   25  C1  UNL     1      15.322 163.707  36.560  1.00  0.00     0.089 C 
ENDBRANCH  23  24
ENDBRANCH  22  23
ENDBRANCH  21  22
ENDBRANCH  20  21
ENDBRANCH   1  20
BRANCH  19  26
HETATM   26  O3  UNL     1      12.453 157.692  40.055  1.00  0.00    -0.392 OA
ATOM     27  H3  UNL     1      12.210 156.994  40.651  1.00  0.00     0.210 HD
ENDBRANCH  19  26
BRANCH   9  28
HETATM   28  O2  UNL     1       8.582 152.850  31.947  1.00  0.00    -0.395 OA
ATOM     29  H2  UNL     1       7.750 153.310  31.972  1.00  0.00     0.210 HD
ENDBRANCH   9  28
TORSDOF 7
ENDMDL
MODEL 2
REMARK VINA RESULT: -7.532432737      3.619      8.061
REMARK  7 active torsions:
REMARK  status: ('A' for Active; 'I' for Inactive)
REMARK    1  A    between atoms: S1_2  and  C2_3 
REMARK    2  A    between atoms: C2_3  and  C3_4 
REMARK    3  A    between atoms: C3_4  and  C4_5 
REMARK    4  A    between atoms: C4_5  and  O1_6 
REMARK    5  A    between atoms: O1_6  and  C5_7 
REMARK    6  A    between atoms: C13_15  and  O2_16 
REMARK    7  A    between atoms: C23_27  and  O3_28 
ROOT
HETATM    1  C5  UNL     1      11.381 155.533  35.922  1.00  0.00     0.151 C 
HETATM    2  C6  UNL     1      11.300 155.221  37.426  1.00  0.00     0.040 C 
HETATM    3  C7  UNL     1      11.275 156.581  37.978  1.00  0.00     0.003 C 
HETATM    4  C8  UNL     1      11.165 156.793  39.432  1.00  0.00    -0.001 C 
HETATM    5  C9  UNL     1      12.175 156.212  40.317  1.00  0.00     0.033 C 
HETATM    6  C10 UNL     1      12.332 157.005  41.552  1.00  0.00    -0.023 C 
HETATM    7  C11 UNL     1      11.672 158.071  41.913  1.00  0.00    -0.072 C 
HETATM    8  C12 UNL     1      11.903 158.806  43.185  1.00  0.00     0.066 C 
HETATM    9  C13 UNL     1      10.749 159.594  43.682  1.00  0.00     0.122 C 
HETATM   10  C14 UNL     1       9.927 160.295  42.660  1.00  0.00     0.033 C 
HETATM   11  C15 UNL     1      10.322 160.023  41.239  1.00  0.00     0.016 C 
HETATM   12  C16 UNL     1      10.632 158.585  40.997  1.00  0.00    -0.017 C 
HETATM   13  C17 UNL     1       9.354 157.788  41.261  1.00  0.00     0.020 C 
HETATM   14  C18 UNL     1      11.023 158.295  39.592  1.00  0.00     0.003 C 
HETATM   15  C19 UNL     1      12.252 158.952  39.093  1.00  0.00     0.007 C 
HETATM   16  C20 UNL     1      12.345 158.728  37.581  1.00  0.00     0.012 C 
HETATM   17  C21 UNL     1      12.396 157.257  37.264  1.00  0.00    -0.011 C 
HETATM   18  C22 UNL     1      13.740 156.661  37.359  1.00  0.00     0.018 C 
HETATM   19  C23 UNL     1      11.911 156.973  35.830  1.00  0.00     0.155 C 
ENDROOT
BRANCH   1  20
HETATM   20  O1  UNL     1      12.181 154.651  35.258  1.00  0.00    -0.383 OA
BRANCH  20  21
HETATM   21  C4  UNL     1      11.530 154.043  34.195  1.00  0.00     0.169 C 
BRANCH  21  22
HETATM   22  C3  UNL     1      10.080 154.434  34.064  1.00  0.00     0.036 C 
BRANCH  22  23
HETATM   23  C2  UNL     1       9.230 153.197  33.759  1.00  0.00     0.075 C 
BRANCH  23  24
HETATM   24  S1  UNL     1       7.744 153.166  34.782  1.00  0.00    -0.173 SA
HETATM   25  C1  UNL     1       6.324 152.910  33.683  1.00  0.00     0.089 C 
ENDBRANCH  23  24
ENDBRANCH  22  23
ENDBRANCH  21  22
ENDBRANCH  20  21
ENDBRANCH   1  20
BRANCH  19  26
HETATM   26  O3  UNL     1      12.932 157.079  34.915  1.00  0.00    -0.392 OA
ATOM     27  H3  UNL     1      12.747 156.583  34.126  1.00  0.00     0.210 HD
ENDBRANCH  19  26
BRANCH   9  28
HETATM   28  O2  UNL     1       9.949 158.786  44.526  1.00  0.00    -0.395 OA
ATOM     29  H2  UNL     1       9.952 157.890  44.208  1.00  0.00     0.210 HD
ENDBRANCH   9  28
TORSDOF 7
ENDMDL
MODEL 3
REMARK VINA RESULT: -7.419857951      0.908      1.030
REMARK  7 active torsions:
REMARK  status: ('A' for Active; 'I' for Inactive)
REMARK    1  A    between atoms: S1_2  and  C2_3 
REMARK    2  A    between atoms: C2_3  and  C3_4 
REMARK    3  A    between atoms: C3_4  and  C4_5 
REMARK    4  A    between atoms: C4_5  and  O1_6 
REMARK    5  A    between atoms: O1_6  and  C5_7 
REMARK    6  A    between atoms: C13_15  and  O2_16 
REMARK    7  A    between atoms: C23_27  and  O3_28 
ROOT
HETATM    1  C5  UNL     1      12.041 159.142  37.978  1.00  0.00     0.151 C 
HETATM    2  C6  UNL     1      12.058 158.569  36.550  1.00  0.00     0.040 C 
HETATM    3  C7  UNL     1      11.276 157.342  36.748  1.00  0.00     0.003 C 
HETATM    4  C8  UNL     1      10.990 156.450  35.611  1.00  0.00    -0.001 C 
HETATM    5  C9  UNL     1      12.102 155.885  34.849  1.00  0.00     0.033 C 
HETATM    6  C10 UNL     1      11.740 154.586  34.246  1.00  0.00    -0.023 C 
HETATM    7  C11 UNL     1      10.593 153.968  34.298  1.00  0.00    -0.072 C 
HETATM    8  C12 UNL     1      10.323 152.654  33.655  1.00  0.00     0.066 C 
HETATM    9  C13 UNL     1       8.901 152.385  33.331  1.00  0.00     0.122 C 
HETATM   10  C14 UNL     1       7.890 152.854  34.315  1.00  0.00     0.033 C 
HETATM   11  C15 UNL     1       8.447 153.634  35.468  1.00  0.00     0.016 C 
HETATM   12  C16 UNL     1       9.493 154.610  35.046  1.00  0.00    -0.017 C 
HETATM   13  C17 UNL     1       8.829 155.619  34.109  1.00  0.00     0.020 C 
HETATM   14  C18 UNL     1      10.055 155.396  36.176  1.00  0.00     0.003 C 
HETATM   15  C19 UNL     1      10.766 154.635  37.228  1.00  0.00     0.007 C 
HETATM   16  C20 UNL     1      11.048 155.575  38.403  1.00  0.00     0.012 C 
HETATM   17  C21 UNL     1      11.898 156.738  37.961  1.00  0.00    -0.011 C 
HETATM   18  C22 UNL     1      13.344 156.458  37.934  1.00  0.00     0.018 C 
HETATM   19  C23 UNL     1      11.722 157.950  38.894  1.00  0.00     0.155 C 
ENDROOT
BRANCH   1  20
HETATM   20  O1  UNL     1      13.225 159.734  38.305  1.00  0.00    -0.383 OA
BRANCH  20  21
HETATM   21  C4  UNL     1      13.510 160.828  37.501  1.00  0.00     0.169 C 
BRANCH  21  22
HETATM   22  C3  UNL     1      12.778 162.084  37.899  1.00  0.00     0.036 C 
BRANCH  22  23
HETATM   23  C2  UNL     1      13.302 163.273  37.090  1.00  0.00     0.075 C 
BRANCH  23  24
HETATM   24  S1  UNL     1      12.213 164.702  37.262  1.00  0.00    -0.173 SA
HETATM   25  C1  UNL     1      11.811 164.880  39.021  1.00  0.00     0.089 C 
ENDBRANCH  23  24
ENDBRANCH  22  23
ENDBRANCH  21  22
ENDBRANCH  20  21
ENDBRANCH   1  20
BRANCH  19  26
HETATM   26  O3  UNL     1      12.575 157.896  39.970  1.00  0.00    -0.392 OA
ATOM     27  H3  UNL     1      12.121 157.643  40.765  1.00  0.00     0.210 HD
ENDBRANCH  19  26
BRANCH   9  28
HETATM   28  O2  UNL     1       8.613 152.857  32.027  1.00  0.00    -0.395 OA
ATOM     29  H2  UNL     1       8.813 153.785  31.971  1.00  0.00     0.210 HD
ENDBRANCH   9  28
TORSDOF 7
ENDMDL
MODEL 4
REMARK VINA RESULT: -7.024455761      4.381      8.738
REMARK  7 active torsions:
REMARK  status: ('A' for Active; 'I' for Inactive)
REMARK    1  A    between atoms: S1_2  and  C2_3 
REMARK    2  A    between atoms: C2_3  and  C3_4 
REMARK    3  A    between atoms: C3_4  and  C4_5 
REMARK    4  A    between atoms: C4_5  and  O1_6 
REMARK    5  A    between atoms: O1_6  and  C5_7 
REMARK    6  A    between atoms: C13_15  and  O2_16 
REMARK    7  A    between atoms: C23_27  and  O3_28 
ROOT
HETATM    1  C5  UNL     1       6.816 153.678  33.523  1.00  0.00     0.151 C 
HETATM    2  C6  UNL     1       7.456 154.386  34.730  1.00  0.00     0.040 C 
HETATM    3  C7  UNL     1       8.874 154.318  34.357  1.00  0.00     0.003 C 
HETATM    4  C8  UNL     1       9.903 154.918  35.224  1.00  0.00    -0.001 C 
HETATM    5  C9  UNL     1      10.016 154.471  36.612  1.00  0.00     0.033 C 
HETATM    6  C10 UNL     1      11.395 154.622  37.117  1.00  0.00    -0.023 C 
HETATM    7  C11 UNL     1      12.430 155.117  36.496  1.00  0.00    -0.072 C 
HETATM    8  C12 UNL     1      13.787 155.227  37.092  1.00  0.00     0.066 C 
HETATM    9  C13 UNL     1      14.654 156.279  36.508  1.00  0.00     0.122 C 
HETATM   10  C14 UNL     1      14.566 156.479  35.037  1.00  0.00     0.033 C 
HETATM   11  C15 UNL     1      13.524 155.648  34.350  1.00  0.00     0.016 C 
HETATM   12  C16 UNL     1      12.242 155.594  35.110  1.00  0.00    -0.017 C 
HETATM   13  C17 UNL     1      11.693 157.018  35.186  1.00  0.00     0.020 C 
HETATM   14  C18 UNL     1      11.195 154.777  34.443  1.00  0.00     0.003 C 
HETATM   15  C19 UNL     1      11.491 153.338  34.256  1.00  0.00     0.007 C 
HETATM   16  C20 UNL     1      10.418 152.734  33.347  1.00  0.00     0.012 C 
HETATM   17  C21 UNL     1       9.051 152.892  33.960  1.00  0.00    -0.011 C 
HETATM   18  C22 UNL     1       8.701 151.849  34.941  1.00  0.00     0.018 C 
HETATM   19  C23 UNL     1       7.945 152.849  32.889  1.00  0.00     0.155 C 
ENDROOT
BRANCH   1  20
HETATM   20  O1  UNL     1       5.757 152.902  33.887  1.00  0.00    -0.383 OA
BRANCH  20  21
HETATM   21  C4  UNL     1       4.667 153.654  34.301  1.00  0.00     0.169 C 
BRANCH  21  22
HETATM   22  C3  UNL     1       3.365 153.242  33.662  1.00  0.00     0.036 C 
BRANCH  22  23
HETATM   23  C2  UNL     1       3.340 151.725  33.458  1.00  0.00     0.075 C 
BRANCH  23  24
HETATM   24  S1  UNL     1       1.929 150.983  34.305  1.00  0.00    -0.173 SA
HETATM   25  C1  UNL     1       1.661 151.907  35.842  1.00  0.00     0.089 C 
ENDBRANCH  23  24
ENDBRANCH  22  23
ENDBRANCH  21  22
ENDBRANCH  20  21
ENDBRANCH   1  20
BRANCH  19  26
HETATM   26  O3  UNL     1       7.541 151.563  32.623  1.00  0.00    -0.392 OA
ATOM     27  H3  UNL     1       7.388 151.429  31.695  1.00  0.00     0.210 HD
ENDBRANCH  19  26
BRANCH   9  28
HETATM   28  O2  UNL     1      14.465 157.495  37.209  1.00  0.00    -0.395 OA
ATOM     29  H2  UNL     1      15.272 157.740  37.648  1.00  0.00     0.210 HD
ENDBRANCH   9  28
TORSDOF 7
ENDMDL
MODEL 5
REMARK VINA RESULT: -6.860615671      4.353      8.721
REMARK  7 active torsions:
REMARK  status: ('A' for Active; 'I' for Inactive)
REMARK    1  A    between atoms: S1_2  and  C2_3 
REMARK    2  A    between atoms: C2_3  and  C3_4 
REMARK    3  A    between atoms: C3_4  and  C4_5 
REMARK    4  A    between atoms: C4_5  and  O1_6 
REMARK    5  A    between atoms: O1_6  and  C5_7 
REMARK    6  A    between atoms: C13_15  and  O2_16 
REMARK    7  A    between atoms: C23_27  and  O3_28 
ROOT
HETATM    1  C5  UNL     1       6.743 153.630  33.530  1.00  0.00     0.151 C 
HETATM    2  C6  UNL     1       7.380 154.342  34.736  1.00  0.00     0.040 C 
HETATM    3  C7  UNL     1       8.798 154.282  34.360  1.00  0.00     0.003 C 
HETATM    4  C8  UNL     1       9.824 154.888  35.226  1.00  0.00    -0.001 C 
HETATM    5  C9  UNL     1       9.942 154.442  36.614  1.00  0.00     0.033 C 
HETATM    6  C10 UNL     1      11.321 154.601  37.117  1.00  0.00    -0.023 C 
HETATM    7  C11 UNL     1      12.352 155.101  36.494  1.00  0.00    -0.072 C 
HETATM    8  C12 UNL     1      13.710 155.220  37.088  1.00  0.00     0.066 C 
HETATM    9  C13 UNL     1      14.571 156.276  36.502  1.00  0.00     0.122 C 
HETATM   10  C14 UNL     1      14.479 156.475  35.031  1.00  0.00     0.033 C 
HETATM   11  C15 UNL     1      13.441 155.637  34.346  1.00  0.00     0.016 C 
HETATM   12  C16 UNL     1      12.160 155.577  35.108  1.00  0.00    -0.017 C 
HETATM   13  C17 UNL     1      11.603 156.998  35.184  1.00  0.00     0.020 C 
HETATM   14  C18 UNL     1      11.117 154.753  34.443  1.00  0.00     0.003 C 
HETATM   15  C19 UNL     1      11.420 153.317  34.256  1.00  0.00     0.007 C 
HETATM   16  C20 UNL     1      10.349 152.706  33.349  1.00  0.00     0.012 C 
HETATM   17  C21 UNL     1       8.982 152.856  33.964  1.00  0.00    -0.011 C 
HETATM   18  C22 UNL     1       8.639 151.813  34.946  1.00  0.00     0.018 C 
HETATM   19  C23 UNL     1       7.875 152.807  32.895  1.00  0.00     0.155 C 
ENDROOT
BRANCH   1  20
HETATM   20  O1  UNL     1       5.688 152.848  33.897  1.00  0.00    -0.383 OA
BRANCH  20  21
HETATM   21  C4  UNL     1       4.620 153.591  34.377  1.00  0.00     0.169 C 
BRANCH  21  22
HETATM   22  C3  UNL     1       3.292 152.885  34.275  1.00  0.00     0.036 C 
BRANCH  22  23
HETATM   23  C2  UNL     1       3.435 151.625  33.417  1.00  0.00     0.075 C 
BRANCH  23  24
HETATM   24  S1  UNL     1       2.092 151.505  32.217  1.00  0.00    -0.173 SA
HETATM   25  C1  UNL     1       2.216 152.933  31.107  1.00  0.00     0.089 C 
ENDBRANCH  23  24
ENDBRANCH  22  23
ENDBRANCH  21  22
ENDBRANCH  20  21
ENDBRANCH   1  20
BRANCH  19  26
HETATM   26  O3  UNL     1       7.477 151.519  32.630  1.00  0.00    -0.392 OA
ATOM     27  H3  UNL     1       8.033 151.108  31.978  1.00  0.00     0.210 HD
ENDBRANCH  19  26
BRANCH   9  28
HETATM   28  O2  UNL     1      14.376 157.492  37.202  1.00  0.00    -0.395 OA
ATOM     29  H2  UNL     1      15.027 158.127  36.926  1.00  0.00     0.210 HD
ENDBRANCH   9  28
TORSDOF 7
ENDMDL
