MODEL 1
REMARK VINA RESULT: -7.311665398      0.000      0.000
REMARK  9 active torsions:
REMARK  status: ('A' for Active; 'I' for Inactive)
REMARK    1  A    between atoms: C2_2  and  C3_3 
REMARK    2  A    between atoms: C3_3  and  C4_4 
REMARK    3  A    between atoms: C4_4  and  C5_5 
REMARK    4  A    between atoms: C5_5  and  C6_6 
REMARK    5  A    between atoms: C6_6  and  C7_7 
REMARK    6  A    between atoms: C15_15  and  O1_16 
REMARK    7  A    between atoms: C18_20  and  O2_22 
REMARK    8  A    between atoms: C20_24  and  O3_25 
REMARK    9  A    between atoms: C24_30  and  O4_31 
ROOT
HETATM    1  C7  UNL     1       4.196 152.869  34.259  1.00  0.00    -0.025 C 
HETATM    2  C8  UNL     1       4.083 152.126  33.190  1.00  0.00     0.009 C 
HETATM    3  C9  UNL     1       3.038 151.271  32.662  1.00  0.00    -0.003 C 
HETATM    4  C10 UNL     1       2.131 151.531  31.702  1.00  0.00    -0.019 C 
HETATM    5  C11 UNL     1       2.079 152.833  30.992  1.00  0.00     0.026 C 
HETATM    6  C12 UNL     1       1.220 152.707  29.760  1.00  0.00     0.018 C 
HETATM    7  C13 UNL     1       1.779 153.994  31.853  1.00  0.00    -0.020 C 
HETATM    8  C14 UNL     1       0.736 154.352  32.518  1.00  0.00     0.002 C 
HETATM    9  C15 UNL     1      -0.599 153.736  32.689  1.00  0.00     0.147 C 
HETATM   10  C16 UNL     1      -1.052 153.683  34.145  1.00  0.00     0.055 C 
HETATM   11  C17 UNL     1      -0.564 154.868  34.949  1.00  0.00     0.016 C 
HETATM   12  C18 UNL     1      -0.855 152.358  34.775  1.00  0.00     0.109 C 
HETATM   13  C19 UNL     1      -2.312 151.879  35.163  1.00  0.00     0.053 C 
HETATM   14  C20 UNL     1      -0.078 152.372  36.039  1.00  0.00     0.083 C 
HETATM   15  C21 UNL     1       1.201 151.872  36.476  1.00  0.00    -0.027 C 
HETATM   16  C22 UNL     1       0.987 150.769  37.577  1.00  0.00     0.051 C 
HETATM   17  C23 UNL     1       2.452 152.165  36.197  1.00  0.00     0.046 C 
HETATM   18  C24 UNL     1       3.267 153.010  35.420  1.00  0.00     0.072 C 
ENDROOT
BRANCH   1  19
HETATM   19  C6  UNL     1       5.525 153.642  34.391  1.00  0.00     0.041 C 
BRANCH  19  20
HETATM   20  C5  UNL     1       6.645 152.758  34.715  1.00  0.00     0.005 C 
BRANCH  20  21
HETATM   21  C4  UNL     1       7.978 153.377  34.175  1.00  0.00     0.000 C 
BRANCH  21  22
HETATM   22  C3  UNL     1       8.654 154.136  35.265  1.00  0.00    -0.000 C 
BRANCH  22  23
HETATM   23  C2  UNL     1       9.245 155.445  34.804  1.00  0.00    -0.005 C 
HETATM   24  C1  UNL     1      10.372 155.909  35.687  1.00  0.00     0.005 C 
ENDBRANCH  22  23
ENDBRANCH  21  22
ENDBRANCH  20  21
ENDBRANCH  19  20
ENDBRANCH   1  19
BRANCH  18  25
HETATM   25  O4  UNL     1       3.267 154.280  35.753  1.00  0.00    -0.360 OA
ATOM     26  H4  UNL     1       2.621 154.382  36.442  1.00  0.00     0.217 HD
ENDBRANCH  18  25
BRANCH  14  27
HETATM   27  O3  UNL     1      -0.813 153.016  36.925  1.00  0.00    -0.361 OA
ATOM     28  H3  UNL     1      -0.772 152.511  37.729  1.00  0.00     0.217 HD
ENDBRANCH  14  27
BRANCH  12  29
HETATM   29  O2  UNL     1      -0.515 151.304  33.950  1.00  0.00    -0.383 OA
ATOM     30  H2  UNL     1      -1.008 150.498  34.043  1.00  0.00     0.211 HD
ENDBRANCH  12  29
BRANCH   9  31
HETATM   31  O1  UNL     1      -0.817 152.558  32.036  1.00  0.00    -0.391 OA
ATOM     32  H1  UNL     1      -0.333 152.424  31.229  1.00  0.00     0.210 HD
ENDBRANCH   9  31
TORSDOF 9
ENDMDL
MODEL 2
REMARK VINA RESULT: -7.116645558      1.992      4.178
REMARK  9 active torsions:
REMARK  status: ('A' for Active; 'I' for Inactive)
REMARK    1  A    between atoms: C2_2  and  C3_3 
REMARK    2  A    between atoms: C3_3  and  C4_4 
REMARK    3  A    between atoms: C4_4  and  C5_5 
REMARK    4  A    between atoms: C5_5  and  C6_6 
REMARK    5  A    between atoms: C6_6  and  C7_7 
REMARK    6  A    between atoms: C15_15  and  O1_16 
REMARK    7  A    between atoms: C18_20  and  O2_22 
REMARK    8  A    between atoms: C20_24  and  O3_25 
REMARK    9  A    between atoms: C24_30  and  O4_31 
ROOT
HETATM    1  C7  UNL     1       3.605 152.639  33.306  1.00  0.00    -0.025 C 
HETATM    2  C8  UNL     1       2.935 153.691  33.696  1.00  0.00     0.009 C 
HETATM    3  C9  UNL     1       1.525 154.020  33.767  1.00  0.00    -0.003 C 
HETATM    4  C10 UNL     1       0.698 153.989  34.829  1.00  0.00    -0.019 C 
HETATM    5  C11 UNL     1       1.158 153.589  36.181  1.00  0.00     0.026 C 
HETATM    6  C12 UNL     1       0.128 153.987  37.208  1.00  0.00     0.018 C 
HETATM    7  C13 UNL     1       1.643 152.199  36.282  1.00  0.00    -0.020 C 
HETATM    8  C14 UNL     1       1.064 151.053  36.176  1.00  0.00     0.002 C 
HETATM    9  C15 UNL     1      -0.339 150.665  35.906  1.00  0.00     0.147 C 
HETATM   10  C16 UNL     1      -0.467 149.588  34.833  1.00  0.00     0.055 C 
HETATM   11  C17 UNL     1       0.688 148.610  34.851  1.00  0.00     0.016 C 
HETATM   12  C18 UNL     1      -0.831 150.123  33.502  1.00  0.00     0.109 C 
HETATM   13  C19 UNL     1      -2.227 149.457  33.171  1.00  0.00     0.053 C 
HETATM   14  C20 UNL     1       0.080 149.735  32.398  1.00  0.00     0.083 C 
HETATM   15  C21 UNL     1       1.003 150.416  31.525  1.00  0.00    -0.027 C 
HETATM   16  C22 UNL     1       0.492 150.323  30.041  1.00  0.00     0.051 C 
HETATM   17  C23 UNL     1       2.155 151.028  31.696  1.00  0.00     0.046 C 
HETATM   18  C24 UNL     1       3.112 151.383  32.665  1.00  0.00     0.072 C 
ENDROOT
BRANCH   1  19
HETATM   19  C6  UNL     1       5.139 152.743  33.439  1.00  0.00     0.041 C 
BRANCH  19  20
HETATM   20  C5  UNL     1       5.544 153.227  34.760  1.00  0.00     0.005 C 
BRANCH  20  21
HETATM   21  C4  UNL     1       7.042 152.852  35.021  1.00  0.00     0.000 C 
BRANCH  21  22
HETATM   22  C3  UNL     1       7.926 153.929  34.493  1.00  0.00    -0.000 C 
BRANCH  22  23
HETATM   23  C2  UNL     1       8.947 154.408  35.494  1.00  0.00    -0.005 C 
HETATM   24  C1  UNL     1       9.599 155.698  35.076  1.00  0.00     0.005 C 
ENDBRANCH  22  23
ENDBRANCH  21  22
ENDBRANCH  20  21
ENDBRANCH  19  20
ENDBRANCH   1  19
BRANCH  18  25
HETATM   25  O4  UNL     1       3.803 150.396  33.185  1.00  0.00    -0.360 OA
ATOM     26  H4  UNL     1       3.231 149.637  33.193  1.00  0.00     0.217 HD
ENDBRANCH  18  25
BRANCH  14  27
HETATM   27  O3  UNL     1      -0.054 148.431  32.240  1.00  0.00    -0.361 OA
ATOM     28  H3  UNL     1       0.711 148.137  31.759  1.00  0.00     0.217 HD
ENDBRANCH  14  27
BRANCH  12  29
HETATM   29  O2  UNL     1      -1.222 151.446  33.432  1.00  0.00    -0.383 OA
ATOM     30  H2  UNL     1      -1.495 151.778  32.585  1.00  0.00     0.211 HD
ENDBRANCH  12  29
BRANCH   9  31
HETATM   31  O1  UNL     1      -1.231 151.682  35.728  1.00  0.00    -0.391 OA
ATOM     32  H1  UNL     1      -2.151 151.444  35.722  1.00  0.00     0.210 HD
ENDBRANCH   9  31
TORSDOF 9
ENDMDL
MODEL 3
REMARK VINA RESULT: -6.948269294      1.605      4.071
REMARK  9 active torsions:
REMARK  status: ('A' for Active; 'I' for Inactive)
REMARK    1  A    between atoms: C2_2  and  C3_3 
REMARK    2  A    between atoms: C3_3  and  C4_4 
REMARK    3  A    between atoms: C4_4  and  C5_5 
REMARK    4  A    between atoms: C5_5  and  C6_6 
REMARK    5  A    between atoms: C6_6  and  C7_7 
REMARK    6  A    between atoms: C15_15  and  O1_16 
REMARK    7  A    between atoms: C18_20  and  O2_22 
REMARK    8  A    between atoms: C20_24  and  O3_25 
REMARK    9  A    between atoms: C24_30  and  O4_31 
ROOT
HETATM    1  C7  UNL     1       3.661 152.950  33.929  1.00  0.00    -0.025 C 
HETATM    2  C8  UNL     1       3.581 153.156  35.217  1.00  0.00     0.009 C 
HETATM    3  C9  UNL     1       2.547 153.670  36.095  1.00  0.00    -0.003 C 
HETATM    4  C10 UNL     1       1.682 152.995  36.875  1.00  0.00    -0.019 C 
HETATM    5  C11 UNL     1       1.674 151.514  36.953  1.00  0.00     0.026 C 
HETATM    6  C12 UNL     1       0.863 151.072  38.144  1.00  0.00     0.018 C 
HETATM    7  C13 UNL     1       1.354 150.831  35.685  1.00  0.00    -0.020 C 
HETATM    8  C14 UNL     1       0.290 150.765  34.962  1.00  0.00     0.002 C 
HETATM    9  C15 UNL     1      -1.058 151.358  35.114  1.00  0.00     0.147 C 
HETATM   10  C16 UNL     1      -1.568 152.021  33.839  1.00  0.00     0.055 C 
HETATM   11  C17 UNL     1      -1.098 151.314  32.587  1.00  0.00     0.016 C 
HETATM   12  C18 UNL     1      -1.412 153.493  33.838  1.00  0.00     0.109 C 
HETATM   13  C19 UNL     1      -2.889 154.052  33.739  1.00  0.00     0.053 C 
HETATM   14  C20 UNL     1      -0.685 154.048  32.670  1.00  0.00     0.083 C 
HETATM   15  C21 UNL     1       0.569 154.723  32.453  1.00  0.00    -0.027 C 
HETATM   16  C22 UNL     1       0.299 156.186  31.944  1.00  0.00     0.051 C 
HETATM   17  C23 UNL     1       1.834 154.373  32.540  1.00  0.00     0.046 C 
HETATM   18  C24 UNL     1       2.689 153.298  32.850  1.00  0.00     0.072 C 
ENDROOT
BRANCH   1  19
HETATM   19  C6  UNL     1       4.993 152.347  33.436  1.00  0.00     0.041 C 
BRANCH  19  20
HETATM   20  C5  UNL     1       6.151 153.091  33.934  1.00  0.00     0.005 C 
BRANCH  20  21
HETATM   21  C4  UNL     1       7.447 152.594  33.211  1.00  0.00     0.000 C 
BRANCH  21  22
HETATM   22  C3  UNL     1       8.637 153.277  33.791  1.00  0.00    -0.000 C 
BRANCH  22  23
HETATM   23  C2  UNL     1       8.289 154.269  34.873  1.00  0.00    -0.005 C 
HETATM   24  C1  UNL     1       9.265 155.412  34.940  1.00  0.00     0.005 C 
ENDBRANCH  22  23
ENDBRANCH  21  22
ENDBRANCH  20  21
ENDBRANCH  19  20
ENDBRANCH   1  19
BRANCH  18  25
HETATM   25  O4  UNL     1       2.692 152.297  32.001  1.00  0.00    -0.360 OA
ATOM     26  H4  UNL     1       2.654 152.676  31.131  1.00  0.00     0.217 HD
ENDBRANCH  18  25
BRANCH  14  27
HETATM   27  O3  UNL     1      -1.447 153.829  31.614  1.00  0.00    -0.361 OA
ATOM     28  H3  UNL     1      -1.889 153.002  31.766  1.00  0.00     0.217 HD
ENDBRANCH  14  27
BRANCH  12  29
HETATM   29  O2  UNL     1      -1.052 154.097  35.027  1.00  0.00    -0.383 OA
ATOM     30  H2  UNL     1      -1.600 153.931  35.786  1.00  0.00     0.211 HD
ENDBRANCH  12  29
BRANCH   9  31
HETATM   31  O1  UNL     1      -1.263 152.132  36.219  1.00  0.00    -0.391 OA
ATOM     32  H1  UNL     1      -1.106 153.064  36.120  1.00  0.00     0.210 HD
ENDBRANCH   9  31
TORSDOF 9
ENDMDL
MODEL 4
REMARK VINA RESULT: -6.817350516      1.043      1.204
REMARK  9 active torsions:
REMARK  status: ('A' for Active; 'I' for Inactive)
REMARK    1  A    between atoms: C2_2  and  C3_3 
REMARK    2  A    between atoms: C3_3  and  C4_4 
REMARK    3  A    between atoms: C4_4  and  C5_5 
REMARK    4  A    between atoms: C5_5  and  C6_6 
REMARK    5  A    between atoms: C6_6  and  C7_7 
REMARK    6  A    between atoms: C15_15  and  O1_16 
REMARK    7  A    between atoms: C18_20  and  O2_22 
REMARK    8  A    between atoms: C20_24  and  O3_25 
REMARK    9  A    between atoms: C24_30  and  O4_31 
ROOT
HETATM    1  C7  UNL     1       4.198 152.491  33.663  1.00  0.00    -0.025 C 
HETATM    2  C8  UNL     1       3.886 151.464  32.917  1.00  0.00     0.009 C 
HETATM    3  C9  UNL     1       2.658 150.732  32.672  1.00  0.00    -0.003 C 
HETATM    4  C10 UNL     1       1.802 150.832  31.638  1.00  0.00    -0.019 C 
HETATM    5  C11 UNL     1       2.019 151.779  30.517  1.00  0.00     0.026 C 
HETATM    6  C12 UNL     1       1.113 151.422  29.367  1.00  0.00     0.018 C 
HETATM    7  C13 UNL     1       2.015 153.203  30.902  1.00  0.00    -0.020 C 
HETATM    8  C14 UNL     1       1.101 153.994  31.349  1.00  0.00     0.002 C 
HETATM    9  C15 UNL     1      -0.331 153.789  31.661  1.00  0.00     0.147 C 
HETATM   10  C16 UNL     1      -0.736 154.352  33.019  1.00  0.00     0.055 C 
HETATM   11  C17 UNL     1       0.032 155.604  33.382  1.00  0.00     0.016 C 
HETATM   12  C18 UNL     1      -0.819 153.324  34.081  1.00  0.00     0.109 C 
HETATM   13  C19 UNL     1      -2.332 153.347  34.542  1.00  0.00     0.053 C 
HETATM   14  C20 UNL     1      -0.017 153.609  35.296  1.00  0.00     0.083 C 
HETATM   15  C21 UNL     1       1.132 153.024  35.942  1.00  0.00    -0.027 C 
HETATM   16  C22 UNL     1       0.714 152.455  37.347  1.00  0.00     0.051 C 
HETATM   17  C23 UNL     1       2.407 152.917  35.639  1.00  0.00     0.046 C 
HETATM   18  C24 UNL     1       3.364 153.232  34.656  1.00  0.00     0.072 C 
ENDROOT
BRANCH   1  19
HETATM   19  C6  UNL     1       5.670 152.946  33.580  1.00  0.00     0.041 C 
BRANCH  19  20
HETATM   20  C5  UNL     1       6.428 152.578  34.777  1.00  0.00     0.005 C 
BRANCH  20  21
HETATM   21  C4  UNL     1       7.911 152.267  34.386  1.00  0.00     0.000 C 
BRANCH  21  22
HETATM   22  C3  UNL     1       8.628 153.540  34.091  1.00  0.00    -0.000 C 
BRANCH  22  23
HETATM   23  C2  UNL     1       8.900 154.371  35.320  1.00  0.00    -0.005 C 
HETATM   24  C1  UNL     1       9.485 155.716  34.985  1.00  0.00     0.005 C 
ENDBRANCH  22  23
ENDBRANCH  21  22
ENDBRANCH  20  21
ENDBRANCH  19  20
ENDBRANCH   1  19
BRANCH  18  25
HETATM   25  O4  UNL     1       3.660 154.504  34.523  1.00  0.00    -0.360 OA
ATOM     26  H4  UNL     1       3.146 154.973  35.171  1.00  0.00     0.217 HD
ENDBRANCH  18  25
BRANCH  14  27
HETATM   27  O3  UNL     1      -0.559 154.668  35.866  1.00  0.00    -0.361 OA
ATOM     28  H3  UNL     1      -0.256 154.677  36.766  1.00  0.00     0.217 HD
ENDBRANCH  14  27
BRANCH  12  29
HETATM   29  O2  UNL     1      -0.751 152.000  33.694  1.00  0.00    -0.383 OA
ATOM     30  H2  UNL     1      -0.887 151.340  34.364  1.00  0.00     0.211 HD
ENDBRANCH  12  29
BRANCH   9  31
HETATM   31  O1  UNL     1      -0.828 152.536  31.450  1.00  0.00    -0.391 OA
ATOM     32  H1  UNL     1      -0.887 152.247  30.547  1.00  0.00     0.210 HD
ENDBRANCH   9  31
TORSDOF 9
ENDMDL
MODEL 5
REMARK VINA RESULT: -6.758361800      0.859      1.048
REMARK  9 active torsions:
REMARK  status: ('A' for Active; 'I' for Inactive)
REMARK    1  A    between atoms: C2_2  and  C3_3 
REMARK    2  A    between atoms: C3_3  and  C4_4 
REMARK    3  A    between atoms: C4_4  and  C5_5 
REMARK    4  A    between atoms: C5_5  and  C6_6 
REMARK    5  A    between atoms: C6_6  and  C7_7 
REMARK    6  A    between atoms: C15_15  and  O1_16 
REMARK    7  A    between atoms: C18_20  and  O2_22 
REMARK    8  A    between atoms: C20_24  and  O3_25 
REMARK    9  A    between atoms: C24_30  and  O4_31 
ROOT
HETATM    1  C7  UNL     1       3.831 152.933  34.168  1.00  0.00    -0.025 C 
HETATM    2  C8  UNL     1       3.658 152.402  32.986  1.00  0.00     0.009 C 
HETATM    3  C9  UNL     1       2.558 151.708  32.343  1.00  0.00    -0.003 C 
HETATM    4  C10 UNL     1       1.648 152.182  31.472  1.00  0.00    -0.019 C 
HETATM    5  C11 UNL     1       1.651 153.591  31.011  1.00  0.00     0.026 C 
HETATM    6  C12 UNL     1       0.762 153.733  29.801  1.00  0.00     0.018 C 
HETATM    7  C13 UNL     1       1.430 154.590  32.074  1.00  0.00    -0.020 C 
HETATM    8  C14 UNL     1       0.420 154.873  32.823  1.00  0.00     0.002 C 
HETATM    9  C15 UNL     1      -0.942 154.301  32.920  1.00  0.00     0.147 C 
HETATM   10  C16 UNL     1      -1.368 154.007  34.354  1.00  0.00     0.055 C 
HETATM   11  C17 UNL     1      -0.802 155.001  35.344  1.00  0.00     0.016 C 
HETATM   12  C18 UNL     1      -1.229 152.582  34.730  1.00  0.00     0.109 C 
HETATM   13  C19 UNL     1      -2.701 152.112  35.068  1.00  0.00     0.053 C 
HETATM   14  C20 UNL     1      -0.427 152.329  35.952  1.00  0.00     0.083 C 
HETATM   15  C21 UNL     1       0.832 151.696  36.255  1.00  0.00    -0.027 C 
HETATM   16  C22 UNL     1       0.583 150.424  37.146  1.00  0.00     0.051 C 
HETATM   17  C23 UNL     1       2.092 151.975  35.997  1.00  0.00     0.046 C 
HETATM   18  C24 UNL     1       2.934 152.906  35.362  1.00  0.00     0.072 C 
ENDROOT
BRANCH   1  19
HETATM   19  C6  UNL     1       5.202 153.604  34.397  1.00  0.00     0.041 C 
BRANCH  19  20
HETATM   20  C5  UNL     1       6.291 152.860  33.763  1.00  0.00     0.005 C 
BRANCH  20  21
HETATM   21  C4  UNL     1       7.489 152.728  34.761  1.00  0.00     0.000 C 
BRANCH  21  22
HETATM   22  C3  UNL     1       8.258 154.004  34.792  1.00  0.00    -0.000 C 
BRANCH  22  23
HETATM   23  C2  UNL     1       9.580 153.923  34.070  1.00  0.00    -0.005 C 
HETATM   24  C1  UNL     1       9.763 152.613  33.352  1.00  0.00     0.005 C 
ENDBRANCH  22  23
ENDBRANCH  21  22
ENDBRANCH  20  21
ENDBRANCH  19  20
ENDBRANCH   1  19
BRANCH  18  25
HETATM   25  O4  UNL     1       3.008 154.093  35.917  1.00  0.00    -0.360 OA
ATOM     26  H4  UNL     1       3.165 153.952  36.844  1.00  0.00     0.217 HD
ENDBRANCH  18  25
BRANCH  14  27
HETATM   27  O3  UNL     1      -1.109 152.836  36.961  1.00  0.00    -0.361 OA
ATOM     28  H3  UNL     1      -0.935 153.771  36.963  1.00  0.00     0.217 HD
ENDBRANCH  14  27
BRANCH  12  29
HETATM   29  O2  UNL     1      -0.961 151.680  33.719  1.00  0.00    -0.383 OA
ATOM     30  H2  UNL     1      -1.700 151.341  33.227  1.00  0.00     0.211 HD
ENDBRANCH  12  29
BRANCH   9  31
HETATM   31  O1  UNL     1      -1.234 153.273  32.072  1.00  0.00    -0.391 OA
ATOM     32  H1  UNL     1      -2.128 152.952  32.084  1.00  0.00     0.210 HD
ENDBRANCH   9  31
TORSDOF 9
ENDMDL
