MODEL 1
REMARK VINA RESULT: -7.464533512      0.000      0.000
REMARK  6 active torsions:
REMARK  status: ('A' for Active; 'I' for Inactive)
REMARK    1  A    between atoms: C6_6  and  C8_8 
REMARK    2  A    between atoms: C8_8  and  C9_9 
REMARK    3  A    between atoms: C9_9  and  O1_11 
REMARK    4  A    between atoms: C9_9  and  C11_13 
REMARK    5  A    between atoms: C22_26  and  C24_28 
REMARK    6  A    between atoms: C24_28  and  O4_29 
ROOT
HETATM    1  C1  UNL     1      10.462 155.751  39.617  1.00  0.00     0.020 C 
HETATM    2  C2  UNL     1      11.588 155.704  38.938  1.00  0.00    -0.055 C 
HETATM    3  C3  UNL     1      11.822 154.385  38.331  1.00  0.00     0.003 C 
HETATM    4  C4  UNL     1      12.676 154.175  37.191  1.00  0.00    -0.020 C 
HETATM    5  C5  UNL     1      13.007 155.250  36.195  1.00  0.00     0.028 C 
HETATM    6  C6  UNL     1      11.929 155.519  35.228  1.00  0.00    -0.034 C 
HETATM    7  C7  UNL     1      12.186 156.616  34.220  1.00  0.00     0.016 C 
HETATM    8  C13 UNL     1      10.757 156.114  36.057  1.00  0.00     0.011 C 
HETATM    9  C14 UNL     1      11.179 157.244  36.856  1.00  0.00     0.017 C 
HETATM   10  C15 UNL     1      12.578 157.325  37.440  1.00  0.00     0.014 C 
HETATM   11  C16 UNL     1      12.814 158.784  37.514  1.00  0.00    -0.009 A 
HETATM   12  C17 UNL     1      13.243 159.932  36.832  1.00  0.00     0.150 A 
HETATM   13  O2  UNL     1      13.116 160.949  37.622  1.00  0.00    -0.333 OA
HETATM   14  C18 UNL     1      12.641 160.614  38.779  1.00  0.00     0.157 A 
HETATM   15  C19 UNL     1      12.437 159.241  38.741  1.00  0.00     0.042 A 
HETATM   16  C20 UNL     1      11.922 158.123  39.553  1.00  0.00     0.171 C 
HETATM   17  O3  UNL     1      11.225 158.358  40.568  1.00  0.00    -0.291 OA
HETATM   18  C21 UNL     1      12.401 156.925  38.913  1.00  0.00     0.107 C 
HETATM   19  C22 UNL     1      13.620 156.455  36.905  1.00  0.00    -0.002 C 
HETATM   20  C23 UNL     1      14.539 155.866  37.990  1.00  0.00     0.019 C 
ENDROOT
BRANCH   6  21
HETATM   21  C8  UNL     1      11.326 154.393  34.507  1.00  0.00     0.047 C 
BRANCH  21  22
HETATM   22  C9  UNL     1       9.914 154.225  34.245  1.00  0.00     0.054 C 
HETATM   23  C10 UNL     1       9.003 154.027  35.459  1.00  0.00     0.045 C 
BRANCH  22  24
HETATM   24  O1  UNL     1       9.232 155.136  33.463  1.00  0.00    -0.390 OA
ATOM     25  H1  UNL     1       9.193 156.052  33.714  1.00  0.00     0.210 HD
ENDBRANCH  22  24
BRANCH  22  26
HETATM   26  C11 UNL     1       9.758 152.878  33.497  1.00  0.00     0.033 C 
HETATM   27  C12 UNL     1       8.310 152.565  33.230  1.00  0.00     0.008 C 
ENDBRANCH  22  26
ENDBRANCH  21  22
ENDBRANCH   6  21
BRANCH  19  28
HETATM   28  C24 UNL     1      14.717 157.077  36.044  1.00  0.00     0.175 C 
BRANCH  28  29
HETATM   29  O4  UNL     1      15.895 157.324  36.792  1.00  0.00    -0.400 OA
ATOM     30  H4  UNL     1      15.827 158.123  37.302  1.00  0.00     0.209 HD
ENDBRANCH  28  29
ENDBRANCH  19  28
TORSDOF 6
ENDMDL
MODEL 2
REMARK VINA RESULT: -6.606750731      9.830     12.369
REMARK  6 active torsions:
REMARK  status: ('A' for Active; 'I' for Inactive)
REMARK    1  A    between atoms: C6_6  and  C8_8 
REMARK    2  A    between atoms: C8_8  and  C9_9 
REMARK    3  A    between atoms: C9_9  and  O1_11 
REMARK    4  A    between atoms: C9_9  and  C11_13 
REMARK    5  A    between atoms: C22_26  and  C24_28 
REMARK    6  A    between atoms: C24_28  and  O4_29 
ROOT
HETATM    1  C1  UNL     1      -0.585 149.538  34.343  1.00  0.00     0.020 C 
HETATM    2  C2  UNL     1       0.486 150.190  33.944  1.00  0.00    -0.055 C 
HETATM    3  C3  UNL     1       0.569 150.291  32.479  1.00  0.00     0.003 C 
HETATM    4  C4  UNL     1       1.325 151.306  31.794  1.00  0.00    -0.020 C 
HETATM    5  C5  UNL     1       1.678 152.631  32.407  1.00  0.00     0.028 C 
HETATM    6  C6  UNL     1       0.565 153.595  32.424  1.00  0.00    -0.034 C 
HETATM    7  C7  UNL     1       0.846 154.938  33.062  1.00  0.00     0.016 C 
HETATM    8  C13 UNL     1      -0.495 152.999  33.390  1.00  0.00     0.011 C 
HETATM    9  C14 UNL     1       0.071 152.672  34.681  1.00  0.00     0.017 C 
HETATM   10  C15 UNL     1       1.507 152.200  34.821  1.00  0.00     0.014 C 
HETATM   11  C16 UNL     1       1.869 152.663  36.179  1.00  0.00    -0.009 A 
HETATM   12  C17 UNL     1       2.346 153.724  36.961  1.00  0.00     0.150 A 
HETATM   13  O2  UNL     1       2.357 153.348  38.199  1.00  0.00    -0.333 OA
HETATM   14  C18 UNL     1       1.933 152.133  38.347  1.00  0.00     0.157 A 
HETATM   15  C19 UNL     1       1.612 151.669  37.077  1.00  0.00     0.042 A 
HETATM   16  C20 UNL     1       1.061 150.495  36.377  1.00  0.00     0.171 C 
HETATM   17  O3  UNL     1       0.454 149.610  37.026  1.00  0.00    -0.291 OA
HETATM   18  C21 UNL     1       1.395 150.678  34.988  1.00  0.00     0.107 C 
HETATM   19  C22 UNL     1       2.435 152.420  33.716  1.00  0.00    -0.002 C 
HETATM   20  C23 UNL     1       3.371 151.226  33.460  1.00  0.00     0.019 C 
ENDROOT
BRANCH   6  21
HETATM   21  C8  UNL     1      -0.176 153.845  31.183  1.00  0.00     0.047 C 
BRANCH  21  22
HETATM   22  C9  UNL     1       0.388 154.374  29.962  1.00  0.00     0.054 C 
HETATM   23  C10 UNL     1      -0.104 155.753  29.512  1.00  0.00     0.045 C 
BRANCH  22  24
HETATM   24  O1  UNL     1       1.756 154.437  29.790  1.00  0.00    -0.390 OA
ATOM     25  H1  UNL     1       2.337 153.939  30.354  1.00  0.00     0.210 HD
ENDBRANCH  22  24
BRANCH  22  26
HETATM   26  C11 UNL     1      -0.106 153.461  28.813  1.00  0.00     0.033 C 
HETATM   27  C12 UNL     1      -1.174 152.513  29.288  1.00  0.00     0.008 C 
ENDBRANCH  22  26
ENDBRANCH  21  22
ENDBRANCH   6  21
BRANCH  19  28
HETATM   28  C24 UNL     1       3.521 153.481  33.879  1.00  0.00     0.175 C 
BRANCH  28  29
HETATM   29  O4  UNL     1       4.779 152.903  34.181  1.00  0.00    -0.400 OA
ATOM     30  H4  UNL     1       5.444 153.161  33.554  1.00  0.00     0.209 HD
ENDBRANCH  28  29
ENDBRANCH  19  28
TORSDOF 6
ENDMDL
MODEL 3
REMARK VINA RESULT: -6.535627397      7.309     12.158
REMARK  6 active torsions:
REMARK  status: ('A' for Active; 'I' for Inactive)
REMARK    1  A    between atoms: C6_6  and  C8_8 
REMARK    2  A    between atoms: C8_8  and  C9_9 
REMARK    3  A    between atoms: C9_9  and  O1_11 
REMARK    4  A    between atoms: C9_9  and  C11_13 
REMARK    5  A    between atoms: C22_26  and  C24_28 
REMARK    6  A    between atoms: C24_28  and  O4_29 
ROOT
HETATM    1  C1  UNL     1       0.557 152.427  30.777  1.00  0.00     0.020 C 
HETATM    2  C2  UNL     1       0.956 151.885  31.907  1.00  0.00    -0.055 C 
HETATM    3  C3  UNL     1       2.255 151.208  31.777  1.00  0.00     0.003 C 
HETATM    4  C4  UNL     1       3.134 150.954  32.888  1.00  0.00    -0.020 C 
HETATM    5  C5  UNL     1       3.110 151.751  34.162  1.00  0.00     0.028 C 
HETATM    6  C6  UNL     1       3.769 153.064  34.054  1.00  0.00    -0.034 C 
HETATM    7  C7  UNL     1       3.748 153.932  35.293  1.00  0.00     0.016 C 
HETATM    8  C13 UNL     1       2.899 153.893  33.069  1.00  0.00     0.011 C 
HETATM    9  C14 UNL     1       1.508 153.920  33.466  1.00  0.00     0.017 C 
HETATM   10  C15 UNL     1       0.860 152.740  34.168  1.00  0.00     0.014 C 
HETATM   11  C16 UNL     1      -0.194 153.385  34.980  1.00  0.00    -0.009 A 
HETATM   12  C17 UNL     1      -0.509 154.027  36.187  1.00  0.00     0.150 A 
HETATM   13  O2  UNL     1      -1.754 154.379  36.151  1.00  0.00    -0.333 OA
HETATM   14  C18 UNL     1      -2.326 154.044  35.040  1.00  0.00     0.157 A 
HETATM   15  C19 UNL     1      -1.358 153.410  34.270  1.00  0.00     0.042 A 
HETATM   16  C20 UNL     1      -1.149 152.794  32.948  1.00  0.00     0.171 C 
HETATM   17  O3  UNL     1      -1.972 153.003  32.025  1.00  0.00    -0.291 OA
HETATM   18  C21 UNL     1       0.065 152.028  33.064  1.00  0.00     0.107 C 
HETATM   19  C22 UNL     1       1.713 151.723  34.775  1.00  0.00    -0.002 C 
HETATM   20  C23 UNL     1       1.200 150.289  34.557  1.00  0.00     0.019 C 
ENDROOT
BRANCH   6  21
HETATM   21  C8  UNL     1       5.121 153.136  33.491  1.00  0.00     0.047 C 
BRANCH  21  22
HETATM   22  C9  UNL     1       6.349 152.959  34.233  1.00  0.00     0.054 C 
HETATM   23  C10 UNL     1       7.215 154.203  34.446  1.00  0.00     0.045 C 
BRANCH  22  24
HETATM   24  O1  UNL     1       6.340 152.345  35.470  1.00  0.00    -0.390 OA
ATOM     25  H1  UNL     1       6.510 151.414  35.548  1.00  0.00     0.210 HD
ENDBRANCH  22  24
BRANCH  22  26
HETATM   26  C11 UNL     1       7.269 152.067  33.364  1.00  0.00     0.033 C 
HETATM   27  C12 UNL     1       8.515 152.803  32.951  1.00  0.00     0.008 C 
ENDBRANCH  22  26
ENDBRANCH  21  22
ENDBRANCH   6  21
BRANCH  19  28
HETATM   28  C24 UNL     1       1.802 151.663  36.299  1.00  0.00     0.175 C 
BRANCH  28  29
HETATM   29  O4  UNL     1       1.368 150.411  36.801  1.00  0.00    -0.400 OA
ATOM     30  H4  UNL     1       1.429 150.373  37.748  1.00  0.00     0.209 HD
ENDBRANCH  28  29
ENDBRANCH  19  28
TORSDOF 6
ENDMDL
MODEL 4
REMARK VINA RESULT: -6.501445145      1.891      5.842
REMARK  6 active torsions:
REMARK  status: ('A' for Active; 'I' for Inactive)
REMARK    1  A    between atoms: C6_6  and  C8_8 
REMARK    2  A    between atoms: C8_8  and  C9_9 
REMARK    3  A    between atoms: C9_9  and  O1_11 
REMARK    4  A    between atoms: C9_9  and  C11_13 
REMARK    5  A    between atoms: C22_26  and  C24_28 
REMARK    6  A    between atoms: C24_28  and  O4_29 
ROOT
HETATM    1  C1  UNL     1      10.577 154.488  35.093  1.00  0.00     0.020 C 
HETATM    2  C2  UNL     1      11.201 155.591  35.448  1.00  0.00    -0.055 C 
HETATM    3  C3  UNL     1      10.288 156.591  36.022  1.00  0.00     0.003 C 
HETATM    4  C4  UNL     1      10.718 157.648  36.900  1.00  0.00    -0.020 C 
HETATM    5  C5  UNL     1      11.970 157.578  37.729  1.00  0.00     0.028 C 
HETATM    6  C6  UNL     1      11.838 156.746  38.937  1.00  0.00    -0.034 C 
HETATM    7  C7  UNL     1      13.074 156.605  39.797  1.00  0.00     0.016 C 
HETATM    8  C13 UNL     1      11.636 155.292  38.428  1.00  0.00     0.011 C 
HETATM    9  C14 UNL     1      12.674 154.893  37.503  1.00  0.00     0.017 C 
HETATM   10  C15 UNL     1      13.326 155.891  36.563  1.00  0.00     0.014 C 
HETATM   11  C16 UNL     1      14.678 155.322  36.373  1.00  0.00    -0.009 A 
HETATM   12  C17 UNL     1      15.985 155.229  36.871  1.00  0.00     0.150 A 
HETATM   13  O2  UNL     1      16.660 154.434  36.104  1.00  0.00    -0.333 OA
HETATM   14  C18 UNL     1      15.946 153.970  35.130  1.00  0.00     0.157 A 
HETATM   15  C19 UNL     1      14.676 154.515  35.274  1.00  0.00     0.042 A 
HETATM   16  C20 UNL     1      13.331 154.493  34.673  1.00  0.00     0.171 C 
HETATM   17  O3  UNL     1      13.020 153.580  33.872  1.00  0.00    -0.291 OA
HETATM   18  C21 UNL     1      12.647 155.642  35.208  1.00  0.00     0.107 C 
HETATM   19  C22 UNL     1      13.180 157.318  36.835  1.00  0.00    -0.002 C 
HETATM   20  C23 UNL     1      12.940 158.158  35.568  1.00  0.00     0.019 C 
ENDROOT
BRANCH   6  21
HETATM   21  C8  UNL     1      10.702 156.975  39.836  1.00  0.00     0.047 C 
BRANCH  21  22
HETATM   22  C9  UNL     1      10.670 157.932  40.920  1.00  0.00     0.054 C 
HETATM   23  C10 UNL     1       9.316 158.167  41.596  1.00  0.00     0.045 C 
BRANCH  22  24
HETATM   24  O1  UNL     1      11.554 157.826  41.975  1.00  0.00    -0.390 OA
ATOM     25  H1  UNL     1      12.296 158.416  42.043  1.00  0.00     0.210 HD
ENDBRANCH  22  24
BRANCH  22  26
HETATM   26  C11 UNL     1      10.969 159.317  40.298  1.00  0.00     0.033 C 
HETATM   27  C12 UNL     1      10.688 160.427  41.276  1.00  0.00     0.008 C 
ENDBRANCH  22  26
ENDBRANCH  21  22
ENDBRANCH   6  21
BRANCH  19  28
HETATM   28  C24 UNL     1      14.394 158.089  37.347  1.00  0.00     0.175 C 
BRANCH  28  29
HETATM   29  O4  UNL     1      14.148 159.484  37.395  1.00  0.00    -0.400 OA
ATOM     30  H4  UNL     1      14.928 159.986  37.190  1.00  0.00     0.209 HD
ENDBRANCH  28  29
ENDBRANCH  19  28
TORSDOF 6
ENDMDL
MODEL 5
REMARK VINA RESULT: -6.348280567     10.186     12.974
REMARK  6 active torsions:
REMARK  status: ('A' for Active; 'I' for Inactive)
REMARK    1  A    between atoms: C6_6  and  C8_8 
REMARK    2  A    between atoms: C8_8  and  C9_9 
REMARK    3  A    between atoms: C9_9  and  O1_11 
REMARK    4  A    between atoms: C9_9  and  C11_13 
REMARK    5  A    between atoms: C22_26  and  C24_28 
REMARK    6  A    between atoms: C24_28  and  O4_29 
ROOT
HETATM    1  C1  UNL     1      -0.049 149.444  32.318  1.00  0.00     0.020 C 
HETATM    2  C2  UNL     1       0.849 150.343  32.659  1.00  0.00    -0.055 C 
HETATM    3  C3  UNL     1       1.274 151.172  31.521  1.00  0.00     0.003 C 
HETATM    4  C4  UNL     1       1.851 152.483  31.664  1.00  0.00    -0.020 C 
HETATM    5  C5  UNL     1       1.632 153.357  32.867  1.00  0.00     0.028 C 
HETATM    6  C6  UNL     1       0.321 154.028  32.884  1.00  0.00    -0.034 C 
HETATM    7  C7  UNL     1       0.023 154.895  34.087  1.00  0.00     0.016 C 
HETATM    8  C13 UNL     1      -0.731 152.895  33.040  1.00  0.00     0.011 C 
HETATM    9  C14 UNL     1      -0.447 152.045  34.175  1.00  0.00     0.017 C 
HETATM   10  C15 UNL     1       0.977 151.759  34.616  1.00  0.00     0.014 C 
HETATM   11  C16 UNL     1       0.826 151.523  36.068  1.00  0.00    -0.009 A 
HETATM   12  C17 UNL     1       0.754 152.103  37.343  1.00  0.00     0.150 A 
HETATM   13  O2  UNL     1       0.554 151.163  38.210  1.00  0.00    -0.333 OA
HETATM   14  C18 UNL     1       0.481 149.994  37.658  1.00  0.00     0.157 A 
HETATM   15  C19 UNL     1       0.648 150.190  36.293  1.00  0.00     0.042 A 
HETATM   16  C20 UNL     1       0.663 149.462  35.011  1.00  0.00     0.171 C 
HETATM   17  O3  UNL     1       0.195 148.301  34.948  1.00  0.00    -0.291 OA
HETATM   18  C21 UNL     1       1.275 150.357  34.063  1.00  0.00     0.107 C 
HETATM   19  C22 UNL     1       2.053 152.621  34.137  1.00  0.00    -0.002 C 
HETATM   20  C23 UNL     1       3.329 151.851  33.758  1.00  0.00     0.019 C 
ENDROOT
BRANCH   6  21
HETATM   21  C8  UNL     1      -0.115 154.765  31.693  1.00  0.00     0.047 C 
BRANCH  21  22
HETATM   22  C9  UNL     1       0.307 156.099  31.332  1.00  0.00     0.054 C 
HETATM   23  C10 UNL     1      -0.665 156.928  30.488  1.00  0.00     0.045 C 
BRANCH  22  24
HETATM   24  O1  UNL     1       0.744 156.983  32.298  1.00  0.00    -0.390 OA
ATOM     25  H1  UNL     1       0.162 157.261  32.996  1.00  0.00     0.210 HD
ENDBRANCH  22  24
BRANCH  22  26
HETATM   26  C11 UNL     1       1.515 155.940  30.377  1.00  0.00     0.033 C 
HETATM   27  C12 UNL     1       1.533 157.023  29.332  1.00  0.00     0.008 C 
ENDBRANCH  22  26
ENDBRANCH  21  22
ENDBRANCH   6  21
BRANCH  19  28
HETATM   28  C24 UNL     1       2.702 153.591  35.122  1.00  0.00     0.175 C 
BRANCH  28  29
HETATM   29  O4  UNL     1       3.762 154.316  34.524  1.00  0.00    -0.400 OA
ATOM     30  H4  UNL     1       4.154 153.836  33.805  1.00  0.00     0.209 HD
ENDBRANCH  28  29
ENDBRANCH  19  28
TORSDOF 6
ENDMDL
