MODEL 1
REMARK VINA RESULT: -5.549299859      0.000      0.000
REMARK  7 active torsions:
REMARK  status: ('A' for Active; 'I' for Inactive)
REMARK    1  A    between atoms: C9_9  and  C11_11 
REMARK    2  A    between atoms: C11_11  and  C12_12 
REMARK    3  A    between atoms: C14_14  and  O1_15 
REMARK    4  A    between atoms: C18_21  and  O3_23 
REMARK    5  A    between atoms: C20_25  and  O4_26 
REMARK    6  A    between atoms: O4_26  and  C21_27 
REMARK    7  A    between atoms: C21_27  and  C22_28 
ROOT
HETATM    1  C12 UNL     1       1.295 151.771  33.741  1.00  0.00     0.013 C 
HETATM    2  C13 UNL     1       2.505 150.928  34.017  1.00  0.00     0.020 C 
HETATM    3  C14 UNL     1       0.707 151.077  32.468  1.00  0.00     0.140 C 
HETATM    4  C15 UNL     1       1.481 151.279  31.242  1.00  0.00     0.084 C 
HETATM    5  C16 UNL     1       0.571 150.851  30.073  1.00  0.00     0.020 C 
HETATM    6  C17 UNL     1       1.732 152.741  30.979  1.00  0.00     0.169 C 
HETATM    7  O2  UNL     1       2.303 153.112  29.989  1.00  0.00    -0.294 OA
HETATM    8  C18 UNL     1       1.209 153.636  32.047  1.00  0.00     0.141 C 
HETATM    9  C19 UNL     1       1.779 155.011  31.778  1.00  0.00     0.057 C 
HETATM   10  C20 UNL     1       1.761 153.152  33.374  1.00  0.00     0.173 C 
ENDROOT
BRANCH   1  11
HETATM   11  C11 UNL     1       0.196 151.728  34.699  1.00  0.00     0.028 C 
BRANCH  11  12
HETATM   12  C9  UNL     1       0.063 152.450  35.945  1.00  0.00    -0.014 C 
HETATM   13  C2  UNL     1       1.130 152.161  36.942  1.00  0.00    -0.080 C 
HETATM   14  C1  UNL     1       2.077 152.958  37.364  1.00  0.00     0.015 C 
HETATM   15  C3  UNL     1       1.113 150.775  37.552  1.00  0.00     0.034 C 
HETATM   16  C4  UNL     1      -0.069 150.768  38.477  1.00  0.00     0.005 C 
HETATM   17  C5  UNL     1      -1.045 151.859  38.137  1.00  0.00     0.010 C 
HETATM   18  C6  UNL     1      -1.229 151.960  36.634  1.00  0.00    -0.036 C 
HETATM   19  C7  UNL     1      -2.375 152.944  36.409  1.00  0.00     0.016 C 
HETATM   20  C8  UNL     1      -1.743 150.650  36.163  1.00  0.00     0.016 C 
HETATM   21  C10 UNL     1      -0.103 153.949  35.915  1.00  0.00     0.021 C 
ENDBRANCH  11  12
ENDBRANCH   1  11
BRANCH   3  22
HETATM   22  O1  UNL     1       0.739 149.703  32.800  1.00  0.00    -0.394 OA
ATOM     23  H1  UNL     1      -0.175 149.446  32.764  1.00  0.00     0.210 HD
ENDBRANCH   3  22
BRANCH  10  24
HETATM   24  O4  UNL     1       3.147 153.240  33.264  1.00  0.00    -0.382 OA
BRANCH  24  25
HETATM   25  C21 UNL     1       3.742 153.867  34.355  1.00  0.00     0.168 C 
BRANCH  25  26
HETATM   26  C22 UNL     1       5.221 153.582  34.435  1.00  0.00     0.022 C 
HETATM   27  C23 UNL     1       5.563 152.562  33.389  1.00  0.00     0.007 C 
ENDBRANCH  25  26
ENDBRANCH  24  25
ENDBRANCH  10  24
BRANCH   8  28
HETATM   28  O3  UNL     1      -0.162 153.739  32.013  1.00  0.00    -0.380 OA
ATOM     29  H3  UNL     1      -0.504 154.211  32.763  1.00  0.00     0.211 HD
ENDBRANCH   8  28
TORSDOF 7
ENDMDL
MODEL 2
REMARK VINA RESULT: -5.541551231     16.924     20.588
REMARK  7 active torsions:
REMARK  status: ('A' for Active; 'I' for Inactive)
REMARK    1  A    between atoms: C9_9  and  C11_11 
REMARK    2  A    between atoms: C11_11  and  C12_12 
REMARK    3  A    between atoms: C14_14  and  O1_15 
REMARK    4  A    between atoms: C18_21  and  O3_23 
REMARK    5  A    between atoms: C20_25  and  O4_26 
REMARK    6  A    between atoms: O4_26  and  C21_27 
REMARK    7  A    between atoms: C21_27  and  C22_28 
ROOT
HETATM    1  C12 UNL     1      15.863 165.532  39.646  1.00  0.00     0.013 C 
HETATM    2  C13 UNL     1      15.361 166.943  39.720  1.00  0.00     0.020 C 
HETATM    3  C14 UNL     1      15.461 164.976  41.051  1.00  0.00     0.140 C 
HETATM    4  C15 UNL     1      16.247 165.500  42.170  1.00  0.00     0.084 C 
HETATM    5  C16 UNL     1      15.962 164.582  43.375  1.00  0.00     0.020 C 
HETATM    6  C17 UNL     1      17.727 165.328  41.936  1.00  0.00     0.169 C 
HETATM    7  O2  UNL     1      18.534 165.646  42.766  1.00  0.00    -0.294 OA
HETATM    8  C18 UNL     1      18.055 164.742  40.608  1.00  0.00     0.141 C 
HETATM    9  C19 UNL     1      19.548 164.897  40.423  1.00  0.00     0.057 C 
HETATM   10  C20 UNL     1      17.362 165.573  39.546  1.00  0.00     0.173 C 
ENDROOT
BRANCH   1  11
HETATM   11  C11 UNL     1      15.211 164.620  38.712  1.00  0.00     0.028 C 
BRANCH  11  12
HETATM   12  C9  UNL     1      13.983 164.817  37.975  1.00  0.00    -0.014 C 
HETATM   13  C2  UNL     1      12.910 163.835  38.292  1.00  0.00    -0.080 C 
HETATM   14  C1  UNL     1      11.778 164.049  38.913  1.00  0.00     0.015 C 
HETATM   15  C3  UNL     1      13.152 162.413  37.832  1.00  0.00     0.034 C 
HETATM   16  C4  UNL     1      12.991 162.450  36.340  1.00  0.00     0.005 C 
HETATM   17  C5  UNL     1      13.134 163.846  35.802  1.00  0.00     0.010 C 
HETATM   18  C6  UNL     1      14.286 164.564  36.483  1.00  0.00    -0.036 C 
HETATM   19  C7  UNL     1      14.473 165.880  35.732  1.00  0.00     0.016 C 
HETATM   20  C8  UNL     1      15.517 163.781  36.209  1.00  0.00     0.016 C 
HETATM   21  C10 UNL     1      13.332 166.178  37.974  1.00  0.00     0.021 C 
ENDBRANCH  11  12
ENDBRANCH   1  11
BRANCH   3  22
HETATM   22  O1  UNL     1      14.122 165.405  41.202  1.00  0.00    -0.394 OA
ATOM     23  H1  UNL     1      14.210 166.324  41.427  1.00  0.00     0.210 HD
ENDBRANCH   3  22
BRANCH  10  24
HETATM   24  O4  UNL     1      17.874 166.862  39.678  1.00  0.00    -0.382 OA
BRANCH  24  25
HETATM   25  C21 UNL     1      18.499 167.322  38.522  1.00  0.00     0.168 C 
BRANCH  25  26
HETATM   26  C22 UNL     1      18.345 166.359  37.372  1.00  0.00     0.022 C 
HETATM   27  C23 UNL     1      17.614 167.058  36.264  1.00  0.00     0.007 C 
ENDBRANCH  25  26
ENDBRANCH  24  25
ENDBRANCH  10  24
BRANCH   8  28
HETATM   28  O3  UNL     1      17.765 163.399  40.548  1.00  0.00    -0.380 OA
ATOM     29  H3  UNL     1      16.894 163.236  40.205  1.00  0.00     0.211 HD
ENDBRANCH   8  28
TORSDOF 7
ENDMDL
MODEL 3
REMARK VINA RESULT: -5.396084936     17.607     21.163
REMARK  7 active torsions:
REMARK  status: ('A' for Active; 'I' for Inactive)
REMARK    1  A    between atoms: C9_9  and  C11_11 
REMARK    2  A    between atoms: C11_11  and  C12_12 
REMARK    3  A    between atoms: C14_14  and  O1_15 
REMARK    4  A    between atoms: C18_21  and  O3_23 
REMARK    5  A    between atoms: C20_25  and  O4_26 
REMARK    6  A    between atoms: O4_26  and  C21_27 
REMARK    7  A    between atoms: C21_27  and  C22_28 
ROOT
HETATM    1  C12 UNL     1      16.115 165.621  39.837  1.00  0.00     0.013 C 
HETATM    2  C13 UNL     1      15.677 166.948  40.382  1.00  0.00     0.020 C 
HETATM    3  C14 UNL     1      16.986 166.052  38.610  1.00  0.00     0.140 C 
HETATM    4  C15 UNL     1      16.231 166.590  37.477  1.00  0.00     0.084 C 
HETATM    5  C16 UNL     1      17.195 166.601  36.274  1.00  0.00     0.020 C 
HETATM    6  C17 UNL     1      15.135 165.650  37.044  1.00  0.00     0.169 C 
HETATM    7  O2  UNL     1      14.441 165.891  36.094  1.00  0.00    -0.294 OA
HETATM    8  C18 UNL     1      15.018 164.438  37.900  1.00  0.00     0.141 C 
HETATM    9  C19 UNL     1      13.723 163.759  37.514  1.00  0.00     0.057 C 
HETATM   10  C20 UNL     1      14.898 164.894  39.341  1.00  0.00     0.173 C 
ENDROOT
BRANCH   1  11
HETATM   11  C11 UNL     1      17.026 164.816  40.643  1.00  0.00     0.028 C 
BRANCH  11  12
HETATM   12  C9  UNL     1      17.296 164.914  42.060  1.00  0.00    -0.014 C 
HETATM   13  C2  UNL     1      18.016 166.152  42.466  1.00  0.00    -0.080 C 
HETATM   14  C1  UNL     1      17.561 167.155  43.171  1.00  0.00     0.015 C 
HETATM   15  C3  UNL     1      19.458 166.261  42.015  1.00  0.00     0.034 C 
HETATM   16  C4  UNL     1      20.209 165.275  42.861  1.00  0.00     0.005 C 
HETATM   17  C5  UNL     1      19.292 164.244  43.457  1.00  0.00     0.010 C 
HETATM   18  C6  UNL     1      18.275 163.779  42.430  1.00  0.00    -0.036 C 
HETATM   19  C7  UNL     1      17.535 162.603  43.064  1.00  0.00     0.016 C 
HETATM   20  C8  UNL     1      19.030 163.196  41.293  1.00  0.00     0.016 C 
HETATM   21  C10 UNL     1      16.165 164.734  43.042  1.00  0.00     0.021 C 
ENDBRANCH  11  12
ENDBRANCH   1  11
BRANCH   3  22
HETATM   22  O1  UNL     1      17.805 167.078  39.134  1.00  0.00    -0.394 OA
ATOM     23  H1  UNL     1      18.358 167.315  38.399  1.00  0.00     0.210 HD
ENDBRANCH   3  22
BRANCH  10  24
HETATM   24  O4  UNL     1      13.745 165.674  39.398  1.00  0.00    -0.382 OA
BRANCH  24  25
HETATM   25  C21 UNL     1      12.951 165.395  40.507  1.00  0.00     0.168 C 
BRANCH  25  26
HETATM   26  C22 UNL     1      11.586 164.888  40.113  1.00  0.00     0.022 C 
HETATM   27  C23 UNL     1      11.496 163.437  40.485  1.00  0.00     0.007 C 
ENDBRANCH  25  26
ENDBRANCH  24  25
ENDBRANCH  10  24
BRANCH   8  28
HETATM   28  O3  UNL     1      16.040 163.545  37.677  1.00  0.00    -0.380 OA
ATOM     29  H3  UNL     1      16.211 163.000  38.436  1.00  0.00     0.211 HD
ENDBRANCH   8  28
TORSDOF 7
ENDMDL
MODEL 4
REMARK VINA RESULT: -5.113765062      0.705      1.604
REMARK  7 active torsions:
REMARK  status: ('A' for Active; 'I' for Inactive)
REMARK    1  A    between atoms: C9_9  and  C11_11 
REMARK    2  A    between atoms: C11_11  and  C12_12 
REMARK    3  A    between atoms: C14_14  and  O1_15 
REMARK    4  A    between atoms: C18_21  and  O3_23 
REMARK    5  A    between atoms: C20_25  and  O4_26 
REMARK    6  A    between atoms: O4_26  and  C21_27 
REMARK    7  A    between atoms: C21_27  and  C22_28 
ROOT
HETATM    1  C12 UNL     1       1.226 151.606  33.647  1.00  0.00     0.013 C 
HETATM    2  C13 UNL     1       2.448 150.779  33.916  1.00  0.00     0.020 C 
HETATM    3  C14 UNL     1       0.701 150.974  32.316  1.00  0.00     0.140 C 
HETATM    4  C15 UNL     1       1.510 151.269  31.132  1.00  0.00     0.084 C 
HETATM    5  C16 UNL     1       0.653 150.889  29.908  1.00  0.00     0.020 C 
HETATM    6  C17 UNL     1       1.729 152.751  30.964  1.00  0.00     0.169 C 
HETATM    7  O2  UNL     1       2.323 153.195  30.019  1.00  0.00    -0.294 OA
HETATM    8  C18 UNL     1       1.146 153.567  32.065  1.00  0.00     0.141 C 
HETATM    9  C19 UNL     1       1.686 154.969  31.897  1.00  0.00     0.057 C 
HETATM   10  C20 UNL     1       1.666 153.018  33.379  1.00  0.00     0.173 C 
ENDROOT
BRANCH   1  11
HETATM   11  C11 UNL     1       0.097 151.478  34.562  1.00  0.00     0.028 C 
BRANCH  11  12
HETATM   12  C9  UNL     1       0.095 151.569  36.004  1.00  0.00    -0.014 C 
HETATM   13  C2  UNL     1      -0.612 150.454  36.691  1.00  0.00    -0.080 C 
HETATM   14  C1  UNL     1      -0.096 149.503  37.428  1.00  0.00     0.015 C 
HETATM   15  C3  UNL     1      -2.117 150.418  36.527  1.00  0.00     0.034 C 
HETATM   16  C4  UNL     1      -2.630 151.557  37.358  1.00  0.00     0.005 C 
HETATM   17  C5  UNL     1      -1.553 152.567  37.639  1.00  0.00     0.010 C 
HETATM   18  C6  UNL     1      -0.722 152.819  36.393  1.00  0.00    -0.036 C 
HETATM   19  C7  UNL     1       0.198 153.993  36.724  1.00  0.00     0.016 C 
HETATM   20  C8  UNL     1      -1.641 153.329  35.346  1.00  0.00     0.016 C 
HETATM   21  C10 UNL     1       1.401 151.763  36.734  1.00  0.00     0.021 C 
ENDBRANCH  11  12
ENDBRANCH   1  11
BRANCH   3  22
HETATM   22  O1  UNL     1       0.760 149.585  32.567  1.00  0.00    -0.394 OA
ATOM     23  H1  UNL     1       0.192 149.216  31.900  1.00  0.00     0.210 HD
ENDBRANCH   3  22
BRANCH  10  24
HETATM   24  O4  UNL     1       3.052 153.148  33.323  1.00  0.00    -0.382 OA
BRANCH  24  25
HETATM   25  C21 UNL     1       3.595 153.699  34.481  1.00  0.00     0.168 C 
BRANCH  25  26
HETATM   26  C22 UNL     1       5.102 153.706  34.452  1.00  0.00     0.022 C 
HETATM   27  C23 UNL     1       5.563 152.603  33.546  1.00  0.00     0.007 C 
ENDBRANCH  25  26
ENDBRANCH  24  25
ENDBRANCH  10  24
BRANCH   8  28
HETATM   28  O3  UNL     1      -0.225 153.636  31.988  1.00  0.00    -0.380 OA
ATOM     29  H3  UNL     1      -0.600 152.867  31.574  1.00  0.00     0.211 HD
ENDBRANCH   8  28
TORSDOF 7
ENDMDL
MODEL 5
REMARK VINA RESULT: -5.084546274      2.091      3.397
REMARK  7 active torsions:
REMARK  status: ('A' for Active; 'I' for Inactive)
REMARK    1  A    between atoms: C9_9  and  C11_11 
REMARK    2  A    between atoms: C11_11  and  C12_12 
REMARK    3  A    between atoms: C14_14  and  O1_15 
REMARK    4  A    between atoms: C18_21  and  O3_23 
REMARK    5  A    between atoms: C20_25  and  O4_26 
REMARK    6  A    between atoms: O4_26  and  C21_27 
REMARK    7  A    between atoms: C21_27  and  C22_28 
ROOT
HETATM    1  C12 UNL     1       0.941 151.370  33.623  1.00  0.00     0.013 C 
HETATM    2  C13 UNL     1       2.241 151.032  34.291  1.00  0.00     0.020 C 
HETATM    3  C14 UNL     1       1.401 151.652  32.154  1.00  0.00     0.140 C 
HETATM    4  C15 UNL     1       2.148 152.897  31.971  1.00  0.00     0.084 C 
HETATM    5  C16 UNL     1       2.181 153.170  30.454  1.00  0.00     0.020 C 
HETATM    6  C17 UNL     1       1.399 154.081  32.527  1.00  0.00     0.169 C 
HETATM    7  O2  UNL     1       1.825 155.199  32.422  1.00  0.00    -0.294 OA
HETATM    8  C18 UNL     1       0.121 153.715  33.196  1.00  0.00     0.141 C 
HETATM    9  C19 UNL     1      -0.353 154.950  33.930  1.00  0.00     0.057 C 
HETATM   10  C20 UNL     1       0.423 152.644  34.226  1.00  0.00     0.173 C 
ENDROOT
BRANCH   1  11
HETATM   11  C11 UNL     1      -0.052 150.310  33.478  1.00  0.00     0.028 C 
BRANCH  11  12
HETATM   12  C9  UNL     1      -1.088 149.919  34.407  1.00  0.00    -0.014 C 
HETATM   13  C2  UNL     1      -0.585 149.347  35.686  1.00  0.00    -0.080 C 
HETATM   14  C1  UNL     1      -0.649 149.869  36.884  1.00  0.00     0.015 C 
HETATM   15  C3  UNL     1       0.075 147.987  35.593  1.00  0.00     0.034 C 
HETATM   16  C4  UNL     1      -1.046 147.022  35.339  1.00  0.00     0.005 C 
HETATM   17  C5  UNL     1      -2.266 147.719  34.805  1.00  0.00     0.010 C 
HETATM   18  C6  UNL     1      -1.875 148.756  33.766  1.00  0.00    -0.036 C 
HETATM   19  C7  UNL     1      -3.180 149.253  33.148  1.00  0.00     0.016 C 
HETATM   20  C8  UNL     1      -1.174 148.041  32.671  1.00  0.00     0.016 C 
HETATM   21  C10 UNL     1      -2.164 150.910  34.774  1.00  0.00     0.021 C 
ENDBRANCH  11  12
ENDBRANCH   1  11
BRANCH   3  22
HETATM   22  O1  UNL     1       2.258 150.566  31.865  1.00  0.00    -0.394 OA
ATOM     23  H1  UNL     1       2.810 150.509  32.637  1.00  0.00     0.210 HD
ENDBRANCH   3  22
BRANCH  10  24
HETATM   24  O4  UNL     1       1.322 153.220  35.121  1.00  0.00    -0.382 OA
BRANCH  24  25
HETATM   25  C21 UNL     1       0.905 153.135  36.446  1.00  0.00     0.168 C 
BRANCH  25  26
HETATM   26  C22 UNL     1       2.061 153.206  37.411  1.00  0.00     0.022 C 
HETATM   27  C23 UNL     1       1.991 152.014  38.321  1.00  0.00     0.007 C 
ENDBRANCH  25  26
ENDBRANCH  24  25
ENDBRANCH  10  24
BRANCH   8  28
HETATM   28  O3  UNL     1      -0.855 153.366  32.293  1.00  0.00    -0.380 OA
ATOM     29  H3  UNL     1      -0.683 153.715  31.426  1.00  0.00     0.211 HD
ENDBRANCH   8  28
TORSDOF 7
ENDMDL
