MODEL 1
REMARK VINA RESULT: -3.030472421      0.000      0.000
REMARK  3 active torsions:
REMARK  status: ('A' for Active; 'I' for Inactive)
REMARK    1  A    between atoms: C2_2  and  N1_3 
REMARK    2  A    between atoms: C2_2  and  S1_8 
REMARK    3  A    between atoms: S1_8  and  N2_9 
ROOT
HETATM    1  C1  UNL     1     -15.605 -50.368 -34.674  1.00  0.00     0.078 C 
HETATM    2  C2  UNL     1     -16.564 -51.504 -34.331  1.00  0.00     0.261 C 
HETATM    3 CL1  UNL     1     -18.224 -50.871 -34.087  1.00  0.00    -0.075 Cl
ENDROOT
BRANCH   2   4
HETATM    4  N1  UNL     1     -16.646 -52.430 -35.420  1.00  0.00    -0.046 N 
ATOM      5  H13 UNL     1     -16.555 -51.965 -36.323  1.00  0.00     0.277 HD
ATOM      6  H12 UNL     1     -15.822 -53.028 -35.474  1.00  0.00     0.277 HD
ATOM      7  H11 UNL     1     -17.507 -52.973 -35.358  1.00  0.00     0.277 HD
ENDBRANCH   2   4
BRANCH   2   8
HETATM    8  S1  UNL     1     -16.083 -52.227 -32.763  1.00  0.00    -0.007 SA
BRANCH   8   9
HETATM    9  N2  UNL     1     -14.555 -51.685 -32.148  1.00  0.00    -0.371 N 
ATOM     10  H22 UNL     1     -14.434 -50.747 -31.767  1.00  0.00     0.164 HD
ATOM     11  H21 UNL     1     -13.803 -52.373 -32.199  1.00  0.00     0.164 HD
ENDBRANCH   8   9
ENDBRANCH   2   8
TORSDOF 3
ENDMDL
MODEL 2
REMARK VINA RESULT: -2.962494905      1.646      1.825
REMARK  3 active torsions:
REMARK  status: ('A' for Active; 'I' for Inactive)
REMARK    1  A    between atoms: C2_2  and  N1_3 
REMARK    2  A    between atoms: C2_2  and  S1_8 
REMARK    3  A    between atoms: S1_8  and  N2_9 
ROOT
HETATM    1  C1  UNL     1     -16.681 -52.480 -35.526  1.00  0.00     0.078 C 
HETATM    2  C2  UNL     1     -16.743 -51.474 -34.381  1.00  0.00     0.261 C 
HETATM    3 CL1  UNL     1     -15.553 -50.158 -34.636  1.00  0.00    -0.075 Cl
ENDROOT
BRANCH   2   4
HETATM    4  N1  UNL     1     -18.030 -50.847 -34.342  1.00  0.00    -0.046 N 
ATOM      5  H13 UNL     1     -18.231 -50.336 -35.202  1.00  0.00     0.277 HD
ATOM      6  H12 UNL     1     -18.787 -51.528 -34.389  1.00  0.00     0.277 HD
ATOM      7  H11 UNL     1     -18.107 -50.249 -33.519  1.00  0.00     0.277 HD
ENDBRANCH   2   4
BRANCH   2   8
HETATM    8  S1  UNL     1     -16.255 -52.285 -32.858  1.00  0.00    -0.007 SA
BRANCH   8   9
HETATM    9  N2  UNL     1     -14.731 -51.769 -32.213  1.00  0.00    -0.371 N 
ATOM     10  H22 UNL     1     -13.937 -51.560 -32.818  1.00  0.00     0.164 HD
ATOM     11  H21 UNL     1     -14.698 -51.695 -31.196  1.00  0.00     0.164 HD
ENDBRANCH   8   9
ENDBRANCH   2   8
TORSDOF 3
ENDMDL
MODEL 3
REMARK VINA RESULT: -2.948416019      2.498      3.014
REMARK  3 active torsions:
REMARK  status: ('A' for Active; 'I' for Inactive)
REMARK    1  A    between atoms: C2_2  and  N1_3 
REMARK    2  A    between atoms: C2_2  and  S1_8 
REMARK    3  A    between atoms: S1_8  and  N2_9 
ROOT
HETATM    1  C1  UNL     1     -16.595 -49.789 -35.782  1.00  0.00     0.078 C 
HETATM    2  C2  UNL     1     -16.533 -51.009 -34.868  1.00  0.00     0.261 C 
HETATM    3 CL1  UNL     1     -16.428 -52.515 -35.837  1.00  0.00    -0.075 Cl
ENDROOT
BRANCH   2   4
HETATM    4  N1  UNL     1     -15.348 -50.968 -34.065  1.00  0.00    -0.046 N 
ATOM      5  H13 UNL     1     -15.261 -50.086 -33.561  1.00  0.00     0.277 HD
ATOM      6  H12 UNL     1     -15.410 -51.595 -33.263  1.00  0.00     0.277 HD
ATOM      7  H11 UNL     1     -14.527 -51.162 -34.637  1.00  0.00     0.277 HD
ENDBRANCH   2   4
BRANCH   2   8
HETATM    8  S1  UNL     1     -18.065 -51.130 -33.943  1.00  0.00    -0.007 SA
BRANCH   8   9
HETATM    9  N2  UNL     1     -19.277 -49.973 -34.386  1.00  0.00    -0.371 N 
ATOM     10  H22 UNL     1     -19.285 -49.030 -33.998  1.00  0.00     0.164 HD
ATOM     11  H21 UNL     1     -19.969 -50.312 -35.056  1.00  0.00     0.164 HD
ENDBRANCH   8   9
ENDBRANCH   2   8
TORSDOF 3
ENDMDL
MODEL 4
REMARK VINA RESULT: -2.842510432      2.327      2.652
REMARK  3 active torsions:
REMARK  status: ('A' for Active; 'I' for Inactive)
REMARK    1  A    between atoms: C2_2  and  N1_3 
REMARK    2  A    between atoms: C2_2  and  S1_8 
REMARK    3  A    between atoms: S1_8  and  N2_9 
ROOT
HETATM    1  C1  UNL     1     -15.540 -50.481 -34.357  1.00  0.00     0.078 C 
HETATM    2  C2  UNL     1     -16.792 -50.943 -35.095  1.00  0.00     0.261 C 
HETATM    3 CL1  UNL     1     -17.457 -49.613 -36.097  1.00  0.00    -0.075 Cl
ENDROOT
BRANCH   2   4
HETATM    4  N1  UNL     1     -16.471 -52.003 -36.002  1.00  0.00    -0.046 N 
ATOM      5  H13 UNL     1     -16.734 -51.776 -36.962  1.00  0.00     0.277 HD
ATOM      6  H12 UNL     1     -15.465 -52.096 -36.139  1.00  0.00     0.277 HD
ATOM      7  H11 UNL     1     -16.895 -52.877 -35.689  1.00  0.00     0.277 HD
ENDBRANCH   2   4
BRANCH   2   8
HETATM    8  S1  UNL     1     -18.069 -51.337 -33.899  1.00  0.00    -0.007 SA
BRANCH   8   9
HETATM    9  N2  UNL     1     -19.385 -50.210 -33.839  1.00  0.00    -0.371 N 
ATOM     10  H22 UNL     1     -20.279 -50.454 -33.414  1.00  0.00     0.164 HD
ATOM     11  H21 UNL     1     -19.190 -49.300 -34.257  1.00  0.00     0.164 HD
ENDBRANCH   8   9
ENDBRANCH   2   8
TORSDOF 3
ENDMDL
MODEL 5
REMARK VINA RESULT: -2.776378726      2.658      2.658
REMARK  3 active torsions:
REMARK  status: ('A' for Active; 'I' for Inactive)
REMARK    1  A    between atoms: C2_2  and  N1_3 
REMARK    2  A    between atoms: C2_2  and  S1_8 
REMARK    3  A    between atoms: S1_8  and  N2_9 
ROOT
HETATM    1  C1  UNL     1     -16.733 -51.188 -37.843  1.00  0.00     0.078 C 
HETATM    2  C2  UNL     1     -17.212 -50.876 -36.428  1.00  0.00     0.261 C 
HETATM    3 CL1  UNL     1     -18.430 -49.560 -36.454  1.00  0.00    -0.075 Cl
ENDROOT
BRANCH   2   4
HETATM    4  N1  UNL     1     -17.870 -52.017 -35.864  1.00  0.00    -0.046 N 
ATOM      5  H13 UNL     1     -18.106 -52.710 -36.575  1.00  0.00     0.277 HD
ATOM      6  H12 UNL     1     -17.234 -52.584 -35.305  1.00  0.00     0.277 HD
ATOM      7  H11 UNL     1     -18.689 -51.724 -35.332  1.00  0.00     0.277 HD
ENDBRANCH   2   4
BRANCH   2   8
HETATM    8  S1  UNL     1     -15.836 -50.250 -35.465  1.00  0.00    -0.007 SA
BRANCH   8   9
HETATM    9  N2  UNL     1     -15.468 -51.164 -34.039  1.00  0.00    -0.371 N 
ATOM     10  H22 UNL     1     -15.261 -50.710 -33.149  1.00  0.00     0.164 HD
ATOM     11  H21 UNL     1     -15.475 -52.177 -34.165  1.00  0.00     0.164 HD
ENDBRANCH   8   9
ENDBRANCH   2   8
TORSDOF 3
ENDMDL
