MODEL 1
REMARK VINA RESULT: -4.038233957      0.000      0.000
REMARK  1 active torsions:
REMARK  status: ('A' for Active; 'I' for Inactive)
REMARK    1  A    between atoms: O1_1  and  C1_3 
ROOT
HETATM    1  C1  UNL     1     -15.994 -51.131 -34.795  1.00  0.00     0.235 C 
HETATM    2  C2  UNL     1     -16.125 -50.038 -35.763  1.00  0.00     0.055 C 
HETATM    3  C3  UNL     1     -17.484 -49.532 -36.053  1.00  0.00     0.009 C 
HETATM    4  C4  UNL     1     -18.605 -50.431 -35.606  1.00  0.00     0.046 C 
HETATM    5  C5  UNL     1     -18.307 -50.805 -34.165  1.00  0.00     0.080 C 
HETATM    6  N1  UNL     1     -17.147 -51.594 -34.132  1.00  0.00    -0.277 N 
HETATM    7 CL1  UNL     1     -17.473 -53.277 -34.394  1.00  0.00     0.015 Cl
ENDROOT
BRANCH   1   8
HETATM    8  O1  UNL     1     -15.032 -50.819 -33.801  1.00  0.00    -0.376 OA
ATOM      9  H1  UNL     1     -14.937 -51.533 -33.181  1.00  0.00     0.212 HD
ENDBRANCH   1   8
TORSDOF 1
ENDMDL
MODEL 2
REMARK VINA RESULT: -4.036382369      2.089      2.494
REMARK  1 active torsions:
REMARK  status: ('A' for Active; 'I' for Inactive)
REMARK    1  A    between atoms: O1_1  and  C1_3 
ROOT
HETATM    1  C1  UNL     1     -16.904 -52.449 -35.977  1.00  0.00     0.235 C 
HETATM    2  C2  UNL     1     -17.962 -51.942 -36.857  1.00  0.00     0.055 C 
HETATM    3  C3  UNL     1     -18.092 -50.476 -37.006  1.00  0.00     0.009 C 
HETATM    4  C4  UNL     1     -17.370 -49.665 -35.964  1.00  0.00     0.046 C 
HETATM    5  C5  UNL     1     -15.960 -50.223 -35.886  1.00  0.00     0.080 C 
HETATM    6  N1  UNL     1     -16.018 -51.532 -35.381  1.00  0.00    -0.277 N 
HETATM    7 CL1  UNL     1     -16.023 -51.582 -33.647  1.00  0.00     0.015 Cl
ENDROOT
BRANCH   1   8
HETATM    8  O1  UNL     1     -16.118 -53.428 -36.637  1.00  0.00    -0.376 OA
ATOM      9  H1  UNL     1     -16.122 -54.248 -36.158  1.00  0.00     0.212 HD
ENDBRANCH   1   8
TORSDOF 1
ENDMDL
MODEL 3
REMARK VINA RESULT: -3.988822563      1.032      1.032
REMARK  1 active torsions:
REMARK  status: ('A' for Active; 'I' for Inactive)
REMARK    1  A    between atoms: O1_1  and  C1_3 
ROOT
HETATM    1  C1  UNL     1     -15.918 -51.153 -35.224  1.00  0.00     0.235 C 
HETATM    2  C2  UNL     1     -16.211 -49.775 -35.632  1.00  0.00     0.055 C 
HETATM    3  C3  UNL     1     -17.587 -49.466 -36.078  1.00  0.00     0.009 C 
HETATM    4  C4  UNL     1     -18.432 -50.666 -36.411  1.00  0.00     0.046 C 
HETATM    5  C5  UNL     1     -18.289 -51.628 -35.244  1.00  0.00     0.080 C 
HETATM    6  N1  UNL     1     -16.966 -52.092 -35.198  1.00  0.00    -0.277 N 
HETATM    7 CL1  UNL     1     -16.700 -53.462 -36.228  1.00  0.00     0.015 Cl
ENDROOT
BRANCH   1   8
HETATM    8  O1  UNL     1     -15.291 -51.185 -33.952  1.00  0.00    -0.376 OA
ATOM      9  H1  UNL     1     -15.003 -52.064 -33.735  1.00  0.00     0.212 HD
ENDBRANCH   1   8
TORSDOF 1
ENDMDL
MODEL 4
REMARK VINA RESULT: -3.899435190      2.138      2.709
REMARK  1 active torsions:
REMARK  status: ('A' for Active; 'I' for Inactive)
REMARK    1  A    between atoms: O1_1  and  C1_3 
ROOT
HETATM    1  C1  UNL     1     -18.468 -50.368 -35.367  1.00  0.00     0.235 C 
HETATM    2  C2  UNL     1     -17.403 -49.612 -36.035  1.00  0.00     0.055 C 
HETATM    3  C3  UNL     1     -16.003 -49.938 -35.687  1.00  0.00     0.009 C 
HETATM    4  C4  UNL     1     -15.833 -50.746 -34.429  1.00  0.00     0.046 C 
HETATM    5  C5  UNL     1     -16.802 -51.910 -34.532  1.00  0.00     0.080 C 
HETATM    6  N1  UNL     1     -18.114 -51.413 -34.492  1.00  0.00    -0.277 N 
HETATM    7 CL1  UNL     1     -18.702 -51.199 -32.875  1.00  0.00     0.015 Cl
ENDROOT
BRANCH   1   8
HETATM    8  O1  UNL     1     -19.385 -50.898 -36.310  1.00  0.00    -0.376 OA
ATOM      9  H1  UNL     1     -19.998 -51.492 -35.893  1.00  0.00     0.212 HD
ENDBRANCH   1   8
TORSDOF 1
ENDMDL
MODEL 5
REMARK VINA RESULT: -3.850523421      2.498      3.243
REMARK  1 active torsions:
REMARK  status: ('A' for Active; 'I' for Inactive)
REMARK    1  A    between atoms: O1_1  and  C1_3 
ROOT
HETATM    1  C1  UNL     1     -18.560 -50.632 -34.838  1.00  0.00     0.235 C 
HETATM    2  C2  UNL     1     -17.653 -51.327 -33.919  1.00  0.00     0.055 C 
HETATM    3  C3  UNL     1     -16.199 -51.210 -34.164  1.00  0.00     0.009 C 
HETATM    4  C4  UNL     1     -15.824 -50.700 -35.529  1.00  0.00     0.046 C 
HETATM    5  C5  UNL     1     -16.661 -49.456 -35.767  1.00  0.00     0.080 C 
HETATM    6  N1  UNL     1     -18.011 -49.828 -35.855  1.00  0.00    -0.277 N 
HETATM    7 CL1  UNL     1     -18.469 -50.317 -37.455  1.00  0.00     0.015 Cl
ENDROOT
BRANCH   1   8
HETATM    8  O1  UNL     1     -19.494 -49.836 -34.128  1.00  0.00    -0.376 OA
ATOM      9  H1  UNL     1     -19.098 -49.023 -33.837  1.00  0.00     0.212 HD
ENDBRANCH   1   8
TORSDOF 1
ENDMDL
