MODEL 1
REMARK VINA RESULT: -4.032464660      0.000      0.000
REMARK  2 active torsions:
REMARK  status: ('A' for Active; 'I' for Inactive)
REMARK    1  A    between atoms: N1_1  and  C1_5 
REMARK    2  A    between atoms: C6_10  and  O1_11 
ROOT
HETATM    1  C1  UNL     1     -16.999 -51.529 -37.406  1.00  0.00     0.212 C 
HETATM    2  C2  UNL     1     -17.816 -50.355 -36.960  1.00  0.00     0.035 C 
HETATM    3  C3  UNL     1     -17.002 -49.613 -35.912  1.00  0.00     0.002 C 
HETATM    4  C4  UNL     1     -15.917 -50.451 -35.318  1.00  0.00     0.003 C 
HETATM    5  C5  UNL     1     -16.309 -51.882 -35.084  1.00  0.00     0.034 C 
HETATM    6  C6  UNL     1     -16.938 -52.530 -36.290  1.00  0.00     0.148 C 
ENDROOT
BRANCH   1   7
HETATM    7  N1  UNL     1     -17.452 -52.046 -38.648  1.00  0.00    -0.073 N 
ATOM      8  H13 UNL     1     -18.321 -51.600 -38.941  1.00  0.00     0.274 HD
ATOM      9  H12 UNL     1     -16.852 -51.747 -39.416  1.00  0.00     0.274 HD
ATOM     10  H11 UNL     1     -17.546 -53.061 -38.624  1.00  0.00     0.274 HD
ENDBRANCH   1   7
BRANCH   6  11
HETATM   11  O1  UNL     1     -16.060 -53.551 -36.728  1.00  0.00    -0.393 OA
ATOM     12  H1  UNL     1     -16.402 -54.362 -36.369  1.00  0.00     0.210 HD
ENDBRANCH   6  11
TORSDOF 2
ENDMDL
MODEL 2
REMARK VINA RESULT: -3.956089774      2.913      3.493
REMARK  2 active torsions:
REMARK  status: ('A' for Active; 'I' for Inactive)
REMARK    1  A    between atoms: N1_1  and  C1_5 
REMARK    2  A    between atoms: C6_10  and  O1_11 
ROOT
HETATM    1  C1  UNL     1     -18.149 -50.528 -34.234  1.00  0.00     0.212 C 
HETATM    2  C2  UNL     1     -17.567 -51.784 -33.661  1.00  0.00     0.035 C 
HETATM    3  C3  UNL     1     -16.058 -51.602 -33.619  1.00  0.00     0.002 C 
HETATM    4  C4  UNL     1     -15.578 -50.515 -34.524  1.00  0.00     0.003 C 
HETATM    5  C5  UNL     1     -16.302 -50.450 -35.839  1.00  0.00     0.034 C 
HETATM    6  C6  UNL     1     -17.802 -50.454 -35.692  1.00  0.00     0.148 C 
ENDROOT
BRANCH   1   7
HETATM    7  N1  UNL     1     -19.533 -50.408 -33.944  1.00  0.00    -0.073 N 
ATOM      8  H13 UNL     1     -19.684 -49.991 -33.025  1.00  0.00     0.274 HD
ATOM      9  H12 UNL     1     -19.972 -49.690 -34.520  1.00  0.00     0.274 HD
ATOM     10  H11 UNL     1     -20.018 -51.300 -34.031  1.00  0.00     0.274 HD
ENDBRANCH   1   7
BRANCH   6  11
HETATM   11  O1  UNL     1     -18.273 -49.198 -36.143  1.00  0.00    -0.393 OA
ATOM     12  H1  UNL     1     -18.317 -48.642 -35.374  1.00  0.00     0.210 HD
ENDBRANCH   6  11
TORSDOF 2
ENDMDL
MODEL 3
REMARK VINA RESULT: -3.911928010      3.166      3.740
REMARK  2 active torsions:
REMARK  status: ('A' for Active; 'I' for Inactive)
REMARK    1  A    between atoms: N1_1  and  C1_5 
REMARK    2  A    between atoms: C6_10  and  O1_11 
ROOT
HETATM    1  C1  UNL     1     -17.912 -50.883 -33.983  1.00  0.00     0.212 C 
HETATM    2  C2  UNL     1     -16.911 -51.905 -34.427  1.00  0.00     0.035 C 
HETATM    3  C3  UNL     1     -15.785 -51.159 -35.126  1.00  0.00     0.002 C 
HETATM    4  C4  UNL     1     -16.181 -49.787 -35.564  1.00  0.00     0.003 C 
HETATM    5  C5  UNL     1     -17.582 -49.697 -36.099  1.00  0.00     0.034 C 
HETATM    6  C6  UNL     1     -18.606 -50.327 -35.191  1.00  0.00     0.148 C 
ENDROOT
BRANCH   1   7
HETATM    7  N1  UNL     1     -18.775 -51.391 -32.979  1.00  0.00    -0.073 N 
ATOM      8  H13 UNL     1     -19.480 -52.013 -33.375  1.00  0.00     0.274 HD
ATOM      9  H12 UNL     1     -18.293 -52.059 -32.378  1.00  0.00     0.274 HD
ATOM     10  H11 UNL     1     -19.204 -50.644 -32.433  1.00  0.00     0.274 HD
ENDBRANCH   1   7
BRANCH   6  11
HETATM   11  O1  UNL     1     -19.445 -49.289 -34.717  1.00  0.00    -0.393 OA
ATOM     12  H1  UNL     1     -18.867 -48.580 -34.462  1.00  0.00     0.210 HD
ENDBRANCH   6  11
TORSDOF 2
ENDMDL
MODEL 4
REMARK VINA RESULT: -3.886231518      2.861      3.257
REMARK  2 active torsions:
REMARK  status: ('A' for Active; 'I' for Inactive)
REMARK    1  A    between atoms: N1_1  and  C1_5 
REMARK    2  A    between atoms: C6_10  and  O1_11 
ROOT
HETATM    1  C1  UNL     1     -16.464 -50.656 -34.403  1.00  0.00     0.212 C 
HETATM    2  C2  UNL     1     -16.473 -50.351 -35.869  1.00  0.00     0.035 C 
HETATM    3  C3  UNL     1     -17.789 -49.654 -36.176  1.00  0.00     0.002 C 
HETATM    4  C4  UNL     1     -18.824 -49.876 -35.122  1.00  0.00     0.003 C 
HETATM    5  C5  UNL     1     -18.829 -51.267 -34.555  1.00  0.00     0.034 C 
HETATM    6  C6  UNL     1     -17.465 -51.740 -34.126  1.00  0.00     0.148 C 
ENDROOT
BRANCH   1   7
HETATM    7  N1  UNL     1     -15.153 -50.918 -33.926  1.00  0.00    -0.073 N 
ATOM      8  H13 UNL     1     -14.557 -51.289 -34.665  1.00  0.00     0.274 HD
ATOM      9  H12 UNL     1     -14.649 -50.054 -33.732  1.00  0.00     0.274 HD
ATOM     10  H11 UNL     1     -15.162 -51.533 -33.113  1.00  0.00     0.274 HD
ENDBRANCH   1   7
BRANCH   6  11
HETATM   11  O1  UNL     1     -17.494 -51.896 -32.719  1.00  0.00    -0.393 OA
ATOM     12  H1  UNL     1     -18.317 -52.325 -32.520  1.00  0.00     0.210 HD
ENDBRANCH   6  11
TORSDOF 2
ENDMDL
MODEL 5
REMARK VINA RESULT: -3.823917938      1.771      2.484
REMARK  2 active torsions:
REMARK  status: ('A' for Active; 'I' for Inactive)
REMARK    1  A    between atoms: N1_1  and  C1_5 
REMARK    2  A    between atoms: C6_10  and  O1_11 
ROOT
HETATM    1  C1  UNL     1     -16.604 -51.162 -35.557  1.00  0.00     0.212 C 
HETATM    2  C2  UNL     1     -16.914 -49.731 -35.873  1.00  0.00     0.035 C 
HETATM    3  C3  UNL     1     -18.306 -49.697 -36.485  1.00  0.00     0.002 C 
HETATM    4  C4  UNL     1     -18.748 -51.028 -36.999  1.00  0.00     0.003 C 
HETATM    5  C5  UNL     1     -17.658 -51.818 -37.666  1.00  0.00     0.034 C 
HETATM    6  C6  UNL     1     -16.402 -51.911 -36.841  1.00  0.00     0.148 C 
ENDROOT
BRANCH   1   7
HETATM    7  N1  UNL     1     -15.541 -51.278 -34.624  1.00  0.00    -0.073 N 
ATOM      8  H13 UNL     1     -15.345 -52.254 -34.403  1.00  0.00     0.274 HD
ATOM      9  H12 UNL     1     -14.648 -51.027 -35.047  1.00  0.00     0.274 HD
ATOM     10  H11 UNL     1     -15.717 -50.734 -33.780  1.00  0.00     0.274 HD
ENDBRANCH   1   7
BRANCH   6  11
HETATM   11  O1  UNL     1     -16.233 -53.270 -36.480  1.00  0.00    -0.393 OA
ATOM     12  H1  UNL     1     -16.308 -53.766 -37.286  1.00  0.00     0.210 HD
ENDBRANCH   6  11
TORSDOF 2
ENDMDL
