MODEL 1
REMARK VINA RESULT: -3.909008063      0.000      0.000
REMARK  1 active torsions:
REMARK  status: ('A' for Active; 'I' for Inactive)
REMARK    1  A    between atoms: N1_1  and  C1_5 
ROOT
HETATM    1  C1  UNL     1     -16.677 -51.625 -34.138  1.00  0.00     0.282 C 
HETATM    2  C2  UNL     1     -15.758 -50.524 -34.657  1.00  0.00     0.060 C 
HETATM    3  C3  UNL     1     -16.203 -50.443 -36.098  1.00  0.00     0.061 C 
HETATM    4  C4  UNL     1     -16.604 -51.842 -36.415  1.00  0.00     0.017 C 
HETATM    5  C5  UNL     1     -16.928 -52.298 -37.617  1.00  0.00     0.109 C 
HETATM    6 CL1  UNL     1     -16.928 -51.291 -39.038  1.00  0.00    -0.095 Cl
HETATM    7  N2  UNL     1     -16.578 -52.591 -35.207  1.00  0.00    -0.365 N 
ATOM      8  H2  UNL     1     -16.504 -53.605 -35.114  1.00  0.00     0.161 HD
ENDROOT
BRANCH   1   9
HETATM    9  N1  UNL     1     -16.284 -52.118 -32.863  1.00  0.00    -0.058 N 
ATOM     10  H13 UNL     1     -16.631 -51.517 -32.116  1.00  0.00     0.276 HD
ATOM     11  H12 UNL     1     -16.785 -52.976 -32.632  1.00  0.00     0.276 HD
ATOM     12  H11 UNL     1     -15.275 -52.252 -32.784  1.00  0.00     0.276 HD
ENDBRANCH   1   9
TORSDOF 1
ENDMDL
MODEL 2
REMARK VINA RESULT: -3.770430073      1.956      2.322
REMARK  1 active torsions:
REMARK  status: ('A' for Active; 'I' for Inactive)
REMARK    1  A    between atoms: N1_1  and  C1_5 
ROOT
HETATM    1  C1  UNL     1     -15.618 -51.851 -33.282  1.00  0.00     0.282 C 
HETATM    2  C2  UNL     1     -17.107 -51.850 -32.946  1.00  0.00     0.060 C 
HETATM    3  C3  UNL     1     -17.698 -51.513 -34.294  1.00  0.00     0.061 C 
HETATM    4  C4  UNL     1     -16.665 -50.638 -34.916  1.00  0.00     0.017 C 
HETATM    5  C5  UNL     1     -16.802 -49.970 -36.053  1.00  0.00     0.109 C 
HETATM    6 CL1  UNL     1     -18.257 -50.024 -37.008  1.00  0.00    -0.095 Cl
HETATM    7  N2  UNL     1     -15.516 -50.650 -34.078  1.00  0.00    -0.365 N 
ATOM      8  H2  UNL     1     -14.772 -49.953 -34.045  1.00  0.00     0.161 HD
ENDROOT
BRANCH   1   9
HETATM    9  N1  UNL     1     -14.791 -51.860 -32.124  1.00  0.00    -0.058 N 
ATOM     10  H13 UNL     1     -15.177 -51.260 -31.395  1.00  0.00     0.276 HD
ATOM     11  H12 UNL     1     -14.844 -52.759 -31.644  1.00  0.00     0.276 HD
ATOM     12  H11 UNL     1     -13.823 -51.611 -32.327  1.00  0.00     0.276 HD
ENDBRANCH   1   9
TORSDOF 1
ENDMDL
MODEL 3
REMARK VINA RESULT: -3.693054689      1.064      1.077
REMARK  1 active torsions:
REMARK  status: ('A' for Active; 'I' for Inactive)
REMARK    1  A    between atoms: N1_1  and  C1_5 
ROOT
HETATM    1  C1  UNL     1     -16.117 -51.038 -34.357  1.00  0.00     0.282 C 
HETATM    2  C2  UNL     1     -15.955 -49.748 -35.155  1.00  0.00     0.060 C 
HETATM    3  C3  UNL     1     -16.979 -49.962 -36.244  1.00  0.00     0.061 C 
HETATM    4  C4  UNL     1     -16.971 -51.438 -36.442  1.00  0.00     0.017 C 
HETATM    5  C5  UNL     1     -17.606 -52.091 -37.405  1.00  0.00     0.109 C 
HETATM    6 CL1  UNL     1     -18.569 -51.286 -38.612  1.00  0.00    -0.095 Cl
HETATM    7  N2  UNL     1     -16.167 -52.014 -35.420  1.00  0.00    -0.365 N 
ATOM      8  H2  UNL     1     -15.718 -52.930 -35.435  1.00  0.00     0.161 HD
ENDROOT
BRANCH   1   9
HETATM    9  N1  UNL     1     -15.066 -51.244 -33.420  1.00  0.00    -0.058 N 
ATOM     10  H13 UNL     1     -15.306 -51.982 -32.758  1.00  0.00     0.276 HD
ATOM     11  H12 UNL     1     -14.258 -51.677 -33.867  1.00  0.00     0.276 HD
ATOM     12  H11 UNL     1     -14.798 -50.389 -32.931  1.00  0.00     0.276 HD
ENDBRANCH   1   9
TORSDOF 1
ENDMDL
MODEL 4
REMARK VINA RESULT: -3.571041605      2.890      4.048
REMARK  1 active torsions:
REMARK  status: ('A' for Active; 'I' for Inactive)
REMARK    1  A    between atoms: N1_1  and  C1_5 
ROOT
HETATM    1  C1  UNL     1     -17.192 -51.476 -37.620  1.00  0.00     0.282 C 
HETATM    2  C2  UNL     1     -16.810 -52.913 -37.276  1.00  0.00     0.060 C 
HETATM    3  C3  UNL     1     -16.691 -52.819 -35.774  1.00  0.00     0.061 C 
HETATM    4  C4  UNL     1     -16.217 -51.425 -35.550  1.00  0.00     0.017 C 
HETATM    5  C5  UNL     1     -15.825 -50.920 -34.389  1.00  0.00     0.109 C 
HETATM    6 CL1  UNL     1     -15.808 -51.848 -32.916  1.00  0.00    -0.095 Cl
HETATM    7  N2  UNL     1     -16.262 -50.740 -36.796  1.00  0.00    -0.365 N 
ATOM      8  H2  UNL     1     -15.743 -49.901 -37.055  1.00  0.00     0.161 HD
ENDROOT
BRANCH   1   9
HETATM    9  N1  UNL     1     -17.093 -51.196 -39.011  1.00  0.00    -0.058 N 
ATOM     10  H13 UNL     1     -16.220 -51.556 -39.395  1.00  0.00     0.276 HD
ATOM     11  H12 UNL     1     -17.755 -51.759 -39.545  1.00  0.00     0.276 HD
ATOM     12  H11 UNL     1     -17.204 -50.204 -39.224  1.00  0.00     0.276 HD
ENDBRANCH   1   9
TORSDOF 1
ENDMDL
MODEL 5
REMARK VINA RESULT: -3.548962752      1.827      2.185
REMARK  1 active torsions:
REMARK  status: ('A' for Active; 'I' for Inactive)
REMARK    1  A    between atoms: N1_1  and  C1_5 
ROOT
HETATM    1  C1  UNL     1     -15.918 -51.005 -35.121  1.00  0.00     0.282 C 
HETATM    2  C2  UNL     1     -16.353 -52.305 -35.792  1.00  0.00     0.060 C 
HETATM    3  C3  UNL     1     -17.143 -51.766 -36.960  1.00  0.00     0.061 C 
HETATM    4  C4  UNL     1     -17.725 -50.501 -36.431  1.00  0.00     0.017 C 
HETATM    5  C5  UNL     1     -18.622 -49.746 -37.049  1.00  0.00     0.109 C 
HETATM    6 CL1  UNL     1     -19.265 -50.141 -38.619  1.00  0.00    -0.095 Cl
HETATM    7  N2  UNL     1     -17.150 -50.254 -35.154  1.00  0.00    -0.365 N 
ATOM      8  H2  UNL     1     -17.531 -49.665 -34.412  1.00  0.00     0.161 HD
ENDROOT
BRANCH   1   9
HETATM    9  N1  UNL     1     -15.387 -51.208 -33.816  1.00  0.00    -0.058 N 
ATOM     10  H13 UNL     1     -15.465 -52.186 -33.539  1.00  0.00     0.276 HD
ATOM     11  H12 UNL     1     -14.372 -51.115 -33.817  1.00  0.00     0.276 HD
ATOM     12  H11 UNL     1     -15.810 -50.596 -33.118  1.00  0.00     0.276 HD
ENDBRANCH   1   9
TORSDOF 1
ENDMDL
