MODEL 1
REMARK VINA RESULT: -6.416571737      0.000      0.000
REMARK  4 active torsions:
REMARK  status: ('A' for Active; 'I' for Inactive)
REMARK    1  A    between atoms: S1_2  and  C2_3 
REMARK    2  A    between atoms: C6_8  and  C7_9 
REMARK    3  A    between atoms: C7_9  and  O2_10 
REMARK    4  A    between atoms: C8_12  and  C10_14 
ROOT
HETATM    1  C2  UNL     1      16.352  -5.401  -5.800  1.00  0.00     0.015 C 
HETATM    2  C3  UNL     1      15.051  -4.666  -5.874  1.00  0.00     0.050 C 
HETATM    3  C4  UNL     1      14.573  -4.688  -7.285  1.00  0.00     0.008 C 
HETATM    4  C5  UNL     1      14.617  -5.830  -7.995  1.00  0.00     0.052 C 
HETATM    5  O1  UNL     1      14.147  -5.727  -9.289  1.00  0.00    -0.346 OA
HETATM    6  C6  UNL     1      14.453  -6.518 -10.447  1.00  0.00     0.170 C 
HETATM    7  C8  UNL     1      13.886  -7.880 -10.377  1.00  0.00     0.073 C 
HETATM    8  C9  UNL     1      14.633  -8.867 -11.240  1.00  0.00     0.029 C 
HETATM    9  C11 UNL     1      14.033  -8.398  -8.947  1.00  0.00     0.024 C 
HETATM   10  C12 UNL     1      15.376  -8.120  -8.339  1.00  0.00     0.018 C 
HETATM   11  C13 UNL     1      15.167  -7.053  -7.300  1.00  0.00     0.010 C 
HETATM   12  C14 UNL     1      14.191  -7.604  -6.282  1.00  0.00     0.023 C 
HETATM   13  C15 UNL     1      16.430  -6.673  -6.554  1.00  0.00     0.019 C 
HETATM   14  C16 UNL     1      17.632  -6.654  -7.485  1.00  0.00     0.007 C 
HETATM   15  C17 UNL     1      18.869  -6.372  -6.659  1.00  0.00     0.001 C 
HETATM   16  C18 UNL     1      18.819  -4.996  -6.035  1.00  0.00     0.002 C 
HETATM   17  C19 UNL     1      17.442  -4.443  -6.276  1.00  0.00     0.021 C 
ENDROOT
BRANCH   7  18
HETATM   18  C10 UNL     1      12.434  -7.963 -10.691  1.00  0.00     0.184 C 
HETATM   19  O3  UNL     1      11.783  -9.065 -10.664  1.00  0.00    -0.647 OA
HETATM   20  O4  UNL     1      11.650  -6.864 -11.040  1.00  0.00    -0.647 OA
ENDBRANCH   7  18
BRANCH   6  21
HETATM   21  C7  UNL     1      14.034  -5.679 -11.630  1.00  0.00     0.197 C 
BRANCH  21  22
HETATM   22  O2  UNL     1      13.333  -4.545 -11.303  1.00  0.00    -0.398 OA
ATOM     23  H2  UNL     1      13.085  -4.007 -12.045  1.00  0.00     0.209 HD
ENDBRANCH  21  22
ENDBRANCH   6  21
BRANCH   1  24
HETATM   24  S1  UNL     1      16.674  -5.627  -4.015  1.00  0.00    -0.163 SA
HETATM   25  C1  UNL     1      16.886  -7.361  -3.583  1.00  0.00     0.090 C 
ENDBRANCH   1  24
TORSDOF 4
ENDMDL
MODEL 2
REMARK VINA RESULT: -5.854259450      2.861      5.165
REMARK  4 active torsions:
REMARK  status: ('A' for Active; 'I' for Inactive)
REMARK    1  A    between atoms: S1_2  and  C2_3 
REMARK    2  A    between atoms: C6_8  and  C7_9 
REMARK    3  A    between atoms: C7_9  and  O2_10 
REMARK    4  A    between atoms: C8_12  and  C10_14 
ROOT
HETATM    1  C2  UNL     1      14.814  -3.911  -6.005  1.00  0.00     0.015 C 
HETATM    2  C3  UNL     1      15.769  -4.953  -6.499  1.00  0.00     0.050 C 
HETATM    3  C4  UNL     1      15.532  -5.162  -7.955  1.00  0.00     0.008 C 
HETATM    4  C5  UNL     1      15.378  -4.104  -8.773  1.00  0.00     0.052 C 
HETATM    5  O1  UNL     1      15.166  -4.423 -10.099  1.00  0.00    -0.346 OA
HETATM    6  C6  UNL     1      14.511  -3.673 -11.134  1.00  0.00     0.170 C 
HETATM    7  C8  UNL     1      15.290  -2.495 -11.569  1.00  0.00     0.073 C 
HETATM    8  C9  UNL     1      14.428  -1.423 -12.188  1.00  0.00     0.029 C 
HETATM    9  C11 UNL     1      15.923  -1.847 -10.339  1.00  0.00     0.024 C 
HETATM   10  C12 UNL     1      14.991  -1.731  -9.169  1.00  0.00     0.018 C 
HETATM   11  C13 UNL     1      15.454  -2.732  -8.147  1.00  0.00     0.010 C 
HETATM   12  C14 UNL     1      16.874  -2.366  -7.773  1.00  0.00     0.023 C 
HETATM   13  C15 UNL     1      14.635  -2.723  -6.872  1.00  0.00     0.019 C 
HETATM   14  C16 UNL     1      13.159  -2.513  -7.169  1.00  0.00     0.007 C 
HETATM   15  C17 UNL     1      12.418  -2.411  -5.853  1.00  0.00     0.001 C 
HETATM   16  C18 UNL     1      12.493  -3.702  -5.070  1.00  0.00     0.002 C 
HETATM   17  C19 UNL     1      13.470  -4.599  -5.777  1.00  0.00     0.021 C 
ENDROOT
BRANCH   7  18
HETATM   18  C10 UNL     1      16.417  -2.804 -12.490  1.00  0.00     0.184 C 
HETATM   19  O3  UNL     1      17.602  -2.355 -12.307  1.00  0.00    -0.647 OA
HETATM   20  O4  UNL     1      16.295  -3.602 -13.627  1.00  0.00    -0.647 OA
ENDBRANCH   7  18
BRANCH   6  21
HETATM   21  C7  UNL     1      14.168  -4.680 -12.205  1.00  0.00     0.197 C 
BRANCH  21  22
HETATM   22  O2  UNL     1      12.878  -5.145 -12.157  1.00  0.00    -0.398 OA
ATOM     23  H2  UNL     1      12.637  -5.555 -11.334  1.00  0.00     0.209 HD
ENDBRANCH  21  22
ENDBRANCH   6  21
BRANCH   1  24
HETATM   24  S1  UNL     1      15.406  -3.473  -4.332  1.00  0.00    -0.163 SA
HETATM   25  C1  UNL     1      15.680  -1.703  -4.158  1.00  0.00     0.090 C 
ENDBRANCH   1  24
TORSDOF 4
ENDMDL
MODEL 3
REMARK VINA RESULT: -5.732151006      8.971     11.330
REMARK  4 active torsions:
REMARK  status: ('A' for Active; 'I' for Inactive)
REMARK    1  A    between atoms: S1_2  and  C2_3 
REMARK    2  A    between atoms: C6_8  and  C7_9 
REMARK    3  A    between atoms: C7_9  and  O2_10 
REMARK    4  A    between atoms: C8_12  and  C10_14 
ROOT
HETATM    1  C2  UNL     1      17.481   0.003 -13.895  1.00  0.00     0.015 C 
HETATM    2  C3  UNL     1      17.628   0.806 -15.150  1.00  0.00     0.050 C 
HETATM    3  C4  UNL     1      16.462   1.726 -15.265  1.00  0.00     0.008 C 
HETATM    4  C5  UNL     1      16.046   2.425 -14.193  1.00  0.00     0.052 C 
HETATM    5  O1  UNL     1      14.958   3.244 -14.422  1.00  0.00    -0.346 OA
HETATM    6  C6  UNL     1      13.969   3.741 -13.507  1.00  0.00     0.170 C 
HETATM    7  C8  UNL     1      14.507   4.758 -12.580  1.00  0.00     0.073 C 
HETATM    8  C9  UNL     1      13.708   4.863 -11.304  1.00  0.00     0.029 C 
HETATM    9  C11 UNL     1      15.909   4.332 -12.147  1.00  0.00     0.024 C 
HETATM   10  C12 UNL     1      16.019   2.877 -11.799  1.00  0.00     0.018 C 
HETATM   11  C13 UNL     1      16.805   2.227 -12.903  1.00  0.00     0.010 C 
HETATM   12  C14 UNL     1      18.161   2.899 -12.943  1.00  0.00     0.023 C 
HETATM   13  C15 UNL     1      17.042   0.745 -12.691  1.00  0.00     0.019 C 
HETATM   14  C16 UNL     1      15.821   0.076 -12.082  1.00  0.00     0.007 C 
HETATM   15  C17 UNL     1      16.162  -1.373 -11.801  1.00  0.00     0.001 C 
HETATM   16  C18 UNL     1      16.448  -2.134 -13.076  1.00  0.00     0.002 C 
HETATM   17  C19 UNL     1      16.503  -1.132 -14.195  1.00  0.00     0.021 C 
ENDROOT
BRANCH   7  18
HETATM   18  C10 UNL     1      14.659   6.116 -13.170  1.00  0.00     0.184 C 
HETATM   19  O3  UNL     1      15.596   6.410 -13.992  1.00  0.00    -0.647 OA
HETATM   20  O4  UNL     1      13.809   7.184 -12.891  1.00  0.00    -0.647 OA
ENDBRANCH   7  18
BRANCH   6  21
HETATM   21  C7  UNL     1      12.805   4.169 -14.367  1.00  0.00     0.197 C 
BRANCH  21  22
HETATM   22  O2  UNL     1      11.789   3.250 -14.447  1.00  0.00    -0.398 OA
ATOM     23  H2  UNL     1      11.663   2.877 -15.311  1.00  0.00     0.209 HD
ENDBRANCH  21  22
ENDBRANCH   6  21
BRANCH   1  24
HETATM   24  S1  UNL     1      19.096  -0.820 -13.660  1.00  0.00    -0.163 SA
HETATM   25  C1  UNL     1      19.815  -0.443 -12.054  1.00  0.00     0.090 C 
ENDBRANCH   1  24
TORSDOF 4
ENDMDL
MODEL 4
REMARK VINA RESULT: -5.705900529      1.616      2.045
REMARK  4 active torsions:
REMARK  status: ('A' for Active; 'I' for Inactive)
REMARK    1  A    between atoms: S1_2  and  C2_3 
REMARK    2  A    between atoms: C6_8  and  C7_9 
REMARK    3  A    between atoms: C7_9  and  O2_10 
REMARK    4  A    between atoms: C8_12  and  C10_14 
ROOT
HETATM    1  C2  UNL     1      15.340  -2.933  -6.106  1.00  0.00     0.015 C 
HETATM    2  C3  UNL     1      13.992  -2.509  -6.600  1.00  0.00     0.050 C 
HETATM    3  C4  UNL     1      13.795  -3.059  -7.971  1.00  0.00     0.008 C 
HETATM    4  C5  UNL     1      14.118  -4.338  -8.238  1.00  0.00     0.052 C 
HETATM    5  O1  UNL     1      13.890  -4.733  -9.541  1.00  0.00    -0.346 OA
HETATM    6  C6  UNL     1      14.507  -5.778 -10.309  1.00  0.00     0.170 C 
HETATM    7  C8  UNL     1      14.115  -7.129  -9.858  1.00  0.00     0.073 C 
HETATM    8  C9  UNL     1      15.131  -8.183 -10.225  1.00  0.00     0.029 C 
HETATM    9  C11 UNL     1      14.055  -7.136  -8.331  1.00  0.00     0.024 C 
HETATM   10  C12 UNL     1      15.213  -6.442  -7.677  1.00  0.00     0.018 C 
HETATM   11  C13 UNL     1      14.678  -5.160  -7.102  1.00  0.00     0.010 C 
HETATM   12  C14 UNL     1      13.606  -5.532  -6.099  1.00  0.00     0.023 C 
HETATM   13  C15 UNL     1      15.719  -4.342  -6.365  1.00  0.00     0.019 C 
HETATM   14  C16 UNL     1      17.062  -4.396  -7.075  1.00  0.00     0.007 C 
HETATM   15  C17 UNL     1      18.076  -3.648  -6.235  1.00  0.00     0.001 C 
HETATM   16  C18 UNL     1      17.735  -2.179  -6.128  1.00  0.00     0.002 C 
HETATM   17  C19 UNL     1      16.369  -1.991  -6.727  1.00  0.00     0.021 C 
ENDROOT
BRANCH   7  18
HETATM   18  C10 UNL     1      12.770  -7.570 -10.319  1.00  0.00     0.184 C 
HETATM   19  O3  UNL     1      12.346  -8.768 -10.165  1.00  0.00    -0.647 OA
HETATM   20  O4  UNL     1      11.854  -6.733 -10.953  1.00  0.00    -0.647 OA
ENDBRANCH   7  18
BRANCH   6  21
HETATM   21  C7  UNL     1      14.214  -5.443 -11.751  1.00  0.00     0.197 C 
BRANCH  21  22
HETATM   22  O2  UNL     1      13.347  -4.395 -11.927  1.00  0.00    -0.398 OA
ATOM     23  H2  UNL     1      13.178  -4.170 -12.835  1.00  0.00     0.209 HD
ENDBRANCH  21  22
ENDBRANCH   6  21
BRANCH   1  24
HETATM   24  S1  UNL     1      15.346  -2.525  -4.324  1.00  0.00    -0.163 SA
HETATM   25  C1  UNL     1      15.651  -3.975  -3.302  1.00  0.00     0.090 C 
ENDBRANCH   1  24
TORSDOF 4
ENDMDL
MODEL 5
REMARK VINA RESULT: -5.683619669      3.648      5.628
REMARK  4 active torsions:
REMARK  status: ('A' for Active; 'I' for Inactive)
REMARK    1  A    between atoms: S1_2  and  C2_3 
REMARK    2  A    between atoms: C6_8  and  C7_9 
REMARK    3  A    between atoms: C7_9  and  O2_10 
REMARK    4  A    between atoms: C8_12  and  C10_14 
ROOT
HETATM    1  C2  UNL     1      15.793  -3.259  -6.688  1.00  0.00     0.015 C 
HETATM    2  C3  UNL     1      16.163  -3.255  -5.238  1.00  0.00     0.050 C 
HETATM    3  C4  UNL     1      15.892  -4.608  -4.676  1.00  0.00     0.008 C 
HETATM    4  C5  UNL     1      16.269  -5.708  -5.352  1.00  0.00     0.052 C 
HETATM    5  O1  UNL     1      15.965  -6.903  -4.731  1.00  0.00    -0.346 OA
HETATM    6  C6  UNL     1      15.762  -8.209  -5.292  1.00  0.00     0.170 C 
HETATM    7  C8  UNL     1      17.011  -8.818  -5.794  1.00  0.00     0.073 C 
HETATM    8  C9  UNL     1      16.765  -9.861  -6.856  1.00  0.00     0.029 C 
HETATM    9  C11 UNL     1      17.843  -7.733  -6.477  1.00  0.00     0.024 C 
HETATM   10  C12 UNL     1      17.045  -6.831  -7.371  1.00  0.00     0.018 C 
HETATM   11  C13 UNL     1      16.962  -5.499  -6.677  1.00  0.00     0.010 C 
HETATM   12  C14 UNL     1      18.379  -5.000  -6.495  1.00  0.00     0.023 C 
HETATM   13  C15 UNL     1      16.210  -4.447  -7.468  1.00  0.00     0.019 C 
HETATM   14  C16 UNL     1      15.011  -5.049  -8.182  1.00  0.00     0.007 C 
HETATM   15  C17 UNL     1      14.371  -3.971  -9.031  1.00  0.00     0.001 C 
HETATM   16  C18 UNL     1      13.815  -2.851  -8.182  1.00  0.00     0.002 C 
HETATM   17  C19 UNL     1      14.277  -3.086  -6.771  1.00  0.00     0.021 C 
ENDROOT
BRANCH   7  18
HETATM   18  C10 UNL     1      17.886  -9.396  -4.739  1.00  0.00     0.184 C 
HETATM   19  O3  UNL     1      18.585  -8.672  -3.948  1.00  0.00    -0.647 OA
HETATM   20  O4  UNL     1      18.028 -10.764  -4.511  1.00  0.00    -0.647 OA
ENDBRANCH   7  18
BRANCH   6  21
HETATM   21  C7  UNL     1      15.016  -8.989  -4.238  1.00  0.00     0.197 C 
BRANCH  21  22
HETATM   22  O2  UNL     1      13.998  -9.772  -4.723  1.00  0.00    -0.398 OA
ATOM     23  H2  UNL     1      13.580 -10.322  -4.071  1.00  0.00     0.209 HD
ENDBRANCH  21  22
ENDBRANCH   6  21
BRANCH   1  24
HETATM   24  S1  UNL     1      16.479  -1.705  -7.362  1.00  0.00    -0.163 SA
HETATM   25  C1  UNL     1      18.053  -1.278  -6.601  1.00  0.00     0.090 C 
ENDBRANCH   1  24
TORSDOF 4
ENDMDL
