MODEL 1
REMARK VINA RESULT: -7.760131065      0.000      0.000
REMARK  5 active torsions:
REMARK  status: ('A' for Active; 'I' for Inactive)
REMARK    1  A    between atoms: C4_4  and  C5_5 
REMARK    2  A    between atoms: C5_5  and  C6_6 
REMARK    3  A    between atoms: C6_6  and  O1_7 
REMARK    4  A    between atoms: C6_6  and  C7_9 
REMARK    5  A    between atoms: C13_15  and  O2_16 
ROOT
HETATM    1  C7  UNL     1      14.276  -6.417  -7.986  1.00  0.00     0.023 C 
HETATM    2  C8  UNL     1      13.898  -5.061  -8.507  1.00  0.00     0.009 C 
HETATM    3  C9  UNL     1      13.811  -4.209  -7.224  1.00  0.00     0.011 C 
HETATM    4  C10 UNL     1      15.212  -3.961  -6.798  1.00  0.00    -0.030 C 
HETATM    5  C11 UNL     1      15.802  -3.051  -7.895  1.00  0.00     0.016 C 
HETATM    6  C12 UNL     1      16.057  -5.179  -6.642  1.00  0.00     0.031 C 
HETATM    7  C13 UNL     1      16.619  -5.273  -5.222  1.00  0.00     0.123 C 
HETATM    8  C14 UNL     1      17.297  -3.978  -4.830  1.00  0.00     0.033 C 
HETATM    9  C15 UNL     1      16.475  -2.761  -4.987  1.00  0.00     0.012 C 
HETATM   10  C16 UNL     1      15.129  -3.070  -5.581  1.00  0.00    -0.040 C 
HETATM   11  C17 UNL     1      14.560  -1.716  -6.037  1.00  0.00     0.015 C 
HETATM   12  C18 UNL     1      14.222  -3.549  -4.499  1.00  0.00     0.015 C 
HETATM   13  C19 UNL     1      15.489  -6.465  -7.119  1.00  0.00    -0.035 C 
HETATM   14  C20 UNL     1      16.627  -7.278  -7.768  1.00  0.00     0.016 C 
HETATM   15  C21 UNL     1      15.084  -7.331  -5.908  1.00  0.00     0.016 C 
ENDROOT
BRANCH   1  16
HETATM   16  C6  UNL     1      14.305  -7.376  -9.155  1.00  0.00     0.125 C 
BRANCH  16  17
HETATM   17  C5  UNL     1      13.486  -6.743 -10.264  1.00  0.00     0.065 C 
BRANCH  17  18
HETATM   18  C4  UNL     1      12.413  -7.661 -10.783  1.00  0.00     0.139 C 
HETATM   19  C3  UNL     1      11.526  -7.071 -11.826  1.00  0.00     0.076 C 
HETATM   20  C2  UNL     1      10.865  -8.289 -12.362  1.00  0.00     0.010 C 
HETATM   21  C1  UNL     1       9.712  -8.312 -12.995  1.00  0.00     0.025 C 
HETATM   22  C22 UNL     1      11.757  -9.389 -12.029  1.00  0.00     0.289 C 
HETATM   23  O3  UNL     1      12.867  -8.846 -11.348  1.00  0.00    -0.312 OA
HETATM   24  O4  UNL     1      11.549 -10.603 -12.313  1.00  0.00    -0.260 OA
ENDBRANCH  17  18
ENDBRANCH  16  17
BRANCH  16  25
HETATM   25  O1  UNL     1      13.731  -8.605  -8.801  1.00  0.00    -0.395 OA
ATOM     26  H1  UNL     1      12.825  -8.469  -8.552  1.00  0.00     0.210 HD
ENDBRANCH  16  25
ENDBRANCH   1  16
BRANCH   7  27
HETATM   27  O2  UNL     1      17.688  -6.203  -5.159  1.00  0.00    -0.395 OA
ATOM     28  H2  UNL     1      18.169  -6.113  -4.345  1.00  0.00     0.210 HD
ENDBRANCH   7  27
TORSDOF 5
ENDMDL
MODEL 2
REMARK VINA RESULT: -7.156561448      2.127      3.630
REMARK  5 active torsions:
REMARK  status: ('A' for Active; 'I' for Inactive)
REMARK    1  A    between atoms: C4_4  and  C5_5 
REMARK    2  A    between atoms: C5_5  and  C6_6 
REMARK    3  A    between atoms: C6_6  and  O1_7 
REMARK    4  A    between atoms: C6_6  and  C7_9 
REMARK    5  A    between atoms: C13_15  and  O2_16 
ROOT
HETATM    1  C7  UNL     1      14.364  -5.650  -9.787  1.00  0.00     0.023 C 
HETATM    2  C8  UNL     1      14.364  -7.117  -9.466  1.00  0.00     0.009 C 
HETATM    3  C9  UNL     1      15.704  -7.309  -8.726  1.00  0.00     0.011 C 
HETATM    4  C10 UNL     1      15.512  -6.731  -7.371  1.00  0.00    -0.030 C 
HETATM    5  C11 UNL     1      14.489  -7.662  -6.687  1.00  0.00     0.016 C 
HETATM    6  C12 UNL     1      15.016  -5.325  -7.341  1.00  0.00     0.031 C 
HETATM    7  C13 UNL     1      15.989  -4.423  -6.578  1.00  0.00     0.123 C 
HETATM    8  C14 UNL     1      16.309  -5.010  -5.221  1.00  0.00     0.033 C 
HETATM    9  C15 UNL     1      16.792  -6.406  -5.233  1.00  0.00     0.012 C 
HETATM   10  C16 UNL     1      16.800  -6.981  -6.622  1.00  0.00    -0.040 C 
HETATM   11  C17 UNL     1      16.941  -8.501  -6.438  1.00  0.00     0.015 C 
HETATM   12  C18 UNL     1      18.041  -6.539  -7.321  1.00  0.00     0.015 C 
HETATM   13  C19 UNL     1      14.576  -4.734  -8.629  1.00  0.00    -0.035 C 
HETATM   14  C20 UNL     1      13.337  -3.860  -8.354  1.00  0.00     0.016 C 
HETATM   15  C21 UNL     1      15.627  -3.712  -9.113  1.00  0.00     0.016 C 
ENDROOT
BRANCH   1  16
HETATM   16  C6  UNL     1      13.126  -5.350 -10.603  1.00  0.00     0.125 C 
BRANCH  16  17
HETATM   17  C5  UNL     1      12.291  -6.615 -10.617  1.00  0.00     0.065 C 
BRANCH  17  18
HETATM   18  C4  UNL     1      11.776  -6.950 -11.990  1.00  0.00     0.139 C 
HETATM   19  C3  UNL     1      10.895  -8.150 -12.060  1.00  0.00     0.076 C 
HETATM   20  C2  UNL     1      10.291  -7.984 -13.407  1.00  0.00     0.010 C 
HETATM   21  C1  UNL     1       9.772  -8.951 -14.133  1.00  0.00     0.025 C 
HETATM   22  C22 UNL     1      10.412  -6.567 -13.711  1.00  0.00     0.289 C 
HETATM   23  O3  UNL     1      11.041  -5.948 -12.610  1.00  0.00    -0.312 OA
HETATM   24  O4  UNL     1      10.014  -6.016 -14.778  1.00  0.00    -0.260 OA
ENDBRANCH  17  18
ENDBRANCH  16  17
BRANCH  16  25
HETATM   25  O1  UNL     1      13.473  -5.010 -11.919  1.00  0.00    -0.395 OA
ATOM     26  H1  UNL     1      12.960  -5.533 -12.523  1.00  0.00     0.210 HD
ENDBRANCH  16  25
ENDBRANCH   1  16
BRANCH   7  27
HETATM   27  O2  UNL     1      15.376  -3.190  -6.236  1.00  0.00    -0.395 OA
ATOM     28  H2  UNL     1      14.558  -3.075  -6.704  1.00  0.00     0.210 HD
ENDBRANCH   7  27
TORSDOF 5
ENDMDL
MODEL 3
REMARK VINA RESULT: -7.134373473      3.899      5.508
REMARK  5 active torsions:
REMARK  status: ('A' for Active; 'I' for Inactive)
REMARK    1  A    between atoms: C4_4  and  C5_5 
REMARK    2  A    between atoms: C5_5  and  C6_6 
REMARK    3  A    between atoms: C6_6  and  O1_7 
REMARK    4  A    between atoms: C6_6  and  C7_9 
REMARK    5  A    between atoms: C13_15  and  O2_16 
ROOT
HETATM    1  C7  UNL     1      15.392  -4.206  -7.261  1.00  0.00     0.023 C 
HETATM    2  C8  UNL     1      15.793  -5.342  -8.158  1.00  0.00     0.009 C 
HETATM    3  C9  UNL     1      16.424  -6.351  -7.176  1.00  0.00     0.011 C 
HETATM    4  C10 UNL     1      15.293  -6.968  -6.437  1.00  0.00    -0.030 C 
HETATM    5  C11 UNL     1      14.534  -7.795  -7.496  1.00  0.00     0.016 C 
HETATM    6  C12 UNL     1      14.360  -6.009  -5.780  1.00  0.00     0.031 C 
HETATM    7  C13 UNL     1      14.278  -6.275  -4.275  1.00  0.00     0.123 C 
HETATM    8  C14 UNL     1      13.979  -7.733  -4.006  1.00  0.00     0.033 C 
HETATM    9  C15 UNL     1      14.889  -8.697  -4.658  1.00  0.00     0.012 C 
HETATM   10  C16 UNL     1      15.905  -8.006  -5.525  1.00  0.00    -0.040 C 
HETATM   11  C17 UNL     1      16.504  -9.107  -6.414  1.00  0.00     0.015 C 
HETATM   12  C18 UNL     1      17.024  -7.521  -4.666  1.00  0.00     0.015 C 
HETATM   13  C19 UNL     1      14.532  -4.569  -6.098  1.00  0.00    -0.035 C 
HETATM   14  C20 UNL     1      13.132  -3.933  -6.199  1.00  0.00     0.016 C 
HETATM   15  C21 UNL     1      15.162  -3.845  -4.890  1.00  0.00     0.016 C 
ENDROOT
BRANCH   1  16
HETATM   16  C6  UNL     1      14.836  -3.099  -8.129  1.00  0.00     0.125 C 
BRANCH  16  17
HETATM   17  C5  UNL     1      14.384  -3.742  -9.426  1.00  0.00     0.065 C 
BRANCH  17  18
HETATM   18  C4  UNL     1      14.950  -3.052 -10.638  1.00  0.00     0.139 C 
HETATM   19  C3  UNL     1      14.710  -3.751 -11.932  1.00  0.00     0.076 C 
HETATM   20  C2  UNL     1      15.043  -2.677 -12.904  1.00  0.00     0.010 C 
HETATM   21  C1  UNL     1      15.398  -2.868 -14.156  1.00  0.00     0.025 C 
HETATM   22  C22 UNL     1      14.890  -1.432 -12.167  1.00  0.00     0.289 C 
HETATM   23  O3  UNL     1      14.490  -1.760 -10.855  1.00  0.00    -0.312 OA
HETATM   24  O4  UNL     1      15.087  -0.278 -12.645  1.00  0.00    -0.260 OA
ENDBRANCH  17  18
ENDBRANCH  16  17
BRANCH  16  25
HETATM   25  O1  UNL     1      15.824  -2.144  -8.406  1.00  0.00    -0.395 OA
ATOM     26  H1  UNL     1      16.629  -2.586  -8.649  1.00  0.00     0.210 HD
ENDBRANCH  16  25
ENDBRANCH   1  16
BRANCH   7  27
HETATM   27  O2  UNL     1      13.153  -5.626  -3.704  1.00  0.00    -0.395 OA
ATOM     28  H2  UNL     1      12.897  -6.043  -2.891  1.00  0.00     0.210 HD
ENDBRANCH   7  27
TORSDOF 5
ENDMDL
MODEL 4
REMARK VINA RESULT: -7.050980114      1.923      3.553
REMARK  5 active torsions:
REMARK  status: ('A' for Active; 'I' for Inactive)
REMARK    1  A    between atoms: C4_4  and  C5_5 
REMARK    2  A    between atoms: C5_5  and  C6_6 
REMARK    3  A    between atoms: C6_6  and  O1_7 
REMARK    4  A    between atoms: C6_6  and  C7_9 
REMARK    5  A    between atoms: C13_15  and  O2_16 
ROOT
HETATM    1  C7  UNL     1      14.977  -6.549  -8.572  1.00  0.00     0.023 C 
HETATM    2  C8  UNL     1      14.989  -8.009  -8.219  1.00  0.00     0.009 C 
HETATM    3  C9  UNL     1      16.282  -8.153  -7.391  1.00  0.00     0.011 C 
HETATM    4  C10 UNL     1      15.992  -7.551  -6.065  1.00  0.00    -0.030 C 
HETATM    5  C11 UNL     1      14.948  -8.489  -5.425  1.00  0.00     0.016 C 
HETATM    6  C12 UNL     1      15.466  -6.156  -6.099  1.00  0.00     0.031 C 
HETATM    7  C13 UNL     1      16.367  -5.215  -5.297  1.00  0.00     0.123 C 
HETATM    8  C14 UNL     1      16.613  -5.765  -3.909  1.00  0.00     0.033 C 
HETATM    9  C15 UNL     1      17.127  -7.149  -3.858  1.00  0.00     0.012 C 
HETATM   10  C16 UNL     1      17.236  -7.754  -5.231  1.00  0.00    -0.040 C 
HETATM   11  C17 UNL     1      17.397  -9.266  -5.002  1.00  0.00     0.015 C 
HETATM   12  C18 UNL     1      18.509  -7.299  -5.860  1.00  0.00     0.015 C 
HETATM   13  C19 UNL     1      15.096  -5.603  -7.426  1.00  0.00    -0.035 C 
HETATM   14  C20 UNL     1      13.822  -4.752  -7.249  1.00  0.00     0.016 C 
HETATM   15  C21 UNL     1      16.152  -4.568  -7.866  1.00  0.00     0.016 C 
ENDROOT
BRANCH   1  16
HETATM   16  C6  UNL     1      13.788  -6.296  -9.472  1.00  0.00     0.125 C 
BRANCH  16  17
HETATM   17  C5  UNL     1      13.149  -7.643  -9.747  1.00  0.00     0.065 C 
BRANCH  17  18
HETATM   18  C4  UNL     1      12.482  -7.699 -11.094  1.00  0.00     0.139 C 
HETATM   19  C3  UNL     1      11.574  -8.864 -11.302  1.00  0.00     0.076 C 
HETATM   20  C2  UNL     1      10.831  -8.435 -12.515  1.00  0.00     0.010 C 
HETATM   21  C1  UNL     1      10.217  -9.239 -13.355  1.00  0.00     0.025 C 
HETATM   22  C22 UNL     1      10.947  -6.985 -12.544  1.00  0.00     0.289 C 
HETATM   23  O3  UNL     1      11.704  -6.595 -11.419  1.00  0.00    -0.312 OA
HETATM   24  O4  UNL     1      10.448  -6.234 -13.431  1.00  0.00    -0.260 OA
ENDBRANCH  17  18
ENDBRANCH  16  17
BRANCH  16  25
HETATM   25  O1  UNL     1      14.199  -5.723 -10.684  1.00  0.00    -0.395 OA
ATOM     26  H1  UNL     1      14.713  -4.945 -10.505  1.00  0.00     0.210 HD
ENDBRANCH  16  25
ENDBRANCH   1  16
BRANCH   7  27
HETATM   27  O2  UNL     1      15.708  -3.990  -5.023  1.00  0.00    -0.395 OA
ATOM     28  H2  UNL     1      15.324  -3.626  -5.812  1.00  0.00     0.210 HD
ENDBRANCH   7  27
TORSDOF 5
ENDMDL
MODEL 5
REMARK VINA RESULT: -7.002049017      3.642      5.959
REMARK  5 active torsions:
REMARK  status: ('A' for Active; 'I' for Inactive)
REMARK    1  A    between atoms: C4_4  and  C5_5 
REMARK    2  A    between atoms: C5_5  and  C6_6 
REMARK    3  A    between atoms: C6_6  and  O1_7 
REMARK    4  A    between atoms: C6_6  and  C7_9 
REMARK    5  A    between atoms: C13_15  and  O2_16 
ROOT
HETATM    1  C7  UNL     1      16.084  -8.493  -5.933  1.00  0.00     0.023 C 
HETATM    2  C8  UNL     1      16.458  -9.689  -6.760  1.00  0.00     0.009 C 
HETATM    3  C9  UNL     1      17.515 -10.396  -5.886  1.00  0.00     0.011 C 
HETATM    4  C10 UNL     1      16.767 -11.048  -4.781  1.00  0.00    -0.030 C 
HETATM    5  C11 UNL     1      15.941 -12.158  -5.464  1.00  0.00     0.016 C 
HETATM    6  C12 UNL     1      15.864 -10.150  -4.005  1.00  0.00     0.031 C 
HETATM    7  C13 UNL     1      16.236 -10.158  -2.521  1.00  0.00     0.123 C 
HETATM    8  C14 UNL     1      16.320 -11.576  -1.998  1.00  0.00     0.033 C 
HETATM    9  C15 UNL     1      17.203 -12.480  -2.762  1.00  0.00     0.012 C 
HETATM   10  C16 UNL     1      17.794 -11.797  -3.965  1.00  0.00    -0.040 C 
HETATM   11  C17 UNL     1      18.350 -12.927  -4.847  1.00  0.00     0.015 C 
HETATM   12  C18 UNL     1      18.976 -10.997  -3.534  1.00  0.00     0.015 C 
HETATM   13  C19 UNL     1      15.651  -8.780  -4.535  1.00  0.00    -0.035 C 
HETATM   14  C20 UNL     1      14.174  -8.404  -4.302  1.00  0.00     0.016 C 
HETATM   15  C21 UNL     1      16.415  -7.764  -3.661  1.00  0.00     0.016 C 
ENDROOT
BRANCH   1  16
HETATM   16  C6  UNL     1      15.107  -7.660  -6.732  1.00  0.00     0.125 C 
BRANCH  16  17
HETATM   17  C5  UNL     1      15.207  -8.124  -8.172  1.00  0.00     0.065 C 
BRANCH  17  18
HETATM   18  C4  UNL     1      13.946  -7.861  -8.950  1.00  0.00     0.139 C 
HETATM   19  C3  UNL     1      14.024  -6.727  -9.915  1.00  0.00     0.076 C 
HETATM   20  C2  UNL     1      12.812  -6.969 -10.739  1.00  0.00     0.010 C 
HETATM   21  C1  UNL     1      12.182  -6.059 -11.451  1.00  0.00     0.025 C 
HETATM   22  C22 UNL     1      12.508  -8.382 -10.571  1.00  0.00     0.289 C 
HETATM   23  O3  UNL     1      13.483  -8.927  -9.709  1.00  0.00    -0.312 OA
HETATM   24  O4  UNL     1      11.538  -8.985 -11.113  1.00  0.00    -0.260 OA
ENDBRANCH  17  18
ENDBRANCH  16  17
BRANCH  16  25
HETATM   25  O1  UNL     1      15.443  -6.300  -6.659  1.00  0.00    -0.395 OA
ATOM     26  H1  UNL     1      15.535  -6.047  -5.748  1.00  0.00     0.210 HD
ENDBRANCH  16  25
ENDBRANCH   1  16
BRANCH   7  27
HETATM   27  O2  UNL     1      15.192  -9.608  -1.733  1.00  0.00    -0.395 OA
ATOM     28  H2  UNL     1      15.053  -8.693  -1.943  1.00  0.00     0.210 HD
ENDBRANCH   7  27
TORSDOF 5
ENDMDL
