MODEL 1
REMARK VINA RESULT: -6.324105902      0.000      0.000
REMARK  4 active torsions:
REMARK  status: ('A' for Active; 'I' for Inactive)
REMARK    1  A    between atoms: C6_6  and  O1_7 
REMARK    2  A    between atoms: C12_14  and  C13_15 
REMARK    3  A    between atoms: C13_15  and  O2_16 
REMARK    4  A    between atoms: O2_16  and  S1_17 
ROOT
HETATM    1  C1  UNL     1      17.485  -9.071  -4.779  1.00  0.00     0.015 C 
HETATM    2  C2  UNL     1      16.665  -7.989  -4.085  1.00  0.00    -0.043 C 
HETATM    3  C3  UNL     1      17.506  -7.525  -2.901  1.00  0.00     0.015 C 
HETATM    4  C4  UNL     1      15.446  -8.642  -3.520  1.00  0.00     0.011 C 
HETATM    5  C5  UNL     1      14.236  -8.493  -4.390  1.00  0.00     0.033 C 
HETATM    6  C6  UNL     1      13.918  -7.035  -4.513  1.00  0.00     0.127 C 
HETATM    7  C7  UNL     1      15.095  -6.159  -4.811  1.00  0.00    -0.009 C 
HETATM    8  C8  UNL     1      15.323  -5.339  -3.537  1.00  0.00     0.018 C 
HETATM    9  C9  UNL     1      16.386  -6.870  -5.045  1.00  0.00     0.004 C 
HETATM   10  C10 UNL     1      16.616  -7.302  -6.466  1.00  0.00     0.007 C 
HETATM   11  C11 UNL     1      16.550  -6.088  -7.351  1.00  0.00     0.012 C 
HETATM   12  C12 UNL     1      15.126  -5.576  -7.280  1.00  0.00    -0.013 C 
HETATM   13  C14 UNL     1      15.066  -4.339  -8.165  1.00  0.00     0.012 C 
HETATM   14  C15 UNL     1      14.730  -3.089  -7.402  1.00  0.00     0.001 C 
HETATM   15  C16 UNL     1      13.519  -3.224  -6.523  1.00  0.00     0.000 C 
HETATM   16  C17 UNL     1      13.437  -4.579  -5.842  1.00  0.00     0.006 C 
HETATM   17  C18 UNL     1      14.838  -5.160  -5.895  1.00  0.00     0.007 C 
ENDROOT
BRANCH  12  18
HETATM   18  C13 UNL     1      14.230  -6.590  -7.894  1.00  0.00     0.202 C 
BRANCH  18  19
HETATM   19  O2  UNL     1      13.871  -6.087  -9.156  1.00  0.00    -0.256 OA
BRANCH  19  20
HETATM   20  S1  UNL     1      13.430  -7.294 -10.216  1.00  0.00     0.251 S 
HETATM   21  O3  UNL     1      12.953  -8.534  -9.530  1.00  0.00    -0.572 OA
HETATM   22  O4  UNL     1      14.668  -7.680 -10.994  1.00  0.00    -0.572 OA
HETATM   23  O5  UNL     1      12.329  -6.721 -11.346  1.00  0.00    -0.572 OA
ENDBRANCH  19  20
ENDBRANCH  18  19
ENDBRANCH  12  18
BRANCH   6  24
HETATM   24  O1  UNL     1      13.267  -6.680  -3.317  1.00  0.00    -0.395 OA
ATOM     25  H1  UNL     1      12.906  -5.813  -3.464  1.00  0.00     0.210 HD
ENDBRANCH   6  24
TORSDOF 4
ENDMDL
MODEL 2
REMARK VINA RESULT: -6.215072083      2.942      4.751
REMARK  4 active torsions:
REMARK  status: ('A' for Active; 'I' for Inactive)
REMARK    1  A    between atoms: C6_6  and  O1_7 
REMARK    2  A    between atoms: C12_14  and  C13_15 
REMARK    3  A    between atoms: C13_15  and  O2_16 
REMARK    4  A    between atoms: O2_16  and  S1_17 
ROOT
HETATM    1  C1  UNL     1      15.090  -3.264  -5.512  1.00  0.00     0.015 C 
HETATM    2  C2  UNL     1      15.114  -4.769  -5.759  1.00  0.00    -0.043 C 
HETATM    3  C3  UNL     1      14.471  -5.403  -4.532  1.00  0.00     0.015 C 
HETATM    4  C4  UNL     1      16.544  -5.199  -5.768  1.00  0.00     0.011 C 
HETATM    5  C5  UNL     1      17.116  -5.328  -7.147  1.00  0.00     0.033 C 
HETATM    6  C6  UNL     1      16.349  -6.386  -7.881  1.00  0.00     0.127 C 
HETATM    7  C7  UNL     1      14.861  -6.281  -7.757  1.00  0.00    -0.009 C 
HETATM    8  C8  UNL     1      14.440  -7.482  -6.904  1.00  0.00     0.018 C 
HETATM    9  C9  UNL     1      14.357  -5.088  -7.015  1.00  0.00     0.004 C 
HETATM   10  C10 UNL     1      14.161  -3.860  -7.860  1.00  0.00     0.007 C 
HETATM   11  C11 UNL     1      13.206  -4.194  -8.972  1.00  0.00     0.012 C 
HETATM   12  C12 UNL     1      13.900  -5.216  -9.849  1.00  0.00    -0.013 C 
HETATM   13  C14 UNL     1      12.925  -5.562 -10.966  1.00  0.00     0.012 C 
HETATM   14  C15 UNL     1      12.508  -7.005 -10.953  1.00  0.00     0.001 C 
HETATM   15  C16 UNL     1      13.660  -7.967 -10.878  1.00  0.00     0.000 C 
HETATM   16  C17 UNL     1      14.768  -7.484  -9.960  1.00  0.00     0.006 C 
HETATM   17  C18 UNL     1      14.140  -6.438  -9.059  1.00  0.00     0.007 C 
ENDROOT
BRANCH  12  18
HETATM   18  C13 UNL     1      15.075  -4.567 -10.487  1.00  0.00     0.202 C 
BRANCH  18  19
HETATM   19  O2  UNL     1      14.695  -4.273 -11.808  1.00  0.00    -0.256 OA
BRANCH  19  20
HETATM   20  S1  UNL     1      15.561  -3.001 -12.447  1.00  0.00     0.251 S 
HETATM   21  O3  UNL     1      16.587  -3.430 -13.446  1.00  0.00    -0.572 OA
HETATM   22  O4  UNL     1      16.314  -2.356 -11.305  1.00  0.00    -0.572 OA
HETATM   23  O5  UNL     1      14.530  -1.822 -13.050  1.00  0.00    -0.572 OA
ENDBRANCH  19  20
ENDBRANCH  18  19
ENDBRANCH  12  18
BRANCH   6  24
HETATM   24  O1  UNL     1      16.847  -7.617  -7.414  1.00  0.00    -0.395 OA
ATOM     25  H1  UNL     1      16.575  -8.267  -8.052  1.00  0.00     0.210 HD
ENDBRANCH   6  24
TORSDOF 4
ENDMDL
MODEL 3
REMARK VINA RESULT: -5.918505166      1.918      4.410
REMARK  4 active torsions:
REMARK  status: ('A' for Active; 'I' for Inactive)
REMARK    1  A    between atoms: C6_6  and  O1_7 
REMARK    2  A    between atoms: C12_14  and  C13_15 
REMARK    3  A    between atoms: C13_15  and  O2_16 
REMARK    4  A    between atoms: O2_16  and  S1_17 
ROOT
HETATM    1  C1  UNL     1      12.332  -3.539  -4.650  1.00  0.00     0.015 C 
HETATM    2  C2  UNL     1      13.756  -3.225  -5.097  1.00  0.00    -0.043 C 
HETATM    3  C3  UNL     1      14.322  -2.278  -4.046  1.00  0.00     0.015 C 
HETATM    4  C4  UNL     1      13.665  -2.451  -6.371  1.00  0.00     0.011 C 
HETATM    5  C5  UNL     1      13.854  -3.297  -7.593  1.00  0.00     0.033 C 
HETATM    6  C6  UNL     1      15.230  -3.888  -7.552  1.00  0.00     0.127 C 
HETATM    7  C7  UNL     1      15.618  -4.482  -6.234  1.00  0.00    -0.009 C 
HETATM    8  C8  UNL     1      16.702  -3.555  -5.675  1.00  0.00     0.018 C 
HETATM    9  C9  UNL     1      14.549  -4.494  -5.192  1.00  0.00     0.004 C 
HETATM   10  C10 UNL     1      13.649  -5.698  -5.230  1.00  0.00     0.007 C 
HETATM   11  C11 UNL     1      14.497  -6.932  -5.088  1.00  0.00     0.012 C 
HETATM   12  C12 UNL     1      15.369  -7.005  -6.325  1.00  0.00    -0.013 C 
HETATM   13  C14 UNL     1      16.235  -8.247  -6.172  1.00  0.00     0.012 C 
HETATM   14  C15 UNL     1      17.702  -7.933  -6.105  1.00  0.00     0.001 C 
HETATM   15  C16 UNL     1      18.180  -7.034  -7.210  1.00  0.00     0.000 C 
HETATM   16  C17 UNL     1      17.180  -5.943  -7.550  1.00  0.00     0.006 C 
HETATM   17  C18 UNL     1      16.258  -5.829  -6.351  1.00  0.00     0.007 C 
ENDROOT
BRANCH  12  18
HETATM   18  C13 UNL     1      14.494  -7.232  -7.504  1.00  0.00     0.202 C 
BRANCH  18  19
HETATM   19  O2  UNL     1      15.019  -8.349  -8.177  1.00  0.00    -0.256 OA
BRANCH  19  20
HETATM   20  S1  UNL     1      14.363  -8.538  -9.696  1.00  0.00     0.251 S 
HETATM   21  O3  UNL     1      14.934  -9.700 -10.444  1.00  0.00    -0.572 OA
HETATM   22  O4  UNL     1      14.711  -7.300 -10.491  1.00  0.00    -0.572 OA
HETATM   23  O5  UNL     1      12.687  -8.586  -9.619  1.00  0.00    -0.572 OA
ENDBRANCH  19  20
ENDBRANCH  18  19
ENDBRANCH  12  18
BRANCH   6  24
HETATM   24  O1  UNL     1      16.102  -2.863  -7.963  1.00  0.00    -0.395 OA
ATOM     25  H1  UNL     1      15.713  -2.051  -7.657  1.00  0.00     0.210 HD
ENDBRANCH   6  24
TORSDOF 4
ENDMDL
MODEL 4
REMARK VINA RESULT: -5.804558337      8.973     10.438
REMARK  4 active torsions:
REMARK  status: ('A' for Active; 'I' for Inactive)
REMARK    1  A    between atoms: C6_6  and  O1_7 
REMARK    2  A    between atoms: C12_14  and  C13_15 
REMARK    3  A    between atoms: C13_15  and  O2_16 
REMARK    4  A    between atoms: O2_16  and  S1_17 
ROOT
HETATM    1  C1  UNL     1      20.181   1.274  -9.880  1.00  0.00     0.015 C 
HETATM    2  C2  UNL     1      20.252   0.180 -10.940  1.00  0.00    -0.043 C 
HETATM    3  C3  UNL     1      21.151  -0.904 -10.358  1.00  0.00     0.015 C 
HETATM    4  C4  UNL     1      20.969   0.747 -12.121  1.00  0.00     0.011 C 
HETATM    5  C5  UNL     1      20.046   1.228 -13.199  1.00  0.00     0.033 C 
HETATM    6  C6  UNL     1      19.254   0.060 -13.702  1.00  0.00     0.127 C 
HETATM    7  C7  UNL     1      18.672  -0.810 -12.631  1.00  0.00    -0.009 C 
HETATM    8  C8  UNL     1      19.448  -2.128 -12.714  1.00  0.00     0.018 C 
HETATM    9  C9  UNL     1      18.874  -0.333 -11.231  1.00  0.00     0.004 C 
HETATM   10  C10 UNL     1      17.821   0.618 -10.735  1.00  0.00     0.007 C 
HETATM   11  C11 UNL     1      16.480  -0.053 -10.843  1.00  0.00     0.012 C 
HETATM   12  C12 UNL     1      16.215  -0.258 -12.321  1.00  0.00    -0.013 C 
HETATM   13  C14 UNL     1      14.864  -0.951 -12.427  1.00  0.00     0.012 C 
HETATM   14  C15 UNL     1      14.953  -2.316 -13.048  1.00  0.00     0.001 C 
HETATM   15  C16 UNL     1      15.714  -2.344 -14.343  1.00  0.00     0.000 C 
HETATM   16  C17 UNL     1      16.927  -1.431 -14.329  1.00  0.00     0.006 C 
HETATM   17  C18 UNL     1      17.239  -1.169 -12.867  1.00  0.00     0.007 C 
ENDROOT
BRANCH  12  18
HETATM   18  C13 UNL     1      16.068   1.074 -12.962  1.00  0.00     0.202 C 
BRANCH  18  19
HETATM   19  O2  UNL     1      14.689   1.344 -13.001  1.00  0.00    -0.256 OA
BRANCH  19  20
HETATM   20  S1  UNL     1      14.365   2.922 -13.424  1.00  0.00     0.251 S 
HETATM   21  O3  UNL     1      15.120   3.375 -14.632  1.00  0.00    -0.572 OA
HETATM   22  O4  UNL     1      14.824   3.794 -12.276  1.00  0.00    -0.572 OA
HETATM   23  O5  UNL     1      12.712   3.172 -13.567  1.00  0.00    -0.572 OA
ENDBRANCH  19  20
ENDBRANCH  18  19
ENDBRANCH  12  18
BRANCH   6  24
HETATM   24  O1  UNL     1      20.113  -0.644 -14.566  1.00  0.00    -0.395 OA
ATOM     25  H1  UNL     1      19.884  -1.562 -14.469  1.00  0.00     0.210 HD
ENDBRANCH   6  24
TORSDOF 4
ENDMDL
MODEL 5
REMARK VINA RESULT: -5.801234677      1.406      1.793
REMARK  4 active torsions:
REMARK  status: ('A' for Active; 'I' for Inactive)
REMARK    1  A    between atoms: C6_6  and  O1_7 
REMARK    2  A    between atoms: C12_14  and  C13_15 
REMARK    3  A    between atoms: C13_15  and  O2_16 
REMARK    4  A    between atoms: O2_16  and  S1_17 
ROOT
HETATM    1  C1  UNL     1      19.244  -7.295  -6.437  1.00  0.00     0.015 C 
HETATM    2  C2  UNL     1      18.453  -6.744  -5.255  1.00  0.00    -0.043 C 
HETATM    3  C3  UNL     1      19.453  -5.957  -4.416  1.00  0.00     0.015 C 
HETATM    4  C4  UNL     1      18.016  -7.908  -4.427  1.00  0.00     0.011 C 
HETATM    5  C5  UNL     1      16.608  -8.336  -4.704  1.00  0.00     0.033 C 
HETATM    6  C6  UNL     1      15.690  -7.203  -4.362  1.00  0.00     0.127 C 
HETATM    7  C7  UNL     1      16.122  -5.868  -4.885  1.00  0.00    -0.009 C 
HETATM    8  C8  UNL     1      16.528  -5.060  -3.648  1.00  0.00     0.018 C 
HETATM    9  C9  UNL     1      17.336  -5.876  -5.753  1.00  0.00     0.004 C 
HETATM   10  C10 UNL     1      17.063  -6.123  -7.211  1.00  0.00     0.007 C 
HETATM   11  C11 UNL     1      16.108  -5.071  -7.703  1.00  0.00     0.012 C 
HETATM   12  C12 UNL     1      14.799  -5.298  -6.974  1.00  0.00    -0.013 C 
HETATM   13  C14 UNL     1      13.838  -4.223  -7.463  1.00  0.00     0.012 C 
HETATM   14  C15 UNL     1      13.390  -3.297  -6.369  1.00  0.00     0.001 C 
HETATM   15  C16 UNL     1      12.882  -4.005  -5.145  1.00  0.00     0.000 C 
HETATM   16  C17 UNL     1      13.689  -5.248  -4.811  1.00  0.00     0.006 C 
HETATM   17  C18 UNL     1      15.016  -5.092  -5.530  1.00  0.00     0.007 C 
ENDROOT
BRANCH  12  18
HETATM   18  C13 UNL     1      14.240  -6.605  -7.406  1.00  0.00     0.202 C 
BRANCH  18  19
HETATM   19  O2  UNL     1      13.865  -6.449  -8.752  1.00  0.00    -0.256 OA
BRANCH  19  20
HETATM   20  S1  UNL     1      14.054  -7.852  -9.628  1.00  0.00     0.251 S 
HETATM   21  O3  UNL     1      15.098  -8.763  -9.065  1.00  0.00    -0.572 OA
HETATM   22  O4  UNL     1      14.527  -7.457 -11.009  1.00  0.00    -0.572 OA
HETATM   23  O5  UNL     1      12.579  -8.623  -9.844  1.00  0.00    -0.572 OA
ENDBRANCH  19  20
ENDBRANCH  18  19
ENDBRANCH  12  18
BRANCH   6  24
HETATM   24  O1  UNL     1      15.562  -7.220  -2.961  1.00  0.00    -0.395 OA
ATOM     25  H1  UNL     1      15.015  -7.971  -2.759  1.00  0.00     0.210 HD
ENDBRANCH   6  24
TORSDOF 4
ENDMDL
