MODEL 1
REMARK VINA RESULT: -8.289238084      0.000      0.000
REMARK  8 active torsions:
REMARK  status: ('A' for Active; 'I' for Inactive)
REMARK    1  A    between atoms: C3_3  and  O1_4 
REMARK    2  A    between atoms: O1_4  and  C4_5 
REMARK    3  A    between atoms: C4_5  and  C5_7 
REMARK    4  A    between atoms: C9_11  and  C10_12 
REMARK    5  A    between atoms: C13_15  and  O3_16 
REMARK    6  A    between atoms: C15_19  and  C16_20 
REMARK    7  A    between atoms: C18_22  and  O4_23 
REMARK    8  A    between atoms: C21_27  and  C22_28 
ROOT
HETATM    1  C1  UNL     1      14.955  -7.641  -6.949  1.00  0.00     0.099 C 
HETATM    2  C2  UNL     1      14.588  -6.999  -5.900  1.00  0.00    -0.161 C 
HETATM    3  C3  UNL     1      14.199  -6.317  -4.782  1.00  0.00     0.258 C 
ENDROOT
BRANCH   3   4
HETATM    4  O1  UNL     1      14.369  -4.865  -4.852  1.00  0.00    -0.310 OA
BRANCH   4   5
HETATM    5  C4  UNL     1      13.370  -4.117  -5.495  1.00  0.00     0.268 C 
HETATM    6  O2  UNL     1      12.242  -4.042  -4.959  1.00  0.00    -0.264 OA
BRANCH   5   7
HETATM    7  C5  UNL     1      13.715  -3.454  -6.788  1.00  0.00     0.049 C 
HETATM    8  C6  UNL     1      13.018  -2.161  -6.849  1.00  0.00     0.026 C 
HETATM    9  C7  UNL     1      15.204  -3.192  -6.774  1.00  0.00     0.020 C 
HETATM   10  C8  UNL     1      15.628  -3.160  -8.227  1.00  0.00     0.011 C 
HETATM   11  C9  UNL     1      14.768  -4.313  -8.784  1.00  0.00     0.025 C 
HETATM   12  C22 UNL     1      13.552  -4.381  -7.933  1.00  0.00     0.017 C 
BRANCH  11  13
HETATM   13  C10 UNL     1      14.604  -4.108 -10.210  1.00  0.00    -0.047 A 
HETATM   14  C11 UNL     1      15.004  -2.863 -10.714  1.00  0.00     0.011 A 
HETATM   15  C12 UNL     1      14.866  -2.599 -12.067  1.00  0.00     0.037 A 
HETATM   16  C13 UNL     1      14.349  -3.521 -12.924  1.00  0.00     0.066 A 
HETATM   17  C14 UNL     1      13.957  -4.757 -12.399  1.00  0.00     0.044 A 
HETATM   18  C15 UNL     1      14.086  -5.043 -11.054  1.00  0.00    -0.044 A 
BRANCH  16  19
HETATM   19  O3  UNL     1      14.192  -3.300 -14.305  1.00  0.00    -0.361 OA
ATOM     20  H3  UNL     1      13.420  -2.899 -14.689  1.00  0.00     0.217 HD
ENDBRANCH  16  19
BRANCH  18  21
HETATM   21  C16 UNL     1      13.676  -6.358 -10.523  1.00  0.00     0.026 C 
HETATM   22  C17 UNL     1      12.327  -6.676 -11.190  1.00  0.00     0.041 C 
HETATM   23  C18 UNL     1      11.877  -8.080 -11.008  1.00  0.00     0.118 C 
HETATM   24  C19 UNL     1      12.913  -9.136 -11.206  1.00  0.00     0.032 C 
HETATM   25  C20 UNL     1      14.139  -8.741 -10.363  1.00  0.00     0.008 C 
HETATM   26  C21 UNL     1      14.617  -7.435 -10.963  1.00  0.00     0.000 C 
BRANCH  23  27
HETATM   27  O4  UNL     1      10.826  -8.298 -11.905  1.00  0.00    -0.396 OA
ATOM     28  H4  UNL     1      10.720  -9.239 -11.992  1.00  0.00     0.210 HD
ENDBRANCH  23  27
ENDBRANCH  18  21
ENDBRANCH  11  13
ENDBRANCH   5   7
ENDBRANCH   4   5
ENDBRANCH   3   4
TORSDOF 8
ENDMDL
MODEL 2
REMARK VINA RESULT: -8.210372636      1.313      1.634
REMARK  8 active torsions:
REMARK  status: ('A' for Active; 'I' for Inactive)
REMARK    1  A    between atoms: C3_3  and  O1_4 
REMARK    2  A    between atoms: O1_4  and  C4_5 
REMARK    3  A    between atoms: C4_5  and  C5_7 
REMARK    4  A    between atoms: C9_11  and  C10_12 
REMARK    5  A    between atoms: C13_15  and  O3_16 
REMARK    6  A    between atoms: C15_19  and  C16_20 
REMARK    7  A    between atoms: C18_22  and  O4_23 
REMARK    8  A    between atoms: C21_27  and  C22_28 
ROOT
HETATM    1  C1  UNL     1      14.902  -8.863  -4.669  1.00  0.00     0.099 C 
HETATM    2  C2  UNL     1      14.204  -7.953  -4.091  1.00  0.00    -0.161 C 
HETATM    3  C3  UNL     1      13.463  -6.986  -3.475  1.00  0.00     0.258 C 
ENDROOT
BRANCH   3   4
HETATM    4  O1  UNL     1      13.233  -5.780  -4.272  1.00  0.00    -0.310 OA
BRANCH   4   5
HETATM    5  C4  UNL     1      14.232  -4.792  -4.272  1.00  0.00     0.268 C 
HETATM    6  O2  UNL     1      14.569  -4.285  -3.179  1.00  0.00    -0.264 OA
BRANCH   5   7
HETATM    7  C5  UNL     1      14.833  -4.406  -5.583  1.00  0.00     0.049 C 
HETATM    8  C6  UNL     1      15.470  -3.089  -5.433  1.00  0.00     0.026 C 
HETATM    9  C7  UNL     1      15.907  -5.421  -5.901  1.00  0.00     0.020 C 
HETATM   10  C8  UNL     1      16.025  -5.432  -7.411  1.00  0.00     0.011 C 
HETATM   11  C9  UNL     1      14.538  -5.319  -7.799  1.00  0.00     0.025 C 
HETATM   12  C22 UNL     1      13.869  -4.584  -6.694  1.00  0.00     0.017 C 
BRANCH  11  13
HETATM   13  C10 UNL     1      14.458  -4.774  -9.140  1.00  0.00    -0.047 A 
HETATM   14  C11 UNL     1      14.863  -3.442  -9.300  1.00  0.00     0.011 A 
HETATM   15  C12 UNL     1      14.804  -2.856 -10.554  1.00  0.00     0.037 A 
HETATM   16  C13 UNL     1      14.362  -3.545 -11.641  1.00  0.00     0.066 A 
HETATM   17  C14 UNL     1      13.964  -4.873 -11.459  1.00  0.00     0.044 A 
HETATM   18  C15 UNL     1      14.014  -5.478 -10.218  1.00  0.00    -0.044 A 
BRANCH  16  19
HETATM   19  O3  UNL     1      14.287  -2.994 -12.934  1.00  0.00    -0.361 OA
ATOM     20  H3  UNL     1      13.802  -2.203 -13.142  1.00  0.00     0.217 HD
ENDBRANCH  16  19
BRANCH  18  21
HETATM   21  C16 UNL     1      13.600  -6.885 -10.051  1.00  0.00     0.026 C 
HETATM   22  C17 UNL     1      12.352  -7.061 -10.933  1.00  0.00     0.041 C 
HETATM   23  C18 UNL     1      11.942  -8.476 -11.127  1.00  0.00     0.118 C 
HETATM   24  C19 UNL     1      13.037  -9.445 -11.428  1.00  0.00     0.032 C 
HETATM   25  C20 UNL     1      14.140  -9.234 -10.374  1.00  0.00     0.008 C 
HETATM   26  C21 UNL     1      14.630  -7.820 -10.602  1.00  0.00     0.000 C 
BRANCH  23  27
HETATM   27  O4  UNL     1      11.014  -8.498 -12.173  1.00  0.00    -0.396 OA
ATOM     28  H4  UNL     1      11.426  -8.940 -12.906  1.00  0.00     0.210 HD
ENDBRANCH  23  27
ENDBRANCH  18  21
ENDBRANCH  11  13
ENDBRANCH   5   7
ENDBRANCH   4   5
ENDBRANCH   3   4
TORSDOF 8
ENDMDL
MODEL 3
REMARK VINA RESULT: -8.120212452      1.418      1.908
REMARK  8 active torsions:
REMARK  status: ('A' for Active; 'I' for Inactive)
REMARK    1  A    between atoms: C3_3  and  O1_4 
REMARK    2  A    between atoms: O1_4  and  C4_5 
REMARK    3  A    between atoms: C4_5  and  C5_7 
REMARK    4  A    between atoms: C9_11  and  C10_12 
REMARK    5  A    between atoms: C13_15  and  O3_16 
REMARK    6  A    between atoms: C15_19  and  C16_20 
REMARK    7  A    between atoms: C18_22  and  O4_23 
REMARK    8  A    between atoms: C21_27  and  C22_28 
ROOT
HETATM    1  C1  UNL     1      13.545  -5.608  -4.290  1.00  0.00     0.099 C 
HETATM    2  C2  UNL     1      13.051  -4.426  -4.379  1.00  0.00    -0.161 C 
HETATM    3  C3  UNL     1      12.525  -3.169  -4.472  1.00  0.00     0.258 C 
ENDROOT
BRANCH   3   4
HETATM    4  O1  UNL     1      12.920  -2.419  -5.666  1.00  0.00    -0.310 OA
BRANCH   4   5
HETATM    5  C4  UNL     1      14.263  -2.023  -5.778  1.00  0.00     0.268 C 
HETATM    6  O2  UNL     1      14.773  -1.373  -4.839  1.00  0.00    -0.264 OA
BRANCH   5   7
HETATM    7  C5  UNL     1      15.002  -2.403  -7.018  1.00  0.00     0.049 C 
HETATM    8  C6  UNL     1      16.175  -1.526  -7.148  1.00  0.00     0.026 C 
HETATM    9  C7  UNL     1      15.489  -3.823  -6.834  1.00  0.00     0.020 C 
HETATM   10  C8  UNL     1      15.620  -4.395  -8.230  1.00  0.00     0.011 C 
HETATM   11  C9  UNL     1      14.364  -3.791  -8.889  1.00  0.00     0.025 C 
HETATM   12  C22 UNL     1      14.090  -2.513  -8.181  1.00  0.00     0.017 C 
BRANCH  11  13
HETATM   13  C10 UNL     1      14.576  -3.756 -10.322  1.00  0.00    -0.047 A 
HETATM   14  C11 UNL     1      15.361  -2.704 -10.814  1.00  0.00     0.011 A 
HETATM   15  C12 UNL     1      15.597  -2.606 -12.176  1.00  0.00     0.037 A 
HETATM   16  C13 UNL     1      15.082  -3.509 -13.054  1.00  0.00     0.066 A 
HETATM   17  C14 UNL     1      14.303  -4.551 -12.542  1.00  0.00     0.044 A 
HETATM   18  C15 UNL     1      14.055  -4.669 -11.188  1.00  0.00    -0.044 A 
BRANCH  16  19
HETATM   19  O3  UNL     1      15.295  -3.453 -14.444  1.00  0.00    -0.361 OA
ATOM     20  H3  UNL     1      14.688  -3.049 -15.053  1.00  0.00     0.217 HD
ENDBRANCH  16  19
BRANCH  18  21
HETATM   21  C16 UNL     1      13.239  -5.784 -10.668  1.00  0.00     0.026 C 
HETATM   22  C17 UNL     1      12.090  -5.965 -11.674  1.00  0.00     0.041 C 
HETATM   23  C18 UNL     1      11.312  -7.217 -11.486  1.00  0.00     0.118 C 
HETATM   24  C19 UNL     1      12.106  -8.458 -11.245  1.00  0.00     0.032 C 
HETATM   25  C20 UNL     1      13.109  -8.149 -10.118  1.00  0.00     0.008 C 
HETATM   26  C21 UNL     1      14.006  -7.068 -10.682  1.00  0.00     0.000 C 
BRANCH  23  27
HETATM   27  O4  UNL     1      10.528  -7.393 -12.631  1.00  0.00    -0.396 OA
ATOM     28  H4  UNL     1      10.100  -6.564 -12.810  1.00  0.00     0.210 HD
ENDBRANCH  23  27
ENDBRANCH  18  21
ENDBRANCH  11  13
ENDBRANCH   5   7
ENDBRANCH   4   5
ENDBRANCH   3   4
TORSDOF 8
ENDMDL
MODEL 4
REMARK VINA RESULT: -7.925880944      2.045      6.356
REMARK  8 active torsions:
REMARK  status: ('A' for Active; 'I' for Inactive)
REMARK    1  A    between atoms: C3_3  and  O1_4 
REMARK    2  A    between atoms: O1_4  and  C4_5 
REMARK    3  A    between atoms: C4_5  and  C5_7 
REMARK    4  A    between atoms: C9_11  and  C10_12 
REMARK    5  A    between atoms: C13_15  and  O3_16 
REMARK    6  A    between atoms: C15_19  and  C16_20 
REMARK    7  A    between atoms: C18_22  and  O4_23 
REMARK    8  A    between atoms: C21_27  and  C22_28 
ROOT
HETATM    1  C1  UNL     1      16.135   1.284 -13.618  1.00  0.00     0.099 C 
HETATM    2  C2  UNL     1      16.536   0.341 -14.392  1.00  0.00    -0.161 C 
HETATM    3  C3  UNL     1      16.964  -0.660 -15.216  1.00  0.00     0.258 C 
ENDROOT
BRANCH   3   4
HETATM    4  O1  UNL     1      16.938  -2.000 -14.628  1.00  0.00    -0.310 OA
BRANCH   4   5
HETATM    5  C4  UNL     1      15.747  -2.426 -14.017  1.00  0.00     0.268 C 
HETATM    6  O2  UNL     1      14.724  -2.549 -14.726  1.00  0.00    -0.264 OA
BRANCH   5   7
HETATM    7  C5  UNL     1      15.776  -2.708 -12.551  1.00  0.00     0.049 C 
HETATM    8  C6  UNL     1      17.139  -2.462 -12.056  1.00  0.00     0.026 C 
HETATM    9  C7  UNL     1      14.843  -1.721 -11.886  1.00  0.00     0.020 C 
HETATM   10  C8  UNL     1      14.380  -2.393 -10.610  1.00  0.00     0.011 C 
HETATM   11  C9  UNL     1      14.195  -3.837 -11.117  1.00  0.00     0.025 C 
HETATM   12  C22 UNL     1      15.154  -4.016 -12.238  1.00  0.00     0.017 C 
BRANCH  11  13
HETATM   13  C10 UNL     1      14.286  -4.732  -9.980  1.00  0.00    -0.047 A 
HETATM   14  C11 UNL     1      14.972  -4.250  -8.857  1.00  0.00     0.011 A 
HETATM   15  C12 UNL     1      15.102  -5.057  -7.738  1.00  0.00     0.037 A 
HETATM   16  C13 UNL     1      14.580  -6.313  -7.702  1.00  0.00     0.066 A 
HETATM   17  C14 UNL     1      13.899  -6.773  -8.833  1.00  0.00     0.044 A 
HETATM   18  C15 UNL     1      13.755  -5.986  -9.959  1.00  0.00    -0.044 A 
BRANCH  16  19
HETATM   19  O3  UNL     1      14.685  -7.169  -6.589  1.00  0.00    -0.361 OA
ATOM     20  H3  UNL     1      14.336  -6.959  -5.730  1.00  0.00     0.217 HD
ENDBRANCH  16  19
BRANCH  18  21
HETATM   21  C16 UNL     1      13.023  -6.488 -11.138  1.00  0.00     0.026 C 
HETATM   22  C17 UNL     1      12.802  -7.989 -10.886  1.00  0.00     0.041 C 
HETATM   23  C18 UNL     1      11.839  -8.626 -11.821  1.00  0.00     0.118 C 
HETATM   24  C19 UNL     1      10.582  -7.867 -12.092  1.00  0.00     0.032 C 
HETATM   25  C20 UNL     1      10.986  -6.429 -12.466  1.00  0.00     0.008 C 
HETATM   26  C21 UNL     1      11.659  -5.880 -11.226  1.00  0.00     0.000 C 
BRANCH  23  27
HETATM   27  O4  UNL     1      11.510  -9.877 -11.289  1.00  0.00    -0.396 OA
ATOM     28  H4  UNL     1      10.650 -10.107 -11.621  1.00  0.00     0.210 HD
ENDBRANCH  23  27
ENDBRANCH  18  21
ENDBRANCH  11  13
ENDBRANCH   5   7
ENDBRANCH   4   5
ENDBRANCH   3   4
TORSDOF 8
ENDMDL
MODEL 5
REMARK VINA RESULT: -7.847283923      1.395      2.444
REMARK  8 active torsions:
REMARK  status: ('A' for Active; 'I' for Inactive)
REMARK    1  A    between atoms: C3_3  and  O1_4 
REMARK    2  A    between atoms: O1_4  and  C4_5 
REMARK    3  A    between atoms: C4_5  and  C5_7 
REMARK    4  A    between atoms: C9_11  and  C10_12 
REMARK    5  A    between atoms: C13_15  and  O3_16 
REMARK    6  A    between atoms: C15_19  and  C16_20 
REMARK    7  A    between atoms: C18_22  and  O4_23 
REMARK    8  A    between atoms: C21_27  and  C22_28 
ROOT
HETATM    1  C1  UNL     1      12.325  -0.791  -4.661  1.00  0.00     0.099 C 
HETATM    2  C2  UNL     1      12.867  -1.605  -3.829  1.00  0.00    -0.161 C 
HETATM    3  C3  UNL     1      13.443  -2.470  -2.943  1.00  0.00     0.258 C 
ENDROOT
BRANCH   3   4
HETATM    4  O1  UNL     1      14.421  -3.392  -3.522  1.00  0.00    -0.310 OA
BRANCH   4   5
HETATM    5  C4  UNL     1      13.992  -4.239  -4.558  1.00  0.00     0.268 C 
HETATM    6  O2  UNL     1      13.058  -5.039  -4.326  1.00  0.00    -0.264 OA
BRANCH   5   7
HETATM    7  C5  UNL     1      14.681  -4.133  -5.878  1.00  0.00     0.049 C 
HETATM    8  C6  UNL     1      15.652  -3.030  -5.810  1.00  0.00     0.026 C 
HETATM    9  C7  UNL     1      15.441  -5.423  -6.093  1.00  0.00     0.020 C 
HETATM   10  C8  UNL     1      15.558  -5.583  -7.594  1.00  0.00     0.011 C 
HETATM   11  C9  UNL     1      14.159  -5.103  -8.027  1.00  0.00     0.025 C 
HETATM   12  C22 UNL     1      13.710  -4.130  -6.998  1.00  0.00     0.017 C 
BRANCH  11  13
HETATM   13  C10 UNL     1      14.237  -4.664  -9.406  1.00  0.00    -0.047 A 
HETATM   14  C11 UNL     1      14.665  -3.346  -9.621  1.00  0.00     0.011 A 
HETATM   15  C12 UNL     1      14.754  -2.860 -10.915  1.00  0.00     0.037 A 
HETATM   16  C13 UNL     1      14.434  -3.632 -11.989  1.00  0.00     0.066 A 
HETATM   17  C14 UNL     1      14.010  -4.943 -11.752  1.00  0.00     0.044 A 
HETATM   18  C15 UNL     1      13.914  -5.450 -10.471  1.00  0.00    -0.044 A 
BRANCH  16  19
HETATM   19  O3  UNL     1      14.511  -3.183 -13.321  1.00  0.00    -0.361 OA
ATOM     20  H3  UNL     1      14.125  -2.369 -13.625  1.00  0.00     0.217 HD
ENDBRANCH  16  19
BRANCH  18  21
HETATM   21  C16 UNL     1      13.475  -6.840 -10.244  1.00  0.00     0.026 C 
HETATM   22  C17 UNL     1      12.209  -7.023 -11.099  1.00  0.00     0.041 C 
HETATM   23  C18 UNL     1      11.768  -8.436 -11.233  1.00  0.00     0.118 C 
HETATM   24  C19 UNL     1      12.838  -9.438 -11.514  1.00  0.00     0.032 C 
HETATM   25  C20 UNL     1      13.961  -9.211 -10.486  1.00  0.00     0.008 C 
HETATM   26  C21 UNL     1      14.476  -7.816 -10.775  1.00  0.00     0.000 C 
BRANCH  23  27
HETATM   27  O4  UNL     1      10.822  -8.478 -12.263  1.00  0.00    -0.396 OA
ATOM     28  H4  UNL     1      11.098  -9.154 -12.871  1.00  0.00     0.210 HD
ENDBRANCH  23  27
ENDBRANCH  18  21
ENDBRANCH  11  13
ENDBRANCH   5   7
ENDBRANCH   4   5
ENDBRANCH   3   4
TORSDOF 8
ENDMDL
