MODEL 1
REMARK VINA RESULT: -6.724516565      0.000      0.000
REMARK  18 active torsions:
REMARK  status: ('A' for Active; 'I' for Inactive)
REMARK    1  A    between atoms: C2_2  and  N1_3 
REMARK    2  A    between atoms: C3_6  and  N3_7 
REMARK    3  A    between atoms: C5_11  and  C6_12 
REMARK    4  A    between atoms: N6_18  and  C10_19 
REMARK    5  A    between atoms: C10_19  and  C11_20 
REMARK    6  A    between atoms: C11_20  and  O1_21 
REMARK    7  A    between atoms: C11_20  and  C12_23 
REMARK    8  A    between atoms: C12_23  and  O2_24 
REMARK    9  A    between atoms: O2_24  and  C13_25 
REMARK   10  A    between atoms: C13_25  and  C14_26 
REMARK   11  A    between atoms: C14_26  and  C15_27 
REMARK   12  A    between atoms: C17_29  and  N7_30 
REMARK   13  A    between atoms: N7_30  and  C18_32 
REMARK   14  A    between atoms: C18_32  and  C19_33 
REMARK   15  A    between atoms: C19_33  and  O3_34 
REMARK   16  A    between atoms: O3_34  and  P1_35 
REMARK   17  A    between atoms: P1_35  and  O4_36 
REMARK   18  A    between atoms: P1_35  and  O5_38 
ROOT
HETATM    1  N1  UNL     1      11.638 -32.907  11.362  1.00  0.00    -0.206 N 
HETATM    2  N2  UNL     1      12.898 -33.184  11.846  1.00  0.00    -0.264 N 
ATOM      3  H2  UNL     1      13.345 -34.054  11.556  1.00  0.00     0.190 HD
HETATM    4  C3  UNL     1      13.529 -32.421  12.629  1.00  0.00     0.140 A 
HETATM    5  C5  UNL     1      12.963 -31.111  13.118  1.00  0.00     0.099 A 
HETATM    6  C17 UNL     1      11.670 -30.868  12.610  1.00  0.00     0.135 A 
HETATM    7  N8  UNL     1      11.074 -31.744  11.772  1.00  0.00    -0.264 N 
ATOM      8  H8  UNL     1      10.142 -31.517  11.426  1.00  0.00     0.190 HD
ENDROOT
BRANCH   5   9
HETATM    9  C6  UNL     1      13.666 -30.524  14.030  1.00  0.00     0.125 A 
HETATM   10  N5  UNL     1      14.349 -29.308  13.531  1.00  0.00    -0.351 N 
HETATM   11  C7  UNL     1      14.986 -28.470  14.205  1.00  0.00     0.091 A 
ATOM     12  H5  UNL     1      14.294 -29.135  12.527  1.00  0.00     0.166 HD
HETATM   13  C8  UNL     1      15.124 -28.613  15.637  1.00  0.00     0.034 A 
HETATM   14  C9  UNL     1      14.541 -29.662  16.164  1.00  0.00     0.094 A 
HETATM   15  N6  UNL     1      13.798 -30.644  15.418  1.00  0.00    -0.340 N 
BRANCH  15  16
HETATM   16  C10 UNL     1      13.007 -31.561  16.158  1.00  0.00     0.164 C 
BRANCH  16  17
HETATM   17  C11 UNL     1      13.658 -32.185  17.372  1.00  0.00     0.160 C 
BRANCH  17  18
HETATM   18  O1  UNL     1      14.428 -33.282  17.186  1.00  0.00    -0.392 OA
ATOM     19  H1  UNL     1      15.368 -33.188  17.277  1.00  0.00     0.210 HD
ENDBRANCH  17  18
BRANCH  17  20
HETATM   20  C12 UNL     1      12.816 -32.069  18.599  1.00  0.00     0.200 C 
BRANCH  20  21
HETATM   21  O2  UNL     1      11.738 -31.287  18.267  1.00  0.00    -0.389 OA
BRANCH  21  22
HETATM   22  C13 UNL     1      11.467 -30.215  19.060  1.00  0.00     0.167 C 
BRANCH  22  23
HETATM   23  C14 UNL     1      12.120 -30.264  20.422  1.00  0.00     0.026 C 
BRANCH  23  24
HETATM   24  C15 UNL     1      12.820 -28.956  20.756  1.00  0.00    -0.002 C 
HETATM   25  C16 UNL     1      13.354 -28.415  19.420  1.00  0.00     0.005 C 
ENDBRANCH  23  24
ENDBRANCH  22  23
ENDBRANCH  21  22
ENDBRANCH  20  21
ENDBRANCH  17  20
ENDBRANCH  16  17
ENDBRANCH  15  16
ENDBRANCH   5   9
BRANCH   4  26
HETATM   26  N3  UNL     1      14.824 -32.852  13.036  1.00  0.00    -0.339 N 
HETATM   27  C4  UNL     1      15.053 -33.802  13.845  1.00  0.00     0.191 C 
HETATM   28  N4  UNL     1      13.973 -34.517  14.410  1.00  0.00    -0.097 NA
ATOM     29  H3  UNL     1      15.629 -32.359  12.648  1.00  0.00     0.167 HD
ENDBRANCH   4  26
BRANCH   6  30
HETATM   30  N7  UNL     1      10.707 -29.938  13.014  1.00  0.00    -0.372 N 
ATOM     31  H7  UNL     1       9.778 -30.007  12.597  1.00  0.00     0.161 HD
BRANCH  30  32
HETATM   32  C18 UNL     1      10.933 -28.889  13.977  1.00  0.00     0.148 C 
BRANCH  32  33
HETATM   33  C19 UNL     1      10.633 -27.497  13.622  1.00  0.00     0.197 C 
BRANCH  33  34
HETATM   34  O3  UNL     1      10.654 -27.215  12.277  1.00  0.00    -0.316 OA
BRANCH  34  35
HETATM   35  P1  UNL     1      12.163 -26.499  11.804  1.00  0.00     0.329 P 
BRANCH  35  36
HETATM   36  O4  UNL     1      11.837 -25.360  10.515  1.00  0.00    -0.328 OA
ATOM     37  H4  UNL     1      11.578 -24.537  10.912  1.00  0.00     0.219 HD
ENDBRANCH  35  36
BRANCH  35  38
HETATM   38  O5  UNL     1      13.269 -27.725  11.238  1.00  0.00    -0.328 OA
ATOM     39  H5  UNL     1      13.529 -27.549  10.341  1.00  0.00     0.219 HD
ENDBRANCH  35  38
ENDBRANCH  34  35
ENDBRANCH  33  34
ENDBRANCH  32  33
ENDBRANCH  30  32
ENDBRANCH   6  30
BRANCH   1  40
HETATM   40  C2  UNL     1      10.965 -33.816  10.472  1.00  0.00     0.126 C 
HETATM   41  C1  UNL     1      11.153 -33.818   9.179  1.00  0.00     0.033 C 
ENDBRANCH   1  40
TORSDOF 18
ENDMDL
MODEL 2
REMARK VINA RESULT: -6.603152257      2.922      6.384
REMARK  18 active torsions:
REMARK  status: ('A' for Active; 'I' for Inactive)
REMARK    1  A    between atoms: C2_2  and  N1_3 
REMARK    2  A    between atoms: C3_6  and  N3_7 
REMARK    3  A    between atoms: C5_11  and  C6_12 
REMARK    4  A    between atoms: N6_18  and  C10_19 
REMARK    5  A    between atoms: C10_19  and  C11_20 
REMARK    6  A    between atoms: C11_20  and  O1_21 
REMARK    7  A    between atoms: C11_20  and  C12_23 
REMARK    8  A    between atoms: C12_23  and  O2_24 
REMARK    9  A    between atoms: O2_24  and  C13_25 
REMARK   10  A    between atoms: C13_25  and  C14_26 
REMARK   11  A    between atoms: C14_26  and  C15_27 
REMARK   12  A    between atoms: C17_29  and  N7_30 
REMARK   13  A    between atoms: N7_30  and  C18_32 
REMARK   14  A    between atoms: C18_32  and  C19_33 
REMARK   15  A    between atoms: C19_33  and  O3_34 
REMARK   16  A    between atoms: O3_34  and  P1_35 
REMARK   17  A    between atoms: P1_35  and  O4_36 
REMARK   18  A    between atoms: P1_35  and  O5_38 
ROOT
HETATM    1  N1  UNL     1      17.067 -32.477  12.966  1.00  0.00    -0.206 N 
HETATM    2  N2  UNL     1      16.096 -33.042  13.763  1.00  0.00    -0.264 N 
ATOM      3  H2  UNL     1      16.321 -33.905  14.259  1.00  0.00     0.190 HD
HETATM    4  C3  UNL     1      14.942 -32.552  13.914  1.00  0.00     0.140 A 
HETATM    5  C5  UNL     1      14.505 -31.279  13.230  1.00  0.00     0.099 A 
HETATM    6  C17 UNL     1      15.522 -30.737  12.417  1.00  0.00     0.135 A 
HETATM    7  N8  UNL     1      16.730 -31.333  12.320  1.00  0.00    -0.264 N 
ATOM      8  H8  UNL     1      17.433 -30.895  11.725  1.00  0.00     0.190 HD
ENDROOT
BRANCH   5   9
HETATM    9  C6  UNL     1      13.252 -30.994  13.367  1.00  0.00     0.125 A 
HETATM   10  N5  UNL     1      13.017 -29.890  14.326  1.00  0.00    -0.351 N 
HETATM   11  C7  UNL     1      11.934 -29.313  14.561  1.00  0.00     0.091 A 
ATOM     12  H5  UNL     1      13.829 -29.564  14.851  1.00  0.00     0.166 HD
HETATM   13  C8  UNL     1      10.720 -29.691  13.872  1.00  0.00     0.034 A 
HETATM   14  C9  UNL     1      10.841 -30.659  12.996  1.00  0.00     0.094 A 
HETATM   15  N6  UNL     1      12.073 -31.342  12.698  1.00  0.00    -0.340 N 
BRANCH  15  16
HETATM   16  C10 UNL     1      12.095 -32.170  11.545  1.00  0.00     0.164 C 
BRANCH  16  17
HETATM   17  C11 UNL     1      11.764 -33.630  11.759  1.00  0.00     0.160 C 
BRANCH  17  18
HETATM   18  O1  UNL     1      12.737 -34.438  12.240  1.00  0.00    -0.392 OA
ATOM     19  H1  UNL     1      13.561 -34.475  11.769  1.00  0.00     0.210 HD
ENDBRANCH  17  18
BRANCH  17  20
HETATM   20  C12 UNL     1      10.797 -34.154  10.750  1.00  0.00     0.200 C 
BRANCH  20  21
HETATM   21  O2  UNL     1      11.386 -35.251  10.171  1.00  0.00    -0.389 OA
BRANCH  21  22
HETATM   22  C13 UNL     1      11.072 -35.526   8.876  1.00  0.00     0.167 C 
BRANCH  22  23
HETATM   23  C14 UNL     1      12.098 -35.058   7.870  1.00  0.00     0.026 C 
BRANCH  23  24
HETATM   24  C15 UNL     1      11.779 -33.664   7.352  1.00  0.00    -0.002 C 
HETATM   25  C16 UNL     1      12.861 -32.744   7.936  1.00  0.00     0.005 C 
ENDBRANCH  23  24
ENDBRANCH  22  23
ENDBRANCH  21  22
ENDBRANCH  20  21
ENDBRANCH  17  20
ENDBRANCH  16  17
ENDBRANCH  15  16
ENDBRANCH   5   9
BRANCH   4  26
HETATM   26  N3  UNL     1      14.054 -33.257  14.775  1.00  0.00    -0.339 N 
HETATM   27  C4  UNL     1      14.089 -33.221  16.042  1.00  0.00     0.191 C 
HETATM   28  N4  UNL     1      15.066 -32.435  16.695  1.00  0.00    -0.097 NA
ATOM     29  H3  UNL     1      13.335 -33.836  14.340  1.00  0.00     0.167 HD
ENDBRANCH   4  26
BRANCH   6  30
HETATM   30  N7  UNL     1      15.449 -29.752  11.427  1.00  0.00    -0.372 N 
ATOM     31  H7  UNL     1      15.301 -30.057  10.465  1.00  0.00     0.161 HD
BRANCH  30  32
HETATM   32  C18 UNL     1      15.569 -28.336  11.669  1.00  0.00     0.148 C 
BRANCH  32  33
HETATM   33  C19 UNL     1      14.366 -27.537  11.933  1.00  0.00     0.197 C 
BRANCH  33  34
HETATM   34  O3  UNL     1      14.050 -26.612  10.966  1.00  0.00    -0.316 OA
BRANCH  34  35
HETATM   35  P1  UNL     1      12.568 -25.788  11.337  1.00  0.00     0.329 P 
BRANCH  35  36
HETATM   36  O4  UNL     1      11.406 -26.984  11.866  1.00  0.00    -0.328 OA
ATOM     37  H4  UNL     1      11.002 -27.360  11.093  1.00  0.00     0.219 HD
ENDBRANCH  35  36
BRANCH  35  38
HETATM   38  O5  UNL     1      11.960 -24.962   9.924  1.00  0.00    -0.328 OA
ATOM     39  H5  UNL     1      11.415 -24.227  10.178  1.00  0.00     0.219 HD
ENDBRANCH  35  38
ENDBRANCH  34  35
ENDBRANCH  33  34
ENDBRANCH  32  33
ENDBRANCH  30  32
ENDBRANCH   6  30
BRANCH   1  40
HETATM   40  C2  UNL     1      18.365 -33.083  12.830  1.00  0.00     0.126 C 
HETATM   41  C1  UNL     1      19.481 -32.418  12.974  1.00  0.00     0.033 C 
ENDBRANCH   1  40
TORSDOF 18
ENDMDL
MODEL 3
REMARK VINA RESULT: -6.422196498      2.833      4.336
REMARK  18 active torsions:
REMARK  status: ('A' for Active; 'I' for Inactive)
REMARK    1  A    between atoms: C2_2  and  N1_3 
REMARK    2  A    between atoms: C3_6  and  N3_7 
REMARK    3  A    between atoms: C5_11  and  C6_12 
REMARK    4  A    between atoms: N6_18  and  C10_19 
REMARK    5  A    between atoms: C10_19  and  C11_20 
REMARK    6  A    between atoms: C11_20  and  O1_21 
REMARK    7  A    between atoms: C11_20  and  C12_23 
REMARK    8  A    between atoms: C12_23  and  O2_24 
REMARK    9  A    between atoms: O2_24  and  C13_25 
REMARK   10  A    between atoms: C13_25  and  C14_26 
REMARK   11  A    between atoms: C14_26  and  C15_27 
REMARK   12  A    between atoms: C17_29  and  N7_30 
REMARK   13  A    between atoms: N7_30  and  C18_32 
REMARK   14  A    between atoms: C18_32  and  C19_33 
REMARK   15  A    between atoms: C19_33  and  O3_34 
REMARK   16  A    between atoms: O3_34  and  P1_35 
REMARK   17  A    between atoms: P1_35  and  O4_36 
REMARK   18  A    between atoms: P1_35  and  O5_38 
ROOT
HETATM    1  N1  UNL     1      11.212 -34.209  10.598  1.00  0.00    -0.206 N 
HETATM    2  N2  UNL     1      11.515 -34.272  11.941  1.00  0.00    -0.264 N 
ATOM      3  H2  UNL     1      11.023 -34.959  12.513  1.00  0.00     0.190 HD
HETATM    4  C3  UNL     1      12.366 -33.528  12.501  1.00  0.00     0.140 A 
HETATM    5  C5  UNL     1      13.151 -32.482  11.748  1.00  0.00     0.099 A 
HETATM    6  C17 UNL     1      12.807 -32.441  10.381  1.00  0.00     0.135 A 
HETATM    7  N8  UNL     1      11.882 -33.283   9.869  1.00  0.00    -0.264 N 
ATOM      8  H8  UNL     1      11.676 -33.218   8.872  1.00  0.00     0.190 HD
ENDROOT
BRANCH   5   9
HETATM    9  C6  UNL     1      13.868 -31.704  12.491  1.00  0.00     0.125 A 
HETATM   10  N5  UNL     1      15.260 -32.186  12.649  1.00  0.00    -0.351 N 
HETATM   11  C7  UNL     1      16.209 -31.584  13.195  1.00  0.00     0.091 A 
ATOM     12  H5  UNL     1      15.466 -33.111  12.270  1.00  0.00     0.166 HD
HETATM   13  C8  UNL     1      16.031 -30.266  13.762  1.00  0.00     0.034 A 
HETATM   14  C9  UNL     1      14.827 -29.759  13.658  1.00  0.00     0.094 A 
HETATM   15  N6  UNL     1      13.713 -30.423  13.033  1.00  0.00    -0.340 N 
BRANCH  15  16
HETATM   16  C10 UNL     1      12.558 -29.642  12.762  1.00  0.00     0.164 C 
BRANCH  16  17
HETATM   17  C11 UNL     1      11.257 -30.135  13.354  1.00  0.00     0.160 C 
BRANCH  17  18
HETATM   18  O1  UNL     1      10.321 -30.625  12.509  1.00  0.00    -0.392 OA
ATOM     19  H1  UNL     1      10.215 -31.568  12.458  1.00  0.00     0.210 HD
ENDBRANCH  17  18
BRANCH  17  20
HETATM   20  C12 UNL     1      10.837 -29.349  14.551  1.00  0.00     0.200 C 
BRANCH  20  21
HETATM   21  O2  UNL     1      10.996 -30.171  15.639  1.00  0.00    -0.389 OA
BRANCH  21  22
HETATM   22  C13 UNL     1      12.059 -29.940  16.455  1.00  0.00     0.167 C 
BRANCH  22  23
HETATM   23  C14 UNL     1      12.702 -31.188  17.015  1.00  0.00     0.026 C 
BRANCH  23  24
HETATM   24  C15 UNL     1      14.220 -31.094  16.992  1.00  0.00    -0.002 C 
HETATM   25  C16 UNL     1      14.717 -32.473  16.533  1.00  0.00     0.005 C 
ENDBRANCH  23  24
ENDBRANCH  22  23
ENDBRANCH  21  22
ENDBRANCH  20  21
ENDBRANCH  17  20
ENDBRANCH  16  17
ENDBRANCH  15  16
ENDBRANCH   5   9
BRANCH   4  26
HETATM   26  N3  UNL     1      12.564 -33.721  13.898  1.00  0.00    -0.339 N 
HETATM   27  C4  UNL     1      11.660 -33.615  14.781  1.00  0.00     0.191 C 
HETATM   28  N4  UNL     1      10.341 -33.283  14.399  1.00  0.00    -0.097 NA
ATOM     29  H3  UNL     1      13.505 -33.962  14.213  1.00  0.00     0.167 HD
ENDBRANCH   4  26
BRANCH   6  30
HETATM   30  N7  UNL     1      13.084 -31.469   9.414  1.00  0.00    -0.372 N 
ATOM     31  H7  UNL     1      13.125 -30.496   9.720  1.00  0.00     0.161 HD
BRANCH  30  32
HETATM   32  C18 UNL     1      13.316 -31.743   8.018  1.00  0.00     0.148 C 
BRANCH  32  33
HETATM   33  C19 UNL     1      14.690 -31.798   7.505  1.00  0.00     0.197 C 
BRANCH  33  34
HETATM   34  O3  UNL     1      15.248 -30.582   7.187  1.00  0.00    -0.316 OA
BRANCH  34  35
HETATM   35  P1  UNL     1      16.554 -30.185   8.259  1.00  0.00     0.329 P 
BRANCH  35  36
HETATM   36  O4  UNL     1      16.133 -30.763   9.857  1.00  0.00    -0.328 OA
ATOM     37  H4  UNL     1      15.653 -30.072  10.299  1.00  0.00     0.219 HD
ENDBRANCH  35  36
BRANCH  35  38
HETATM   38  O5  UNL     1      16.800 -28.457   8.305  1.00  0.00    -0.328 OA
ATOM     39  H5  UNL     1      16.601 -28.117   9.170  1.00  0.00     0.219 HD
ENDBRANCH  35  38
ENDBRANCH  34  35
ENDBRANCH  33  34
ENDBRANCH  32  33
ENDBRANCH  30  32
ENDBRANCH   6  30
BRANCH   1  40
HETATM   40  C2  UNL     1      10.230 -35.083  10.013  1.00  0.00     0.126 C 
HETATM   41  C1  UNL     1      10.494 -35.889   9.019  1.00  0.00     0.033 C 
ENDBRANCH   1  40
TORSDOF 18
ENDMDL
MODEL 4
REMARK VINA RESULT: -6.381234175      2.766      5.184
REMARK  18 active torsions:
REMARK  status: ('A' for Active; 'I' for Inactive)
REMARK    1  A    between atoms: C2_2  and  N1_3 
REMARK    2  A    between atoms: C3_6  and  N3_7 
REMARK    3  A    between atoms: C5_11  and  C6_12 
REMARK    4  A    between atoms: N6_18  and  C10_19 
REMARK    5  A    between atoms: C10_19  and  C11_20 
REMARK    6  A    between atoms: C11_20  and  O1_21 
REMARK    7  A    between atoms: C11_20  and  C12_23 
REMARK    8  A    between atoms: C12_23  and  O2_24 
REMARK    9  A    between atoms: O2_24  and  C13_25 
REMARK   10  A    between atoms: C13_25  and  C14_26 
REMARK   11  A    between atoms: C14_26  and  C15_27 
REMARK   12  A    between atoms: C17_29  and  N7_30 
REMARK   13  A    between atoms: N7_30  and  C18_32 
REMARK   14  A    between atoms: C18_32  and  C19_33 
REMARK   15  A    between atoms: C19_33  and  O3_34 
REMARK   16  A    between atoms: O3_34  and  P1_35 
REMARK   17  A    between atoms: P1_35  and  O4_36 
REMARK   18  A    between atoms: P1_35  and  O5_38 
ROOT
HETATM    1  N1  UNL     1      12.301 -32.469  10.639  1.00  0.00    -0.206 N 
HETATM    2  N2  UNL     1      12.343 -33.213  11.798  1.00  0.00    -0.264 N 
ATOM      3  H2  UNL     1      12.056 -34.191  11.755  1.00  0.00     0.190 HD
HETATM    4  C3  UNL     1      12.718 -32.750  12.912  1.00  0.00     0.140 A 
HETATM    5  C5  UNL     1      13.165 -31.320  13.088  1.00  0.00     0.099 A 
HETATM    6  C17 UNL     1      13.098 -30.590  11.884  1.00  0.00     0.135 A 
HETATM    7  N8  UNL     1      12.686 -31.173  10.737  1.00  0.00    -0.264 N 
ATOM      8  H8  UNL     1      12.664 -30.602   9.891  1.00  0.00     0.190 HD
ENDROOT
BRANCH   5   9
HETATM    9  C6  UNL     1      13.370 -30.964  14.314  1.00  0.00     0.125 A 
HETATM   10  N5  UNL     1      12.130 -30.534  15.000  1.00  0.00    -0.351 N 
HETATM   11  C7  UNL     1      11.994 -30.264  16.213  1.00  0.00     0.091 A 
ATOM     12  H5  UNL     1      11.296 -30.448  14.419  1.00  0.00     0.166 HD
HETATM   13  C8  UNL     1      13.109 -30.356  17.129  1.00  0.00     0.034 A 
HETATM   14  C9  UNL     1      14.247 -30.739  16.604  1.00  0.00     0.094 A 
HETATM   15  N6  UNL     1      14.438 -31.061  15.213  1.00  0.00    -0.340 N 
BRANCH  15  16
HETATM   16  C10 UNL     1      15.647 -31.714  14.857  1.00  0.00     0.164 C 
BRANCH  16  17
HETATM   17  C11 UNL     1      16.631 -30.909  14.039  1.00  0.00     0.160 C 
BRANCH  17  18
HETATM   18  O1  UNL     1      16.606 -29.561  14.161  1.00  0.00    -0.392 OA
ATOM     19  H1  UNL     1      16.821 -29.186  15.007  1.00  0.00     0.210 HD
ENDBRANCH  17  18
BRANCH  17  20
HETATM   20  C12 UNL     1      16.917 -31.528  12.711  1.00  0.00     0.200 C 
BRANCH  20  21
HETATM   21  O2  UNL     1      17.215 -32.847  12.946  1.00  0.00    -0.389 OA
BRANCH  21  22
HETATM   22  C13 UNL     1      18.517 -33.228  12.847  1.00  0.00     0.167 C 
BRANCH  22  23
HETATM   23  C14 UNL     1      18.719 -34.693  12.535  1.00  0.00     0.026 C 
BRANCH  23  24
HETATM   24  C15 UNL     1      20.158 -34.990  12.144  1.00  0.00    -0.002 C 
HETATM   25  C16 UNL     1      20.221 -36.505  11.898  1.00  0.00     0.005 C 
ENDBRANCH  23  24
ENDBRANCH  22  23
ENDBRANCH  21  22
ENDBRANCH  20  21
ENDBRANCH  17  20
ENDBRANCH  16  17
ENDBRANCH  15  16
ENDBRANCH   5   9
BRANCH   4  26
HETATM   26  N3  UNL     1      12.706 -33.651  14.016  1.00  0.00    -0.339 N 
HETATM   27  C4  UNL     1      11.691 -33.911  14.730  1.00  0.00     0.191 C 
HETATM   28  N4  UNL     1      10.455 -33.285  14.448  1.00  0.00    -0.097 NA
ATOM     29  H3  UNL     1      13.580 -34.122  14.249  1.00  0.00     0.167 HD
ENDBRANCH   4  26
BRANCH   6  30
HETATM   30  N7  UNL     1      13.155 -29.209  11.667  1.00  0.00    -0.372 N 
ATOM     31  H7  UNL     1      12.763 -28.850  10.796  1.00  0.00     0.161 HD
BRANCH  30  32
HETATM   32  C18 UNL     1      13.730 -28.258  12.585  1.00  0.00     0.148 C 
BRANCH  32  33
HETATM   33  C19 UNL     1      12.899 -27.178  13.129  1.00  0.00     0.197 C 
BRANCH  33  34
HETATM   34  O3  UNL     1      11.993 -27.560  14.091  1.00  0.00    -0.316 OA
BRANCH  34  35
HETATM   35  P1  UNL     1      10.387 -27.670  13.441  1.00  0.00     0.329 P 
BRANCH  35  36
HETATM   36  O4  UNL     1       9.259 -27.314  14.732  1.00  0.00    -0.328 OA
ATOM     37  H4  UNL     1       8.450 -27.012  14.337  1.00  0.00     0.219 HD
ENDBRANCH  35  36
BRANCH  35  38
HETATM   38  O5  UNL     1      10.088 -29.275  12.826  1.00  0.00    -0.328 OA
ATOM     39  H5  UNL     1       9.155 -29.421  12.718  1.00  0.00     0.219 HD
ENDBRANCH  35  38
ENDBRANCH  34  35
ENDBRANCH  33  34
ENDBRANCH  32  33
ENDBRANCH  30  32
ENDBRANCH   6  30
BRANCH   1  40
HETATM   40  C2  UNL     1      11.863 -33.050   9.397  1.00  0.00     0.126 C 
HETATM   41  C1  UNL     1      10.940 -33.972   9.328  1.00  0.00     0.033 C 
ENDBRANCH   1  40
TORSDOF 18
ENDMDL
MODEL 5
REMARK VINA RESULT: -6.367114676      2.610      6.640
REMARK  18 active torsions:
REMARK  status: ('A' for Active; 'I' for Inactive)
REMARK    1  A    between atoms: C2_2  and  N1_3 
REMARK    2  A    between atoms: C3_6  and  N3_7 
REMARK    3  A    between atoms: C5_11  and  C6_12 
REMARK    4  A    between atoms: N6_18  and  C10_19 
REMARK    5  A    between atoms: C10_19  and  C11_20 
REMARK    6  A    between atoms: C11_20  and  O1_21 
REMARK    7  A    between atoms: C11_20  and  C12_23 
REMARK    8  A    between atoms: C12_23  and  O2_24 
REMARK    9  A    between atoms: O2_24  and  C13_25 
REMARK   10  A    between atoms: C13_25  and  C14_26 
REMARK   11  A    between atoms: C14_26  and  C15_27 
REMARK   12  A    between atoms: C17_29  and  N7_30 
REMARK   13  A    between atoms: N7_30  and  C18_32 
REMARK   14  A    between atoms: C18_32  and  C19_33 
REMARK   15  A    between atoms: C19_33  and  O3_34 
REMARK   16  A    between atoms: O3_34  and  P1_35 
REMARK   17  A    between atoms: P1_35  and  O4_36 
REMARK   18  A    between atoms: P1_35  and  O5_38 
ROOT
HETATM    1  N1  UNL     1      11.352 -31.890  12.798  1.00  0.00    -0.206 N 
HETATM    2  N2  UNL     1      11.325 -30.527  12.602  1.00  0.00    -0.264 N 
ATOM      3  H2  UNL     1      10.597 -30.140  12.002  1.00  0.00     0.190 HD
HETATM    4  C3  UNL     1      12.154 -29.730  13.124  1.00  0.00     0.140 A 
HETATM    5  C5  UNL     1      13.269 -30.194  14.029  1.00  0.00     0.099 A 
HETATM    6  C17 UNL     1      13.268 -31.595  14.196  1.00  0.00     0.135 A 
HETATM    7  N8  UNL     1      12.336 -32.368  13.598  1.00  0.00    -0.264 N 
ATOM      8  H8  UNL     1      12.376 -33.375  13.759  1.00  0.00     0.190 HD
ENDROOT
BRANCH   5   9
HETATM    9  C6  UNL     1      14.118 -29.276  14.356  1.00  0.00     0.125 A 
HETATM   10  N5  UNL     1      13.783 -28.620  15.641  1.00  0.00    -0.351 N 
HETATM   11  C7  UNL     1      14.481 -27.797  16.272  1.00  0.00     0.091 A 
ATOM     12  H5  UNL     1      12.884 -28.866  16.056  1.00  0.00     0.166 HD
HETATM   13  C8  UNL     1      15.774 -27.380  15.779  1.00  0.00     0.034 A 
HETATM   14  C9  UNL     1      16.153 -27.921  14.647  1.00  0.00     0.094 A 
HETATM   15  N6  UNL     1      15.376 -28.873  13.896  1.00  0.00    -0.340 N 
BRANCH  15  16
HETATM   16  C10 UNL     1      16.034 -29.564  12.844  1.00  0.00     0.164 C 
BRANCH  16  17
HETATM   17  C11 UNL     1      15.500 -29.330  11.449  1.00  0.00     0.160 C 
BRANCH  17  18
HETATM   18  O1  UNL     1      14.705 -28.254  11.245  1.00  0.00    -0.392 OA
ATOM     19  H1  UNL     1      14.017 -28.081  11.876  1.00  0.00     0.210 HD
ENDBRANCH  17  18
BRANCH  17  20
HETATM   20  C12 UNL     1      15.228 -30.602  10.717  1.00  0.00     0.200 C 
BRANCH  20  21
HETATM   21  O2  UNL     1      13.891 -30.599  10.404  1.00  0.00    -0.389 OA
BRANCH  21  22
HETATM   22  C13 UNL     1      13.363 -31.739   9.881  1.00  0.00     0.167 C 
BRANCH  22  23
HETATM   23  C14 UNL     1      13.356 -31.789   8.370  1.00  0.00     0.026 C 
BRANCH  23  24
HETATM   24  C15 UNL     1      12.494 -32.930   7.851  1.00  0.00    -0.002 C 
HETATM   25  C16 UNL     1      13.343 -33.646   6.790  1.00  0.00     0.005 C 
ENDBRANCH  23  24
ENDBRANCH  22  23
ENDBRANCH  21  22
ENDBRANCH  20  21
ENDBRANCH  17  20
ENDBRANCH  16  17
ENDBRANCH  15  16
ENDBRANCH   5   9
BRANCH   4  26
HETATM   26  N3  UNL     1      11.989 -28.347  12.823  1.00  0.00    -0.339 N 
HETATM   27  C4  UNL     1      11.147 -27.579  13.380  1.00  0.00     0.191 C 
HETATM   28  N4  UNL     1      10.287 -28.086  14.380  1.00  0.00    -0.097 NA
ATOM     29  H3  UNL     1      12.593 -27.944  12.106  1.00  0.00     0.167 HD
ENDBRANCH   4  26
BRANCH   6  30
HETATM   30  N7  UNL     1      14.258 -32.437  14.712  1.00  0.00    -0.372 N 
ATOM     31  H7  UNL     1      14.697 -33.100  14.072  1.00  0.00     0.161 HD
BRANCH  30  32
HETATM   32  C18 UNL     1      14.703 -32.435  16.083  1.00  0.00     0.148 C 
BRANCH  32  33
HETATM   33  C19 UNL     1      13.732 -32.228  17.164  1.00  0.00     0.197 C 
BRANCH  33  34
HETATM   34  O3  UNL     1      13.727 -30.969  17.717  1.00  0.00    -0.316 OA
BRANCH  34  35
HETATM   35  P1  UNL     1      12.155 -30.547  18.320  1.00  0.00     0.329 P 
BRANCH  35  36
HETATM   36  O4  UNL     1      11.389 -32.012  18.894  1.00  0.00    -0.328 OA
ATOM     37  H4  UNL     1      11.104 -32.509  18.135  1.00  0.00     0.219 HD
ENDBRANCH  35  36
BRANCH  35  38
HETATM   38  O5  UNL     1      11.188 -29.836  17.053  1.00  0.00    -0.328 OA
ATOM     39  H5  UNL     1      10.348 -30.275  16.990  1.00  0.00     0.219 HD
ENDBRANCH  35  38
ENDBRANCH  34  35
ENDBRANCH  33  34
ENDBRANCH  32  33
ENDBRANCH  30  32
ENDBRANCH   6  30
BRANCH   1  40
HETATM   40  C2  UNL     1      10.381 -32.751  12.175  1.00  0.00     0.126 C 
HETATM   41  C1  UNL     1      10.399 -33.041  10.901  1.00  0.00     0.033 C 
ENDBRANCH   1  40
TORSDOF 18
ENDMDL
