MODEL 1
REMARK VINA RESULT: -7.539476770      0.000      0.000
REMARK  16 active torsions:
REMARK  status: ('A' for Active; 'I' for Inactive)
REMARK    1  A    between atoms: C2_2  and  C3_3 
REMARK    2  A    between atoms: C3_3  and  C4_4 
REMARK    3  A    between atoms: C4_4  and  N1_5 
REMARK    4  A    between atoms: N1_5  and  C5_7 
REMARK    5  A    between atoms: C5_7  and  N2_8 
REMARK    6  A    between atoms: N2_8  and  C6_10 
REMARK    7  A    between atoms: C6_10  and  C7_11 
REMARK    8  A    between atoms: C7_11  and  O1_12 
REMARK    9  A    between atoms: C8_14  and  C10_16 
REMARK   10  A    between atoms: C12_23  and  N6_24 
REMARK   11  A    between atoms: N6_24  and  C13_26 
REMARK   12  A    between atoms: C13_26  and  C16_34 
REMARK   13  A    between atoms: C14_27  and  C15_28 
REMARK   14  A    between atoms: C15_28  and  P1_29 
REMARK   15  A    between atoms: P1_29  and  O2_30 
REMARK   16  A    between atoms: P1_29  and  O3_32 
ROOT
HETATM    1  C10 UNL     1      13.887 -32.901   7.065  1.00  0.00     0.060 A 
HETATM    2  N3  UNL     1      13.828 -32.167   8.168  1.00  0.00    -0.278 N 
ATOM      3  H3  UNL     1      14.557 -31.455   8.217  1.00  0.00     0.188 HD
HETATM    4  N4  UNL     1      12.992 -32.164   9.258  1.00  0.00    -0.080 N 
HETATM    5  C11 UNL     1      13.305 -31.181  10.232  1.00  0.00     0.242 A 
HETATM    6  N5  UNL     1      12.606 -31.062  11.306  1.00  0.00    -0.185 N 
ATOM      7  H5  UNL     1      12.867 -30.341  11.979  1.00  0.00     0.185 HD
HETATM    8  C12 UNL     1      11.491 -31.885  11.597  1.00  0.00     0.698 A 
HETATM    9  N7  UNL     1      11.162 -32.796  10.745  1.00  0.00    -0.020 N 
ATOM     10  H7  UNL     1      10.360 -33.393  10.948  1.00  0.00     0.203 HD
HETATM   11  C17 UNL     1      11.879 -32.996   9.531  1.00  0.00     0.718 A 
HETATM   12  N8  UNL     1      11.416 -33.950   8.793  1.00  0.00    -0.199 N 
ATOM     13  H8  UNL     1      10.601 -34.438   9.165  1.00  0.00     0.183 HD
HETATM   14  C18 UNL     1      11.884 -34.411   7.536  1.00  0.00     0.108 A 
HETATM   15  C19 UNL     1      12.936 -33.955   6.814  1.00  0.00     0.049 A 
ENDROOT
BRANCH   1  16
HETATM   16  C8  UNL     1      14.933 -32.583   6.153  1.00  0.00     0.010 C 
HETATM   17  C5  UNL     1      15.639 -33.284   5.353  1.00  0.00     0.105 C 
HETATM   18  C9  UNL     1      15.288 -31.082   6.129  1.00  0.00     0.054 C 
BRANCH  17  19
HETATM   19  N1  UNL     1      16.646 -32.555   4.567  1.00  0.00    -0.376 N 
ATOM     20  H1  UNL     1      17.198 -31.810   4.991  1.00  0.00     0.161 HD
BRANCH  19  21
HETATM   21  C4  UNL     1      16.834 -32.910   3.206  1.00  0.00     0.121 C 
BRANCH  21  22
HETATM   22  C3  UNL     1      15.903 -32.152   2.294  1.00  0.00     0.019 C 
BRANCH  22  23
HETATM   23  C2  UNL     1      16.074 -30.678   2.566  1.00  0.00    -0.003 C 
HETATM   24  C1  UNL     1      17.211 -30.137   1.734  1.00  0.00     0.005 C 
ENDBRANCH  22  23
ENDBRANCH  21  22
ENDBRANCH  19  21
ENDBRANCH  17  19
BRANCH  17  25
HETATM   25  N2  UNL     1      15.590 -34.670   5.115  1.00  0.00    -0.374 N 
ATOM     26  H2  UNL     1      14.962 -35.038   4.401  1.00  0.00     0.161 HD
BRANCH  25  27
HETATM   27  C6  UNL     1      16.432 -35.586   5.881  1.00  0.00     0.147 C 
BRANCH  27  28
HETATM   28  C7  UNL     1      16.264 -37.005   5.421  1.00  0.00     0.183 C 
BRANCH  28  29
HETATM   29  O1  UNL     1      15.323 -37.705   6.178  1.00  0.00    -0.399 OA
ATOM     30  H1  UNL     1      15.242 -38.613   5.909  1.00  0.00     0.209 HD
ENDBRANCH  28  29
ENDBRANCH  27  28
ENDBRANCH  25  27
ENDBRANCH  17  25
ENDBRANCH   1  16
BRANCH   8  31
HETATM   31  N6  UNL     1      10.740 -31.712  12.815  1.00  0.00    -0.185 N 
ATOM     32  H6  UNL     1       9.808 -32.120  12.886  1.00  0.00     0.184 HD
BRANCH  31  33
HETATM   33  C13 UNL     1      11.262 -30.989  13.913  1.00  0.00     0.122 C 
HETATM   34  C14 UNL     1      11.944 -31.643  14.829  1.00  0.00     0.019 C 
BRANCH  34  35
HETATM   35  C15 UNL     1      12.162 -33.097  14.716  1.00  0.00     0.122 C 
BRANCH  35  36
HETATM   36  P1  UNL     1      13.946 -33.555  14.954  1.00  0.00     0.166 P 
BRANCH  36  37
HETATM   37  O2  UNL     1      14.406 -33.413  16.621  1.00  0.00    -0.349 OA
ATOM     38  H2  UNL     1      14.835 -34.205  16.924  1.00  0.00     0.217 HD
ENDBRANCH  36  37
BRANCH  36  39
HETATM   39  O3  UNL     1      14.270 -35.144  14.337  1.00  0.00    -0.349 OA
ATOM     40  H3  UNL     1      15.200 -35.335  14.358  1.00  0.00     0.217 HD
ENDBRANCH  36  39
ENDBRANCH  35  36
ENDBRANCH  34  35
BRANCH  33  41
HETATM   41  C16 UNL     1      11.040 -29.541  14.016  1.00  0.00     0.227 C 
HETATM   42  O4  UNL     1      10.731 -29.051  15.114  1.00  0.00    -0.643 OA
HETATM   43  O5  UNL     1      11.181 -28.763  12.882  1.00  0.00    -0.643 OA
ENDBRANCH  33  41
ENDBRANCH  31  33
ENDBRANCH   8  31
TORSDOF 16
ENDMDL
MODEL 2
REMARK VINA RESULT: -7.421432508      0.895      1.053
REMARK  16 active torsions:
REMARK  status: ('A' for Active; 'I' for Inactive)
REMARK    1  A    between atoms: C2_2  and  C3_3 
REMARK    2  A    between atoms: C3_3  and  C4_4 
REMARK    3  A    between atoms: C4_4  and  N1_5 
REMARK    4  A    between atoms: N1_5  and  C5_7 
REMARK    5  A    between atoms: C5_7  and  N2_8 
REMARK    6  A    between atoms: N2_8  and  C6_10 
REMARK    7  A    between atoms: C6_10  and  C7_11 
REMARK    8  A    between atoms: C7_11  and  O1_12 
REMARK    9  A    between atoms: C8_14  and  C10_16 
REMARK   10  A    between atoms: C12_23  and  N6_24 
REMARK   11  A    between atoms: N6_24  and  C13_26 
REMARK   12  A    between atoms: C13_26  and  C16_34 
REMARK   13  A    between atoms: C14_27  and  C15_28 
REMARK   14  A    between atoms: C15_28  and  P1_29 
REMARK   15  A    between atoms: P1_29  and  O2_30 
REMARK   16  A    between atoms: P1_29  and  O3_32 
ROOT
HETATM    1  C10 UNL     1      13.726 -33.196   7.074  1.00  0.00     0.060 A 
HETATM    2  N3  UNL     1      13.724 -32.416   8.147  1.00  0.00    -0.278 N 
ATOM      3  H3  UNL     1      14.501 -31.757   8.168  1.00  0.00     0.188 HD
HETATM    4  N4  UNL     1      12.894 -32.311   9.237  1.00  0.00    -0.080 N 
HETATM    5  C11 UNL     1      13.279 -31.315  10.171  1.00  0.00     0.242 A 
HETATM    6  N5  UNL     1      12.595 -31.105  11.241  1.00  0.00    -0.185 N 
ATOM      7  H5  UNL     1      12.910 -30.379  11.885  1.00  0.00     0.185 HD
HETATM    8  C12 UNL     1      11.426 -31.836  11.565  1.00  0.00     0.698 A 
HETATM    9  N7  UNL     1      11.030 -32.753  10.750  1.00  0.00    -0.020 N 
ATOM     10  H7  UNL     1      10.189 -33.284  10.977  1.00  0.00     0.203 HD
HETATM   11  C17 UNL     1      11.727 -33.052   9.544  1.00  0.00     0.718 A 
HETATM   12  N8  UNL     1      11.194 -33.998   8.845  1.00  0.00    -0.199 N 
ATOM     13  H8  UNL     1      10.348 -34.412   9.237  1.00  0.00     0.183 HD
HETATM   14  C18 UNL     1      11.623 -34.540   7.606  1.00  0.00     0.108 A 
HETATM   15  C19 UNL     1      12.701 -34.188   6.866  1.00  0.00     0.049 A 
ENDROOT
BRANCH   1  16
HETATM   16  C8  UNL     1      14.788 -32.989   6.148  1.00  0.00     0.010 C 
HETATM   17  C5  UNL     1      15.431 -33.766   5.367  1.00  0.00     0.105 C 
HETATM   18  C9  UNL     1      15.261 -31.522   6.080  1.00  0.00     0.054 C 
BRANCH  17  19
HETATM   19  N1  UNL     1      16.487 -33.143   4.556  1.00  0.00    -0.376 N 
ATOM     20  H1  UNL     1      17.179 -32.528   4.985  1.00  0.00     0.161 HD
BRANCH  19  21
HETATM   21  C4  UNL     1      16.526 -33.415   3.164  1.00  0.00     0.121 C 
BRANCH  21  22
HETATM   22  C3  UNL     1      15.329 -32.843   2.447  1.00  0.00     0.019 C 
BRANCH  22  23
HETATM   23  C2  UNL     1      15.812 -31.769   1.505  1.00  0.00    -0.003 C 
HETATM   24  C1  UNL     1      16.144 -30.521   2.287  1.00  0.00     0.005 C 
ENDBRANCH  22  23
ENDBRANCH  21  22
ENDBRANCH  19  21
ENDBRANCH  17  19
BRANCH  17  25
HETATM   25  N2  UNL     1      15.271 -35.150   5.170  1.00  0.00    -0.374 N 
ATOM     26  H2  UNL     1      14.522 -35.491   4.567  1.00  0.00     0.161 HD
BRANCH  25  27
HETATM   27  C6  UNL     1      16.167 -36.103   5.821  1.00  0.00     0.147 C 
BRANCH  27  28
HETATM   28  C7  UNL     1      16.926 -36.920   4.816  1.00  0.00     0.183 C 
BRANCH  28  29
HETATM   29  O1  UNL     1      18.264 -36.538   4.717  1.00  0.00    -0.399 OA
ATOM     30  H1  UNL     1      18.533 -36.384   3.819  1.00  0.00     0.209 HD
ENDBRANCH  28  29
ENDBRANCH  27  28
ENDBRANCH  25  27
ENDBRANCH  17  25
ENDBRANCH   1  16
BRANCH   8  31
HETATM   31  N6  UNL     1      10.694 -31.562  12.776  1.00  0.00    -0.185 N 
ATOM     32  H6  UNL     1       9.757 -31.950  12.889  1.00  0.00     0.184 HD
BRANCH  31  33
HETATM   33  C13 UNL     1      11.241 -30.768  13.812  1.00  0.00     0.122 C 
HETATM   34  C14 UNL     1      11.914 -31.364  14.772  1.00  0.00     0.019 C 
BRANCH  34  35
HETATM   35  C15 UNL     1      12.097 -32.827  14.772  1.00  0.00     0.122 C 
BRANCH  35  36
HETATM   36  P1  UNL     1      13.880 -33.307  14.580  1.00  0.00     0.166 P 
BRANCH  36  37
HETATM   37  O2  UNL     1      14.057 -35.032  14.522  1.00  0.00    -0.349 OA
ATOM     38  H2  UNL     1      13.680 -35.438  15.293  1.00  0.00     0.217 HD
ENDBRANCH  36  37
BRANCH  36  39
HETATM   39  O3  UNL     1      14.584 -32.548  13.186  1.00  0.00    -0.349 OA
ATOM     40  H3  UNL     1      14.995 -33.190  12.619  1.00  0.00     0.217 HD
ENDBRANCH  36  39
ENDBRANCH  35  36
ENDBRANCH  34  35
BRANCH  33  41
HETATM   41  C16 UNL     1      11.053 -29.311  13.801  1.00  0.00     0.227 C 
HETATM   42  O4  UNL     1      10.542 -28.759  14.789  1.00  0.00    -0.643 OA
HETATM   43  O5  UNL     1      11.452 -28.596  12.688  1.00  0.00    -0.643 OA
ENDBRANCH  33  41
ENDBRANCH  31  33
ENDBRANCH   8  31
TORSDOF 16
ENDMDL
MODEL 3
REMARK VINA RESULT: -7.286814245      3.257      8.929
REMARK  16 active torsions:
REMARK  status: ('A' for Active; 'I' for Inactive)
REMARK    1  A    between atoms: C2_2  and  C3_3 
REMARK    2  A    between atoms: C3_3  and  C4_4 
REMARK    3  A    between atoms: C4_4  and  N1_5 
REMARK    4  A    between atoms: N1_5  and  C5_7 
REMARK    5  A    between atoms: C5_7  and  N2_8 
REMARK    6  A    between atoms: N2_8  and  C6_10 
REMARK    7  A    between atoms: C6_10  and  C7_11 
REMARK    8  A    between atoms: C7_11  and  O1_12 
REMARK    9  A    between atoms: C8_14  and  C10_16 
REMARK   10  A    between atoms: C12_23  and  N6_24 
REMARK   11  A    between atoms: N6_24  and  C13_26 
REMARK   12  A    between atoms: C13_26  and  C16_34 
REMARK   13  A    between atoms: C14_27  and  C15_28 
REMARK   14  A    between atoms: C15_28  and  P1_29 
REMARK   15  A    between atoms: P1_29  and  O2_30 
REMARK   16  A    between atoms: P1_29  and  O3_32 
ROOT
HETATM    1  C10 UNL     1      11.359 -33.511  10.590  1.00  0.00     0.060 A 
HETATM    2  N3  UNL     1      12.212 -32.927   9.759  1.00  0.00    -0.278 N 
ATOM      3  H3  UNL     1      12.622 -32.073  10.138  1.00  0.00     0.188 HD
HETATM    4  N4  UNL     1      12.659 -33.230   8.496  1.00  0.00    -0.080 N 
HETATM    5  C11 UNL     1      13.594 -32.302   7.969  1.00  0.00     0.242 A 
HETATM    6  N5  UNL     1      14.098 -32.459   6.795  1.00  0.00    -0.185 N 
ATOM      7  H5  UNL     1      14.767 -31.767   6.456  1.00  0.00     0.185 HD
HETATM    8  C12 UNL     1      13.768 -33.548   5.952  1.00  0.00     0.698 A 
HETATM    9  N7  UNL     1      12.922 -34.422   6.382  1.00  0.00    -0.020 N 
ATOM     10  H7  UNL     1      12.678 -35.209   5.780  1.00  0.00     0.203 HD
HETATM   11  C17 UNL     1      12.317 -34.326   7.668  1.00  0.00     0.718 A 
HETATM   12  N8  UNL     1      11.494 -35.285   7.939  1.00  0.00    -0.199 N 
ATOM     13  H8  UNL     1      11.380 -35.987   7.208  1.00  0.00     0.183 HD
HETATM   14  C18 UNL     1      10.729 -35.496   9.115  1.00  0.00     0.108 A 
HETATM   15  C19 UNL     1      10.683 -34.733  10.233  1.00  0.00     0.049 A 
ENDROOT
BRANCH   1  16
HETATM   16  C8  UNL     1      11.160 -32.866  11.843  1.00  0.00     0.010 C 
HETATM   17  C5  UNL     1      11.684 -33.017  12.997  1.00  0.00     0.105 C 
HETATM   18  C9  UNL     1      10.085 -31.760  11.798  1.00  0.00     0.054 C 
BRANCH  17  19
HETATM   19  N1  UNL     1      11.184 -32.130  14.058  1.00  0.00    -0.376 N 
ATOM     20  H1  UNL     1      10.182 -32.002  14.202  1.00  0.00     0.161 HD
BRANCH  19  21
HETATM   21  C4  UNL     1      12.123 -31.454  14.880  1.00  0.00     0.121 C 
BRANCH  21  22
HETATM   22  C3  UNL     1      12.077 -29.961  14.674  1.00  0.00     0.019 C 
BRANCH  22  23
HETATM   23  C2  UNL     1      10.638 -29.518  14.755  1.00  0.00    -0.003 C 
HETATM   24  C1  UNL     1      10.361 -28.493  13.682  1.00  0.00     0.005 C 
ENDBRANCH  22  23
ENDBRANCH  21  22
ENDBRANCH  19  21
ENDBRANCH  17  19
BRANCH  17  25
HETATM   25  N2  UNL     1      12.683 -33.920  13.402  1.00  0.00    -0.374 N 
ATOM     26  H2  UNL     1      12.450 -34.678  14.043  1.00  0.00     0.161 HD
BRANCH  25  27
HETATM   27  C6  UNL     1      14.053 -33.782  12.913  1.00  0.00     0.147 C 
BRANCH  27  28
HETATM   28  C7  UNL     1      15.002 -34.662  13.675  1.00  0.00     0.183 C 
BRANCH  28  29
HETATM   29  O1  UNL     1      14.476 -35.931  13.918  1.00  0.00    -0.399 OA
ATOM     30  H1  UNL     1      14.812 -36.318  14.718  1.00  0.00     0.209 HD
ENDBRANCH  28  29
ENDBRANCH  27  28
ENDBRANCH  25  27
ENDBRANCH  17  25
ENDBRANCH   1  16
BRANCH   8  31
HETATM   31  N6  UNL     1      14.360 -33.680   4.645  1.00  0.00    -0.185 N 
ATOM     32  H6  UNL     1      13.778 -33.979   3.863  1.00  0.00     0.184 HD
BRANCH  31  33
HETATM   33  C13 UNL     1      15.730 -33.405   4.419  1.00  0.00     0.122 C 
HETATM   34  C14 UNL     1      16.482 -34.346   3.890  1.00  0.00     0.019 C 
BRANCH  34  35
HETATM   35  C15 UNL     1      15.913 -35.660   3.537  1.00  0.00     0.122 C 
BRANCH  35  36
HETATM   36  P1  UNL     1      16.182 -36.918   4.876  1.00  0.00     0.166 P 
BRANCH  36  37
HETATM   37  O2  UNL     1      17.875 -37.181   5.150  1.00  0.00    -0.349 OA
ATOM     38  H2  UNL     1      18.079 -38.108   5.151  1.00  0.00     0.217 HD
ENDBRANCH  36  37
BRANCH  36  39
HETATM   39  O3  UNL     1      15.364 -36.459   6.336  1.00  0.00    -0.349 OA
ATOM     40  H3  UNL     1      14.673 -37.075   6.548  1.00  0.00     0.217 HD
ENDBRANCH  36  39
ENDBRANCH  35  36
ENDBRANCH  34  35
BRANCH  33  41
HETATM   41  C16 UNL     1      16.287 -32.092   4.774  1.00  0.00     0.227 C 
HETATM   42  O4  UNL     1      16.966 -31.981   5.808  1.00  0.00    -0.643 OA
HETATM   43  O5  UNL     1      16.035 -31.016   3.944  1.00  0.00    -0.643 OA
ENDBRANCH  33  41
ENDBRANCH  31  33
ENDBRANCH   8  31
TORSDOF 16
ENDMDL
MODEL 4
REMARK VINA RESULT: -7.285333369      0.972      1.676
REMARK  16 active torsions:
REMARK  status: ('A' for Active; 'I' for Inactive)
REMARK    1  A    between atoms: C2_2  and  C3_3 
REMARK    2  A    between atoms: C3_3  and  C4_4 
REMARK    3  A    between atoms: C4_4  and  N1_5 
REMARK    4  A    between atoms: N1_5  and  C5_7 
REMARK    5  A    between atoms: C5_7  and  N2_8 
REMARK    6  A    between atoms: N2_8  and  C6_10 
REMARK    7  A    between atoms: C6_10  and  C7_11 
REMARK    8  A    between atoms: C7_11  and  O1_12 
REMARK    9  A    between atoms: C8_14  and  C10_16 
REMARK   10  A    between atoms: C12_23  and  N6_24 
REMARK   11  A    between atoms: N6_24  and  C13_26 
REMARK   12  A    between atoms: C13_26  and  C16_34 
REMARK   13  A    between atoms: C14_27  and  C15_28 
REMARK   14  A    between atoms: C15_28  and  P1_29 
REMARK   15  A    between atoms: P1_29  and  O2_30 
REMARK   16  A    between atoms: P1_29  and  O3_32 
ROOT
HETATM    1  C10 UNL     1      13.767 -33.088   7.044  1.00  0.00     0.060 A 
HETATM    2  N3  UNL     1      13.747 -32.334   8.135  1.00  0.00    -0.278 N 
ATOM      3  H3  UNL     1      14.509 -31.657   8.172  1.00  0.00     0.188 HD
HETATM    4  N4  UNL     1      12.915 -32.274   9.228  1.00  0.00    -0.080 N 
HETATM    5  C11 UNL     1      13.277 -31.291  10.185  1.00  0.00     0.242 A 
HETATM    6  N5  UNL     1      12.589 -31.122  11.259  1.00  0.00    -0.185 N 
ATOM      7  H5  UNL     1      12.887 -30.403  11.920  1.00  0.00     0.185 HD
HETATM    8  C12 UNL     1      11.437 -31.887  11.566  1.00  0.00     0.698 A 
HETATM    9  N7  UNL     1      11.063 -32.795  10.730  1.00  0.00    -0.020 N 
ATOM     10  H7  UNL     1      10.234 -33.350  10.944  1.00  0.00     0.203 HD
HETATM   11  C17 UNL     1      11.766 -33.048   9.517  1.00  0.00     0.718 A 
HETATM   12  N8  UNL     1      11.255 -33.990   8.796  1.00  0.00    -0.199 N 
ATOM     13  H8  UNL     1      10.420 -34.434   9.178  1.00  0.00     0.183 HD
HETATM   14  C18 UNL     1      11.697 -34.494   7.545  1.00  0.00     0.108 A 
HETATM   15  C19 UNL     1      12.766 -34.099   6.813  1.00  0.00     0.049 A 
ENDROOT
BRANCH   1  16
HETATM   16  C8  UNL     1      14.823 -32.834   6.124  1.00  0.00     0.010 C 
HETATM   17  C5  UNL     1      15.511 -33.585   5.354  1.00  0.00     0.105 C 
HETATM   18  C9  UNL     1      15.222 -31.346   6.046  1.00  0.00     0.054 C 
BRANCH  17  19
HETATM   19  N1  UNL     1      16.540 -32.915   4.544  1.00  0.00    -0.376 N 
ATOM     20  H1  UNL     1      17.284 -32.378   4.989  1.00  0.00     0.161 HD
BRANCH  19  21
HETATM   21  C4  UNL     1      16.476 -33.031   3.132  1.00  0.00     0.121 C 
BRANCH  21  22
HETATM   22  C3  UNL     1      17.600 -33.876   2.587  1.00  0.00     0.019 C 
BRANCH  22  23
HETATM   23  C2  UNL     1      16.996 -35.035   1.834  1.00  0.00    -0.003 C 
HETATM   24  C1  UNL     1      17.677 -36.318   2.247  1.00  0.00     0.005 C 
ENDBRANCH  22  23
ENDBRANCH  21  22
ENDBRANCH  19  21
ENDBRANCH  17  19
BRANCH  17  25
HETATM   25  N2  UNL     1      15.423 -34.976   5.168  1.00  0.00    -0.374 N 
ATOM     26  H2  UNL     1      14.690 -35.361   4.572  1.00  0.00     0.161 HD
BRANCH  25  27
HETATM   27  C6  UNL     1      16.372 -35.875   5.819  1.00  0.00     0.147 C 
BRANCH  27  28
HETATM   28  C7  UNL     1      16.108 -37.309   5.462  1.00  0.00     0.183 C 
BRANCH  28  29
HETATM   29  O1  UNL     1      15.129 -37.890   6.269  1.00  0.00    -0.399 OA
ATOM     30  H1  UNL     1      14.906 -37.348   7.018  1.00  0.00     0.209 HD
ENDBRANCH  28  29
ENDBRANCH  27  28
ENDBRANCH  25  27
ENDBRANCH  17  25
ENDBRANCH   1  16
BRANCH   8  31
HETATM   31  N6  UNL     1      10.699 -31.659  12.783  1.00  0.00    -0.185 N 
ATOM     32  H6  UNL     1       9.786 -32.098  12.899  1.00  0.00     0.184 HD
BRANCH  31  33
HETATM   33  C13 UNL     1      11.210 -30.841  13.819  1.00  0.00     0.122 C 
HETATM   34  C14 UNL     1      11.880 -31.411  14.797  1.00  0.00     0.019 C 
BRANCH  34  35
HETATM   35  C15 UNL     1      12.097 -32.870  14.817  1.00  0.00     0.122 C 
BRANCH  35  36
HETATM   36  P1  UNL     1      13.886 -33.312  14.596  1.00  0.00     0.166 P 
BRANCH  36  37
HETATM   37  O2  UNL     1      14.094 -35.031  14.498  1.00  0.00    -0.349 OA
ATOM     38  H2  UNL     1      13.258 -35.479  14.562  1.00  0.00     0.217 HD
ENDBRANCH  36  37
BRANCH  36  39
HETATM   39  O3  UNL     1      14.561 -32.509  13.213  1.00  0.00    -0.349 OA
ATOM     40  H3  UNL     1      15.277 -33.012  12.843  1.00  0.00     0.217 HD
ENDBRANCH  36  39
ENDBRANCH  35  36
ENDBRANCH  34  35
BRANCH  33  41
HETATM   41  C16 UNL     1      10.989 -29.389  13.789  1.00  0.00     0.227 C 
HETATM   42  O4  UNL     1      11.348 -28.742  12.792  1.00  0.00    -0.643 OA
HETATM   43  O5  UNL     1      10.386 -28.785  14.876  1.00  0.00    -0.643 OA
ENDBRANCH  33  41
ENDBRANCH  31  33
ENDBRANCH   8  31
TORSDOF 16
ENDMDL
MODEL 5
REMARK VINA RESULT: -7.276558917      1.435      2.756
REMARK  16 active torsions:
REMARK  status: ('A' for Active; 'I' for Inactive)
REMARK    1  A    between atoms: C2_2  and  C3_3 
REMARK    2  A    between atoms: C3_3  and  C4_4 
REMARK    3  A    between atoms: C4_4  and  N1_5 
REMARK    4  A    between atoms: N1_5  and  C5_7 
REMARK    5  A    between atoms: C5_7  and  N2_8 
REMARK    6  A    between atoms: N2_8  and  C6_10 
REMARK    7  A    between atoms: C6_10  and  C7_11 
REMARK    8  A    between atoms: C7_11  and  O1_12 
REMARK    9  A    between atoms: C8_14  and  C10_16 
REMARK   10  A    between atoms: C12_23  and  N6_24 
REMARK   11  A    between atoms: N6_24  and  C13_26 
REMARK   12  A    between atoms: C13_26  and  C16_34 
REMARK   13  A    between atoms: C14_27  and  C15_28 
REMARK   14  A    between atoms: C15_28  and  P1_29 
REMARK   15  A    between atoms: P1_29  and  O2_30 
REMARK   16  A    between atoms: P1_29  and  O3_32 
ROOT
HETATM    1  C10 UNL     1      14.055 -32.952   6.897  1.00  0.00     0.060 A 
HETATM    2  N3  UNL     1      13.918 -32.221   7.995  1.00  0.00    -0.278 N 
ATOM      3  H3  UNL     1      14.632 -31.498   8.088  1.00  0.00     0.188 HD
HETATM    4  N4  UNL     1      13.018 -32.232   9.032  1.00  0.00    -0.080 N 
HETATM    5  C11 UNL     1      13.255 -31.246  10.024  1.00  0.00     0.242 A 
HETATM    6  N5  UNL     1      12.491 -31.139  11.054  1.00  0.00    -0.185 N 
ATOM      7  H5  UNL     1      12.700 -30.415  11.742  1.00  0.00     0.185 HD
HETATM    8  C12 UNL     1      11.374 -31.981  11.276  1.00  0.00     0.698 A 
HETATM    9  N7  UNL     1      11.111 -32.895  10.405  1.00  0.00    -0.020 N 
ATOM     10  H7  UNL     1      10.309 -33.506  10.559  1.00  0.00     0.203 HD
HETATM   11  C17 UNL     1      11.904 -33.083   9.237  1.00  0.00     0.718 A 
HETATM   12  N8  UNL     1      11.502 -34.042   8.472  1.00  0.00    -0.199 N 
ATOM     13  H8  UNL     1      10.674 -34.544   8.794  1.00  0.00     0.183 HD
HETATM   14  C18 UNL     1      12.052 -34.494   7.245  1.00  0.00     0.108 A 
HETATM   15  C19 UNL     1      13.138 -34.020   6.589  1.00  0.00     0.049 A 
ENDROOT
BRANCH   1  16
HETATM   16  C8  UNL     1      15.149 -32.617   6.050  1.00  0.00     0.010 C 
HETATM   17  C5  UNL     1      15.896 -33.301   5.273  1.00  0.00     0.105 C 
HETATM   18  C9  UNL     1      15.509 -31.116   6.081  1.00  0.00     0.054 C 
BRANCH  17  19
HETATM   19  N1  UNL     1      16.945 -32.557   4.559  1.00  0.00    -0.376 N 
ATOM     20  H1  UNL     1      17.558 -31.912   5.058  1.00  0.00     0.161 HD
BRANCH  19  21
HETATM   21  C4  UNL     1      17.087 -32.754   3.161  1.00  0.00     0.121 C 
BRANCH  21  22
HETATM   22  C3  UNL     1      15.961 -32.116   2.387  1.00  0.00     0.019 C 
BRANCH  22  23
HETATM   23  C2  UNL     1      16.104 -30.619   2.495  1.00  0.00    -0.003 C 
HETATM   24  C1  UNL     1      17.374 -30.180   1.806  1.00  0.00     0.005 C 
ENDBRANCH  22  23
ENDBRANCH  21  22
ENDBRANCH  19  21
ENDBRANCH  17  19
BRANCH  17  25
HETATM   25  N2  UNL     1      15.857 -34.680   5.000  1.00  0.00    -0.374 N 
ATOM     26  H2  UNL     1      15.326 -35.022   4.199  1.00  0.00     0.161 HD
BRANCH  25  27
HETATM   27  C6  UNL     1      16.571 -35.627   5.852  1.00  0.00     0.147 C 
BRANCH  27  28
HETATM   28  C7  UNL     1      16.319 -37.046   5.432  1.00  0.00     0.183 C 
BRANCH  28  29
HETATM   29  O1  UNL     1      15.316 -37.657   6.185  1.00  0.00    -0.399 OA
ATOM     30  H1  UNL     1      14.538 -37.117   6.260  1.00  0.00     0.209 HD
ENDBRANCH  28  29
ENDBRANCH  27  28
ENDBRANCH  25  27
ENDBRANCH  17  25
ENDBRANCH   1  16
BRANCH   8  31
HETATM   31  N6  UNL     1      10.548 -31.821  12.446  1.00  0.00    -0.185 N 
ATOM     32  H6  UNL     1       9.538 -31.734  12.333  1.00  0.00     0.184 HD
BRANCH  31  33
HETATM   33  C13 UNL     1      11.103 -31.783  13.748  1.00  0.00     0.122 C 
HETATM   34  C14 UNL     1      11.209 -30.619  14.352  1.00  0.00     0.019 C 
BRANCH  34  35
HETATM   35  C15 UNL     1      10.761 -29.379  13.691  1.00  0.00     0.122 C 
BRANCH  35  36
HETATM   36  P1  UNL     1      12.160 -28.188  13.420  1.00  0.00     0.166 P 
BRANCH  36  37
HETATM   37  O2  UNL     1      12.654 -28.178  11.757  1.00  0.00    -0.349 OA
ATOM     38  H2  UNL     1      12.086 -27.621  11.237  1.00  0.00     0.217 HD
ENDBRANCH  36  37
BRANCH  36  39
HETATM   39  O3  UNL     1      11.739 -26.597  13.969  1.00  0.00    -0.349 OA
ATOM     40  H3  UNL     1      11.832 -26.525  14.912  1.00  0.00     0.217 HD
ENDBRANCH  36  39
ENDBRANCH  35  36
ENDBRANCH  34  35
BRANCH  33  41
HETATM   41  C16 UNL     1      11.545 -33.024  14.397  1.00  0.00     0.227 C 
HETATM   42  O4  UNL     1      10.696 -33.848  14.772  1.00  0.00    -0.643 OA
HETATM   43  O5  UNL     1      12.899 -33.237  14.573  1.00  0.00    -0.643 OA
ENDBRANCH  33  41
ENDBRANCH  31  33
ENDBRANCH   8  31
TORSDOF 16
ENDMDL
