MODEL 1
REMARK VINA RESULT: -7.933509453      0.000      0.000
REMARK  13 active torsions:
REMARK  status: ('A' for Active; 'I' for Inactive)
REMARK       I    between atoms: C1_4  and  N2_5 
REMARK       I    between atoms: C1_4  and  N6_28 
REMARK    1  A    between atoms: N2_5  and  C2_7 
REMARK    2  A    between atoms: C2_7  and  C3_8 
REMARK    3  A    between atoms: C2_7  and  N3_15 
REMARK    4  A    between atoms: C3_8  and  C4_9 
REMARK    5  A    between atoms: C4_9  and  P1_10 
REMARK    6  A    between atoms: P1_10  and  O1_11 
REMARK    7  A    between atoms: P1_10  and  O2_13 
REMARK       I    between atoms: N3_15  and  C5_17 
REMARK    8  A    between atoms: C5_17  and  C6_19 
REMARK    9  A    between atoms: C13_36  and  C14_37 
REMARK   10  A    between atoms: C14_37  and  C15_38 
REMARK   11  A    between atoms: C15_38  and  C16_39 
REMARK   12  A    between atoms: C17_40  and  C18_41 
REMARK   13  A    between atoms: C19_42  and  O5_43 
ROOT
HETATM    1  N1  UNL     1      14.496 -31.039  11.480  1.00  0.00    -0.234 N 
ATOM      2  H11 UNL     1      14.994 -31.738  10.930  1.00  0.00     0.174 HD
ATOM      3  H12 UNL     1      15.006 -30.171  11.644  1.00  0.00     0.174 HD
HETATM    4  C1  UNL     1      13.404 -31.242  11.909  1.00  0.00     0.681 C 
HETATM    5  N2  UNL     1      12.716 -30.276  12.668  1.00  0.00    -0.205 N 
ATOM      6  H2  UNL     1      11.757 -30.522  12.911  1.00  0.00     0.179 HD
HETATM    7  N6  UNL     1      12.662 -32.504  11.669  1.00  0.00    -0.142 N 
HETATM    8  C10 UNL     1      12.253 -33.197  12.840  1.00  0.00     0.223 A 
HETATM    9  N7  UNL     1      11.421 -34.212  12.676  1.00  0.00    -0.295 N 
ATOM     10  H7  UNL     1      11.095 -34.740  13.485  1.00  0.00     0.187 HD
HETATM   11  N8  UNL     1      10.997 -34.554  11.416  1.00  0.00    -0.309 N 
ATOM     12  H8  UNL     1      10.354 -35.345  11.372  1.00  0.00     0.186 HD
HETATM   13  C11 UNL     1      11.290 -34.028  10.288  1.00  0.00     0.137 A 
HETATM   14  C12 UNL     1      12.242 -32.859  10.387  1.00  0.00     0.075 A 
HETATM   15  C13 UNL     1      12.749 -32.380   9.312  1.00  0.00     0.040 C 
ENDROOT
BRANCH   5  16
HETATM   16  C2  UNL     1      13.149 -29.017  13.144  1.00  0.00     0.202 C 
BRANCH  16  17
HETATM   17  C3  UNL     1      12.595 -28.552  14.467  1.00  0.00     0.056 C 
BRANCH  17  18
HETATM   18  C4  UNL     1      11.380 -29.320  14.907  1.00  0.00     0.097 C 
BRANCH  18  19
HETATM   19  P1  UNL     1       9.801 -28.649  14.272  1.00  0.00     0.163 P 
BRANCH  19  20
HETATM   20  O1  UNL     1       9.375 -27.115  14.885  1.00  0.00    -0.350 OA
ATOM     21  H1  UNL     1       8.620 -27.111  15.462  1.00  0.00     0.217 HD
ENDBRANCH  19  20
BRANCH  19  22
HETATM   22  O2  UNL     1       9.839 -28.578  12.531  1.00  0.00    -0.350 OA
ATOM     23  H2  UNL     1      10.453 -29.218  12.192  1.00  0.00     0.217 HD
ENDBRANCH  19  22
ENDBRANCH  18  19
ENDBRANCH  17  18
ENDBRANCH  16  17
BRANCH  16  24
HETATM   24  N3  UNL     1      12.980 -27.924  12.162  1.00  0.00    -0.335 N 
HETATM   25  C5  UNL     1      14.061 -27.024  11.933  1.00  0.00     0.256 C 
HETATM   26  O3  UNL     1      15.157 -27.137  12.552  1.00  0.00    -0.268 OA
ATOM     27  H3  UNL     1      12.102 -27.816  11.655  1.00  0.00     0.164 HD
BRANCH  25  28
HETATM   28  C6  UNL     1      13.921 -25.948  10.972  1.00  0.00     0.063 A 
HETATM   29  C7  UNL     1      12.696 -25.431  10.633  1.00  0.00     0.111 A 
HETATM   30  N4  UNL     1      12.652 -24.395   9.771  1.00  0.00    -0.318 N 
HETATM   31  C8  UNL     1      13.761 -23.848   9.239  1.00  0.00     0.324 A 
ATOM     32  H4  UNL     1      11.743 -24.010   9.512  1.00  0.00     0.170 HD
HETATM   33  O4  UNL     1      13.708 -22.887   8.455  1.00  0.00    -0.247 OA
HETATM   34  N5  UNL     1      14.960 -24.349   9.564  1.00  0.00    -0.318 N 
HETATM   35  C9  UNL     1      15.078 -25.390  10.418  1.00  0.00     0.111 A 
ATOM     36  H5  UNL     1      15.800 -23.937   9.160  1.00  0.00     0.170 HD
ENDBRANCH  25  28
ENDBRANCH  16  24
ENDBRANCH   5  16
BRANCH  15  37
HETATM   37  C14 UNL     1      12.250 -32.780   7.964  1.00  0.00     0.058 C 
BRANCH  37  38
HETATM   38  C15 UNL     1      12.990 -33.317   7.163  1.00  0.00    -0.128 C 
BRANCH  38  39
HETATM   39  C16 UNL     1      13.843 -33.943   6.234  1.00  0.00     0.055 C 
HETATM   40  C17 UNL     1      14.962 -33.485   5.741  1.00  0.00     0.010 C 
BRANCH  40  41
HETATM   41  C18 UNL     1      15.626 -32.232   6.006  1.00  0.00     0.024 C 
HETATM   42  C19 UNL     1      17.009 -32.297   6.007  1.00  0.00     0.131 C 
BRANCH  42  43
HETATM   43  O5  UNL     1      17.548 -33.526   5.764  1.00  0.00    -0.373 OA
ATOM     44  H5  UNL     1      17.238 -33.967   4.982  1.00  0.00     0.216 HD
ENDBRANCH  42  43
ENDBRANCH  40  41
ENDBRANCH  38  39
ENDBRANCH  37  38
ENDBRANCH  15  37
TORSDOF 13
ENDMDL
MODEL 2
REMARK VINA RESULT: -7.877007458      1.648      1.968
REMARK  13 active torsions:
REMARK  status: ('A' for Active; 'I' for Inactive)
REMARK       I    between atoms: C1_4  and  N2_5 
REMARK       I    between atoms: C1_4  and  N6_28 
REMARK    1  A    between atoms: N2_5  and  C2_7 
REMARK    2  A    between atoms: C2_7  and  C3_8 
REMARK    3  A    between atoms: C2_7  and  N3_15 
REMARK    4  A    between atoms: C3_8  and  C4_9 
REMARK    5  A    between atoms: C4_9  and  P1_10 
REMARK    6  A    between atoms: P1_10  and  O1_11 
REMARK    7  A    between atoms: P1_10  and  O2_13 
REMARK       I    between atoms: N3_15  and  C5_17 
REMARK    8  A    between atoms: C5_17  and  C6_19 
REMARK    9  A    between atoms: C13_36  and  C14_37 
REMARK   10  A    between atoms: C14_37  and  C15_38 
REMARK   11  A    between atoms: C15_38  and  C16_39 
REMARK   12  A    between atoms: C17_40  and  C18_41 
REMARK   13  A    between atoms: C19_42  and  O5_43 
ROOT
HETATM    1  N1  UNL     1      13.559 -30.329  12.172  1.00  0.00    -0.234 N 
ATOM      2  H11 UNL     1      14.359 -30.850  11.813  1.00  0.00     0.174 HD
ATOM      3  H12 UNL     1      13.769 -29.391  12.512  1.00  0.00     0.174 HD
HETATM    4  C1  UNL     1      12.467 -30.803  12.204  1.00  0.00     0.681 C 
HETATM    5  N2  UNL     1      11.363 -30.084  12.700  1.00  0.00    -0.205 N 
ATOM      6  H2  UNL     1      10.464 -30.553  12.602  1.00  0.00     0.179 HD
HETATM    7  N6  UNL     1      12.162 -32.169  11.710  1.00  0.00    -0.142 N 
HETATM    8  C10 UNL     1      11.570 -33.038  12.664  1.00  0.00     0.223 A 
HETATM    9  N7  UNL     1      11.101 -34.190  12.214  1.00  0.00    -0.295 N 
ATOM     10  H7  UNL     1      10.663 -34.849  12.858  1.00  0.00     0.187 HD
HETATM   11  N8  UNL     1      11.203 -34.498  10.880  1.00  0.00    -0.309 N 
ATOM     12  H8  UNL     1      10.813 -35.402  10.611  1.00  0.00     0.186 HD
HETATM   13  C11 UNL     1      11.713 -33.818   9.925  1.00  0.00     0.137 A 
HETATM   14  C12 UNL     1      12.278 -32.485  10.357  1.00  0.00     0.075 A 
HETATM   15  C13 UNL     1      12.979 -31.810   9.523  1.00  0.00     0.040 C 
ENDROOT
BRANCH   5  16
HETATM   16  C2  UNL     1      11.308 -28.811  13.313  1.00  0.00     0.202 C 
BRANCH  16  17
HETATM   17  C3  UNL     1      10.051 -28.461  14.066  1.00  0.00     0.056 C 
BRANCH  17  18
HETATM   18  C4  UNL     1       9.813 -29.335  15.266  1.00  0.00     0.097 C 
BRANCH  18  19
HETATM   19  P1  UNL     1      11.337 -29.802  16.165  1.00  0.00     0.163 P 
BRANCH  19  20
HETATM   20  O1  UNL     1      11.197 -29.795  17.865  1.00  0.00    -0.350 OA
ATOM     21  H1  UNL     1      11.633 -30.515  18.305  1.00  0.00     0.217 HD
ENDBRANCH  19  20
BRANCH  19  22
HETATM   22  O2  UNL     1      11.881 -31.373  15.643  1.00  0.00    -0.350 OA
ATOM     23  H2  UNL     1      12.391 -31.786  16.330  1.00  0.00     0.217 HD
ENDBRANCH  19  22
ENDBRANCH  18  19
ENDBRANCH  17  18
ENDBRANCH  16  17
BRANCH  16  24
HETATM   24  N3  UNL     1      11.620 -27.697  12.390  1.00  0.00    -0.335 N 
HETATM   25  C5  UNL     1      12.884 -27.047  12.490  1.00  0.00     0.256 C 
HETATM   26  O3  UNL     1      13.742 -27.398  13.350  1.00  0.00    -0.268 OA
ATOM     27  H3  UNL     1      10.940 -27.399  11.691  1.00  0.00     0.164 HD
BRANCH  25  28
HETATM   28  C6  UNL     1      13.214 -25.957  11.593  1.00  0.00     0.063 A 
HETATM   29  C7  UNL     1      14.422 -25.309  11.651  1.00  0.00     0.111 A 
HETATM   30  N4  UNL     1      14.676 -24.340  10.747  1.00  0.00    -0.318 N 
HETATM   31  C8  UNL     1      13.793 -23.991   9.792  1.00  0.00     0.324 A 
ATOM     32  H4  UNL     1      15.571 -23.851  10.789  1.00  0.00     0.170 HD
HETATM   33  O4  UNL     1      14.043 -23.106   8.959  1.00  0.00    -0.247 OA
HETATM   34  N5  UNL     1      12.611 -24.619   9.732  1.00  0.00    -0.318 N 
HETATM   35  C9  UNL     1      12.289 -25.595  10.608  1.00  0.00     0.111 A 
ATOM     36  H5  UNL     1      11.942 -24.354   9.010  1.00  0.00     0.170 HD
ENDBRANCH  25  28
ENDBRANCH  16  24
ENDBRANCH   5  16
BRANCH  15  37
HETATM   37  C14 UNL     1      13.054 -32.183   8.080  1.00  0.00     0.058 C 
BRANCH  37  38
HETATM   38  C15 UNL     1      14.120 -32.183   7.494  1.00  0.00    -0.128 C 
BRANCH  38  39
HETATM   39  C16 UNL     1      15.350 -32.181   6.809  1.00  0.00     0.055 C 
HETATM   40  C17 UNL     1      15.904 -33.167   6.157  1.00  0.00     0.010 C 
BRANCH  40  41
HETATM   41  C18 UNL     1      15.417 -34.510   5.958  1.00  0.00     0.024 C 
HETATM   42  C19 UNL     1      16.391 -35.493   6.001  1.00  0.00     0.131 C 
BRANCH  42  43
HETATM   43  O5  UNL     1      17.665 -35.060   6.222  1.00  0.00    -0.373 OA
ATOM     44  H5  UNL     1      18.059 -35.329   7.043  1.00  0.00     0.216 HD
ENDBRANCH  42  43
ENDBRANCH  40  41
ENDBRANCH  38  39
ENDBRANCH  37  38
ENDBRANCH  15  37
TORSDOF 13
ENDMDL
MODEL 3
REMARK VINA RESULT: -7.876641805      1.704      1.957
REMARK  13 active torsions:
REMARK  status: ('A' for Active; 'I' for Inactive)
REMARK       I    between atoms: C1_4  and  N2_5 
REMARK       I    between atoms: C1_4  and  N6_28 
REMARK    1  A    between atoms: N2_5  and  C2_7 
REMARK    2  A    between atoms: C2_7  and  C3_8 
REMARK    3  A    between atoms: C2_7  and  N3_15 
REMARK    4  A    between atoms: C3_8  and  C4_9 
REMARK    5  A    between atoms: C4_9  and  P1_10 
REMARK    6  A    between atoms: P1_10  and  O1_11 
REMARK    7  A    between atoms: P1_10  and  O2_13 
REMARK       I    between atoms: N3_15  and  C5_17 
REMARK    8  A    between atoms: C5_17  and  C6_19 
REMARK    9  A    between atoms: C13_36  and  C14_37 
REMARK   10  A    between atoms: C14_37  and  C15_38 
REMARK   11  A    between atoms: C15_38  and  C16_39 
REMARK   12  A    between atoms: C17_40  and  C18_41 
REMARK   13  A    between atoms: C19_42  and  O5_43 
ROOT
HETATM    1  N1  UNL     1      13.703 -30.372  11.959  1.00  0.00    -0.234 N 
ATOM      2  H11 UNL     1      14.473 -30.911  11.564  1.00  0.00     0.174 HD
ATOM      3  H12 UNL     1      13.939 -29.423  12.247  1.00  0.00     0.174 HD
HETATM    4  C1  UNL     1      12.614 -30.837  12.087  1.00  0.00     0.681 C 
HETATM    5  N2  UNL     1      11.551 -30.093  12.632  1.00  0.00    -0.205 N 
ATOM      6  H2  UNL     1      10.645 -30.561  12.617  1.00  0.00     0.179 HD
HETATM    7  N6  UNL     1      12.270 -32.218  11.667  1.00  0.00    -0.142 N 
HETATM    8  C10 UNL     1      11.745 -33.048  12.693  1.00  0.00     0.223 A 
HETATM    9  N7  UNL     1      11.240 -34.213  12.321  1.00  0.00    -0.295 N 
ATOM     10  H7  UNL     1      10.847 -34.845  13.018  1.00  0.00     0.187 HD
HETATM   11  N8  UNL     1      11.245 -34.571  10.996  1.00  0.00    -0.309 N 
ATOM     12  H8  UNL     1      10.835 -35.482  10.789  1.00  0.00     0.186 HD
HETATM   13  C11 UNL     1      11.689 -33.931   9.981  1.00  0.00     0.137 A 
HETATM   14  C12 UNL     1      12.287 -32.586  10.322  1.00  0.00     0.075 A 
HETATM   15  C13 UNL     1      12.930 -31.947   9.415  1.00  0.00     0.040 C 
ENDROOT
BRANCH   5  16
HETATM   16  C2  UNL     1      11.545 -28.798  13.199  1.00  0.00     0.202 C 
BRANCH  16  17
HETATM   17  C3  UNL     1      10.333 -28.402  14.003  1.00  0.00     0.056 C 
BRANCH  17  18
HETATM   18  C4  UNL     1      10.039 -29.342  15.139  1.00  0.00     0.097 C 
BRANCH  18  19
HETATM   19  P1  UNL     1      11.509 -29.808  16.124  1.00  0.00     0.163 P 
BRANCH  19  20
HETATM   20  O1  UNL     1      11.284 -29.765  17.814  1.00  0.00    -0.350 OA
ATOM     21  H1  UNL     1      11.158 -28.897  18.179  1.00  0.00     0.217 HD
ENDBRANCH  19  20
BRANCH  19  22
HETATM   22  O2  UNL     1      12.060 -31.396  15.661  1.00  0.00    -0.350 OA
ATOM     23  H2  UNL     1      12.247 -31.914  16.435  1.00  0.00     0.217 HD
ENDBRANCH  19  22
ENDBRANCH  18  19
ENDBRANCH  17  18
ENDBRANCH  16  17
BRANCH  16  24
HETATM   24  N3  UNL     1      11.822 -27.724  12.221  1.00  0.00    -0.335 N 
HETATM   25  C5  UNL     1      13.114 -27.122  12.199  1.00  0.00     0.256 C 
HETATM   26  O3  UNL     1      14.025 -27.484  12.997  1.00  0.00    -0.268 OA
ATOM     27  H3  UNL     1      11.098 -27.417  11.570  1.00  0.00     0.164 HD
BRANCH  25  28
HETATM   28  C6  UNL     1      13.411 -26.071  11.245  1.00  0.00     0.063 A 
HETATM   29  C7  UNL     1      14.698 -25.742  10.904  1.00  0.00     0.111 A 
HETATM   30  N4  UNL     1      14.892 -24.789   9.969  1.00  0.00    -0.318 N 
HETATM   31  C8  UNL     1      13.873 -24.157   9.357  1.00  0.00     0.324 A 
ATOM     32  H4  UNL     1      15.848 -24.537   9.716  1.00  0.00     0.170 HD
HETATM   33  O4  UNL     1      14.065 -23.290   8.490  1.00  0.00    -0.247 OA
HETATM   34  N5  UNL     1      12.614 -24.473   9.687  1.00  0.00    -0.318 N 
HETATM   35  C9  UNL     1      12.347 -25.414  10.619  1.00  0.00     0.111 A 
ATOM     36  H5  UNL     1      11.841 -23.993   9.226  1.00  0.00     0.170 HD
ENDBRANCH  25  28
ENDBRANCH  16  24
ENDBRANCH   5  16
BRANCH  15  37
HETATM   37  C14 UNL     1      12.900 -32.373   7.986  1.00  0.00     0.058 C 
BRANCH  37  38
HETATM   38  C15 UNL     1      13.932 -32.501   7.355  1.00  0.00    -0.128 C 
BRANCH  38  39
HETATM   39  C16 UNL     1      15.124 -32.650   6.619  1.00  0.00     0.055 C 
HETATM   40  C17 UNL     1      15.905 -31.709   6.165  1.00  0.00     0.010 C 
BRANCH  40  41
HETATM   41  C18 UNL     1      15.771 -30.278   6.289  1.00  0.00     0.024 C 
HETATM   42  C19 UNL     1      16.707 -29.677   7.114  1.00  0.00     0.131 C 
BRANCH  42  43
HETATM   43  O5  UNL     1      17.616 -30.512   7.692  1.00  0.00    -0.373 OA
ATOM     44  H5  UNL     1      17.334 -30.945   8.489  1.00  0.00     0.216 HD
ENDBRANCH  42  43
ENDBRANCH  40  41
ENDBRANCH  38  39
ENDBRANCH  37  38
ENDBRANCH  15  37
TORSDOF 13
ENDMDL
MODEL 4
REMARK VINA RESULT: -7.822985586      1.681      2.133
REMARK  13 active torsions:
REMARK  status: ('A' for Active; 'I' for Inactive)
REMARK       I    between atoms: C1_4  and  N2_5 
REMARK       I    between atoms: C1_4  and  N6_28 
REMARK    1  A    between atoms: N2_5  and  C2_7 
REMARK    2  A    between atoms: C2_7  and  C3_8 
REMARK    3  A    between atoms: C2_7  and  N3_15 
REMARK    4  A    between atoms: C3_8  and  C4_9 
REMARK    5  A    between atoms: C4_9  and  P1_10 
REMARK    6  A    between atoms: P1_10  and  O1_11 
REMARK    7  A    between atoms: P1_10  and  O2_13 
REMARK       I    between atoms: N3_15  and  C5_17 
REMARK    8  A    between atoms: C5_17  and  C6_19 
REMARK    9  A    between atoms: C13_36  and  C14_37 
REMARK   10  A    between atoms: C14_37  and  C15_38 
REMARK   11  A    between atoms: C15_38  and  C16_39 
REMARK   12  A    between atoms: C17_40  and  C18_41 
REMARK   13  A    between atoms: C19_42  and  O5_43 
ROOT
HETATM    1  N1  UNL     1      13.946 -31.211  11.917  1.00  0.00    -0.234 N 
ATOM      2  H11 UNL     1      14.582 -31.915  11.542  1.00  0.00     0.174 HD
ATOM      3  H12 UNL     1      14.391 -30.456  12.438  1.00  0.00     0.174 HD
HETATM    4  C1  UNL     1      12.767 -31.289  11.765  1.00  0.00     0.681 C 
HETATM    5  N2  UNL     1      11.890 -30.318  12.283  1.00  0.00    -0.205 N 
ATOM      6  H2  UNL     1      10.911 -30.438  12.021  1.00  0.00     0.179 HD
HETATM    7  N6  UNL     1      12.120 -32.387  11.006  1.00  0.00    -0.142 N 
HETATM    8  C10 UNL     1      11.151 -33.133  11.730  1.00  0.00     0.223 A 
HETATM    9  N7  UNL     1      10.411 -33.983  11.039  1.00  0.00    -0.295 N 
ATOM     10  H7  UNL     1       9.698 -34.540  11.511  1.00  0.00     0.187 HD
HETATM   11  N8  UNL     1      10.601 -34.115   9.686  1.00  0.00    -0.309 N 
ATOM     12  H8  UNL     1       9.988 -34.787   9.223  1.00  0.00     0.186 HD
HETATM   13  C11 UNL     1      11.433 -33.519   8.919  1.00  0.00     0.137 A 
HETATM   14  C12 UNL     1      12.322 -32.529   9.634  1.00  0.00     0.075 A 
HETATM   15  C13 UNL     1      13.314 -32.019   9.002  1.00  0.00     0.040 C 
ENDROOT
BRANCH   5  16
HETATM   16  C2  UNL     1      12.154 -29.201  13.109  1.00  0.00     0.202 C 
BRANCH  16  17
HETATM   17  C3  UNL     1      11.242 -28.985  14.289  1.00  0.00     0.056 C 
BRANCH  17  18
HETATM   18  C4  UNL     1      11.152 -30.178  15.198  1.00  0.00     0.097 C 
BRANCH  18  19
HETATM   19  P1  UNL     1      12.106 -30.010  16.751  1.00  0.00     0.163 P 
BRANCH  19  20
HETATM   20  O1  UNL     1      13.275 -28.769  16.742  1.00  0.00    -0.350 OA
ATOM     21  H1  UNL     1      14.060 -28.962  16.243  1.00  0.00     0.217 HD
ENDBRANCH  19  20
BRANCH  19  22
HETATM   22  O2  UNL     1      11.023 -29.766  18.094  1.00  0.00    -0.350 OA
ATOM     23  H2  UNL     1      11.473 -29.942  18.912  1.00  0.00     0.217 HD
ENDBRANCH  19  22
ENDBRANCH  18  19
ENDBRANCH  17  18
ENDBRANCH  16  17
BRANCH  16  24
HETATM   24  N3  UNL     1      12.257 -27.927  12.364  1.00  0.00    -0.335 N 
HETATM   25  C5  UNL     1      13.520 -27.534  11.835  1.00  0.00     0.256 C 
HETATM   26  O3  UNL     1      14.553 -28.246  11.989  1.00  0.00    -0.268 OA
ATOM     27  H3  UNL     1      11.435 -27.338  12.230  1.00  0.00     0.164 HD
BRANCH  25  28
HETATM   28  C6  UNL     1      13.645 -26.292  11.097  1.00  0.00     0.063 A 
HETATM   29  C7  UNL     1      14.863 -25.802  10.699  1.00  0.00     0.111 A 
HETATM   30  N4  UNL     1      14.894 -24.668   9.970  1.00  0.00    -0.318 N 
HETATM   31  C8  UNL     1      13.776 -24.006   9.614  1.00  0.00     0.324 A 
ATOM     32  H4  UNL     1      15.798 -24.297   9.676  1.00  0.00     0.170 HD
HETATM   33  O4  UNL     1      13.817 -22.969   8.933  1.00  0.00    -0.247 OA
HETATM   34  N5  UNL     1      12.584 -24.478  10.001  1.00  0.00    -0.318 N 
HETATM   35  C9  UNL     1      12.480 -25.606  10.737  1.00  0.00     0.111 A 
ATOM     36  H5  UNL     1      11.738 -23.976   9.733  1.00  0.00     0.170 HD
ENDBRANCH  25  28
ENDBRANCH  16  24
ENDBRANCH   5  16
BRANCH  15  37
HETATM   37  C14 UNL     1      13.474 -32.188   7.528  1.00  0.00     0.058 C 
BRANCH  37  38
HETATM   38  C15 UNL     1      14.580 -32.241   7.027  1.00  0.00    -0.128 C 
BRANCH  38  39
HETATM   39  C16 UNL     1      15.864 -32.308   6.449  1.00  0.00     0.055 C 
HETATM   40  C17 UNL     1      16.426 -33.333   5.870  1.00  0.00     0.010 C 
BRANCH  40  41
HETATM   41  C18 UNL     1      15.901 -34.661   5.660  1.00  0.00     0.024 C 
HETATM   42  C19 UNL     1      16.826 -35.681   5.803  1.00  0.00     0.131 C 
BRANCH  42  43
HETATM   43  O5  UNL     1      18.096 -35.294   6.115  1.00  0.00    -0.373 OA
ATOM     44  H5  UNL     1      18.763 -35.496   5.469  1.00  0.00     0.216 HD
ENDBRANCH  42  43
ENDBRANCH  40  41
ENDBRANCH  38  39
ENDBRANCH  37  38
ENDBRANCH  15  37
TORSDOF 13
ENDMDL
MODEL 5
REMARK VINA RESULT: -7.785910280      1.891      2.322
REMARK  13 active torsions:
REMARK  status: ('A' for Active; 'I' for Inactive)
REMARK       I    between atoms: C1_4  and  N2_5 
REMARK       I    between atoms: C1_4  and  N6_28 
REMARK    1  A    between atoms: N2_5  and  C2_7 
REMARK    2  A    between atoms: C2_7  and  C3_8 
REMARK    3  A    between atoms: C2_7  and  N3_15 
REMARK    4  A    between atoms: C3_8  and  C4_9 
REMARK    5  A    between atoms: C4_9  and  P1_10 
REMARK    6  A    between atoms: P1_10  and  O1_11 
REMARK    7  A    between atoms: P1_10  and  O2_13 
REMARK       I    between atoms: N3_15  and  C5_17 
REMARK    8  A    between atoms: C5_17  and  C6_19 
REMARK    9  A    between atoms: C13_36  and  C14_37 
REMARK   10  A    between atoms: C14_37  and  C15_38 
REMARK   11  A    between atoms: C15_38  and  C16_39 
REMARK   12  A    between atoms: C17_40  and  C18_41 
REMARK   13  A    between atoms: C19_42  and  O5_43 
ROOT
HETATM    1  N1  UNL     1      13.875 -31.477  11.892  1.00  0.00    -0.234 N 
ATOM      2  H11 UNL     1      14.512 -32.159  11.480  1.00  0.00     0.174 HD
ATOM      3  H12 UNL     1      14.319 -30.756  12.461  1.00  0.00     0.174 HD
HETATM    4  C1  UNL     1      12.698 -31.541  11.727  1.00  0.00     0.681 C 
HETATM    5  N2  UNL     1      11.819 -30.599  12.295  1.00  0.00    -0.205 N 
ATOM      6  H2  UNL     1      10.843 -30.699  12.020  1.00  0.00     0.179 HD
HETATM    7  N6  UNL     1      12.052 -32.589  10.899  1.00  0.00    -0.142 N 
HETATM    8  C10 UNL     1      11.075 -33.372  11.569  1.00  0.00     0.223 A 
HETATM    9  N7  UNL     1      10.337 -34.176  10.823  1.00  0.00    -0.295 N 
ATOM     10  H7  UNL     1       9.619 -34.758  11.255  1.00  0.00     0.187 HD
HETATM   11  N8  UNL     1      10.536 -34.228   9.466  1.00  0.00    -0.309 N 
ATOM     12  H8  UNL     1       9.925 -34.868   8.959  1.00  0.00     0.186 HD
HETATM   13  C11 UNL     1      11.376 -33.590   8.742  1.00  0.00     0.137 A 
HETATM   14  C12 UNL     1      12.264 -32.649   9.522  1.00  0.00     0.075 A 
HETATM   15  C13 UNL     1      13.262 -32.106   8.929  1.00  0.00     0.040 C 
ENDROOT
BRANCH   5  16
HETATM   16  C2  UNL     1      12.081 -29.535  13.189  1.00  0.00     0.202 C 
BRANCH  16  17
HETATM   17  C3  UNL     1      11.172 -29.396  14.383  1.00  0.00     0.056 C 
BRANCH  17  18
HETATM   18  C4  UNL     1      11.835 -29.760  15.682  1.00  0.00     0.097 C 
BRANCH  18  19
HETATM   19  P1  UNL     1      12.513 -31.459  15.725  1.00  0.00     0.163 P 
BRANCH  19  20
HETATM   20  O1  UNL     1      11.565 -32.630  14.925  1.00  0.00    -0.350 OA
ATOM     21  H1  UNL     1      11.831 -33.530  15.074  1.00  0.00     0.217 HD
ENDBRANCH  19  20
BRANCH  19  22
HETATM   22  O2  UNL     1      14.124 -31.477  15.059  1.00  0.00    -0.350 OA
ATOM     23  H2  UNL     1      14.481 -32.357  15.093  1.00  0.00     0.217 HD
ENDBRANCH  19  22
ENDBRANCH  18  19
ENDBRANCH  17  18
ENDBRANCH  16  17
BRANCH  16  24
HETATM   24  N3  UNL     1      12.178 -28.216  12.525  1.00  0.00    -0.335 N 
HETATM   25  C5  UNL     1      13.429 -27.803  11.982  1.00  0.00     0.256 C 
HETATM   26  O3  UNL     1      14.456 -28.536  12.057  1.00  0.00    -0.268 OA
ATOM     27  H3  UNL     1      11.360 -27.610  12.457  1.00  0.00     0.164 HD
BRANCH  25  28
HETATM   28  C6  UNL     1      13.547 -26.518  11.322  1.00  0.00     0.063 A 
HETATM   29  C7  UNL     1      14.765 -25.938  11.073  1.00  0.00     0.111 A 
HETATM   30  N4  UNL     1      14.795 -24.765  10.407  1.00  0.00    -0.318 N 
HETATM   31  C8  UNL     1      13.679 -24.150   9.974  1.00  0.00     0.324 A 
ATOM     32  H4  UNL     1      15.699 -24.327  10.225  1.00  0.00     0.170 HD
HETATM   33  O4  UNL     1      13.720 -23.077   9.351  1.00  0.00    -0.247 OA
HETATM   34  N5  UNL     1      12.486 -24.711  10.214  1.00  0.00    -0.318 N 
HETATM   35  C9  UNL     1      12.382 -25.881  10.880  1.00  0.00     0.111 A 
ATOM     36  H5  UNL     1      11.640 -24.244   9.888  1.00  0.00     0.170 HD
ENDBRANCH  25  28
ENDBRANCH  16  24
ENDBRANCH   5  16
BRANCH  15  37
HETATM   37  C14 UNL     1      13.433 -32.186   7.449  1.00  0.00     0.058 C 
BRANCH  37  38
HETATM   38  C15 UNL     1      14.540 -32.287   6.957  1.00  0.00    -0.128 C 
BRANCH  38  39
HETATM   39  C16 UNL     1      15.820 -32.408   6.381  1.00  0.00     0.055 C 
HETATM   40  C17 UNL     1      16.353 -33.466   5.834  1.00  0.00     0.010 C 
BRANCH  40  41
HETATM   41  C18 UNL     1      15.791 -34.784   5.667  1.00  0.00     0.024 C 
HETATM   42  C19 UNL     1      16.670 -35.825   5.908  1.00  0.00     0.131 C 
BRANCH  42  43
HETATM   43  O5  UNL     1      17.937 -35.466   6.264  1.00  0.00    -0.373 OA
ATOM     44  H5  UNL     1      18.237 -35.784   7.107  1.00  0.00     0.216 HD
ENDBRANCH  42  43
ENDBRANCH  40  41
ENDBRANCH  38  39
ENDBRANCH  37  38
ENDBRANCH  15  37
TORSDOF 13
ENDMDL
