MODEL 1
REMARK VINA RESULT: -5.911182103      0.000      0.000
REMARK  6 active torsions:
REMARK  status: ('A' for Active; 'I' for Inactive)
REMARK       I    between atoms: C2_2  and  N1_4 
REMARK    1  A    between atoms: N1_4  and  C3_6 
REMARK    2  A    between atoms: C3_6  and  C4_7 
REMARK    3  A    between atoms: C3_6  and  C11_22 
REMARK       I    between atoms: C4_7  and  N2_9 
REMARK    4  A    between atoms: N2_9  and  C5_11 
REMARK    5  A    between atoms: C9_16  and  O4_17 
REMARK    6  A    between atoms: C10_19  and  O5_20 
ROOT
HETATM    1  C4  UNL     1       8.434  -9.464  15.082  1.00  0.00     0.242 C 
HETATM    2  O2  UNL     1       9.359  -9.006  14.364  1.00  0.00    -0.271 OA
HETATM    3  N2  UNL     1       8.392  -9.025  16.420  1.00  0.00    -0.331 N 
ATOM      4  H2  UNL     1       7.650  -9.376  17.026  1.00  0.00     0.165 HD
ENDROOT
BRANCH   3   5
HETATM    5  C5  UNL     1       9.363  -8.092  16.974  1.00  0.00     0.255 C 
HETATM    6  O3  UNL     1      10.246  -8.780  17.782  1.00  0.00    -0.351 OA
HETATM    7  C6  UNL     1      10.516  -8.009  18.889  1.00  0.00     0.085 C 
HETATM    8  C7  UNL     1      10.712  -8.927  20.074  1.00  0.00     0.048 C 
HETATM    9  C8  UNL     1      11.733  -7.171  18.676  1.00  0.00     0.048 C 
HETATM   10  C9  UNL     1       9.327  -7.122  19.137  1.00  0.00     0.185 C 
HETATM   11  C10 UNL     1       8.694  -7.038  17.770  1.00  0.00     0.198 C 
BRANCH  10  12
HETATM   12  O4  UNL     1       8.487  -7.657  20.091  1.00  0.00    -0.390 OA
ATOM     13  H4  UNL     1       7.792  -7.051  20.322  1.00  0.00     0.210 HD
ENDBRANCH  10  12
BRANCH  11  14
HETATM   14  O5  UNL     1       8.851  -5.775  17.205  1.00  0.00    -0.388 OA
ATOM     15  H5  UNL     1       8.746  -5.081  17.845  1.00  0.00     0.210 HD
ENDBRANCH  11  14
ENDBRANCH   3   5
BRANCH   1  16
HETATM   16  C3  UNL     1       7.464 -10.397  14.542  1.00  0.00     0.180 C 
BRANCH  16  17
HETATM   17  N1  UNL     1       6.646  -9.783  13.482  1.00  0.00    -0.348 N 
HETATM   18  C2  UNL     1       5.328 -10.165  13.203  1.00  0.00     0.214 C 
HETATM   19  C1  UNL     1       4.596  -9.476  12.112  1.00  0.00     0.117 C 
HETATM   20  O1  UNL     1       4.713 -11.065  13.825  1.00  0.00    -0.274 OA
ATOM     21  H1  UNL     1       7.061  -9.039  12.922  1.00  0.00     0.163 HD
ENDBRANCH  16  17
BRANCH  16  22
HETATM   22  C11 UNL     1       8.074 -11.610  13.833  1.00  0.00     0.009 C 
HETATM   23  C12 UNL     1       7.884 -11.626  12.363  1.00  0.00     0.012 C 
HETATM   24  C13 UNL     1       7.665 -12.896  14.507  1.00  0.00     0.012 C 
ENDBRANCH  16  22
ENDBRANCH   1  16
TORSDOF 6
ENDMDL
MODEL 2
REMARK VINA RESULT: -5.561096785      1.241      1.584
REMARK  6 active torsions:
REMARK  status: ('A' for Active; 'I' for Inactive)
REMARK       I    between atoms: C2_2  and  N1_4 
REMARK    1  A    between atoms: N1_4  and  C3_6 
REMARK    2  A    between atoms: C3_6  and  C4_7 
REMARK    3  A    between atoms: C3_6  and  C11_22 
REMARK       I    between atoms: C4_7  and  N2_9 
REMARK    4  A    between atoms: N2_9  and  C5_11 
REMARK    5  A    between atoms: C9_16  and  O4_17 
REMARK    6  A    between atoms: C10_19  and  O5_20 
ROOT
HETATM    1  C4  UNL     1       8.155 -10.087  14.237  1.00  0.00     0.242 C 
HETATM    2  O2  UNL     1       9.018  -9.564  13.486  1.00  0.00    -0.271 OA
HETATM    3  N2  UNL     1       8.297  -9.865  15.620  1.00  0.00    -0.331 N 
ATOM      4  H2  UNL     1       7.609 -10.272  16.254  1.00  0.00     0.165 HD
ENDROOT
BRANCH   3   5
HETATM    5  C5  UNL     1       9.385  -9.077  16.184  1.00  0.00     0.255 C 
HETATM    6  O3  UNL     1       9.352  -9.175  17.560  1.00  0.00    -0.351 OA
HETATM    7  C6  UNL     1       9.648  -7.942  18.093  1.00  0.00     0.085 C 
HETATM    8  C7  UNL     1       8.854  -7.768  19.367  1.00  0.00     0.048 C 
HETATM    9  C8  UNL     1      11.110  -7.816  18.373  1.00  0.00     0.048 C 
HETATM   10  C9  UNL     1       9.232  -6.895  17.098  1.00  0.00     0.185 C 
HETATM   11  C10 UNL     1       9.267  -7.653  15.795  1.00  0.00     0.198 C 
BRANCH  10  12
HETATM   12  O4  UNL     1       7.986  -6.384  17.394  1.00  0.00    -0.390 OA
ATOM     13  H4  UNL     1       7.321  -6.726  16.808  1.00  0.00     0.210 HD
ENDBRANCH  10  12
BRANCH  11  14
HETATM   14  O5  UNL     1      10.324  -7.241  14.986  1.00  0.00    -0.388 OA
ATOM     15  H5  UNL     1      10.898  -7.961  14.751  1.00  0.00     0.210 HD
ENDBRANCH  11  14
ENDBRANCH   3   5
BRANCH   1  16
HETATM   16  C3  UNL     1       7.070 -10.877  13.687  1.00  0.00     0.180 C 
BRANCH  16  17
HETATM   17  N1  UNL     1       6.405 -10.189  12.567  1.00  0.00    -0.348 N 
HETATM   18  C2  UNL     1       5.081  -9.735  12.615  1.00  0.00     0.214 C 
HETATM   19  C1  UNL     1       4.512  -9.052  11.427  1.00  0.00     0.117 C 
HETATM   20  O1  UNL     1       4.331  -9.868  13.611  1.00  0.00    -0.274 OA
ATOM     21  H1  UNL     1       6.937 -10.034  11.712  1.00  0.00     0.163 HD
ENDBRANCH  16  17
BRANCH  16  22
HETATM   22  C11 UNL     1       7.505 -12.202  13.053  1.00  0.00     0.009 C 
HETATM   23  C12 UNL     1       6.796 -12.548  11.798  1.00  0.00     0.012 C 
HETATM   24  C13 UNL     1       7.507 -13.316  14.071  1.00  0.00     0.012 C 
ENDBRANCH  16  22
ENDBRANCH   1  16
TORSDOF 6
ENDMDL
MODEL 3
REMARK VINA RESULT: -5.403562431      3.320      7.006
REMARK  6 active torsions:
REMARK  status: ('A' for Active; 'I' for Inactive)
REMARK       I    between atoms: C2_2  and  N1_4 
REMARK    1  A    between atoms: N1_4  and  C3_6 
REMARK    2  A    between atoms: C3_6  and  C4_7 
REMARK    3  A    between atoms: C3_6  and  C11_22 
REMARK       I    between atoms: C4_7  and  N2_9 
REMARK    4  A    between atoms: N2_9  and  C5_11 
REMARK    5  A    between atoms: C9_16  and  O4_17 
REMARK    6  A    between atoms: C10_19  and  O5_20 
ROOT
HETATM    1  C4  UNL     1       5.607 -11.033  12.452  1.00  0.00     0.242 C 
HETATM    2  O2  UNL     1       4.659 -11.827  12.221  1.00  0.00    -0.271 OA
HETATM    3  N2  UNL     1       5.351  -9.663  12.253  1.00  0.00    -0.331 N 
ATOM      4  H2  UNL     1       6.100  -8.994  12.437  1.00  0.00     0.165 HD
ENDROOT
BRANCH   3   5
HETATM    5  C5  UNL     1       4.063  -9.160  11.797  1.00  0.00     0.255 C 
HETATM    6  O3  UNL     1       4.204  -7.849  11.389  1.00  0.00    -0.351 OA
HETATM    7  C6  UNL     1       3.097  -7.142  11.799  1.00  0.00     0.085 C 
HETATM    8  C7  UNL     1       3.530  -5.736  12.147  1.00  0.00     0.048 C 
HETATM    9  C8  UNL     1       2.054  -7.113  10.730  1.00  0.00     0.048 C 
HETATM   10  C9  UNL     1       2.547  -7.814  13.026  1.00  0.00     0.185 C 
HETATM   11  C10 UNL     1       3.053  -9.228  12.876  1.00  0.00     0.198 C 
BRANCH  10  12
HETATM   12  O4  UNL     1       2.988  -7.200  14.179  1.00  0.00    -0.390 OA
ATOM     13  H4  UNL     1       3.240  -7.836  14.838  1.00  0.00     0.210 HD
ENDBRANCH  10  12
BRANCH  11  14
HETATM   14  O5  UNL     1       2.022 -10.115  12.576  1.00  0.00    -0.388 OA
ATOM     15  H5  UNL     1       1.549 -10.391  13.353  1.00  0.00     0.210 HD
ENDBRANCH  11  14
ENDBRANCH   3   5
BRANCH   1  16
HETATM   16  C3  UNL     1       6.895 -11.524  12.903  1.00  0.00     0.180 C 
BRANCH  16  17
HETATM   17  N1  UNL     1       7.297 -10.912  14.181  1.00  0.00    -0.348 N 
HETATM   18  C2  UNL     1       8.303  -9.946  14.294  1.00  0.00     0.214 C 
HETATM   19  C1  UNL     1       8.625  -9.396  15.634  1.00  0.00     0.117 C 
HETATM   20  O1  UNL     1       8.962  -9.504  13.322  1.00  0.00    -0.274 OA
ATOM     21  H1  UNL     1       6.815 -11.208  15.030  1.00  0.00     0.163 HD
ENDBRANCH  16  17
BRANCH  16  22
HETATM   22  C11 UNL     1       6.930 -13.021  13.223  1.00  0.00     0.009 C 
HETATM   23  C12 UNL     1       7.606 -13.364  14.498  1.00  0.00     0.012 C 
HETATM   24  C13 UNL     1       7.430 -13.817  12.043  1.00  0.00     0.012 C 
ENDBRANCH  16  22
ENDBRANCH   1  16
TORSDOF 6
ENDMDL
MODEL 4
REMARK VINA RESULT: -5.356178285      3.054      6.857
REMARK  6 active torsions:
REMARK  status: ('A' for Active; 'I' for Inactive)
REMARK       I    between atoms: C2_2  and  N1_4 
REMARK    1  A    between atoms: N1_4  and  C3_6 
REMARK    2  A    between atoms: C3_6  and  C4_7 
REMARK    3  A    between atoms: C3_6  and  C11_22 
REMARK       I    between atoms: C4_7  and  N2_9 
REMARK    4  A    between atoms: N2_9  and  C5_11 
REMARK    5  A    between atoms: C9_16  and  O4_17 
REMARK    6  A    between atoms: C10_19  and  O5_20 
ROOT
HETATM    1  C4  UNL     1       6.578 -11.392  12.652  1.00  0.00     0.242 C 
HETATM    2  O2  UNL     1       6.457 -11.877  11.497  1.00  0.00    -0.271 OA
HETATM    3  N2  UNL     1       5.605 -10.458  13.055  1.00  0.00    -0.331 N 
ATOM      4  H2  UNL     1       5.674 -10.051  13.988  1.00  0.00     0.165 HD
ENDROOT
BRANCH   3   5
HETATM    5  C5  UNL     1       4.502 -10.049  12.196  1.00  0.00     0.255 C 
HETATM    6  O3  UNL     1       4.787  -8.816  11.645  1.00  0.00    -0.351 OA
HETATM    7  C6  UNL     1       3.632  -8.068  11.626  1.00  0.00     0.085 C 
HETATM    8  C7  UNL     1       3.997  -6.620  11.858  1.00  0.00     0.048 C 
HETATM    9  C8  UNL     1       2.916  -8.220  10.325  1.00  0.00     0.048 C 
HETATM   10  C9  UNL     1       2.753  -8.547  12.748  1.00  0.00     0.185 C 
HETATM   11  C10 UNL     1       3.237  -9.960  12.959  1.00  0.00     0.198 C 
BRANCH  10  12
HETATM   12  O4  UNL     1       2.886  -7.755  13.868  1.00  0.00    -0.390 OA
ATOM     13  H4  UNL     1       2.046  -7.420  14.160  1.00  0.00     0.210 HD
ENDBRANCH  10  12
BRANCH  11  14
HETATM   14  O5  UNL     1       2.299 -10.897  12.532  1.00  0.00    -0.388 OA
ATOM     15  H5  UNL     1       1.416 -10.665  12.796  1.00  0.00     0.210 HD
ENDBRANCH  11  14
ENDBRANCH   3   5
BRANCH   1  16
HETATM   16  C3  UNL     1       7.675 -11.789  13.514  1.00  0.00     0.180 C 
BRANCH  16  17
HETATM   17  N1  UNL     1       7.793 -10.909  14.689  1.00  0.00    -0.348 N 
HETATM   18  C2  UNL     1       8.589  -9.758  14.716  1.00  0.00     0.214 C 
HETATM   19  C1  UNL     1       8.633  -8.943  15.956  1.00  0.00     0.117 C 
HETATM   20  O1  UNL     1       9.279  -9.360  13.747  1.00  0.00    -0.274 OA
ATOM     21  H1  UNL     1       7.267 -11.151  15.528  1.00  0.00     0.163 HD
ENDBRANCH  16  17
BRANCH  16  22
HETATM   22  C11 UNL     1       7.518 -13.175  14.148  1.00  0.00     0.009 C 
HETATM   23  C12 UNL     1       7.519 -14.299  13.181  1.00  0.00     0.012 C 
HETATM   24  C13 UNL     1       6.353 -13.205  15.106  1.00  0.00     0.012 C 
ENDBRANCH  16  22
ENDBRANCH   1  16
TORSDOF 6
ENDMDL
MODEL 5
REMARK VINA RESULT: -5.321060622      1.894      3.027
REMARK  6 active torsions:
REMARK  status: ('A' for Active; 'I' for Inactive)
REMARK       I    between atoms: C2_2  and  N1_4 
REMARK    1  A    between atoms: N1_4  and  C3_6 
REMARK    2  A    between atoms: C3_6  and  C4_7 
REMARK    3  A    between atoms: C3_6  and  C11_22 
REMARK       I    between atoms: C4_7  and  N2_9 
REMARK    4  A    between atoms: N2_9  and  C5_11 
REMARK    5  A    between atoms: C9_16  and  O4_17 
REMARK    6  A    between atoms: C10_19  and  O5_20 
ROOT
HETATM    1  C4  UNL     1       9.160  -8.996  16.497  1.00  0.00     0.242 C 
HETATM    2  O2  UNL     1       8.350  -8.043  16.628  1.00  0.00    -0.271 OA
HETATM    3  N2  UNL     1      10.101  -9.177  17.529  1.00  0.00    -0.331 N 
ATOM      4  H2  UNL     1      10.769  -9.945  17.453  1.00  0.00     0.165 HD
ENDROOT
BRANCH   3   5
HETATM    5  C5  UNL     1      10.161  -8.314  18.701  1.00  0.00     0.255 C 
HETATM    6  O3  UNL     1       8.878  -7.981  19.087  1.00  0.00    -0.351 OA
HETATM    7  C6  UNL     1       8.867  -6.662  19.477  1.00  0.00     0.085 C 
HETATM    8  C7  UNL     1       7.535  -6.061  19.094  1.00  0.00     0.048 C 
HETATM    9  C8  UNL     1       9.089  -6.535  20.948  1.00  0.00     0.048 C 
HETATM   10  C9  UNL     1       9.966  -5.951  18.736  1.00  0.00     0.185 C 
HETATM   11  C10 UNL     1      10.919  -7.075  18.411  1.00  0.00     0.198 C 
BRANCH  10  12
HETATM   12  O4  UNL     1       9.486  -5.307  17.615  1.00  0.00    -0.390 OA
ATOM     13  H4  UNL     1      10.168  -5.184  16.965  1.00  0.00     0.210 HD
ENDBRANCH  10  12
BRANCH  11  14
HETATM   14  O5  UNL     1      12.091  -6.990  19.158  1.00  0.00    -0.388 OA
ATOM     15  H5  UNL     1      12.752  -6.460  18.729  1.00  0.00     0.210 HD
ENDBRANCH  11  14
ENDBRANCH   3   5
BRANCH   1  16
HETATM   16  C3  UNL     1       9.112  -9.859  15.332  1.00  0.00     0.180 C 
BRANCH  16  17
HETATM   17  N1  UNL     1       7.734 -10.262  15.007  1.00  0.00    -0.348 N 
HETATM   18  C2  UNL     1       7.372 -11.567  14.655  1.00  0.00     0.214 C 
HETATM   19  C1  UNL     1       5.950 -11.861  14.347  1.00  0.00     0.117 C 
HETATM   20  O1  UNL     1       8.181 -12.523  14.583  1.00  0.00    -0.274 OA
ATOM     21  H1  UNL     1       7.003  -9.551  15.039  1.00  0.00     0.163 HD
ENDBRANCH  16  17
BRANCH  16  22
HETATM   22  C11 UNL     1       9.585  -9.201  14.032  1.00  0.00     0.009 C 
HETATM   23  C12 UNL     1      10.013  -7.789  14.176  1.00  0.00     0.012 C 
HETATM   24  C13 UNL     1       8.590  -9.420  12.920  1.00  0.00     0.012 C 
ENDBRANCH  16  22
ENDBRANCH   1  16
TORSDOF 6
ENDMDL
