MODEL 1
REMARK VINA RESULT: -5.839964120      0.000      0.000
REMARK  8 active torsions:
REMARK  status: ('A' for Active; 'I' for Inactive)
REMARK    1  A    between atoms: N1_2  and  C2_4 
REMARK    2  A    between atoms: C2_4  and  N2_6 
REMARK    3  A    between atoms: N2_6  and  N3_8 
REMARK    4  A    between atoms: C3_10  and  C4_11 
REMARK    5  A    between atoms: C3_10  and  C7_20 
REMARK       I    between atoms: C4_11  and  N4_13 
REMARK    6  A    between atoms: N4_13  and  N5_15 
REMARK    7  A    between atoms: N5_15  and  C5_16 
REMARK    8  A    between atoms: C5_16  and  O2_18 
ROOT
HETATM    1  N3  UNL     1       9.664  -6.410  17.821  1.00  0.00    -0.293 N 
ATOM      2  H3  UNL     1       9.016  -6.245  17.051  1.00  0.00     0.187 HD
HETATM    3  C3  UNL     1      10.267  -7.560  17.770  1.00  0.00     0.128 C 
ENDROOT
BRANCH   3   4
HETATM    4  C4  UNL     1       9.940  -8.415  16.665  1.00  0.00     0.299 C 
HETATM    5  O1  UNL     1      10.906  -8.709  15.858  1.00  0.00    -0.263 OA
HETATM    6  N4  UNL     1       8.639  -8.971  16.348  1.00  0.00    -0.195 N 
ATOM      7  H4  UNL     1       7.835  -8.736  16.931  1.00  0.00     0.205 HD
BRANCH   6   8
HETATM    8  N5  UNL     1       8.481  -9.772  15.322  1.00  0.00    -0.302 NA
BRANCH   8   9
HETATM    9  C5  UNL     1       8.292 -10.584  14.267  1.00  0.00     0.210 C 
HETATM   10  C6  UNL     1       7.821 -12.031  14.297  1.00  0.00     0.117 C 
BRANCH   9  11
HETATM   11  O2  UNL     1       8.503 -10.207  13.023  1.00  0.00    -0.338 OA
ATOM     12  H2  UNL     1       8.789 -10.804  12.341  1.00  0.00     0.220 HD
ENDBRANCH   9  11
ENDBRANCH   8   9
ENDBRANCH   6   8
ENDBRANCH   3   4
BRANCH   3  13
HETATM   13  C7  UNL     1      11.272  -7.880  18.765  1.00  0.00    -0.002 A 
HETATM   14  C8  UNL     1      10.889  -8.846  19.738  1.00  0.00     0.014 A 
HETATM   15  C9  UNL     1      11.735  -9.188  20.758  1.00  0.00     0.001 A 
HETATM   16  C10 UNL     1      13.008  -8.598  20.878  1.00  0.00     0.000 A 
HETATM   17  C11 UNL     1      13.380  -7.666  19.957  1.00  0.00     0.001 A 
HETATM   18  C12 UNL     1      12.498  -7.326  18.912  1.00  0.00     0.014 A 
ENDBRANCH   3  13
BRANCH   1  19
HETATM   19  N2  UNL     1       9.736  -5.414  18.686  1.00  0.00    -0.276 N 
ATOM     20  H2  UNL     1      10.224  -4.551  18.449  1.00  0.00     0.189 HD
BRANCH  19  21
HETATM   21  C2  UNL     1       9.104  -5.580  19.981  1.00  0.00     0.186 C 
HETATM   22  S1  UNL     1       9.997  -5.771  21.300  1.00  0.00    -0.040 SA
BRANCH  21  23
HETATM   23  N1  UNL     1       7.663  -5.637  20.017  1.00  0.00    -0.370 N 
HETATM   24  C1  UNL     1       6.844  -5.793  18.853  1.00  0.00     0.148 C 
ATOM     25  H1  UNL     1       7.201  -5.561  20.923  1.00  0.00     0.161 HD
ENDBRANCH  21  23
ENDBRANCH  19  21
ENDBRANCH   1  19
TORSDOF 8
ENDMDL
MODEL 2
REMARK VINA RESULT: -5.705928766      4.866      9.016
REMARK  8 active torsions:
REMARK  status: ('A' for Active; 'I' for Inactive)
REMARK    1  A    between atoms: N1_2  and  C2_4 
REMARK    2  A    between atoms: C2_4  and  N2_6 
REMARK    3  A    between atoms: N2_6  and  N3_8 
REMARK    4  A    between atoms: C3_10  and  C4_11 
REMARK    5  A    between atoms: C3_10  and  C7_20 
REMARK       I    between atoms: C4_11  and  N4_13 
REMARK    6  A    between atoms: N4_13  and  N5_15 
REMARK    7  A    between atoms: N5_15  and  C5_16 
REMARK    8  A    between atoms: C5_16  and  O2_18 
ROOT
HETATM    1  N3  UNL     1       6.946 -12.547  12.170  1.00  0.00    -0.293 N 
ATOM      2  H3  UNL     1       7.164 -11.752  11.569  1.00  0.00     0.187 HD
HETATM    3  C3  UNL     1       7.299 -12.386  13.411  1.00  0.00     0.128 C 
ENDROOT
BRANCH   3   4
HETATM    4  C4  UNL     1       7.932 -11.143  13.748  1.00  0.00     0.299 C 
HETATM    5  O1  UNL     1       8.295 -10.394  12.759  1.00  0.00    -0.263 OA
HETATM    6  N4  UNL     1       8.223 -10.645  15.078  1.00  0.00    -0.195 N 
ATOM      7  H4  UNL     1       7.993 -11.218  15.891  1.00  0.00     0.205 HD
BRANCH   6   8
HETATM    8  N5  UNL     1       8.777  -9.470  15.252  1.00  0.00    -0.302 NA
BRANCH   8   9
HETATM    9  C5  UNL     1       9.355  -8.273  15.455  1.00  0.00     0.210 C 
HETATM   10  C6  UNL     1       9.299  -7.430  16.721  1.00  0.00     0.117 C 
BRANCH   9  11
HETATM   11  O2  UNL     1      10.073  -7.657  14.537  1.00  0.00    -0.338 OA
ATOM     12  H2  UNL     1       9.720  -6.982  13.970  1.00  0.00     0.220 HD
ENDBRANCH   9  11
ENDBRANCH   8   9
ENDBRANCH   6   8
ENDBRANCH   3   4
BRANCH   3  13
HETATM   13  C7  UNL     1       6.972 -13.412  14.381  1.00  0.00    -0.002 A 
HETATM   14  C8  UNL     1       5.770 -13.205  15.115  1.00  0.00     0.014 A 
HETATM   15  C9  UNL     1       5.387 -14.079  16.096  1.00  0.00     0.001 A 
HETATM   16  C10 UNL     1       6.167 -15.209  16.411  1.00  0.00     0.000 A 
HETATM   17  C11 UNL     1       7.324 -15.411  15.720  1.00  0.00     0.001 A 
HETATM   18  C12 UNL     1       7.704 -14.502  14.713  1.00  0.00     0.014 A 
ENDBRANCH   3  13
BRANCH   1  19
HETATM   19  N2  UNL     1       6.356 -13.549  11.545  1.00  0.00    -0.276 N 
ATOM     20  H2  UNL     1       5.573 -14.043  11.972  1.00  0.00     0.189 HD
BRANCH  19  21
HETATM   21  C2  UNL     1       6.850 -13.931  10.235  1.00  0.00     0.186 C 
HETATM   22  S1  UNL     1       6.038 -13.528   8.913  1.00  0.00    -0.040 SA
BRANCH  21  23
HETATM   23  N1  UNL     1       8.046 -14.737  10.184  1.00  0.00    -0.370 N 
HETATM   24  C1  UNL     1       8.384 -15.724  11.165  1.00  0.00     0.148 C 
ATOM     25  H1  UNL     1       8.687 -14.596   9.403  1.00  0.00     0.161 HD
ENDBRANCH  21  23
ENDBRANCH  19  21
ENDBRANCH   1  19
TORSDOF 8
ENDMDL
MODEL 3
REMARK VINA RESULT: -5.682612704      4.804      8.998
REMARK  8 active torsions:
REMARK  status: ('A' for Active; 'I' for Inactive)
REMARK    1  A    between atoms: N1_2  and  C2_4 
REMARK    2  A    between atoms: C2_4  and  N2_6 
REMARK    3  A    between atoms: N2_6  and  N3_8 
REMARK    4  A    between atoms: C3_10  and  C4_11 
REMARK    5  A    between atoms: C3_10  and  C7_20 
REMARK       I    between atoms: C4_11  and  N4_13 
REMARK    6  A    between atoms: N4_13  and  N5_15 
REMARK    7  A    between atoms: N5_15  and  C5_16 
REMARK    8  A    between atoms: C5_16  and  O2_18 
ROOT
HETATM    1  N3  UNL     1       7.237 -12.964  12.388  1.00  0.00    -0.293 N 
ATOM      2  H3  UNL     1       7.551 -12.259  11.721  1.00  0.00     0.187 HD
HETATM    3  C3  UNL     1       7.396 -12.624  13.632  1.00  0.00     0.128 C 
ENDROOT
BRANCH   3   4
HETATM    4  C4  UNL     1       7.979 -11.337  13.883  1.00  0.00     0.299 C 
HETATM    5  O1  UNL     1       8.218 -10.600  12.848  1.00  0.00    -0.263 OA
HETATM    6  N4  UNL     1       8.345 -10.781  15.171  1.00  0.00    -0.195 N 
ATOM      7  H4  UNL     1       8.215 -11.340  16.015  1.00  0.00     0.205 HD
BRANCH   6   8
HETATM    8  N5  UNL     1       8.840  -9.571  15.267  1.00  0.00    -0.302 NA
BRANCH   8   9
HETATM    9  C5  UNL     1       9.340  -8.329  15.392  1.00  0.00     0.210 C 
HETATM   10  C6  UNL     1       9.288  -7.440  16.626  1.00  0.00     0.117 C 
BRANCH   9  11
HETATM   11  O2  UNL     1       9.963  -7.704  14.414  1.00  0.00    -0.338 OA
ATOM     12  H2  UNL     1       9.824  -7.909  13.496  1.00  0.00     0.220 HD
ENDBRANCH   9  11
ENDBRANCH   8   9
ENDBRANCH   6   8
ENDBRANCH   3   4
BRANCH   3  13
HETATM   13  C7  UNL     1       6.916 -13.507  14.677  1.00  0.00    -0.002 A 
HETATM   14  C8  UNL     1       7.748 -14.623  14.970  1.00  0.00     0.014 A 
HETATM   15  C9  UNL     1       7.371 -15.555  15.899  1.00  0.00     0.001 A 
HETATM   16  C10 UNL     1       6.152 -15.439  16.595  1.00  0.00     0.000 A 
HETATM   17  C11 UNL     1       5.344 -14.378  16.315  1.00  0.00     0.001 A 
HETATM   18  C12 UNL     1       5.747 -13.428  15.356  1.00  0.00     0.014 A 
ENDBRANCH   3  13
BRANCH   1  19
HETATM   19  N2  UNL     1       6.743 -14.053  11.828  1.00  0.00    -0.276 N 
ATOM     20  H2  UNL     1       5.833 -14.418  12.109  1.00  0.00     0.189 HD
BRANCH  19  21
HETATM   21  C2  UNL     1       7.526 -14.717  10.803  1.00  0.00     0.186 C 
HETATM   22  S1  UNL     1       8.416 -16.001  11.167  1.00  0.00    -0.040 SA
BRANCH  21  23
HETATM   23  N1  UNL     1       7.525 -14.135   9.482  1.00  0.00    -0.370 N 
HETATM   24  C1  UNL     1       6.400 -13.456   8.912  1.00  0.00     0.148 C 
ATOM     25  H1  UNL     1       8.374 -14.212   8.923  1.00  0.00     0.161 HD
ENDBRANCH  21  23
ENDBRANCH  19  21
ENDBRANCH   1  19
TORSDOF 8
ENDMDL
MODEL 4
REMARK VINA RESULT: -5.658525897      5.540      7.227
REMARK  8 active torsions:
REMARK  status: ('A' for Active; 'I' for Inactive)
REMARK    1  A    between atoms: N1_2  and  C2_4 
REMARK    2  A    between atoms: C2_4  and  N2_6 
REMARK    3  A    between atoms: N2_6  and  N3_8 
REMARK    4  A    between atoms: C3_10  and  C4_11 
REMARK    5  A    between atoms: C3_10  and  C7_20 
REMARK       I    between atoms: C4_11  and  N4_13 
REMARK    6  A    between atoms: N4_13  and  N5_15 
REMARK    7  A    between atoms: N5_15  and  C5_16 
REMARK    8  A    between atoms: C5_16  and  O2_18 
ROOT
HETATM    1  N3  UNL     1       6.194 -10.811  12.978  1.00  0.00    -0.293 N 
ATOM      2  H3  UNL     1       5.544 -11.564  12.752  1.00  0.00     0.187 HD
HETATM    3  C3  UNL     1       7.032 -11.100  13.928  1.00  0.00     0.128 C 
ENDROOT
BRANCH   3   4
HETATM    4  C4  UNL     1       6.924 -12.407  14.511  1.00  0.00     0.299 C 
HETATM    5  O1  UNL     1       8.003 -13.119  14.534  1.00  0.00    -0.263 OA
HETATM    6  N4  UNL     1       5.732 -13.020  15.063  1.00  0.00    -0.195 N 
ATOM      7  H4  UNL     1       4.846 -12.515  15.032  1.00  0.00     0.205 HD
BRANCH   6   8
HETATM    8  N5  UNL     1       5.776 -14.215  15.601  1.00  0.00    -0.302 NA
BRANCH   8   9
HETATM    9  C5  UNL     1       5.815 -15.429  16.179  1.00  0.00     0.210 C 
HETATM   10  C6  UNL     1       5.282 -15.808  17.552  1.00  0.00     0.117 C 
BRANCH   9  11
HETATM   11  O2  UNL     1       6.346 -16.484  15.596  1.00  0.00    -0.338 OA
ATOM     12  H2  UNL     1       7.083 -16.961  15.960  1.00  0.00     0.220 HD
ENDBRANCH   9  11
ENDBRANCH   8   9
ENDBRANCH   6   8
ENDBRANCH   3   4
BRANCH   3  13
HETATM   13  C7  UNL     1       8.057 -10.141  14.288  1.00  0.00    -0.002 A 
HETATM   14  C8  UNL     1       8.132  -9.809  15.670  1.00  0.00     0.014 A 
HETATM   15  C9  UNL     1       9.025  -8.874  16.120  1.00  0.00     0.001 A 
HETATM   16  C10 UNL     1       9.897  -8.212  15.233  1.00  0.00     0.000 A 
HETATM   17  C11 UNL     1       9.827  -8.517  13.907  1.00  0.00     0.001 A 
HETATM   18  C12 UNL     1       8.903  -9.483  13.460  1.00  0.00     0.014 A 
ENDBRANCH   3  13
BRANCH   1  19
HETATM   19  N2  UNL     1       6.028  -9.721  12.251  1.00  0.00    -0.276 N 
ATOM     20  H2  UNL     1       6.830  -9.227  11.860  1.00  0.00     0.189 HD
BRANCH  19  21
HETATM   21  C2  UNL     1       4.677  -9.243  12.022  1.00  0.00     0.186 C 
HETATM   22  S1  UNL     1       3.507  -9.592  13.062  1.00  0.00    -0.040 SA
BRANCH  21  23
HETATM   23  N1  UNL     1       4.426  -8.516  10.801  1.00  0.00    -0.370 N 
HETATM   24  C1  UNL     1       3.163  -8.506  10.126  1.00  0.00     0.148 C 
ATOM     25  H1  UNL     1       5.192  -7.979  10.396  1.00  0.00     0.161 HD
ENDBRANCH  21  23
ENDBRANCH  19  21
ENDBRANCH   1  19
TORSDOF 8
ENDMDL
MODEL 5
REMARK VINA RESULT: -5.652645079      5.761      7.769
REMARK  8 active torsions:
REMARK  status: ('A' for Active; 'I' for Inactive)
REMARK    1  A    between atoms: N1_2  and  C2_4 
REMARK    2  A    between atoms: C2_4  and  N2_6 
REMARK    3  A    between atoms: N2_6  and  N3_8 
REMARK    4  A    between atoms: C3_10  and  C4_11 
REMARK    5  A    between atoms: C3_10  and  C7_20 
REMARK       I    between atoms: C4_11  and  N4_13 
REMARK    6  A    between atoms: N4_13  and  N5_15 
REMARK    7  A    between atoms: N5_15  and  C5_16 
REMARK    8  A    between atoms: C5_16  and  O2_18 
ROOT
HETATM    1  N3  UNL     1       7.021 -12.486  13.567  1.00  0.00    -0.293 N 
ATOM      2  H3  UNL     1       6.329 -13.020  13.042  1.00  0.00     0.187 HD
HETATM    3  C3  UNL     1       7.011 -11.211  13.312  1.00  0.00     0.128 C 
ENDROOT
BRANCH   3   4
HETATM    4  C4  UNL     1       6.051 -10.750  12.350  1.00  0.00     0.299 C 
HETATM    5  O1  UNL     1       5.583 -11.635  11.533  1.00  0.00    -0.263 OA
HETATM    6  N4  UNL     1       5.561  -9.396  12.187  1.00  0.00    -0.195 N 
ATOM      7  H4  UNL     1       5.929  -8.652  12.781  1.00  0.00     0.205 HD
BRANCH   6   8
HETATM    8  N5  UNL     1       4.651  -9.112  11.287  1.00  0.00    -0.302 NA
BRANCH   8   9
HETATM    9  C5  UNL     1       3.725  -8.794  10.365  1.00  0.00     0.210 C 
HETATM   10  C6  UNL     1       2.253  -8.497  10.609  1.00  0.00     0.117 C 
BRANCH   9  11
HETATM   11  O2  UNL     1       3.995  -8.698   9.079  1.00  0.00    -0.338 OA
ATOM     12  H2  UNL     1       3.323  -8.685   8.408  1.00  0.00     0.220 HD
ENDBRANCH   9  11
ENDBRANCH   8   9
ENDBRANCH   6   8
ENDBRANCH   3   4
BRANCH   3  13
HETATM   13  C7  UNL     1       7.895 -10.332  14.051  1.00  0.00    -0.002 A 
HETATM   14  C8  UNL     1       8.837  -9.606  13.269  1.00  0.00     0.014 A 
HETATM   15  C9  UNL     1       9.759  -8.787  13.862  1.00  0.00     0.001 A 
HETATM   16  C10 UNL     1       9.804  -8.633  15.262  1.00  0.00     0.000 A 
HETATM   17  C11 UNL     1       8.912  -9.330  16.020  1.00  0.00     0.001 A 
HETATM   18  C12 UNL     1       7.969 -10.169  15.393  1.00  0.00     0.014 A 
ENDBRANCH   3  13
BRANCH   1  19
HETATM   19  N2  UNL     1       7.762 -13.216  14.380  1.00  0.00    -0.276 N 
ATOM     20  H2  UNL     1       8.768 -13.062  14.449  1.00  0.00     0.189 HD
BRANCH  19  21
HETATM   21  C2  UNL     1       7.111 -14.242  15.172  1.00  0.00     0.186 C 
HETATM   22  S1  UNL     1       5.625 -14.014  15.730  1.00  0.00    -0.040 SA
BRANCH  21  23
HETATM   23  N1  UNL     1       7.876 -15.423  15.490  1.00  0.00    -0.370 N 
HETATM   24  C1  UNL     1       8.045 -16.528  14.595  1.00  0.00     0.148 C 
ATOM     25  H1  UNL     1       8.322 -15.474  16.406  1.00  0.00     0.161 HD
ENDBRANCH  21  23
ENDBRANCH  19  21
ENDBRANCH   1  19
TORSDOF 8
ENDMDL
