MODEL 1
REMARK VINA RESULT: -5.730466861      0.000      0.000
REMARK  6 active torsions:
REMARK  status: ('A' for Active; 'I' for Inactive)
REMARK    1  A    between atoms: C2_2  and  C3_4 
REMARK    2  A    between atoms: C3_4  and  N1_5 
REMARK       I    between atoms: N1_5  and  C4_7 
REMARK    3  A    between atoms: C4_7  and  C5_9 
REMARK    4  A    between atoms: C5_9  and  O3_10 
REMARK    5  A    between atoms: C8_14  and  O4_15 
REMARK    6  A    between atoms: C8_14  and  N2_17 
REMARK       I    between atoms: N2_17  and  C9_19 
ROOT
HETATM    1  C5  UNL     1       9.598  -7.172  19.042  1.00  0.00     0.149 C 
HETATM    2  C6  UNL     1       9.941  -5.753  19.335  1.00  0.00     0.053 C 
HETATM    3  C7  UNL     1      10.776  -5.943  20.588  1.00  0.00     0.065 C 
HETATM    4  C8  UNL     1      11.426  -7.334  20.455  1.00  0.00     0.144 C 
HETATM    5  C11 UNL     1      10.965  -7.823  19.097  1.00  0.00     0.043 C 
HETATM    6  C12 UNL     1      10.756  -9.291  18.987  1.00  0.00     0.023 C 
HETATM    7  C13 UNL     1      11.917  -7.300  18.073  1.00  0.00     0.023 C 
ENDROOT
BRANCH   1   8
HETATM    8  C4  UNL     1       8.821  -7.433  17.853  1.00  0.00     0.253 C 
HETATM    9  N1  UNL     1       9.033  -8.612  17.081  1.00  0.00    -0.351 N 
ATOM     10  H1  UNL     1       9.749  -9.269  17.389  1.00  0.00     0.162 HD
HETATM   11  O2  UNL     1       7.925  -6.657  17.424  1.00  0.00    -0.270 OA
BRANCH   9  12
HETATM   12  C3  UNL     1       8.292  -8.924  15.892  1.00  0.00     0.200 C 
BRANCH  12  13
HETATM   13  C2  UNL     1       9.184  -8.991  14.705  1.00  0.00     0.140 C 
HETATM   14  C1  UNL     1      10.606  -8.581  14.805  1.00  0.00     0.092 C 
HETATM   15  O1  UNL     1       8.796  -9.380  13.611  1.00  0.00    -0.297 OA
ENDBRANCH  12  13
ENDBRANCH   9  12
ENDBRANCH   1   8
BRANCH   1  16
HETATM   16  O3  UNL     1       8.908  -7.666  20.173  1.00  0.00    -0.379 OA
ATOM     17  H3  UNL     1       9.185  -7.189  20.947  1.00  0.00     0.211 HD
ENDBRANCH   1  16
BRANCH   4  18
HETATM   18  O4  UNL     1      10.976  -8.163  21.480  1.00  0.00    -0.370 OA
ATOM     19  H4  UNL     1      10.053  -8.001  21.641  1.00  0.00     0.212 HD
ENDBRANCH   4  18
BRANCH   4  20
HETATM   20  N2  UNL     1      12.835  -7.169  20.591  1.00  0.00    -0.329 N 
HETATM   21  C9  UNL     1      13.779  -8.173  20.881  1.00  0.00     0.215 C 
HETATM   22  C10 UNL     1      15.215  -7.865  20.991  1.00  0.00     0.117 C 
HETATM   23  O5  UNL     1      13.401  -9.351  21.049  1.00  0.00    -0.274 OA
ATOM     24  H2  UNL     1      13.199  -6.224  20.467  1.00  0.00     0.165 HD
ENDBRANCH   4  20
TORSDOF 6
ENDMDL
MODEL 2
REMARK VINA RESULT: -5.663153741      1.417      5.735
REMARK  6 active torsions:
REMARK  status: ('A' for Active; 'I' for Inactive)
REMARK    1  A    between atoms: C2_2  and  C3_4 
REMARK    2  A    between atoms: C3_4  and  N1_5 
REMARK       I    between atoms: N1_5  and  C4_7 
REMARK    3  A    between atoms: C4_7  and  C5_9 
REMARK    4  A    between atoms: C5_9  and  O3_10 
REMARK    5  A    between atoms: C8_14  and  O4_15 
REMARK    6  A    between atoms: C8_14  and  N2_17 
REMARK       I    between atoms: N2_17  and  C9_19 
ROOT
HETATM    1  C5  UNL     1      10.262  -7.221  19.224  1.00  0.00     0.149 C 
HETATM    2  C6  UNL     1       8.866  -7.603  19.572  1.00  0.00     0.053 C 
HETATM    3  C7  UNL     1       8.165  -7.223  18.280  1.00  0.00     0.065 C 
HETATM    4  C8  UNL     1       9.216  -7.393  17.165  1.00  0.00     0.144 C 
HETATM    5  C11 UNL     1      10.435  -7.921  17.891  1.00  0.00     0.043 C 
HETATM    6  C12 UNL     1      11.745  -7.487  17.335  1.00  0.00     0.023 C 
HETATM    7  C13 UNL     1      10.312  -9.406  17.977  1.00  0.00     0.023 C 
ENDROOT
BRANCH   1   8
HETATM    8  C4  UNL     1      11.285  -7.480  20.212  1.00  0.00     0.253 C 
HETATM    9  N1  UNL     1      12.667  -7.354  19.888  1.00  0.00    -0.351 N 
ATOM     10  H1  UNL     1      12.918  -7.077  18.939  1.00  0.00     0.162 HD
HETATM   11  O2  UNL     1      11.034  -7.826  21.396  1.00  0.00    -0.270 OA
BRANCH   9  12
HETATM   12  C3  UNL     1      13.724  -7.598  20.826  1.00  0.00     0.200 C 
BRANCH  12  13
HETATM   13  C2  UNL     1      15.001  -7.906  20.129  1.00  0.00     0.140 C 
HETATM   14  C1  UNL     1      15.773  -9.125  20.473  1.00  0.00     0.092 C 
HETATM   15  O1  UNL     1      15.466  -7.183  19.257  1.00  0.00    -0.297 OA
ENDBRANCH  12  13
ENDBRANCH   9  12
ENDBRANCH   1   8
BRANCH   1  16
HETATM   16  O3  UNL     1      10.243  -5.841  18.916  1.00  0.00    -0.379 OA
ATOM     17  H3  UNL     1      10.144  -5.727  17.978  1.00  0.00     0.211 HD
ENDBRANCH   1  16
BRANCH   4  18
HETATM   18  O4  UNL     1       9.468  -6.161  16.566  1.00  0.00    -0.370 OA
ATOM     19  H4  UNL     1      10.230  -6.229  16.003  1.00  0.00     0.212 HD
ENDBRANCH   4  18
BRANCH   4  20
HETATM   20  N2  UNL     1       8.669  -8.271  16.184  1.00  0.00    -0.329 N 
HETATM   21  C9  UNL     1       9.143  -8.475  14.875  1.00  0.00     0.215 C 
HETATM   22  C10 UNL     1       8.482  -9.421  13.959  1.00  0.00     0.117 C 
HETATM   23  O5  UNL     1      10.144  -7.847  14.472  1.00  0.00    -0.274 OA
ATOM     24  H2  UNL     1       7.846  -8.808  16.460  1.00  0.00     0.165 HD
ENDBRANCH   4  20
TORSDOF 6
ENDMDL
MODEL 3
REMARK VINA RESULT: -5.296189237      1.617      5.771
REMARK  6 active torsions:
REMARK  status: ('A' for Active; 'I' for Inactive)
REMARK    1  A    between atoms: C2_2  and  C3_4 
REMARK    2  A    between atoms: C3_4  and  N1_5 
REMARK       I    between atoms: N1_5  and  C4_7 
REMARK    3  A    between atoms: C4_7  and  C5_9 
REMARK    4  A    between atoms: C5_9  and  O3_10 
REMARK    5  A    between atoms: C8_14  and  O4_15 
REMARK    6  A    between atoms: C8_14  and  N2_17 
REMARK       I    between atoms: N2_17  and  C9_19 
ROOT
HETATM    1  C5  UNL     1       9.973  -6.964  18.449  1.00  0.00     0.149 C 
HETATM    2  C6  UNL     1       8.639  -7.333  18.997  1.00  0.00     0.053 C 
HETATM    3  C7  UNL     1       7.869  -7.511  17.701  1.00  0.00     0.065 C 
HETATM    4  C8  UNL     1       8.904  -7.962  16.653  1.00  0.00     0.144 C 
HETATM    5  C11 UNL     1      10.194  -8.073  17.440  1.00  0.00     0.043 C 
HETATM    6  C12 UNL     1      11.431  -7.737  16.685  1.00  0.00     0.023 C 
HETATM    7  C13 UNL     1      10.245  -9.434  18.050  1.00  0.00     0.023 C 
ENDROOT
BRANCH   1   8
HETATM    8  C4  UNL     1      11.042  -6.751  19.397  1.00  0.00     0.253 C 
HETATM    9  N1  UNL     1      11.541  -7.821  20.195  1.00  0.00    -0.351 N 
ATOM     10  H1  UNL     1      11.124  -8.745  20.080  1.00  0.00     0.162 HD
HETATM   11  O2  UNL     1      11.593  -5.633  19.582  1.00  0.00    -0.270 OA
BRANCH   9  12
HETATM   12  C3  UNL     1      12.599  -7.669  21.151  1.00  0.00     0.200 C 
BRANCH  12  13
HETATM   13  C2  UNL     1      13.883  -8.202  20.623  1.00  0.00     0.140 C 
HETATM   14  C1  UNL     1      14.683  -7.417  19.652  1.00  0.00     0.092 C 
HETATM   15  O1  UNL     1      14.331  -9.291  20.959  1.00  0.00    -0.297 OA
ENDBRANCH  12  13
ENDBRANCH   9  12
ENDBRANCH   1   8
BRANCH   1  16
HETATM   16  O3  UNL     1       9.787  -5.794  17.677  1.00  0.00    -0.379 OA
ATOM     17  H3  UNL     1      10.317  -5.846  16.890  1.00  0.00     0.211 HD
ENDBRANCH   1  16
BRANCH   4  18
HETATM   18  O4  UNL     1       8.998  -7.007  15.644  1.00  0.00    -0.370 OA
ATOM     19  H4  UNL     1       8.933  -6.136  16.020  1.00  0.00     0.212 HD
ENDBRANCH   4  18
BRANCH   4  20
HETATM   20  N2  UNL     1       8.439  -9.182  16.081  1.00  0.00    -0.329 N 
HETATM   21  C9  UNL     1       8.727  -9.675  14.794  1.00  0.00     0.215 C 
HETATM   22  C10 UNL     1       8.181 -10.961  14.326  1.00  0.00     0.117 C 
HETATM   23  O5  UNL     1       9.459  -9.017  14.026  1.00  0.00    -0.274 OA
ATOM     24  H2  UNL     1       7.833  -9.759  16.665  1.00  0.00     0.165 HD
ENDBRANCH   4  20
TORSDOF 6
ENDMDL
MODEL 4
REMARK VINA RESULT: -4.859348024      5.488      9.442
REMARK  6 active torsions:
REMARK  status: ('A' for Active; 'I' for Inactive)
REMARK    1  A    between atoms: C2_2  and  C3_4 
REMARK    2  A    between atoms: C3_4  and  N1_5 
REMARK       I    between atoms: N1_5  and  C4_7 
REMARK    3  A    between atoms: C4_7  and  C5_9 
REMARK    4  A    between atoms: C5_9  and  O3_10 
REMARK    5  A    between atoms: C8_14  and  O4_15 
REMARK    6  A    between atoms: C8_14  and  N2_17 
REMARK       I    between atoms: N2_17  and  C9_19 
ROOT
HETATM    1  C5  UNL     1       6.606 -12.433  12.473  1.00  0.00     0.149 C 
HETATM    2  C6  UNL     1       5.336 -12.661  11.730  1.00  0.00     0.053 C 
HETATM    3  C7  UNL     1       5.238 -14.171  11.845  1.00  0.00     0.065 C 
HETATM    4  C8  UNL     1       5.941 -14.540  13.165  1.00  0.00     0.144 C 
HETATM    5  C11 UNL     1       6.342 -13.203  13.752  1.00  0.00     0.043 C 
HETATM    6  C12 UNL     1       7.608 -13.203  14.532  1.00  0.00     0.023 C 
HETATM    7  C13 UNL     1       5.185 -12.679  14.535  1.00  0.00     0.023 C 
ENDROOT
BRANCH   1   8
HETATM    8  C4  UNL     1       7.041 -11.065  12.637  1.00  0.00     0.253 C 
HETATM    9  N1  UNL     1       8.326 -10.762  13.175  1.00  0.00    -0.351 N 
ATOM     10  H1  UNL     1       8.933 -11.537  13.442  1.00  0.00     0.162 HD
HETATM   11  O2  UNL     1       6.335 -10.070  12.325  1.00  0.00    -0.270 OA
BRANCH   9  12
HETATM   12  C3  UNL     1       8.810  -9.425  13.361  1.00  0.00     0.200 C 
BRANCH  12  13
HETATM   13  C2  UNL     1       9.161  -9.172  14.783  1.00  0.00     0.140 C 
HETATM   14  C1  UNL     1      10.494  -8.633  15.147  1.00  0.00     0.092 C 
HETATM   15  O1  UNL     1       8.383  -9.392  15.702  1.00  0.00    -0.297 OA
ENDBRANCH  12  13
ENDBRANCH   9  12
ENDBRANCH   1   8
BRANCH   1  16
HETATM   16  O3  UNL     1       7.609 -13.169  11.800  1.00  0.00    -0.379 OA
ATOM     17  H3  UNL     1       7.203 -13.779  11.195  1.00  0.00     0.211 HD
ENDBRANCH   1  16
BRANCH   4  18
HETATM   18  O4  UNL     1       7.051 -15.339  12.899  1.00  0.00    -0.370 OA
ATOM     19  H4  UNL     1       7.227 -15.902  13.644  1.00  0.00     0.212 HD
ENDBRANCH   4  18
BRANCH   4  20
HETATM   20  N2  UNL     1       5.020 -15.293  13.952  1.00  0.00    -0.329 N 
HETATM   21  C9  UNL     1       5.330 -16.157  15.019  1.00  0.00     0.215 C 
HETATM   22  C10 UNL     1       4.274 -16.875  15.754  1.00  0.00     0.117 C 
HETATM   23  O5  UNL     1       6.519 -16.325  15.357  1.00  0.00    -0.274 OA
ATOM     24  H2  UNL     1       4.032 -15.195  13.716  1.00  0.00     0.165 HD
ENDBRANCH   4  20
TORSDOF 6
ENDMDL
MODEL 5
REMARK VINA RESULT: -4.852077795      8.282     10.483
REMARK  6 active torsions:
REMARK  status: ('A' for Active; 'I' for Inactive)
REMARK    1  A    between atoms: C2_2  and  C3_4 
REMARK    2  A    between atoms: C3_4  and  N1_5 
REMARK       I    between atoms: N1_5  and  C4_7 
REMARK    3  A    between atoms: C4_7  and  C5_9 
REMARK    4  A    between atoms: C5_9  and  O3_10 
REMARK    5  A    between atoms: C8_14  and  O4_15 
REMARK    6  A    between atoms: C8_14  and  N2_17 
REMARK       I    between atoms: N2_17  and  C9_19 
ROOT
HETATM    1  C5  UNL     1       6.951 -13.681  13.596  1.00  0.00     0.149 C 
HETATM    2  C6  UNL     1       7.653 -12.484  14.133  1.00  0.00     0.053 C 
HETATM    3  C7  UNL     1       7.527 -11.554  12.940  1.00  0.00     0.065 C 
HETATM    4  C8  UNL     1       6.226 -11.963  12.223  1.00  0.00     0.144 C 
HETATM    5  C11 UNL     1       5.660 -13.065  13.094  1.00  0.00     0.043 C 
HETATM    6  C12 UNL     1       4.918 -14.132  12.369  1.00  0.00     0.023 C 
HETATM    7  C13 UNL     1       4.845 -12.428  14.169  1.00  0.00     0.023 C 
ENDROOT
BRANCH   1   8
HETATM    8  C4  UNL     1       6.808 -14.816  14.478  1.00  0.00     0.253 C 
HETATM    9  N1  UNL     1       6.409 -14.646  15.836  1.00  0.00    -0.351 N 
ATOM     10  H1  UNL     1       6.227 -13.700  16.171  1.00  0.00     0.162 HD
HETATM   11  O2  UNL     1       7.019 -16.005  14.120  1.00  0.00    -0.270 OA
BRANCH   9  12
HETATM   12  C3  UNL     1       6.251 -15.734  16.757  1.00  0.00     0.200 C 
BRANCH  12  13
HETATM   13  C2  UNL     1       4.874 -15.770  17.315  1.00  0.00     0.140 C 
HETATM   14  C1  UNL     1       3.694 -15.672  16.422  1.00  0.00     0.092 C 
HETATM   15  O1  UNL     1       4.652 -15.881  18.514  1.00  0.00    -0.297 OA
ENDBRANCH  12  13
ENDBRANCH   9  12
ENDBRANCH   1   8
BRANCH   1  16
HETATM   16  O3  UNL     1       7.649 -14.075  12.431  1.00  0.00    -0.379 OA
ATOM     17  H3  UNL     1       7.075 -14.590  11.876  1.00  0.00     0.211 HD
ENDBRANCH   1  16
BRANCH   4  18
HETATM   18  O4  UNL     1       6.521 -12.421  10.940  1.00  0.00    -0.370 OA
ATOM     19  H4  UNL     1       6.674 -13.359  10.963  1.00  0.00     0.212 HD
ENDBRANCH   4  18
BRANCH   4  20
HETATM   20  N2  UNL     1       5.408 -10.801  12.111  1.00  0.00    -0.329 N 
HETATM   21  C9  UNL     1       4.353 -10.595  11.202  1.00  0.00     0.215 C 
HETATM   22  C10 UNL     1       3.581  -9.340  11.197  1.00  0.00     0.117 C 
HETATM   23  O5  UNL     1       4.058 -11.486  10.380  1.00  0.00    -0.274 OA
ATOM     24  H2  UNL     1       5.608 -10.038  12.758  1.00  0.00     0.165 HD
ENDBRANCH   4  20
TORSDOF 6
ENDMDL
