MODEL 1
REMARK VINA RESULT: -6.860458439      0.000      0.000
REMARK  6 active torsions:
REMARK  status: ('A' for Active; 'I' for Inactive)
REMARK    1  A    between atoms: C2_2  and  C3_3 
REMARK       I    between atoms: C3_3  and  N1_5 
REMARK    2  A    between atoms: N1_5  and  N2_7 
REMARK       I    between atoms: N2_7  and  C4_9 
REMARK    3  A    between atoms: C4_9  and  C5_11 
REMARK    4  A    between atoms: C8_14  and  N3_15 
REMARK       I    between atoms: N3_15  and  C9_17 
REMARK    5  A    between atoms: C9_17  and  C10_19 
REMARK    6  A    between atoms: C10_19  and  O5_21 
ROOT
HETATM    1  C5  UNL     1      14.306  44.108 -38.392  1.00  0.00     0.033 A 
HETATM    2  C6  UNL     1      14.441  44.338 -37.027  1.00  0.00     0.019 A 
HETATM    3  C7  UNL     1      13.396  44.828 -36.248  1.00  0.00     0.030 A 
HETATM    4  C8  UNL     1      12.171  45.113 -36.779  1.00  0.00     0.035 A 
HETATM    5  C12 UNL     1      12.049  44.877 -38.156  1.00  0.00     0.030 A 
HETATM    6  C13 UNL     1      13.076  44.392 -38.932  1.00  0.00     0.019 A 
ENDROOT
BRANCH   1   7
HETATM    7  C4  UNL     1      15.431  43.595 -39.165  1.00  0.00     0.270 C 
HETATM    8  N2  UNL     1      16.689  44.199 -39.058  1.00  0.00    -0.263 N 
ATOM      9  H2  UNL     1      16.816  45.000 -38.440  1.00  0.00     0.190 HD
HETATM   10  O2  UNL     1      15.280  42.612 -39.927  1.00  0.00    -0.266 OA
BRANCH   8  11
HETATM   11  N1  UNL     1      17.772  43.712 -39.793  1.00  0.00    -0.264 N 
HETATM   12  C3  UNL     1      18.987  44.415 -39.774  1.00  0.00     0.258 C 
HETATM   13  O1  UNL     1      19.059  45.476 -39.083  1.00  0.00    -0.267 OA
ATOM     14  H1  UNL     1      17.681  42.855 -40.337  1.00  0.00     0.190 HD
BRANCH  12  15
HETATM   15  C2  UNL     1      20.131  43.926 -40.534  1.00  0.00     0.065 C 
HETATM   16  C1  UNL     1      20.023  43.822 -41.830  1.00  0.00     0.017 C 
ENDBRANCH  12  15
ENDBRANCH   8  11
ENDBRANCH   1   7
BRANCH   4  17
HETATM   17  N3  UNL     1      11.057  45.626 -36.081  1.00  0.00    -0.319 N 
HETATM   18  C9  UNL     1      10.959  46.836 -35.402  1.00  0.00     0.321 C 
HETATM   19  O3  UNL     1      11.888  47.651 -35.327  1.00  0.00    -0.261 OA
ATOM     20  H3  UNL     1      10.222  45.040 -36.074  1.00  0.00     0.169 HD
BRANCH  18  21
HETATM   21  C10 UNL     1       9.717  47.194 -34.736  1.00  0.00     0.351 C 
HETATM   22  O4  UNL     1       9.102  46.332 -34.021  1.00  0.00    -0.254 OA
BRANCH  21  23
HETATM   23  O5  UNL     1       9.163  48.455 -34.845  1.00  0.00    -0.319 OA
HETATM   24  C11 UNL     1       8.704  48.900 -36.114  1.00  0.00     0.213 C 
ENDBRANCH  21  23
ENDBRANCH  18  21
ENDBRANCH   4  17
TORSDOF 6
ENDMDL
MODEL 2
REMARK VINA RESULT: -6.730295499      0.962      1.466
REMARK  6 active torsions:
REMARK  status: ('A' for Active; 'I' for Inactive)
REMARK    1  A    between atoms: C2_2  and  C3_3 
REMARK       I    between atoms: C3_3  and  N1_5 
REMARK    2  A    between atoms: N1_5  and  N2_7 
REMARK       I    between atoms: N2_7  and  C4_9 
REMARK    3  A    between atoms: C4_9  and  C5_11 
REMARK    4  A    between atoms: C8_14  and  N3_15 
REMARK       I    between atoms: N3_15  and  C9_17 
REMARK    5  A    between atoms: C9_17  and  C10_19 
REMARK    6  A    between atoms: C10_19  and  O5_21 
ROOT
HETATM    1  C5  UNL     1      14.381  44.167 -38.361  1.00  0.00     0.033 A 
HETATM    2  C6  UNL     1      13.092  44.335 -38.858  1.00  0.00     0.019 A 
HETATM    3  C7  UNL     1      12.087  44.957 -38.123  1.00  0.00     0.030 A 
HETATM    4  C8  UNL     1      12.305  45.441 -36.864  1.00  0.00     0.035 A 
HETATM    5  C12 UNL     1      13.607  45.264 -36.375  1.00  0.00     0.030 A 
HETATM    6  C13 UNL     1      14.607  44.652 -37.096  1.00  0.00     0.019 A 
ENDROOT
BRANCH   1   7
HETATM    7  C4  UNL     1      15.399  43.509 -39.169  1.00  0.00     0.270 C 
HETATM    8  N2  UNL     1      16.703  44.015 -39.205  1.00  0.00    -0.263 N 
ATOM      9  H2  UNL     1      16.938  44.847 -38.664  1.00  0.00     0.190 HD
HETATM   10  O2  UNL     1      15.115  42.487 -39.837  1.00  0.00    -0.266 OA
BRANCH   8  11
HETATM   11  N1  UNL     1      17.685  43.389 -39.975  1.00  0.00    -0.264 N 
HETATM   12  C3  UNL     1      18.923  44.024 -40.160  1.00  0.00     0.258 C 
HETATM   13  O1  UNL     1      19.108  45.154 -39.615  1.00  0.00    -0.267 OA
ATOM     14  H1  UNL     1      17.504  42.479 -40.399  1.00  0.00     0.190 HD
BRANCH  12  15
HETATM   15  C2  UNL     1      19.962  43.389 -40.961  1.00  0.00     0.065 C 
HETATM   16  C1  UNL     1      20.001  43.632 -42.243  1.00  0.00     0.017 C 
ENDBRANCH  12  15
ENDBRANCH   8  11
ENDBRANCH   1   7
BRANCH   4  17
HETATM   17  N3  UNL     1      11.352  46.069 -36.034  1.00  0.00    -0.319 N 
HETATM   18  C9  UNL     1      10.803  45.588 -34.850  1.00  0.00     0.321 C 
HETATM   19  O3  UNL     1      11.104  44.493 -34.357  1.00  0.00    -0.261 OA
ATOM     20  H3  UNL     1      11.026  46.986 -36.338  1.00  0.00     0.169 HD
BRANCH  18  21
HETATM   21  C10 UNL     1       9.825  46.386 -34.128  1.00  0.00     0.351 C 
HETATM   22  O4  UNL     1       9.473  46.054 -32.947  1.00  0.00    -0.254 OA
BRANCH  21  23
HETATM   23  O5  UNL     1       9.250  47.515 -34.680  1.00  0.00    -0.319 OA
HETATM   24  C11 UNL     1       9.750  48.794 -34.314  1.00  0.00     0.213 C 
ENDBRANCH  21  23
ENDBRANCH  18  21
ENDBRANCH   4  17
TORSDOF 6
ENDMDL
MODEL 3
REMARK VINA RESULT: -6.715222955      1.853      2.249
REMARK  6 active torsions:
REMARK  status: ('A' for Active; 'I' for Inactive)
REMARK    1  A    between atoms: C2_2  and  C3_3 
REMARK       I    between atoms: C3_3  and  N1_5 
REMARK    2  A    between atoms: N1_5  and  N2_7 
REMARK       I    between atoms: N2_7  and  C4_9 
REMARK    3  A    between atoms: C4_9  and  C5_11 
REMARK    4  A    between atoms: C8_14  and  N3_15 
REMARK       I    between atoms: N3_15  and  C9_17 
REMARK    5  A    between atoms: C9_17  and  C10_19 
REMARK    6  A    between atoms: C10_19  and  O5_21 
ROOT
HETATM    1  C5  UNL     1      14.396  44.082 -38.325  1.00  0.00     0.033 A 
HETATM    2  C6  UNL     1      13.116  44.253 -38.844  1.00  0.00     0.019 A 
HETATM    3  C7  UNL     1      12.105  44.896 -38.135  1.00  0.00     0.030 A 
HETATM    4  C8  UNL     1      12.309  45.400 -36.882  1.00  0.00     0.035 A 
HETATM    5  C12 UNL     1      13.603  45.221 -36.372  1.00  0.00     0.030 A 
HETATM    6  C13 UNL     1      14.607  44.588 -37.066  1.00  0.00     0.019 A 
ENDROOT
BRANCH   1   7
HETATM    7  C4  UNL     1      15.420  43.401 -39.108  1.00  0.00     0.270 C 
HETATM    8  N2  UNL     1      16.763  43.477 -38.723  1.00  0.00    -0.263 N 
ATOM      9  H2  UNL     1      17.023  44.011 -37.894  1.00  0.00     0.190 HD
HETATM   10  O2  UNL     1      15.106  42.744 -40.127  1.00  0.00    -0.266 OA
BRANCH   8  11
HETATM   11  N1  UNL     1      17.750  42.825 -39.465  1.00  0.00    -0.264 N 
HETATM   12  C3  UNL     1      18.296  41.626 -38.980  1.00  0.00     0.258 C 
HETATM   13  O1  UNL     1      17.869  41.174 -37.875  1.00  0.00    -0.267 OA
ATOM     14  H1  UNL     1      18.070  43.216 -40.351  1.00  0.00     0.190 HD
BRANCH  12  15
HETATM   15  C2  UNL     1      19.328  40.929 -39.738  1.00  0.00     0.065 C 
HETATM   16  C1  UNL     1      19.225  39.638 -39.895  1.00  0.00     0.017 C 
ENDBRANCH  12  15
ENDBRANCH   8  11
ENDBRANCH   1   7
BRANCH   4  17
HETATM   17  N3  UNL     1      11.350  46.051 -36.077  1.00  0.00    -0.319 N 
HETATM   18  C9  UNL     1      10.807  45.612 -34.874  1.00  0.00     0.321 C 
HETATM   19  O3  UNL     1      11.120  44.541 -34.337  1.00  0.00    -0.261 OA
ATOM     20  H3  UNL     1      11.014  46.951 -36.418  1.00  0.00     0.169 HD
BRANCH  18  21
HETATM   21  C10 UNL     1       9.820  46.428 -34.185  1.00  0.00     0.351 C 
HETATM   22  O4  UNL     1       9.455  46.127 -32.999  1.00  0.00    -0.254 OA
BRANCH  21  23
HETATM   23  O5  UNL     1       9.251  47.542 -34.772  1.00  0.00    -0.319 OA
HETATM   24  C11 UNL     1       9.747  48.830 -34.435  1.00  0.00     0.213 C 
ENDBRANCH  21  23
ENDBRANCH  18  21
ENDBRANCH   4  17
TORSDOF 6
ENDMDL
MODEL 4
REMARK VINA RESULT: -6.645071917      1.795      1.940
REMARK  6 active torsions:
REMARK  status: ('A' for Active; 'I' for Inactive)
REMARK    1  A    between atoms: C2_2  and  C3_3 
REMARK       I    between atoms: C3_3  and  N1_5 
REMARK    2  A    between atoms: N1_5  and  N2_7 
REMARK       I    between atoms: N2_7  and  C4_9 
REMARK    3  A    between atoms: C4_9  and  C5_11 
REMARK    4  A    between atoms: C8_14  and  N3_15 
REMARK       I    between atoms: N3_15  and  C9_17 
REMARK    5  A    between atoms: C9_17  and  C10_19 
REMARK    6  A    between atoms: C10_19  and  O5_21 
ROOT
HETATM    1  C5  UNL     1      14.433  44.030 -38.420  1.00  0.00     0.033 A 
HETATM    2  C6  UNL     1      14.642  44.417 -37.100  1.00  0.00     0.019 A 
HETATM    3  C7  UNL     1      13.663  45.064 -36.351  1.00  0.00     0.030 A 
HETATM    4  C8  UNL     1      12.434  45.360 -36.868  1.00  0.00     0.035 A 
HETATM    5  C12 UNL     1      12.237  44.965 -38.199  1.00  0.00     0.030 A 
HETATM    6  C13 UNL     1      13.198  44.324 -38.946  1.00  0.00     0.019 A 
ENDROOT
BRANCH   1   7
HETATM    7  C4  UNL     1      15.490  43.355 -39.163  1.00  0.00     0.270 C 
HETATM    8  N2  UNL     1      16.828  43.521 -38.786  1.00  0.00    -0.263 N 
ATOM      9  H2  UNL     1      17.060  44.116 -37.992  1.00  0.00     0.190 HD
HETATM   10  O2  UNL     1      15.210  42.624 -40.141  1.00  0.00    -0.266 OA
BRANCH   8  11
HETATM   11  N1  UNL     1      17.846  42.876 -39.491  1.00  0.00    -0.264 N 
HETATM   12  C3  UNL     1      18.394  41.690 -38.977  1.00  0.00     0.258 C 
HETATM   13  O1  UNL     1      17.940  41.242 -37.881  1.00  0.00    -0.267 OA
ATOM     14  H1  UNL     1      18.188  43.263 -40.371  1.00  0.00     0.190 HD
BRANCH  12  15
HETATM   15  C2  UNL     1      19.458  41.001 -39.695  1.00  0.00     0.065 C 
HETATM   16  C1  UNL     1      19.261  39.768 -40.076  1.00  0.00     0.017 C 
ENDBRANCH  12  15
ENDBRANCH   8  11
ENDBRANCH   1   7
BRANCH   4  17
HETATM   17  N3  UNL     1      11.384  46.025 -36.199  1.00  0.00    -0.319 N 
HETATM   18  C9  UNL     1      10.763  45.659 -35.010  1.00  0.00     0.321 C 
HETATM   19  O3  UNL     1      11.076  44.653 -34.361  1.00  0.00    -0.261 OA
ATOM     20  H3  UNL     1      11.039  46.877 -36.641  1.00  0.00     0.169 HD
BRANCH  18  21
HETATM   21  C10 UNL     1       9.688  46.478 -34.473  1.00  0.00     0.351 C 
HETATM   22  O4  UNL     1       9.010  46.069 -33.471  1.00  0.00    -0.254 OA
BRANCH  21  23
HETATM   23  O5  UNL     1       9.364  47.708 -35.013  1.00  0.00    -0.319 OA
HETATM   24  C11 UNL     1       9.787  48.888 -34.344  1.00  0.00     0.213 C 
ENDBRANCH  21  23
ENDBRANCH  18  21
ENDBRANCH   4  17
TORSDOF 6
ENDMDL
MODEL 5
REMARK VINA RESULT: -6.578312497      0.628      1.659
REMARK  6 active torsions:
REMARK  status: ('A' for Active; 'I' for Inactive)
REMARK    1  A    between atoms: C2_2  and  C3_3 
REMARK       I    between atoms: C3_3  and  N1_5 
REMARK    2  A    between atoms: N1_5  and  N2_7 
REMARK       I    between atoms: N2_7  and  C4_9 
REMARK    3  A    between atoms: C4_9  and  C5_11 
REMARK    4  A    between atoms: C8_14  and  N3_15 
REMARK       I    between atoms: N3_15  and  C9_17 
REMARK    5  A    between atoms: C9_17  and  C10_19 
REMARK    6  A    between atoms: C10_19  and  O5_21 
ROOT
HETATM    1  C5  UNL     1      14.399  44.108 -38.355  1.00  0.00     0.033 A 
HETATM    2  C6  UNL     1      13.164  44.354 -38.948  1.00  0.00     0.019 A 
HETATM    3  C7  UNL     1      12.074  44.830 -38.225  1.00  0.00     0.030 A 
HETATM    4  C8  UNL     1      12.150  45.085 -36.886  1.00  0.00     0.035 A 
HETATM    5  C12 UNL     1      13.400  44.832 -36.301  1.00  0.00     0.030 A 
HETATM    6  C13 UNL     1      14.482  44.363 -37.008  1.00  0.00     0.019 A 
ENDROOT
BRANCH   1   7
HETATM    7  C4  UNL     1      15.510  43.608 -39.156  1.00  0.00     0.270 C 
HETATM    8  N2  UNL     1      16.769  44.213 -39.064  1.00  0.00    -0.263 N 
ATOM      9  H2  UNL     1      16.905  45.005 -38.436  1.00  0.00     0.190 HD
HETATM   10  O2  UNL     1      15.347  42.636 -39.929  1.00  0.00    -0.266 OA
BRANCH   8  11
HETATM   11  N1  UNL     1      17.839  43.739 -39.825  1.00  0.00    -0.264 N 
HETATM   12  C3  UNL     1      19.057  44.437 -39.808  1.00  0.00     0.258 C 
HETATM   13  O1  UNL     1      19.143  45.482 -39.094  1.00  0.00    -0.267 OA
ATOM     14  H1  UNL     1      17.737  42.895 -40.388  1.00  0.00     0.190 HD
BRANCH  12  15
HETATM   15  C2  UNL     1      20.187  43.961 -40.596  1.00  0.00     0.065 C 
HETATM   16  C1  UNL     1      19.974  43.559 -41.819  1.00  0.00     0.017 C 
ENDBRANCH  12  15
ENDBRANCH   8  11
ENDBRANCH   1   7
BRANCH   4  17
HETATM   17  N3  UNL     1      11.102  45.551 -36.062  1.00  0.00    -0.319 N 
HETATM   18  C9  UNL     1      11.039  46.749 -35.359  1.00  0.00     0.321 C 
HETATM   19  O3  UNL     1      11.942  47.596 -35.375  1.00  0.00    -0.261 OA
ATOM     20  H3  UNL     1      10.294  44.935 -35.972  1.00  0.00     0.169 HD
BRANCH  18  21
HETATM   21  C10 UNL     1       9.866  47.056 -34.556  1.00  0.00     0.351 C 
HETATM   22  O4  UNL     1       9.069  47.988 -34.915  1.00  0.00    -0.254 OA
BRANCH  21  23
HETATM   23  O5  UNL     1       9.569  46.364 -33.398  1.00  0.00    -0.319 OA
HETATM   24  C11 UNL     1      10.626  45.759 -32.665  1.00  0.00     0.213 C 
ENDBRANCH  21  23
ENDBRANCH  18  21
ENDBRANCH   4  17
TORSDOF 6
ENDMDL
