MODEL 1
REMARK VINA RESULT: -8.404388852      0.000      0.000
REMARK  9 active torsions:
REMARK  status: ('A' for Active; 'I' for Inactive)
REMARK    1  A    between atoms: C2_2  and  O1_4 
REMARK    2  A    between atoms: C2_2  and  C4_6 
REMARK    3  A    between atoms: C4_6  and  C5_8 
REMARK       I    between atoms: C5_8  and  N1_10 
REMARK    4  A    between atoms: N1_10  and  C6_12 
REMARK    5  A    between atoms: C6_12  and  C7_13 
REMARK    6  A    between atoms: C6_12  and  C15_21 
REMARK    7  A    between atoms: C8_14  and  C9_15 
REMARK    8  A    between atoms: C15_21  and  O4_22 
REMARK    9  A    between atoms: C15_21  and  O5_24 
ROOT
HETATM    1  C6  UNL     1      11.433  46.159 -34.949  1.00  0.00     0.219 C 
ENDROOT
BRANCH   1   2
HETATM    2  N1  UNL     1      11.013  47.436 -35.474  1.00  0.00    -0.335 N 
HETATM    3  C5  UNL     1      10.235  48.368 -34.752  1.00  0.00     0.291 C 
HETATM    4  O3  UNL     1       9.850  48.116 -33.552  1.00  0.00    -0.264 OA
ATOM      5  H1  UNL     1      11.295  47.680 -36.424  1.00  0.00     0.164 HD
BRANCH   3   6
HETATM    6  C4  UNL     1       9.873  49.624 -35.386  1.00  0.00     0.249 C 
HETATM    7  O2  UNL     1      10.467  50.666 -35.029  1.00  0.00    -0.284 OA
BRANCH   6   8
HETATM    8  C2  UNL     1       8.811  49.675 -36.448  1.00  0.00     0.120 C 
HETATM    9  C1  UNL     1       8.848  48.356 -37.209  1.00  0.00     0.054 C 
HETATM   10  C3  UNL     1       9.027  50.847 -37.373  1.00  0.00     0.054 C 
BRANCH   8  11
HETATM   11  O1  UNL     1       7.553  49.783 -35.888  1.00  0.00    -0.382 OA
ATOM     12  H1  UNL     1       6.950  49.986 -36.594  1.00  0.00     0.211 HD
ENDBRANCH   8  11
ENDBRANCH   6   8
ENDBRANCH   3   6
ENDBRANCH   1   2
BRANCH   1  13
HETATM   13  C7  UNL     1      12.408  45.562 -35.886  1.00  0.00    -0.070 C 
HETATM   14  C8  UNL     1      13.200  45.091 -36.665  1.00  0.00    -0.065 C 
BRANCH  14  15
HETATM   15  C9  UNL     1      14.141  44.552 -37.606  1.00  0.00     0.017 A 
HETATM   16  C10 UNL     1      15.492  44.746 -37.408  1.00  0.00     0.020 A 
HETATM   17  C11 UNL     1      16.448  44.253 -38.275  1.00  0.00     0.001 A 
HETATM   18  C12 UNL     1      16.028  43.537 -39.383  1.00  0.00     0.000 A 
HETATM   19  C13 UNL     1      14.691  43.323 -39.615  1.00  0.00     0.001 A 
HETATM   20  C14 UNL     1      13.766  43.834 -38.722  1.00  0.00     0.020 A 
ENDBRANCH  14  15
ENDBRANCH   1  13
BRANCH   1  21
HETATM   21  C15 UNL     1      10.270  45.221 -34.731  1.00  0.00     0.288 C 
BRANCH  21  22
HETATM   22  O4  UNL     1      10.621  43.899 -35.006  1.00  0.00    -0.368 OA
ATOM     23  H4  UNL     1      10.884  43.438 -34.218  1.00  0.00     0.212 HD
ENDBRANCH  21  22
BRANCH  21  24
HETATM   24  O5  UNL     1       9.869  45.332 -33.404  1.00  0.00    -0.368 OA
ATOM     25  H5  UNL     1       8.987  44.987 -33.333  1.00  0.00     0.212 HD
ENDBRANCH  21  24
ENDBRANCH   1  21
TORSDOF 9
ENDMDL
MODEL 2
REMARK VINA RESULT: -8.381938989      0.028      1.037
REMARK  9 active torsions:
REMARK  status: ('A' for Active; 'I' for Inactive)
REMARK    1  A    between atoms: C2_2  and  O1_4 
REMARK    2  A    between atoms: C2_2  and  C4_6 
REMARK    3  A    between atoms: C4_6  and  C5_8 
REMARK       I    between atoms: C5_8  and  N1_10 
REMARK    4  A    between atoms: N1_10  and  C6_12 
REMARK    5  A    between atoms: C6_12  and  C7_13 
REMARK    6  A    between atoms: C6_12  and  C15_21 
REMARK    7  A    between atoms: C8_14  and  C9_15 
REMARK    8  A    between atoms: C15_21  and  O4_22 
REMARK    9  A    between atoms: C15_21  and  O5_24 
ROOT
HETATM    1  C6  UNL     1      11.437  46.162 -34.959  1.00  0.00     0.219 C 
ENDROOT
BRANCH   1   2
HETATM    2  N1  UNL     1      11.012  47.439 -35.481  1.00  0.00    -0.335 N 
HETATM    3  C5  UNL     1      10.233  48.367 -34.755  1.00  0.00     0.291 C 
HETATM    4  O3  UNL     1       9.851  48.111 -33.555  1.00  0.00    -0.264 OA
ATOM      5  H1  UNL     1      11.292  47.685 -36.431  1.00  0.00     0.164 HD
BRANCH   3   6
HETATM    6  C4  UNL     1       9.866  49.623 -35.386  1.00  0.00     0.249 C 
HETATM    7  O2  UNL     1      10.454  50.666 -35.025  1.00  0.00    -0.284 OA
BRANCH   6   8
HETATM    8  C2  UNL     1       8.805  49.672 -36.449  1.00  0.00     0.120 C 
HETATM    9  C1  UNL     1       8.845  48.353 -37.210  1.00  0.00     0.054 C 
HETATM   10  C3  UNL     1       9.019  50.845 -37.374  1.00  0.00     0.054 C 
BRANCH   8  11
HETATM   11  O1  UNL     1       7.546  49.778 -35.890  1.00  0.00    -0.382 OA
ATOM     12  H1  UNL     1       7.021  49.072 -36.250  1.00  0.00     0.211 HD
ENDBRANCH   8  11
ENDBRANCH   6   8
ENDBRANCH   3   6
ENDBRANCH   1   2
BRANCH   1  13
HETATM   13  C7  UNL     1      12.412  45.570 -35.899  1.00  0.00    -0.070 C 
HETATM   14  C8  UNL     1      13.218  45.107 -36.668  1.00  0.00    -0.065 C 
BRANCH  14  15
HETATM   15  C9  UNL     1      14.191  44.577 -37.582  1.00  0.00     0.017 A 
HETATM   16  C10 UNL     1      13.773  43.856 -38.681  1.00  0.00     0.020 A 
HETATM   17  C11 UNL     1      14.657  43.320 -39.597  1.00  0.00     0.001 A 
HETATM   18  C12 UNL     1      16.013  43.516 -39.400  1.00  0.00     0.000 A 
HETATM   19  C13 UNL     1      16.468  44.227 -38.316  1.00  0.00     0.001 A 
HETATM   20  C14 UNL     1      15.550  44.748 -37.423  1.00  0.00     0.020 A 
ENDBRANCH  14  15
ENDBRANCH   1  13
BRANCH   1  21
HETATM   21  C15 UNL     1      10.278  45.220 -34.742  1.00  0.00     0.288 C 
BRANCH  21  22
HETATM   22  O4  UNL     1      10.633  43.899 -35.017  1.00  0.00    -0.368 OA
ATOM     23  H4  UNL     1      10.736  43.393 -34.220  1.00  0.00     0.212 HD
ENDBRANCH  21  22
BRANCH  21  24
HETATM   24  O5  UNL     1       9.877  45.328 -33.414  1.00  0.00    -0.368 OA
ATOM     25  H5  UNL     1       9.068  45.826 -33.391  1.00  0.00     0.212 HD
ENDBRANCH  21  24
ENDBRANCH   1  21
TORSDOF 9
ENDMDL
MODEL 3
REMARK VINA RESULT: -8.279915129      0.821      1.670
REMARK  9 active torsions:
REMARK  status: ('A' for Active; 'I' for Inactive)
REMARK    1  A    between atoms: C2_2  and  O1_4 
REMARK    2  A    between atoms: C2_2  and  C4_6 
REMARK    3  A    between atoms: C4_6  and  C5_8 
REMARK       I    between atoms: C5_8  and  N1_10 
REMARK    4  A    between atoms: N1_10  and  C6_12 
REMARK    5  A    between atoms: C6_12  and  C7_13 
REMARK    6  A    between atoms: C6_12  and  C15_21 
REMARK    7  A    between atoms: C8_14  and  C9_15 
REMARK    8  A    between atoms: C15_21  and  O4_22 
REMARK    9  A    between atoms: C15_21  and  O5_24 
ROOT
HETATM    1  C6  UNL     1      11.353  45.841 -35.248  1.00  0.00     0.219 C 
ENDROOT
BRANCH   1   2
HETATM    2  N1  UNL     1      10.564  46.833 -35.939  1.00  0.00    -0.335 N 
HETATM    3  C5  UNL     1       9.782  47.811 -35.287  1.00  0.00     0.291 C 
HETATM    4  O3  UNL     1       9.732  47.869 -34.004  1.00  0.00    -0.264 OA
ATOM      5  H1  UNL     1      10.573  46.826 -36.959  1.00  0.00     0.164 HD
BRANCH   3   6
HETATM    6  C4  UNL     1       9.029  48.760 -36.090  1.00  0.00     0.249 C 
HETATM    7  O2  UNL     1       8.088  48.332 -36.794  1.00  0.00    -0.284 OA
BRANCH   6   8
HETATM    8  C2  UNL     1       9.370  50.223 -36.078  1.00  0.00     0.120 C 
HETATM    9  C1  UNL     1       9.206  50.752 -37.497  1.00  0.00     0.054 C 
HETATM   10  C3  UNL     1      10.772  50.449 -35.568  1.00  0.00     0.054 C 
BRANCH   8  11
HETATM   11  O1  UNL     1       8.493  50.932 -35.279  1.00  0.00    -0.382 OA
ATOM     12  H1  UNL     1       7.981  50.294 -34.795  1.00  0.00     0.211 HD
ENDBRANCH   8  11
ENDBRANCH   6   8
ENDBRANCH   3   6
ENDBRANCH   1   2
BRANCH   1  13
HETATM   13  C7  UNL     1      12.432  45.386 -36.149  1.00  0.00    -0.070 C 
HETATM   14  C8  UNL     1      13.319  44.998 -36.870  1.00  0.00    -0.065 C 
BRANCH  14  15
HETATM   15  C9  UNL     1      14.376  44.518 -37.715  1.00  0.00     0.017 A 
HETATM   16  C10 UNL     1      14.076  43.714 -38.795  1.00  0.00     0.020 A 
HETATM   17  C11 UNL     1      15.047  43.220 -39.645  1.00  0.00     0.001 A 
HETATM   18  C12 UNL     1      16.369  43.546 -39.399  1.00  0.00     0.000 A 
HETATM   19  C13 UNL     1      16.708  44.343 -38.332  1.00  0.00     0.001 A 
HETATM   20  C14 UNL     1      15.706  44.818 -37.506  1.00  0.00     0.020 A 
ENDBRANCH  14  15
ENDBRANCH   1  13
BRANCH   1  21
HETATM   21  C15 UNL     1      10.520  44.668 -34.790  1.00  0.00     0.288 C 
BRANCH  21  22
HETATM   22  O4  UNL     1      11.317  43.567 -34.473  1.00  0.00    -0.368 OA
ATOM     23  H4  UNL     1      12.070  43.821 -33.953  1.00  0.00     0.212 HD
ENDBRANCH  21  22
BRANCH  21  24
HETATM   24  O5  UNL     1       9.801  45.062 -33.666  1.00  0.00    -0.368 OA
ATOM     25  H5  UNL     1       8.916  44.727 -33.751  1.00  0.00     0.212 HD
ENDBRANCH  21  24
ENDBRANCH   1  21
TORSDOF 9
ENDMDL
MODEL 4
REMARK VINA RESULT: -8.248746953      0.824      1.311
REMARK  9 active torsions:
REMARK  status: ('A' for Active; 'I' for Inactive)
REMARK    1  A    between atoms: C2_2  and  O1_4 
REMARK    2  A    between atoms: C2_2  and  C4_6 
REMARK    3  A    between atoms: C4_6  and  C5_8 
REMARK       I    between atoms: C5_8  and  N1_10 
REMARK    4  A    between atoms: N1_10  and  C6_12 
REMARK    5  A    between atoms: C6_12  and  C7_13 
REMARK    6  A    between atoms: C6_12  and  C15_21 
REMARK    7  A    between atoms: C8_14  and  C9_15 
REMARK    8  A    between atoms: C15_21  and  O4_22 
REMARK    9  A    between atoms: C15_21  and  O5_24 
ROOT
HETATM    1  C6  UNL     1      11.348  45.842 -35.245  1.00  0.00     0.219 C 
ENDROOT
BRANCH   1   2
HETATM    2  N1  UNL     1      10.555  46.834 -35.931  1.00  0.00    -0.335 N 
HETATM    3  C5  UNL     1       9.778  47.813 -35.273  1.00  0.00     0.291 C 
HETATM    4  O3  UNL     1       9.738  47.871 -33.990  1.00  0.00    -0.264 OA
ATOM      5  H1  UNL     1      10.555  46.827 -36.951  1.00  0.00     0.164 HD
BRANCH   3   6
HETATM    6  C4  UNL     1       9.020  48.762 -36.070  1.00  0.00     0.249 C 
HETATM    7  O2  UNL     1       8.059  48.337 -36.750  1.00  0.00    -0.284 OA
BRANCH   6   8
HETATM    8  C2  UNL     1       9.377  50.222 -36.081  1.00  0.00     0.120 C 
HETATM    9  C1  UNL     1       9.225  50.729 -37.509  1.00  0.00     0.054 C 
HETATM   10  C3  UNL     1      10.778  50.440 -35.568  1.00  0.00     0.054 C 
BRANCH   8  11
HETATM   11  O1  UNL     1       8.504  50.952 -35.298  1.00  0.00    -0.382 OA
ATOM     12  H1  UNL     1       8.562  50.603 -34.416  1.00  0.00     0.211 HD
ENDBRANCH   8  11
ENDBRANCH   6   8
ENDBRANCH   3   6
ENDBRANCH   1   2
BRANCH   1  13
HETATM   13  C7  UNL     1      12.413  45.377 -36.159  1.00  0.00    -0.070 C 
HETATM   14  C8  UNL     1      13.286  44.980 -36.892  1.00  0.00    -0.065 C 
BRANCH  14  15
HETATM   15  C9  UNL     1      14.323  44.487 -37.753  1.00  0.00     0.017 A 
HETATM   16  C10 UNL     1      15.638  44.810 -37.493  1.00  0.00     0.020 A 
HETATM   17  C11 UNL     1      16.682  44.367 -38.282  1.00  0.00     0.001 A 
HETATM   18  C12 UNL     1      16.392  43.568 -39.374  1.00  0.00     0.000 A 
HETATM   19  C13 UNL     1      15.095  43.225 -39.667  1.00  0.00     0.001 A 
HETATM   20  C14 UNL     1      14.078  43.689 -38.851  1.00  0.00     0.020 A 
ENDBRANCH  14  15
ENDBRANCH   1  13
BRANCH   1  21
HETATM   21  C15 UNL     1      10.517  44.674 -34.771  1.00  0.00     0.288 C 
BRANCH  21  22
HETATM   22  O4  UNL     1      11.315  43.582 -34.431  1.00  0.00    -0.368 OA
ATOM     23  H4  UNL     1      11.907  43.351 -35.137  1.00  0.00     0.212 HD
ENDBRANCH  21  22
BRANCH  21  24
HETATM   24  O5  UNL     1       9.791  45.086 -33.658  1.00  0.00    -0.368 OA
ATOM     25  H5  UNL     1      10.326  45.699 -33.168  1.00  0.00     0.212 HD
ENDBRANCH  21  24
ENDBRANCH   1  21
TORSDOF 9
ENDMDL
MODEL 5
REMARK VINA RESULT: -7.977122661      1.122      1.192
REMARK  9 active torsions:
REMARK  status: ('A' for Active; 'I' for Inactive)
REMARK    1  A    between atoms: C2_2  and  O1_4 
REMARK    2  A    between atoms: C2_2  and  C4_6 
REMARK    3  A    between atoms: C4_6  and  C5_8 
REMARK       I    between atoms: C5_8  and  N1_10 
REMARK    4  A    between atoms: N1_10  and  C6_12 
REMARK    5  A    between atoms: C6_12  and  C7_13 
REMARK    6  A    between atoms: C6_12  and  C15_21 
REMARK    7  A    between atoms: C8_14  and  C9_15 
REMARK    8  A    between atoms: C15_21  and  O4_22 
REMARK    9  A    between atoms: C15_21  and  O5_24 
ROOT
HETATM    1  C6  UNL     1      11.992  45.423 -35.041  1.00  0.00     0.219 C 
ENDROOT
BRANCH   1   2
HETATM    2  N1  UNL     1      11.666  46.813 -35.251  1.00  0.00    -0.335 N 
HETATM    3  C5  UNL     1      11.304  47.704 -34.216  1.00  0.00     0.291 C 
HETATM    4  O3  UNL     1      11.245  47.306 -32.995  1.00  0.00    -0.264 OA
ATOM      5  H1  UNL     1      11.698  47.174 -36.205  1.00  0.00     0.164 HD
BRANCH   3   6
HETATM    6  C4  UNL     1      10.997  49.084 -34.550  1.00  0.00     0.249 C 
HETATM    7  O2  UNL     1      11.844  49.965 -34.284  1.00  0.00    -0.284 OA
BRANCH   6   8
HETATM    8  C2  UNL     1       9.692  49.449 -35.200  1.00  0.00     0.120 C 
HETATM    9  C1  UNL     1       9.236  48.258 -36.032  1.00  0.00     0.054 C 
HETATM   10  C3  UNL     1       9.838  50.687 -36.049  1.00  0.00     0.054 C 
BRANCH   8  11
HETATM   11  O1  UNL     1       8.712  49.679 -34.253  1.00  0.00    -0.382 OA
ATOM     12  H1  UNL     1       7.889  49.389 -34.628  1.00  0.00     0.211 HD
ENDBRANCH   8  11
ENDBRANCH   6   8
ENDBRANCH   3   6
ENDBRANCH   1   2
BRANCH   1  13
HETATM   13  C7  UNL     1      12.981  45.013 -36.059  1.00  0.00    -0.070 C 
HETATM   14  C8  UNL     1      13.805  44.680 -36.876  1.00  0.00    -0.065 C 
BRANCH  14  15
HETATM   15  C9  UNL     1      14.802  44.283 -37.830  1.00  0.00     0.017 A 
HETATM   16  C10 UNL     1      16.078  44.799 -37.740  1.00  0.00     0.020 A 
HETATM   17  C11 UNL     1      17.081  44.457 -38.626  1.00  0.00     0.001 A 
HETATM   18  C12 UNL     1      16.790  43.561 -39.640  1.00  0.00     0.000 A 
HETATM   19  C13 UNL     1      15.532  43.026 -39.763  1.00  0.00     0.001 A 
HETATM   20  C14 UNL     1      14.555  43.394 -38.855  1.00  0.00     0.020 A 
ENDBRANCH  14  15
ENDBRANCH   1  13
BRANCH   1  21
HETATM   21  C15 UNL     1      10.773  44.535 -35.103  1.00  0.00     0.288 C 
BRANCH  21  22
HETATM   22  O4  UNL     1      11.031  43.274 -34.565  1.00  0.00    -0.368 OA
ATOM     23  H4  UNL     1      10.888  42.587 -35.206  1.00  0.00     0.212 HD
ENDBRANCH  21  22
BRANCH  21  24
HETATM   24  O5  UNL     1       9.754  45.150 -34.383  1.00  0.00    -0.368 OA
ATOM     25  H5  UNL     1       9.417  45.869 -34.905  1.00  0.00     0.212 HD
ENDBRANCH  21  24
ENDBRANCH   1  21
TORSDOF 9
ENDMDL
