MODEL 1
REMARK VINA RESULT: -4.743638167      0.000      0.000
REMARK  10 active torsions:
REMARK  status: ('A' for Active; 'I' for Inactive)
REMARK    1  A    between atoms: C2_2  and  C3_3 
REMARK    2  A    between atoms: C3_3  and  N1_4 
REMARK    3  A    between atoms: C3_3  and  C4_8 
REMARK       I    between atoms: C4_8  and  N2_10 
REMARK    4  A    between atoms: N2_10  and  C5_12 
REMARK    5  A    between atoms: C5_12  and  C7_15 
REMARK    6  A    between atoms: C5_12  and  C12_27 
REMARK       I    between atoms: C7_15  and  N4_17 
REMARK    7  A    between atoms: N4_17  and  C8_19 
REMARK    8  A    between atoms: C8_19  and  C9_20 
REMARK    9  A    between atoms: C8_19  and  C11_24 
REMARK   10  A    between atoms: C9_20  and  C10_21 
ROOT
HETATM    1  C5  UNL     1     -37.208 -40.603  19.782  1.00  0.00     0.210 C 
HETATM    2  C6  UNL     1     -38.605 -40.224  19.327  1.00  0.00     0.102 C 
HETATM    3  N3  UNL     1     -39.667 -39.942  18.961  1.00  0.00    -0.194 NA
ENDROOT
BRANCH   1   4
HETATM    4  N2  UNL     1     -36.319 -39.906  18.861  1.00  0.00    -0.329 N 
HETATM    5  C4  UNL     1     -36.262 -39.947  17.482  1.00  0.00     0.250 C 
HETATM    6  O1  UNL     1     -37.040 -40.633  16.784  1.00  0.00    -0.271 OA
ATOM      7  H2  UNL     1     -35.633 -39.295  19.304  1.00  0.00     0.164 HD
BRANCH   5   8
HETATM    8  C3  UNL     1     -35.249 -39.157  16.700  1.00  0.00     0.274 C 
BRANCH   8   9
HETATM    9  C2  UNL     1     -35.897 -38.119  15.832  1.00  0.00     0.038 C 
HETATM   10  C1  UNL     1     -35.040 -37.739  14.648  1.00  0.00     0.007 C 
ENDBRANCH   8   9
BRANCH   8  11
HETATM   11  N1  UNL     1     -34.306 -38.515  17.557  1.00  0.00    -0.067 N 
ATOM     12  H13 UNL     1     -34.255 -38.952  18.478  1.00  0.00     0.275 HD
ATOM     13  H12 UNL     1     -33.341 -38.681  17.270  1.00  0.00     0.275 HD
ATOM     14  H11 UNL     1     -34.532 -37.522  17.608  1.00  0.00     0.275 HD
ENDBRANCH   8  11
ENDBRANCH   5   8
ENDBRANCH   1   4
BRANCH   1  15
HETATM   15  C7  UNL     1     -37.146 -42.054  19.573  1.00  0.00     0.262 C 
HETATM   16  O2  UNL     1     -36.117 -42.717  19.997  1.00  0.00    -0.269 OA
HETATM   17  N4  UNL     1     -38.116 -42.837  18.933  1.00  0.00    -0.343 N 
ATOM     18  H4  UNL     1     -38.954 -42.387  18.564  1.00  0.00     0.163 HD
BRANCH  17  19
HETATM   19  C8  UNL     1     -37.955 -44.295  18.780  1.00  0.00     0.195 C 
BRANCH  19  20
HETATM   20  C9  UNL     1     -38.578 -44.770  17.511  1.00  0.00     0.149 C 
BRANCH  20  21
HETATM   21  C10 UNL     1     -38.802 -43.746  16.492  1.00  0.00     0.175 C 
HETATM   22  O3  UNL     1     -37.866 -43.595  15.640  1.00  0.00    -0.648 OA
HETATM   23  O4  UNL     1     -39.895 -42.937  16.352  1.00  0.00    -0.648 OA
ENDBRANCH  20  21
ENDBRANCH  19  20
BRANCH  19  24
HETATM   24  C11 UNL     1     -38.702 -44.916  19.904  1.00  0.00     0.197 C 
HETATM   25  O5  UNL     1     -38.238 -45.213  21.009  1.00  0.00    -0.646 OA
HETATM   26  O6  UNL     1     -40.063 -45.179  19.663  1.00  0.00    -0.646 OA
ENDBRANCH  19  24
ENDBRANCH  17  19
ENDBRANCH   1  15
BRANCH   1  27
HETATM   27  C12 UNL     1     -37.137 -40.065  21.157  1.00  0.00    -0.003 C 
HETATM   28  C13 UNL     1     -38.130 -40.660  22.153  1.00  0.00     0.018 C 
HETATM   29  C14 UNL     1     -35.825 -40.063  21.869  1.00  0.00     0.018 C 
HETATM   30  C15 UNL     1     -37.552 -38.559  21.138  1.00  0.00     0.018 C 
ENDBRANCH   1  27
TORSDOF 10
ENDMDL
MODEL 2
REMARK VINA RESULT: -4.720711123      2.542      5.477
REMARK  10 active torsions:
REMARK  status: ('A' for Active; 'I' for Inactive)
REMARK    1  A    between atoms: C2_2  and  C3_3 
REMARK    2  A    between atoms: C3_3  and  N1_4 
REMARK    3  A    between atoms: C3_3  and  C4_8 
REMARK       I    between atoms: C4_8  and  N2_10 
REMARK    4  A    between atoms: N2_10  and  C5_12 
REMARK    5  A    between atoms: C5_12  and  C7_15 
REMARK    6  A    between atoms: C5_12  and  C12_27 
REMARK       I    between atoms: C7_15  and  N4_17 
REMARK    7  A    between atoms: N4_17  and  C8_19 
REMARK    8  A    between atoms: C8_19  and  C9_20 
REMARK    9  A    between atoms: C8_19  and  C11_24 
REMARK   10  A    between atoms: C9_20  and  C10_21 
ROOT
HETATM    1  C5  UNL     1     -39.037 -42.906  19.007  1.00  0.00     0.210 C 
HETATM    2  C6  UNL     1     -37.636 -43.246  19.482  1.00  0.00     0.102 C 
HETATM    3  N3  UNL     1     -36.559 -43.493  19.829  1.00  0.00    -0.194 NA
ENDROOT
BRANCH   1   4
HETATM    4  N2  UNL     1     -39.069 -43.338  17.616  1.00  0.00    -0.329 N 
HETATM    5  C4  UNL     1     -38.460 -42.792  16.502  1.00  0.00     0.250 C 
HETATM    6  O1  UNL     1     -37.731 -41.778  16.549  1.00  0.00    -0.271 OA
ATOM      7  H2  UNL     1     -39.626 -44.173  17.436  1.00  0.00     0.164 HD
BRANCH   5   8
HETATM    8  C3  UNL     1     -38.629 -43.382  15.129  1.00  0.00     0.274 C 
BRANCH   8   9
HETATM    9  C2  UNL     1     -38.037 -44.757  15.035  1.00  0.00     0.038 C 
HETATM   10  C1  UNL     1     -37.699 -45.145  13.615  1.00  0.00     0.007 C 
ENDBRANCH   8   9
BRANCH   8  11
HETATM   11  N1  UNL     1     -40.002 -43.447  14.747  1.00  0.00    -0.067 N 
ATOM     12  H13 UNL     1     -40.430 -44.342  14.982  1.00  0.00     0.275 HD
ATOM     13  H12 UNL     1     -40.596 -42.852  15.325  1.00  0.00     0.275 HD
ATOM     14  H11 UNL     1     -40.078 -43.226  13.754  1.00  0.00     0.275 HD
ENDBRANCH   8  11
ENDBRANCH   5   8
ENDBRANCH   1   4
BRANCH   1  15
HETATM   15  C7  UNL     1     -39.100 -41.442  19.102  1.00  0.00     0.262 C 
HETATM   16  O2  UNL     1     -40.207 -40.831  18.817  1.00  0.00    -0.269 OA
HETATM   17  N4  UNL     1     -38.050 -40.594  19.477  1.00  0.00    -0.343 N 
ATOM     18  H4  UNL     1     -37.142 -40.999  19.709  1.00  0.00     0.163 HD
BRANCH  17  19
HETATM   19  C8  UNL     1     -38.223 -39.131  19.544  1.00  0.00     0.195 C 
BRANCH  19  20
HETATM   20  C9  UNL     1     -37.064 -38.427  18.926  1.00  0.00     0.149 C 
BRANCH  20  21
HETATM   21  C10 UNL     1     -35.988 -39.287  18.435  1.00  0.00     0.175 C 
HETATM   22  O3  UNL     1     -35.703 -39.171  17.198  1.00  0.00    -0.648 OA
HETATM   23  O4  UNL     1     -35.258 -40.196  19.150  1.00  0.00    -0.648 OA
ENDBRANCH  20  21
ENDBRANCH  19  20
BRANCH  19  24
HETATM   24  C11 UNL     1     -38.241 -38.781  20.987  1.00  0.00     0.197 C 
HETATM   25  O5  UNL     1     -37.259 -38.503  21.680  1.00  0.00    -0.646 OA
HETATM   26  O6  UNL     1     -39.509 -38.771  21.599  1.00  0.00    -0.646 OA
ENDBRANCH  19  24
ENDBRANCH  17  19
ENDBRANCH   1  15
BRANCH   1  27
HETATM   27  C12 UNL     1     -39.903 -43.726  19.878  1.00  0.00    -0.003 C 
HETATM   28  C13 UNL     1     -39.804 -43.437  21.374  1.00  0.00     0.018 C 
HETATM   29  C14 UNL     1     -41.367 -43.792  19.591  1.00  0.00     0.018 C 
HETATM   30  C15 UNL     1     -39.441 -45.217  19.799  1.00  0.00     0.018 C 
ENDBRANCH   1  27
TORSDOF 10
ENDMDL
MODEL 3
REMARK VINA RESULT: -4.644573429      2.310      5.587
REMARK  10 active torsions:
REMARK  status: ('A' for Active; 'I' for Inactive)
REMARK    1  A    between atoms: C2_2  and  C3_3 
REMARK    2  A    between atoms: C3_3  and  N1_4 
REMARK    3  A    between atoms: C3_3  and  C4_8 
REMARK       I    between atoms: C4_8  and  N2_10 
REMARK    4  A    between atoms: N2_10  and  C5_12 
REMARK    5  A    between atoms: C5_12  and  C7_15 
REMARK    6  A    between atoms: C5_12  and  C12_27 
REMARK       I    between atoms: C7_15  and  N4_17 
REMARK    7  A    between atoms: N4_17  and  C8_19 
REMARK    8  A    between atoms: C8_19  and  C9_20 
REMARK    9  A    between atoms: C8_19  and  C11_24 
REMARK   10  A    between atoms: C9_20  and  C10_21 
ROOT
HETATM    1  C5  UNL     1     -38.483 -41.623  19.825  1.00  0.00     0.210 C 
HETATM    2  C6  UNL     1     -38.459 -42.463  21.088  1.00  0.00     0.102 C 
HETATM    3  N3  UNL     1     -38.428 -43.119  22.042  1.00  0.00    -0.194 NA
ENDROOT
BRANCH   1   4
HETATM    4  N2  UNL     1     -38.988 -42.520  18.795  1.00  0.00    -0.329 N 
HETATM    5  C4  UNL     1     -38.740 -42.540  17.436  1.00  0.00     0.250 C 
HETATM    6  O1  UNL     1     -37.975 -41.732  16.867  1.00  0.00    -0.271 OA
ATOM      7  H2  UNL     1     -39.623 -43.245  19.128  1.00  0.00     0.164 HD
BRANCH   5   8
HETATM    8  C3  UNL     1     -39.378 -43.551  16.521  1.00  0.00     0.274 C 
BRANCH   8   9
HETATM    9  C2  UNL     1     -39.545 -43.018  15.129  1.00  0.00     0.038 C 
HETATM   10  C1  UNL     1     -39.036 -43.976  14.079  1.00  0.00     0.007 C 
ENDBRANCH   8   9
BRANCH   8  11
HETATM   11  N1  UNL     1     -38.622 -44.759  16.462  1.00  0.00    -0.067 N 
ATOM     12  H13 UNL     1     -37.822 -44.689  15.833  1.00  0.00     0.275 HD
ATOM     13  H12 UNL     1     -38.108 -44.940  17.324  1.00  0.00     0.275 HD
ATOM     14  H11 UNL     1     -39.248 -45.526  16.213  1.00  0.00     0.275 HD
ENDBRANCH   8  11
ENDBRANCH   5   8
ENDBRANCH   1   4
BRANCH   1  15
HETATM   15  C7  UNL     1     -37.071 -41.295  19.588  1.00  0.00     0.262 C 
HETATM   16  O2  UNL     1     -36.155 -42.159  19.893  1.00  0.00    -0.269 OA
HETATM   17  N4  UNL     1     -36.583 -40.098  19.049  1.00  0.00    -0.343 N 
ATOM     18  H4  UNL     1     -37.242 -39.363  18.790  1.00  0.00     0.163 HD
BRANCH  17  19
HETATM   19  C8  UNL     1     -35.139 -39.873  18.848  1.00  0.00     0.195 C 
BRANCH  19  20
HETATM   20  C9  UNL     1     -34.610 -38.885  19.832  1.00  0.00     0.149 C 
BRANCH  20  21
HETATM   21  C10 UNL     1     -35.615 -38.083  20.528  1.00  0.00     0.175 C 
HETATM   22  O3  UNL     1     -35.809 -38.376  21.754  1.00  0.00    -0.648 OA
HETATM   23  O4  UNL     1     -36.366 -37.063  20.015  1.00  0.00    -0.648 OA
ENDBRANCH  20  21
ENDBRANCH  19  20
BRANCH  19  24
HETATM   24  C11 UNL     1     -34.995 -39.277  17.495  1.00  0.00     0.197 C 
HETATM   25  O5  UNL     1     -35.906 -39.090  16.683  1.00  0.00    -0.646 OA
HETATM   26  O6  UNL     1     -33.690 -38.898  17.129  1.00  0.00    -0.646 OA
ENDBRANCH  19  24
ENDBRANCH  17  19
ENDBRANCH   1  15
BRANCH   1  27
HETATM   27  C12 UNL     1     -39.433 -40.539  20.151  1.00  0.00    -0.003 C 
HETATM   28  C13 UNL     1     -39.124 -39.746  21.420  1.00  0.00     0.018 C 
HETATM   29  C14 UNL     1     -39.745 -39.510  19.115  1.00  0.00     0.018 C 
HETATM   30  C15 UNL     1     -40.826 -41.165  20.486  1.00  0.00     0.018 C 
ENDBRANCH   1  27
TORSDOF 10
ENDMDL
MODEL 4
REMARK VINA RESULT: -4.563360909      1.981      3.310
REMARK  10 active torsions:
REMARK  status: ('A' for Active; 'I' for Inactive)
REMARK    1  A    between atoms: C2_2  and  C3_3 
REMARK    2  A    between atoms: C3_3  and  N1_4 
REMARK    3  A    between atoms: C3_3  and  C4_8 
REMARK       I    between atoms: C4_8  and  N2_10 
REMARK    4  A    between atoms: N2_10  and  C5_12 
REMARK    5  A    between atoms: C5_12  and  C7_15 
REMARK    6  A    between atoms: C5_12  and  C12_27 
REMARK       I    between atoms: C7_15  and  N4_17 
REMARK    7  A    between atoms: N4_17  and  C8_19 
REMARK    8  A    between atoms: C8_19  and  C9_20 
REMARK    9  A    between atoms: C8_19  and  C11_24 
REMARK   10  A    between atoms: C9_20  and  C10_21 
ROOT
HETATM    1  C5  UNL     1     -37.369 -38.092  19.515  1.00  0.00     0.210 C 
HETATM    2  C6  UNL     1     -38.187 -36.863  19.161  1.00  0.00     0.102 C 
HETATM    3  N3  UNL     1     -38.815 -35.935  18.872  1.00  0.00    -0.194 NA
ENDROOT
BRANCH   1   4
HETATM    4  N2  UNL     1     -36.369 -38.185  18.461  1.00  0.00    -0.329 N 
HETATM    5  C4  UNL     1     -35.403 -39.147  18.236  1.00  0.00     0.250 C 
HETATM    6  O1  UNL     1     -35.259 -40.155  18.961  1.00  0.00    -0.271 OA
ATOM      7  H2  UNL     1     -36.383 -37.422  17.784  1.00  0.00     0.164 HD
BRANCH   5   8
HETATM    8  C3  UNL     1     -34.438 -39.058  17.085  1.00  0.00     0.274 C 
BRANCH   8   9
HETATM    9  C2  UNL     1     -35.127 -38.690  15.805  1.00  0.00     0.038 C 
HETATM   10  C1  UNL     1     -34.241 -37.887  14.882  1.00  0.00     0.007 C 
ENDBRANCH   8   9
BRANCH   8  11
HETATM   11  N1  UNL     1     -33.403 -38.109  17.338  1.00  0.00    -0.067 N 
ATOM     12  H13 UNL     1     -32.673 -38.130  16.626  1.00  0.00     0.275 HD
ATOM     13  H12 UNL     1     -33.711 -37.148  17.196  1.00  0.00     0.275 HD
ATOM     14  H11 UNL     1     -33.037 -38.266  18.277  1.00  0.00     0.275 HD
ENDBRANCH   8  11
ENDBRANCH   5   8
ENDBRANCH   1   4
BRANCH   1  15
HETATM   15  C7  UNL     1     -38.331 -39.198  19.424  1.00  0.00     0.262 C 
HETATM   16  O2  UNL     1     -39.571 -38.994  19.742  1.00  0.00    -0.269 OA
HETATM   17  N4  UNL     1     -38.044 -40.508  19.020  1.00  0.00    -0.343 N 
ATOM     18  H4  UNL     1     -37.087 -40.750  18.760  1.00  0.00     0.163 HD
BRANCH  17  19
HETATM   19  C8  UNL     1     -39.090 -41.546  18.960  1.00  0.00     0.195 C 
BRANCH  19  20
HETATM   20  C9  UNL     1     -38.847 -42.609  19.976  1.00  0.00     0.149 C 
BRANCH  20  21
HETATM   21  C10 UNL     1     -37.481 -42.694  20.490  1.00  0.00     0.175 C 
HETATM   22  O3  UNL     1     -37.293 -42.217  21.657  1.00  0.00    -0.648 OA
HETATM   23  O4  UNL     1     -36.388 -43.226  19.862  1.00  0.00    -0.648 OA
ENDBRANCH  20  21
ENDBRANCH  19  20
BRANCH  19  24
HETATM   24  C11 UNL     1     -38.976 -42.174  17.619  1.00  0.00     0.197 C 
HETATM   25  O5  UNL     1     -38.028 -42.053  16.838  1.00  0.00    -0.646 OA
HETATM   26  O6  UNL     1     -40.062 -42.979  17.226  1.00  0.00    -0.646 OA
ENDBRANCH  19  24
ENDBRANCH  17  19
ENDBRANCH   1  15
BRANCH   1  27
HETATM   27  C12 UNL     1     -36.783 -37.748  20.827  1.00  0.00    -0.003 C 
HETATM   28  C13 UNL     1     -37.669 -36.916  21.752  1.00  0.00     0.018 C 
HETATM   29  C14 UNL     1     -36.238 -38.840  21.688  1.00  0.00     0.018 C 
HETATM   30  C15 UNL     1     -35.558 -36.802  20.607  1.00  0.00     0.018 C 
ENDBRANCH   1  27
TORSDOF 10
ENDMDL
MODEL 5
REMARK VINA RESULT: -4.540634078      3.194      4.719
REMARK  10 active torsions:
REMARK  status: ('A' for Active; 'I' for Inactive)
REMARK    1  A    between atoms: C2_2  and  C3_3 
REMARK    2  A    between atoms: C3_3  and  N1_4 
REMARK    3  A    between atoms: C3_3  and  C4_8 
REMARK       I    between atoms: C4_8  and  N2_10 
REMARK    4  A    between atoms: N2_10  and  C5_12 
REMARK    5  A    between atoms: C5_12  and  C7_15 
REMARK    6  A    between atoms: C5_12  and  C12_27 
REMARK       I    between atoms: C7_15  and  N4_17 
REMARK    7  A    between atoms: N4_17  and  C8_19 
REMARK    8  A    between atoms: C8_19  and  C9_20 
REMARK    9  A    between atoms: C8_19  and  C11_24 
REMARK   10  A    between atoms: C9_20  and  C10_21 
ROOT
HETATM    1  C5  UNL     1     -38.257 -43.445  19.250  1.00  0.00     0.210 C 
HETATM    2  C6  UNL     1     -39.168 -42.278  19.580  1.00  0.00     0.102 C 
HETATM    3  N3  UNL     1     -39.879 -41.395  19.818  1.00  0.00    -0.194 NA
ENDROOT
BRANCH   1   4
HETATM    4  N2  UNL     1     -38.066 -43.367  17.808  1.00  0.00    -0.329 N 
HETATM    5  C4  UNL     1     -38.993 -43.416  16.785  1.00  0.00     0.250 C 
HETATM    6  O1  UNL     1     -40.222 -43.531  16.981  1.00  0.00    -0.271 OA
ATOM      7  H2  UNL     1     -37.097 -43.259  17.506  1.00  0.00     0.164 HD
BRANCH   5   8
HETATM    8  C3  UNL     1     -38.593 -43.334  15.337  1.00  0.00     0.274 C 
BRANCH   8   9
HETATM    9  C2  UNL     1     -37.569 -44.370  14.981  1.00  0.00     0.038 C 
HETATM   10  C1  UNL     1     -37.824 -44.993  13.629  1.00  0.00     0.007 C 
ENDBRANCH   8   9
BRANCH   8  11
HETATM   11  N1  UNL     1     -39.717 -43.483  14.471  1.00  0.00    -0.067 N 
ATOM     12  H13 UNL     1     -39.443 -43.637  13.500  1.00  0.00     0.275 HD
ATOM     13  H12 UNL     1     -40.211 -44.362  14.620  1.00  0.00     0.275 HD
ATOM     14  H11 UNL     1     -40.325 -42.671  14.580  1.00  0.00     0.275 HD
ENDBRANCH   8  11
ENDBRANCH   5   8
ENDBRANCH   1   4
BRANCH   1  15
HETATM   15  C7  UNL     1     -39.048 -44.628  19.610  1.00  0.00     0.262 C 
HETATM   16  O2  UNL     1     -38.699 -45.791  19.156  1.00  0.00    -0.269 OA
HETATM   17  N4  UNL     1     -40.190 -44.640  20.420  1.00  0.00    -0.343 N 
ATOM     18  H4  UNL     1     -40.533 -43.762  20.810  1.00  0.00     0.163 HD
BRANCH  17  19
HETATM   19  C8  UNL     1     -40.910 -45.892  20.724  1.00  0.00     0.195 C 
BRANCH  19  20
HETATM   20  C9  UNL     1     -42.384 -45.702  20.606  1.00  0.00     0.149 C 
BRANCH  20  21
HETATM   21  C10 UNL     1     -42.838 -44.316  20.503  1.00  0.00     0.175 C 
HETATM   22  O3  UNL     1     -43.536 -43.885  21.480  1.00  0.00    -0.648 OA
HETATM   23  O4  UNL     1     -42.601 -43.436  19.484  1.00  0.00    -0.648 OA
ENDBRANCH  20  21
ENDBRANCH  19  20
BRANCH  19  24
HETATM   24  C11 UNL     1     -40.611 -46.209  22.143  1.00  0.00     0.197 C 
HETATM   25  O5  UNL     1     -39.500 -46.169  22.679  1.00  0.00    -0.646 OA
HETATM   26  O6  UNL     1     -41.715 -46.586  22.931  1.00  0.00    -0.646 OA
ENDBRANCH  19  24
ENDBRANCH  17  19
ENDBRANCH   1  15
BRANCH   1  27
HETATM   27  C12 UNL     1     -37.023 -43.141  20.004  1.00  0.00    -0.003 C 
HETATM   28  C13 UNL     1     -35.879 -44.139  19.835  1.00  0.00     0.018 C 
HETATM   29  C14 UNL     1     -36.392 -41.796  19.854  1.00  0.00     0.018 C 
HETATM   30  C15 UNL     1     -37.324 -43.242  21.535  1.00  0.00     0.018 C 
ENDBRANCH   1  27
TORSDOF 10
ENDMDL
