MODEL 1
REMARK VINA RESULT: -5.538008322      0.000      0.000
REMARK  14 active torsions:
REMARK  status: ('A' for Active; 'I' for Inactive)
REMARK    1  A    between atoms: O1_2  and  C2_3 
REMARK       I    between atoms: C2_3  and  N1_5 
REMARK    2  A    between atoms: N1_5  and  C3_7 
REMARK    3  A    between atoms: C3_7  and  C4_8 
REMARK    4  A    between atoms: C3_7  and  C13_30 
REMARK    5  A    between atoms: C4_8  and  O3_9 
REMARK    6  A    between atoms: C4_8  and  N2_11 
REMARK    7  A    between atoms: N2_11  and  C5_13 
REMARK    8  A    between atoms: C5_13  and  O4_14 
REMARK    9  A    between atoms: C5_13  and  C6_16 
REMARK   10  A    between atoms: C6_16  and  C7_17 
REMARK   11  A    between atoms: C6_16  and  N3_21 
REMARK   12  A    between atoms: C7_17  and  C8_18 
REMARK       I    between atoms: N3_21  and  C11_23 
REMARK   13  A    between atoms: C11_23  and  C12_25 
REMARK   14  A    between atoms: C12_25  and  N4_26 
ROOT
HETATM    1  C5  UNL     1     -38.979 -41.929  18.645  1.00  0.00     0.242 C 
ENDROOT
BRANCH   1   2
HETATM    2  N2  UNL     1     -37.854 -41.287  17.992  1.00  0.00    -0.341 N 
ATOM      3  H2  UNL     1     -37.727 -41.389  16.984  1.00  0.00     0.164 HD
BRANCH   2   4
HETATM    4  C4  UNL     1     -36.929 -40.519  18.744  1.00  0.00     0.162 C 
BRANCH   4   5
HETATM    5  C3  UNL     1     -36.760 -39.066  18.753  1.00  0.00     0.072 C 
BRANCH   5   6
HETATM    6  N1  UNL     1     -35.592 -38.663  17.991  1.00  0.00    -0.302 N 
HETATM    7  C2  UNL     1     -35.250 -38.917  16.668  1.00  0.00     0.364 C 
HETATM    8  O2  UNL     1     -35.971 -39.579  15.901  1.00  0.00    -0.238 OA
ATOM      9  H1  UNL     1     -34.913 -38.103  18.509  1.00  0.00     0.171 HD
BRANCH   7  10
HETATM   10  O1  UNL     1     -34.036 -38.422  16.141  1.00  0.00    -0.309 OA
HETATM   11  C1  UNL     1     -34.006 -37.968  14.821  1.00  0.00     0.215 C 
ENDBRANCH   7  10
ENDBRANCH   5   6
BRANCH   5  12
HETATM   12  C13 UNL     1     -37.124 -38.231  19.898  1.00  0.00    -0.004 C 
HETATM   13  C14 UNL     1     -38.305 -38.753  20.681  1.00  0.00     0.021 C 
HETATM   14  C15 UNL     1     -36.032 -37.801  20.828  1.00  0.00     0.021 C 
HETATM   15  C16 UNL     1     -37.683 -36.862  19.318  1.00  0.00     0.021 C 
ENDBRANCH   5  12
ENDBRANCH   4   5
BRANCH   4  16
HETATM   16  O3  UNL     1     -36.152 -41.200  19.545  1.00  0.00    -0.345 OA
ATOM     17  H3  UNL     1     -35.324 -41.495  19.183  1.00  0.00     0.219 HD
ENDBRANCH   4  16
ENDBRANCH   2   4
ENDBRANCH   1   2
BRANCH   1  18
HETATM   18  O4  UNL     1     -40.040 -40.920  18.706  1.00  0.00    -0.375 OA
ATOM     19  H4  UNL     1     -40.830 -41.353  18.406  1.00  0.00     0.212 HD
ENDBRANCH   1  18
BRANCH   1  20
HETATM   20  C6  UNL     1     -39.537 -43.125  18.026  1.00  0.00     0.133 C 
BRANCH  20  21
HETATM   21  C7  UNL     1     -38.383 -43.820  17.228  1.00  0.00     0.033 C 
BRANCH  21  22
HETATM   22  C8  UNL     1     -38.703 -44.427  15.950  1.00  0.00    -0.021 C 
HETATM   23  C9  UNL     1     -37.539 -44.448  14.970  1.00  0.00     0.009 C 
HETATM   24  C10 UNL     1     -39.716 -43.447  15.274  1.00  0.00     0.009 C 
ENDBRANCH  21  22
ENDBRANCH  20  21
BRANCH  20  25
HETATM   25  N3  UNL     1     -39.796 -44.263  18.943  1.00  0.00    -0.351 N 
HETATM   26  C11 UNL     1     -41.105 -44.303  19.508  1.00  0.00     0.243 C 
HETATM   27  O5  UNL     1     -41.940 -43.397  19.283  1.00  0.00    -0.272 OA
ATOM     28  H3  UNL     1     -39.088 -44.966  19.155  1.00  0.00     0.163 HD
BRANCH  26  29
HETATM   29  C12 UNL     1     -41.518 -45.445  20.373  1.00  0.00     0.332 C 
BRANCH  29  30
HETATM   30  N4  UNL     1     -40.385 -46.292  20.609  1.00  0.00    -0.071 N 
ATOM     31  H43 UNL     1     -40.568 -47.263  20.354  1.00  0.00     0.274 HD
ATOM     32  H42 UNL     1     -39.624 -46.113  19.954  1.00  0.00     0.274 HD
ATOM     33  H41 UNL     1     -40.090 -46.196  21.581  1.00  0.00     0.274 HD
ENDBRANCH  29  30
ENDBRANCH  26  29
ENDBRANCH  20  25
ENDBRANCH   1  20
TORSDOF 14
ENDMDL
MODEL 2
REMARK VINA RESULT: -5.494544786      0.796      1.389
REMARK  14 active torsions:
REMARK  status: ('A' for Active; 'I' for Inactive)
REMARK    1  A    between atoms: O1_2  and  C2_3 
REMARK       I    between atoms: C2_3  and  N1_5 
REMARK    2  A    between atoms: N1_5  and  C3_7 
REMARK    3  A    between atoms: C3_7  and  C4_8 
REMARK    4  A    between atoms: C3_7  and  C13_30 
REMARK    5  A    between atoms: C4_8  and  O3_9 
REMARK    6  A    between atoms: C4_8  and  N2_11 
REMARK    7  A    between atoms: N2_11  and  C5_13 
REMARK    8  A    between atoms: C5_13  and  O4_14 
REMARK    9  A    between atoms: C5_13  and  C6_16 
REMARK   10  A    between atoms: C6_16  and  C7_17 
REMARK   11  A    between atoms: C6_16  and  N3_21 
REMARK   12  A    between atoms: C7_17  and  C8_18 
REMARK       I    between atoms: N3_21  and  C11_23 
REMARK   13  A    between atoms: C11_23  and  C12_25 
REMARK   14  A    between atoms: C12_25  and  N4_26 
ROOT
HETATM    1  C5  UNL     1     -37.735 -42.635  18.519  1.00  0.00     0.242 C 
ENDROOT
BRANCH   1   2
HETATM    2  N2  UNL     1     -37.863 -41.324  19.130  1.00  0.00    -0.341 N 
ATOM      3  H2  UNL     1     -38.770 -41.017  19.482  1.00  0.00     0.164 HD
BRANCH   2   4
HETATM    4  C4  UNL     1     -36.737 -40.469  19.238  1.00  0.00     0.162 C 
BRANCH   4   5
HETATM    5  C3  UNL     1     -36.661 -39.037  18.951  1.00  0.00     0.072 C 
BRANCH   5   6
HETATM    6  N1  UNL     1     -35.498 -38.719  18.142  1.00  0.00    -0.302 N 
HETATM    7  C2  UNL     1     -35.236 -38.980  16.803  1.00  0.00     0.364 C 
HETATM    8  O2  UNL     1     -36.041 -39.570  16.060  1.00  0.00    -0.238 OA
ATOM      9  H1  UNL     1     -34.754 -38.225  18.636  1.00  0.00     0.171 HD
BRANCH   7  10
HETATM   10  O1  UNL     1     -34.009 -38.578  16.228  1.00  0.00    -0.309 OA
HETATM   11  C1  UNL     1     -34.020 -37.937  14.989  1.00  0.00     0.215 C 
ENDBRANCH   7  10
ENDBRANCH   5   6
BRANCH   5  12
HETATM   12  C13 UNL     1     -37.113 -38.013  19.893  1.00  0.00    -0.004 C 
HETATM   13  C14 UNL     1     -37.900 -36.897  19.248  1.00  0.00     0.021 C 
HETATM   14  C15 UNL     1     -37.787 -38.466  21.151  1.00  0.00     0.021 C 
HETATM   15  C16 UNL     1     -35.818 -37.255  20.413  1.00  0.00     0.021 C 
ENDBRANCH   5  12
ENDBRANCH   4   5
BRANCH   4  16
HETATM   16  O3  UNL     1     -35.641 -41.035  19.674  1.00  0.00    -0.345 OA
ATOM     17  H3  UNL     1     -35.751 -41.769  20.266  1.00  0.00     0.219 HD
ENDBRANCH   4  16
ENDBRANCH   2   4
ENDBRANCH   1   2
BRANCH   1  18
HETATM   18  O4  UNL     1     -37.055 -43.475  19.508  1.00  0.00    -0.375 OA
ATOM     19  H4  UNL     1     -36.366 -42.936  19.880  1.00  0.00     0.212 HD
ENDBRANCH   1  18
BRANCH   1  20
HETATM   20  C6  UNL     1     -38.955 -43.322  18.114  1.00  0.00     0.133 C 
BRANCH  20  21
HETATM   21  C7  UNL     1     -38.586 -44.271  16.926  1.00  0.00     0.033 C 
BRANCH  21  22
HETATM   22  C8  UNL     1     -38.439 -43.690  15.605  1.00  0.00    -0.021 C 
HETATM   23  C9  UNL     1     -39.762 -43.392  14.914  1.00  0.00     0.009 C 
HETATM   24  C10 UNL     1     -37.828 -44.826  14.723  1.00  0.00     0.009 C 
ENDBRANCH  21  22
ENDBRANCH  20  21
BRANCH  20  25
HETATM   25  N3  UNL     1     -39.423 -44.394  19.028  1.00  0.00    -0.351 N 
HETATM   26  C11 UNL     1     -40.786 -44.297  19.433  1.00  0.00     0.243 C 
HETATM   27  O5  UNL     1     -41.504 -43.332  19.082  1.00  0.00    -0.272 OA
ATOM     28  H3  UNL     1     -38.811 -45.147  19.345  1.00  0.00     0.163 HD
BRANCH  26  29
HETATM   29  C12 UNL     1     -41.400 -45.363  20.277  1.00  0.00     0.332 C 
BRANCH  29  30
HETATM   30  N4  UNL     1     -40.393 -46.319  20.635  1.00  0.00    -0.071 N 
ATOM     31  H43 UNL     1     -40.617 -47.259  20.305  1.00  0.00     0.274 HD
ATOM     32  H42 UNL     1     -39.528 -46.186  20.111  1.00  0.00     0.274 HD
ATOM     33  H41 UNL     1     -40.243 -46.288  21.644  1.00  0.00     0.274 HD
ENDBRANCH  29  30
ENDBRANCH  26  29
ENDBRANCH  20  25
ENDBRANCH   1  20
TORSDOF 14
ENDMDL
MODEL 3
REMARK VINA RESULT: -5.467163677      1.452      1.639
REMARK  14 active torsions:
REMARK  status: ('A' for Active; 'I' for Inactive)
REMARK    1  A    between atoms: O1_2  and  C2_3 
REMARK       I    between atoms: C2_3  and  N1_5 
REMARK    2  A    between atoms: N1_5  and  C3_7 
REMARK    3  A    between atoms: C3_7  and  C4_8 
REMARK    4  A    between atoms: C3_7  and  C13_30 
REMARK    5  A    between atoms: C4_8  and  O3_9 
REMARK    6  A    between atoms: C4_8  and  N2_11 
REMARK    7  A    between atoms: N2_11  and  C5_13 
REMARK    8  A    between atoms: C5_13  and  O4_14 
REMARK    9  A    between atoms: C5_13  and  C6_16 
REMARK   10  A    between atoms: C6_16  and  C7_17 
REMARK   11  A    between atoms: C6_16  and  N3_21 
REMARK   12  A    between atoms: C7_17  and  C8_18 
REMARK       I    between atoms: N3_21  and  C11_23 
REMARK   13  A    between atoms: C11_23  and  C12_25 
REMARK   14  A    between atoms: C12_25  and  N4_26 
ROOT
HETATM    1  C5  UNL     1     -38.576 -41.437  18.347  1.00  0.00     0.242 C 
ENDROOT
BRANCH   1   2
HETATM    2  N2  UNL     1     -38.015 -41.455  19.685  1.00  0.00    -0.341 N 
ATOM      3  H2  UNL     1     -38.629 -41.586  20.490  1.00  0.00     0.164 HD
BRANCH   2   4
HETATM    4  C4  UNL     1     -36.620 -41.293  19.882  1.00  0.00     0.162 C 
BRANCH   4   5
HETATM    5  C3  UNL     1     -35.883 -40.056  20.142  1.00  0.00     0.072 C 
BRANCH   5   6
HETATM    6  N1  UNL     1     -34.851 -39.834  19.145  1.00  0.00    -0.302 N 
HETATM    7  C2  UNL     1     -34.884 -39.100  17.966  1.00  0.00     0.364 C 
HETATM    8  O2  UNL     1     -35.892 -38.480  17.584  1.00  0.00    -0.238 OA
ATOM      9  H1  UNL     1     -33.960 -40.291  19.342  1.00  0.00     0.171 HD
BRANCH   7  10
HETATM   10  O1  UNL     1     -33.741 -39.037  17.137  1.00  0.00    -0.309 OA
HETATM   11  C1  UNL     1     -33.825 -38.366  15.917  1.00  0.00     0.215 C 
ENDBRANCH   7  10
ENDBRANCH   5   6
BRANCH   5  12
HETATM   12  C13 UNL     1     -35.619 -39.557  21.491  1.00  0.00    -0.004 C 
HETATM   13  C14 UNL     1     -36.092 -40.484  22.586  1.00  0.00     0.021 C 
HETATM   14  C15 UNL     1     -34.243 -39.051  21.795  1.00  0.00     0.021 C 
HETATM   15  C16 UNL     1     -36.543 -38.284  21.707  1.00  0.00     0.021 C 
ENDBRANCH   5  12
ENDBRANCH   4   5
BRANCH   4  16
HETATM   16  O3  UNL     1     -35.916 -42.395  19.852  1.00  0.00    -0.345 OA
ATOM     17  H3  UNL     1     -36.051 -42.963  19.103  1.00  0.00     0.219 HD
ENDBRANCH   4  16
ENDBRANCH   2   4
ENDBRANCH   1   2
BRANCH   1  18
HETATM   18  O4  UNL     1     -37.457 -41.147  17.446  1.00  0.00    -0.375 OA
ATOM     19  H4  UNL     1     -37.285 -40.217  17.533  1.00  0.00     0.212 HD
ENDBRANCH   1  18
BRANCH   1  20
HETATM   20  C6  UNL     1     -39.234 -42.645  17.866  1.00  0.00     0.133 C 
BRANCH  20  21
HETATM   21  C7  UNL     1     -38.251 -43.352  16.874  1.00  0.00     0.033 C 
BRANCH  21  22
HETATM   22  C8  UNL     1     -38.812 -44.218  15.855  1.00  0.00    -0.021 C 
HETATM   23  C9  UNL     1     -37.794 -44.711  14.837  1.00  0.00     0.009 C 
HETATM   24  C10 UNL     1     -39.745 -43.299  15.004  1.00  0.00     0.009 C 
ENDBRANCH  21  22
ENDBRANCH  20  21
BRANCH  20  25
HETATM   25  N3  UNL     1     -39.306 -43.767  18.836  1.00  0.00    -0.351 N 
HETATM   26  C11 UNL     1     -40.608 -44.052  19.341  1.00  0.00     0.243 C 
HETATM   27  O5  UNL     1     -41.598 -43.352  19.026  1.00  0.00    -0.272 OA
ATOM     28  H3  UNL     1     -38.482 -44.296  19.121  1.00  0.00     0.163 HD
BRANCH  26  29
HETATM   29  C12 UNL     1     -40.826 -45.213  20.252  1.00  0.00     0.332 C 
BRANCH  29  30
HETATM   30  N4  UNL     1     -39.606 -45.957  20.368  1.00  0.00    -0.071 N 
ATOM     31  H43 UNL     1     -38.841 -45.531  19.844  1.00  0.00     0.274 HD
ATOM     32  H42 UNL     1     -39.197 -45.889  21.300  1.00  0.00     0.274 HD
ATOM     33  H41 UNL     1     -39.775 -46.925  20.090  1.00  0.00     0.274 HD
ENDBRANCH  29  30
ENDBRANCH  26  29
ENDBRANCH  20  25
ENDBRANCH   1  20
TORSDOF 14
ENDMDL
MODEL 4
REMARK VINA RESULT: -5.415157239      1.742      1.909
REMARK  14 active torsions:
REMARK  status: ('A' for Active; 'I' for Inactive)
REMARK    1  A    between atoms: O1_2  and  C2_3 
REMARK       I    between atoms: C2_3  and  N1_5 
REMARK    2  A    between atoms: N1_5  and  C3_7 
REMARK    3  A    between atoms: C3_7  and  C4_8 
REMARK    4  A    between atoms: C3_7  and  C13_30 
REMARK    5  A    between atoms: C4_8  and  O3_9 
REMARK    6  A    between atoms: C4_8  and  N2_11 
REMARK    7  A    between atoms: N2_11  and  C5_13 
REMARK    8  A    between atoms: C5_13  and  O4_14 
REMARK    9  A    between atoms: C5_13  and  C6_16 
REMARK   10  A    between atoms: C6_16  and  C7_17 
REMARK   11  A    between atoms: C6_16  and  N3_21 
REMARK   12  A    between atoms: C7_17  and  C8_18 
REMARK       I    between atoms: N3_21  and  C11_23 
REMARK   13  A    between atoms: C11_23  and  C12_25 
REMARK   14  A    between atoms: C12_25  and  N4_26 
ROOT
HETATM    1  C5  UNL     1     -38.526 -42.120  18.719  1.00  0.00     0.242 C 
ENDROOT
BRANCH   1   2
HETATM    2  N2  UNL     1     -37.646 -41.126  18.133  1.00  0.00    -0.341 N 
ATOM      3  H2  UNL     1     -37.748 -40.878  17.148  1.00  0.00     0.164 HD
BRANCH   2   4
HETATM    4  C4  UNL     1     -36.646 -40.498  18.918  1.00  0.00     0.162 C 
BRANCH   4   5
HETATM    5  C3  UNL     1     -36.350 -39.070  19.029  1.00  0.00     0.072 C 
BRANCH   5   6
HETATM    6  N1  UNL     1     -35.250 -38.688  18.162  1.00  0.00    -0.302 N 
HETATM    7  C2  UNL     1     -35.078 -38.871  16.795  1.00  0.00     0.364 C 
HETATM    8  O2  UNL     1     -35.925 -39.433  16.078  1.00  0.00    -0.238 OA
ATOM      9  H1  UNL     1     -34.481 -38.208  18.630  1.00  0.00     0.171 HD
BRANCH   7  10
HETATM   10  O1  UNL     1     -33.900 -38.416  16.161  1.00  0.00    -0.309 OA
HETATM   11  C1  UNL     1     -33.977 -37.937  14.852  1.00  0.00     0.215 C 
ENDBRANCH   7  10
ENDBRANCH   5   6
BRANCH   5  12
HETATM   12  C13 UNL     1     -36.500 -38.322  20.277  1.00  0.00    -0.004 C 
HETATM   13  C14 UNL     1     -37.711 -38.724  21.085  1.00  0.00     0.021 C 
HETATM   14  C15 UNL     1     -35.301 -38.191  21.165  1.00  0.00     0.021 C 
HETATM   15  C16 UNL     1     -36.841 -36.822  19.883  1.00  0.00     0.021 C 
ENDBRANCH   5  12
ENDBRANCH   4   5
BRANCH   4  16
HETATM   16  O3  UNL     1     -35.920 -41.302  19.652  1.00  0.00    -0.345 OA
ATOM     17  H3  UNL     1     -36.012 -41.215  20.593  1.00  0.00     0.219 HD
ENDBRANCH   4  16
ENDBRANCH   2   4
ENDBRANCH   1   2
BRANCH   1  18
HETATM   18  O4  UNL     1     -39.887 -41.715  18.361  1.00  0.00    -0.375 OA
ATOM     19  H4  UNL     1     -39.813 -41.250  17.536  1.00  0.00     0.212 HD
ENDBRANCH   1  18
BRANCH   1  20
HETATM   20  C6  UNL     1     -38.352 -43.509  18.314  1.00  0.00     0.133 C 
BRANCH  20  21
HETATM   21  C7  UNL     1     -37.948 -43.509  16.801  1.00  0.00     0.033 C 
BRANCH  21  22
HETATM   22  C8  UNL     1     -38.697 -44.356  15.892  1.00  0.00    -0.021 C 
HETATM   23  C9  UNL     1     -37.883 -44.858  14.708  1.00  0.00     0.009 C 
HETATM   24  C10 UNL     1     -39.747 -43.412  15.224  1.00  0.00     0.009 C 
ENDBRANCH  21  22
ENDBRANCH  20  21
BRANCH  20  25
HETATM   25  N3  UNL     1     -37.117 -44.172  18.802  1.00  0.00    -0.351 N 
HETATM   26  C11 UNL     1     -37.294 -45.045  19.915  1.00  0.00     0.243 C 
HETATM   27  O5  UNL     1     -38.411 -45.179  20.468  1.00  0.00    -0.272 OA
ATOM     28  H3  UNL     1     -36.206 -44.014  18.372  1.00  0.00     0.163 HD
BRANCH  26  29
HETATM   29  C12 UNL     1     -36.147 -45.839  20.441  1.00  0.00     0.332 C 
BRANCH  29  30
HETATM   30  N4  UNL     1     -36.586 -46.614  21.567  1.00  0.00    -0.071 N 
ATOM     31  H43 UNL     1     -37.598 -46.576  21.691  1.00  0.00     0.274 HD
ATOM     32  H42 UNL     1     -36.498 -47.617  21.404  1.00  0.00     0.274 HD
ATOM     33  H41 UNL     1     -36.081 -46.311  22.400  1.00  0.00     0.274 HD
ENDBRANCH  29  30
ENDBRANCH  26  29
ENDBRANCH  20  25
ENDBRANCH   1  20
TORSDOF 14
ENDMDL
MODEL 5
REMARK VINA RESULT: -5.317083985      1.587      1.972
REMARK  14 active torsions:
REMARK  status: ('A' for Active; 'I' for Inactive)
REMARK    1  A    between atoms: O1_2  and  C2_3 
REMARK       I    between atoms: C2_3  and  N1_5 
REMARK    2  A    between atoms: N1_5  and  C3_7 
REMARK    3  A    between atoms: C3_7  and  C4_8 
REMARK    4  A    between atoms: C3_7  and  C13_30 
REMARK    5  A    between atoms: C4_8  and  O3_9 
REMARK    6  A    between atoms: C4_8  and  N2_11 
REMARK    7  A    between atoms: N2_11  and  C5_13 
REMARK    8  A    between atoms: C5_13  and  O4_14 
REMARK    9  A    between atoms: C5_13  and  C6_16 
REMARK   10  A    between atoms: C6_16  and  C7_17 
REMARK   11  A    between atoms: C6_16  and  N3_21 
REMARK   12  A    between atoms: C7_17  and  C8_18 
REMARK       I    between atoms: N3_21  and  C11_23 
REMARK   13  A    between atoms: C11_23  and  C12_25 
REMARK   14  A    between atoms: C12_25  and  N4_26 
ROOT
HETATM    1  C5  UNL     1     -38.743 -42.496  17.665  1.00  0.00     0.242 C 
ENDROOT
BRANCH   1   2
HETATM    2  N2  UNL     1     -39.516 -41.411  18.240  1.00  0.00    -0.341 N 
ATOM      3  H2  UNL     1     -40.423 -41.167  17.841  1.00  0.00     0.164 HD
BRANCH   2   4
HETATM    4  C4  UNL     1     -39.019 -40.686  19.353  1.00  0.00     0.162 C 
BRANCH   4   5
HETATM    5  C3  UNL     1     -38.475 -39.329  19.376  1.00  0.00     0.072 C 
BRANCH   5   6
HETATM    6  N1  UNL     1     -37.026 -39.337  19.296  1.00  0.00    -0.302 N 
HETATM    7  C2  UNL     1     -36.186 -39.640  18.231  1.00  0.00     0.364 C 
HETATM    8  O2  UNL     1     -36.611 -39.968  17.109  1.00  0.00    -0.238 OA
ATOM      9  H1  UNL     1     -36.547 -39.079  20.160  1.00  0.00     0.171 HD
BRANCH   7  10
HETATM   10  O1  UNL     1     -34.783 -39.588  18.396  1.00  0.00    -0.309 OA
HETATM   11  C1  UNL     1     -33.998 -39.074  17.364  1.00  0.00     0.215 C 
ENDBRANCH   7  10
ENDBRANCH   5   6
BRANCH   5  12
HETATM   12  C13 UNL     1     -39.091 -38.239  20.134  1.00  0.00    -0.004 C 
HETATM   13  C14 UNL     1     -40.592 -38.170  19.989  1.00  0.00     0.021 C 
HETATM   14  C15 UNL     1     -38.698 -38.074  21.569  1.00  0.00     0.021 C 
HETATM   15  C16 UNL     1     -38.624 -36.880  19.458  1.00  0.00     0.021 C 
ENDBRANCH   5  12
ENDBRANCH   4   5
BRANCH   4  16
HETATM   16  O3  UNL     1     -39.083 -41.308  20.503  1.00  0.00    -0.345 OA
ATOM     17  H3  UNL     1     -38.736 -42.192  20.525  1.00  0.00     0.219 HD
ENDBRANCH   4  16
ENDBRANCH   2   4
ENDBRANCH   1   2
BRANCH   1  18
HETATM   18  O4  UNL     1     -37.554 -42.635  18.509  1.00  0.00    -0.375 OA
ATOM     19  H4  UNL     1     -36.926 -43.130  17.995  1.00  0.00     0.212 HD
ENDBRANCH   1  18
BRANCH   1  20
HETATM   20  C6  UNL     1     -39.375 -43.806  17.566  1.00  0.00     0.133 C 
BRANCH  20  21
HETATM   21  C7  UNL     1     -38.589 -44.625  16.488  1.00  0.00     0.033 C 
BRANCH  21  22
HETATM   22  C8  UNL     1     -38.329 -43.997  15.207  1.00  0.00    -0.021 C 
HETATM   23  C9  UNL     1     -39.586 -43.685  14.408  1.00  0.00     0.009 C 
HETATM   24  C10 UNL     1     -37.629 -45.098  14.346  1.00  0.00     0.009 C 
ENDBRANCH  21  22
ENDBRANCH  20  21
BRANCH  20  25
HETATM   25  N3  UNL     1     -39.106 -44.736  18.692  1.00  0.00    -0.351 N 
HETATM   26  C11 UNL     1     -40.007 -44.636  19.792  1.00  0.00     0.243 C 
HETATM   27  O5  UNL     1     -40.916 -43.773  19.815  1.00  0.00    -0.272 OA
ATOM     28  H3  UNL     1     -38.331 -45.399  18.679  1.00  0.00     0.163 HD
BRANCH  26  29
HETATM   29  C12 UNL     1     -39.898 -45.577  20.944  1.00  0.00     0.332 C 
BRANCH  29  30
HETATM   30  N4  UNL     1     -40.844 -46.642  20.774  1.00  0.00    -0.071 N 
ATOM     31  H43 UNL     1     -41.663 -46.351  20.240  1.00  0.00     0.274 HD
ATOM     32  H42 UNL     1     -40.505 -47.363  20.137  1.00  0.00     0.274 HD
ATOM     33  H41 UNL     1     -41.092 -47.020  21.689  1.00  0.00     0.274 HD
ENDBRANCH  29  30
ENDBRANCH  26  29
ENDBRANCH  20  25
ENDBRANCH   1  20
TORSDOF 14
ENDMDL
