MODEL 1
REMARK VINA RESULT: -5.580937449      0.000      0.000
REMARK  8 active torsions:
REMARK  status: ('A' for Active; 'I' for Inactive)
REMARK    1  A    between atoms: C5_6  and  N1_7 
REMARK       I    between atoms: N1_7  and  C6_9 
REMARK    2  A    between atoms: C6_9  and  C7_11 
REMARK    3  A    between atoms: C7_11  and  N2_12 
REMARK    4  A    between atoms: C7_11  and  C11_22 
REMARK       I    between atoms: N2_12  and  C8_14 
REMARK    5  A    between atoms: C8_14  and  C9_16 
REMARK    6  A    between atoms: C9_16  and  N3_18 
REMARK       I    between atoms: C11_22  and  N4_24 
REMARK    7  A    between atoms: N4_24  and  C12_26 
REMARK    8  A    between atoms: C12_26  and  C14_29 
ROOT
HETATM    1  C12 UNL     1     -42.036 -45.161  20.305  1.00  0.00     0.195 C 
HETATM    2  C13 UNL     1     -42.836 -44.342  21.176  1.00  0.00     0.085 C 
HETATM    3  N5  UNL     1     -43.462 -43.674  21.894  1.00  0.00    -0.195 NA
ENDROOT
BRANCH   1   4
HETATM    4  N4  UNL     1     -40.648 -44.745  20.200  1.00  0.00    -0.342 N 
HETATM    5  C11 UNL     1     -40.182 -43.888  19.188  1.00  0.00     0.251 C 
HETATM    6  O4  UNL     1     -40.966 -43.453  18.324  1.00  0.00    -0.271 OA
ATOM      7  H4  UNL     1     -39.982 -45.090  20.891  1.00  0.00     0.163 HD
BRANCH   5   8
HETATM    8  C7  UNL     1     -38.756 -43.485  19.120  1.00  0.00     0.269 C 
BRANCH   8   9
HETATM    9  C6  UNL     1     -38.412 -43.492  17.652  1.00  0.00     0.255 C 
HETATM   10  N1  UNL     1     -38.612 -44.635  16.829  1.00  0.00    -0.305 N 
ATOM     11  H1  UNL     1     -39.007 -45.494  17.215  1.00  0.00     0.171 HD
HETATM   12  O2  UNL     1     -37.927 -42.448  17.130  1.00  0.00    -0.270 OA
BRANCH  10  13
HETATM   13  C5  UNL     1     -38.251 -44.553  15.454  1.00  0.00     0.155 A 
HETATM   14  C2  UNL     1     -38.998 -44.023  14.441  1.00  0.00    -0.009 A 
HETATM   15  C1  UNL     1     -40.351 -43.425  14.551  1.00  0.00     0.052 C 
HETATM   16  C3  UNL     1     -38.305 -44.128  13.250  1.00  0.00     0.035 A 
HETATM   17  C4  UNL     1     -37.106 -44.749  13.615  1.00  0.00     0.145 A 
HETATM   18  O1  UNL     1     -37.127 -44.974  14.910  1.00  0.00    -0.305 OA
ENDBRANCH  10  13
ENDBRANCH   8   9
BRANCH   8  19
HETATM   19  N2  UNL     1     -37.968 -44.606  19.687  1.00  0.00    -0.338 N 
HETATM   20  C8  UNL     1     -37.050 -44.397  20.732  1.00  0.00     0.248 C 
HETATM   21  O3  UNL     1     -36.858 -43.250  21.221  1.00  0.00    -0.271 OA
ATOM     22  H2  UNL     1     -38.095 -45.547  19.312  1.00  0.00     0.163 HD
BRANCH  20  23
HETATM   23  C9  UNL     1     -36.294 -45.556  21.267  1.00  0.00     0.270 C 
HETATM   24  C10 UNL     1     -34.959 -45.169  21.838  1.00  0.00     0.050 C 
BRANCH  23  25
HETATM   25  N3  UNL     1     -36.132 -46.579  20.243  1.00  0.00    -0.067 N 
ATOM     26  H33 UNL     1     -36.696 -47.406  20.440  1.00  0.00     0.275 HD
ATOM     27  H32 UNL     1     -36.566 -46.305  19.361  1.00  0.00     0.275 HD
ATOM     28  H31 UNL     1     -35.147 -46.813  20.122  1.00  0.00     0.275 HD
ENDBRANCH  23  25
ENDBRANCH  20  23
ENDBRANCH   8  19
ENDBRANCH   5   8
ENDBRANCH   1   4
BRANCH   1  29
HETATM   29  C14 UNL     1     -42.193 -46.613  20.705  1.00  0.00     0.014 C 
HETATM   30  C15 UNL     1     -43.567 -47.167  20.443  1.00  0.00     0.012 C 
HETATM   31  C16 UNL     1     -41.792 -46.818  22.170  1.00  0.00     0.012 C 
ENDBRANCH   1  29
TORSDOF 8
ENDMDL
MODEL 2
REMARK VINA RESULT: -5.465976146      3.068      5.728
REMARK  8 active torsions:
REMARK  status: ('A' for Active; 'I' for Inactive)
REMARK    1  A    between atoms: C5_6  and  N1_7 
REMARK       I    between atoms: N1_7  and  C6_9 
REMARK    2  A    between atoms: C6_9  and  C7_11 
REMARK    3  A    between atoms: C7_11  and  N2_12 
REMARK    4  A    between atoms: C7_11  and  C11_22 
REMARK       I    between atoms: N2_12  and  C8_14 
REMARK    5  A    between atoms: C8_14  and  C9_16 
REMARK    6  A    between atoms: C9_16  and  N3_18 
REMARK       I    between atoms: C11_22  and  N4_24 
REMARK    7  A    between atoms: N4_24  and  C12_26 
REMARK    8  A    between atoms: C12_26  and  C14_29 
ROOT
HETATM    1  C12 UNL     1     -37.070 -39.634  18.706  1.00  0.00     0.195 C 
HETATM    2  C13 UNL     1     -36.142 -39.358  17.643  1.00  0.00     0.085 C 
HETATM    3  N5  UNL     1     -35.379 -39.156  16.787  1.00  0.00    -0.195 NA
ENDROOT
BRANCH   1   4
HETATM    4  N4  UNL     1     -37.284 -41.048  18.961  1.00  0.00    -0.342 N 
HETATM    5  C11 UNL     1     -38.534 -41.672  18.806  1.00  0.00     0.251 C 
HETATM    6  O4  UNL     1     -39.523 -41.012  18.442  1.00  0.00    -0.271 OA
ATOM      7  H4  UNL     1     -36.492 -41.614  19.267  1.00  0.00     0.163 HD
BRANCH   5   8
HETATM    8  C7  UNL     1     -38.708 -43.121  19.074  1.00  0.00     0.269 C 
BRANCH   8   9
HETATM    9  C6  UNL     1     -38.515 -43.797  17.741  1.00  0.00     0.255 C 
HETATM   10  N1  UNL     1     -38.214 -43.071  16.555  1.00  0.00    -0.305 N 
ATOM     11  H1  UNL     1     -38.112 -42.056  16.577  1.00  0.00     0.171 HD
HETATM   12  O2  UNL     1     -38.626 -45.055  17.668  1.00  0.00    -0.270 OA
BRANCH  10  13
HETATM   13  C5  UNL     1     -38.057 -43.794  15.338  1.00  0.00     0.155 A 
HETATM   14  C2  UNL     1     -39.010 -44.003  14.382  1.00  0.00    -0.009 A 
HETATM   15  C1  UNL     1     -40.416 -43.530  14.406  1.00  0.00     0.052 C 
HETATM   16  C3  UNL     1     -38.475 -44.751  13.351  1.00  0.00     0.035 A 
HETATM   17  C4  UNL     1     -37.153 -44.971  13.749  1.00  0.00     0.145 A 
HETATM   18  O1  UNL     1     -36.963 -44.392  14.915  1.00  0.00    -0.305 OA
ENDBRANCH  10  13
ENDBRANCH   8   9
BRANCH   8  19
HETATM   19  N2  UNL     1     -40.143 -43.328  19.387  1.00  0.00    -0.338 N 
HETATM   20  C8  UNL     1     -40.557 -44.325  20.288  1.00  0.00     0.248 C 
HETATM   21  O3  UNL     1     -39.725 -45.083  20.859  1.00  0.00    -0.271 OA
ATOM     22  H2  UNL     1     -40.842 -42.735  18.939  1.00  0.00     0.163 HD
BRANCH  20  23
HETATM   23  C9  UNL     1     -42.004 -44.483  20.571  1.00  0.00     0.270 C 
HETATM   24  C10 UNL     1     -42.469 -45.908  20.462  1.00  0.00     0.050 C 
BRANCH  23  25
HETATM   25  N3  UNL     1     -42.793 -43.623  19.697  1.00  0.00    -0.067 N 
ATOM     26  H33 UNL     1     -43.254 -42.877  20.217  1.00  0.00     0.275 HD
ATOM     27  H32 UNL     1     -42.202 -43.049  19.097  1.00  0.00     0.275 HD
ATOM     28  H31 UNL     1     -43.458 -44.175  19.156  1.00  0.00     0.275 HD
ENDBRANCH  23  25
ENDBRANCH  20  23
ENDBRANCH   8  19
ENDBRANCH   5   8
ENDBRANCH   1   4
BRANCH   1  29
HETATM   29  C14 UNL     1     -36.656 -38.863  19.941  1.00  0.00     0.014 C 
HETATM   30  C15 UNL     1     -36.734 -37.369  19.776  1.00  0.00     0.012 C 
HETATM   31  C16 UNL     1     -35.257 -39.288  20.402  1.00  0.00     0.012 C 
ENDBRANCH   1  29
TORSDOF 8
ENDMDL
MODEL 3
REMARK VINA RESULT: -5.459058619      5.163      7.539
REMARK  8 active torsions:
REMARK  status: ('A' for Active; 'I' for Inactive)
REMARK    1  A    between atoms: C5_6  and  N1_7 
REMARK       I    between atoms: N1_7  and  C6_9 
REMARK    2  A    between atoms: C6_9  and  C7_11 
REMARK    3  A    between atoms: C7_11  and  N2_12 
REMARK    4  A    between atoms: C7_11  and  C11_22 
REMARK       I    between atoms: N2_12  and  C8_14 
REMARK    5  A    between atoms: C8_14  and  C9_16 
REMARK    6  A    between atoms: C9_16  and  N3_18 
REMARK       I    between atoms: C11_22  and  N4_24 
REMARK    7  A    between atoms: N4_24  and  C12_26 
REMARK    8  A    between atoms: C12_26  and  C14_29 
ROOT
HETATM    1  C12 UNL     1     -39.239 -43.166  17.386  1.00  0.00     0.195 C 
HETATM    2  C13 UNL     1     -39.504 -44.052  18.488  1.00  0.00     0.085 C 
HETATM    3  N5  UNL     1     -39.694 -44.771  19.383  1.00  0.00    -0.195 NA
ENDROOT
BRANCH   1   4
HETATM    4  N4  UNL     1     -37.987 -42.436  17.493  1.00  0.00    -0.342 N 
HETATM    5  C11 UNL     1     -37.886 -41.182  18.119  1.00  0.00     0.251 C 
HETATM    6  O4  UNL     1     -38.895 -40.642  18.608  1.00  0.00    -0.271 OA
ATOM      7  H4  UNL     1     -37.145 -42.852  17.096  1.00  0.00     0.163 HD
BRANCH   5   8
HETATM    8  C7  UNL     1     -36.586 -40.471  18.210  1.00  0.00     0.269 C 
BRANCH   8   9
HETATM    9  C6  UNL     1     -36.778 -39.429  19.281  1.00  0.00     0.255 C 
HETATM   10  N1  UNL     1     -37.332 -38.147  19.006  1.00  0.00    -0.305 N 
ATOM     11  H1  UNL     1     -37.625 -37.897  18.062  1.00  0.00     0.171 HD
HETATM   12  O2  UNL     1     -36.435 -39.698  20.468  1.00  0.00    -0.270 OA
BRANCH  10  13
HETATM   13  C5  UNL     1     -37.469 -37.223  20.081  1.00  0.00     0.155 A 
HETATM   14  C2  UNL     1     -38.626 -36.870  20.715  1.00  0.00    -0.009 A 
HETATM   15  C1  UNL     1     -39.992 -37.366  20.419  1.00  0.00     0.052 C 
HETATM   16  C3  UNL     1     -38.348 -35.946  21.705  1.00  0.00     0.035 A 
HETATM   17  C4  UNL     1     -36.963 -35.772  21.621  1.00  0.00     0.145 A 
HETATM   18  O1  UNL     1     -36.501 -36.540  20.658  1.00  0.00    -0.305 OA
ENDBRANCH  10  13
ENDBRANCH   8   9
BRANCH   8  19
HETATM   19  N2  UNL     1     -36.440 -39.689  16.959  1.00  0.00    -0.338 N 
HETATM   20  C8  UNL     1     -35.183 -39.224  16.532  1.00  0.00     0.248 C 
HETATM   21  O3  UNL     1     -34.136 -39.450  17.197  1.00  0.00    -0.271 OA
ATOM     22  H2  UNL     1     -37.267 -39.484  16.397  1.00  0.00     0.163 HD
BRANCH  20  23
HETATM   23  C9  UNL     1     -35.094 -38.453  15.267  1.00  0.00     0.270 C 
HETATM   24  C10 UNL     1     -33.687 -38.038  14.935  1.00  0.00     0.050 C 
BRANCH  23  25
HETATM   25  N3  UNL     1     -35.969 -37.289  15.314  1.00  0.00    -0.067 N 
ATOM     26  H33 UNL     1     -36.758 -37.383  14.676  1.00  0.00     0.275 HD
ATOM     27  H32 UNL     1     -36.486 -37.239  16.192  1.00  0.00     0.275 HD
ATOM     28  H31 UNL     1     -35.439 -36.435  15.138  1.00  0.00     0.275 HD
ENDBRANCH  23  25
ENDBRANCH  20  23
ENDBRANCH   8  19
ENDBRANCH   5   8
ENDBRANCH   1   4
BRANCH   1  29
HETATM   29  C14 UNL     1     -39.371 -43.934  16.088  1.00  0.00     0.014 C 
HETATM   30  C15 UNL     1     -38.156 -44.751  15.742  1.00  0.00     0.012 C 
HETATM   31  C16 UNL     1     -39.741 -42.992  14.937  1.00  0.00     0.012 C 
ENDBRANCH   1  29
TORSDOF 8
ENDMDL
MODEL 4
REMARK VINA RESULT: -5.409080726      3.411      7.467
REMARK  8 active torsions:
REMARK  status: ('A' for Active; 'I' for Inactive)
REMARK    1  A    between atoms: C5_6  and  N1_7 
REMARK       I    between atoms: N1_7  and  C6_9 
REMARK    2  A    between atoms: C6_9  and  C7_11 
REMARK    3  A    between atoms: C7_11  and  N2_12 
REMARK    4  A    between atoms: C7_11  and  C11_22 
REMARK       I    between atoms: N2_12  and  C8_14 
REMARK    5  A    between atoms: C8_14  and  C9_16 
REMARK    6  A    between atoms: C9_16  and  N3_18 
REMARK       I    between atoms: C11_22  and  N4_24 
REMARK    7  A    between atoms: N4_24  and  C12_26 
REMARK    8  A    between atoms: C12_26  and  C14_29 
ROOT
HETATM    1  C12 UNL     1     -35.985 -39.528  18.357  1.00  0.00     0.195 C 
HETATM    2  C13 UNL     1     -36.574 -38.261  18.697  1.00  0.00     0.085 C 
HETATM    3  N5  UNL     1     -37.071 -37.243  18.961  1.00  0.00    -0.195 NA
ENDROOT
BRANCH   1   4
HETATM    4  N4  UNL     1     -36.935 -40.624  18.264  1.00  0.00    -0.342 N 
HETATM    5  C11 UNL     1     -37.333 -41.386  19.376  1.00  0.00     0.251 C 
HETATM    6  O4  UNL     1     -36.865 -41.144  20.503  1.00  0.00    -0.271 OA
ATOM      7  H4  UNL     1     -37.331 -40.850  17.352  1.00  0.00     0.163 HD
BRANCH   5   8
HETATM    8  C7  UNL     1     -38.310 -42.495  19.237  1.00  0.00     0.269 C 
BRANCH   8   9
HETATM    9  C6  UNL     1     -37.721 -43.642  20.019  1.00  0.00     0.255 C 
HETATM   10  N1  UNL     1     -36.331 -43.943  19.998  1.00  0.00    -0.305 N 
ATOM     11  H1  UNL     1     -35.683 -43.379  19.449  1.00  0.00     0.171 HD
HETATM   12  O2  UNL     1     -38.487 -44.364  20.719  1.00  0.00    -0.270 OA
BRANCH  10  13
HETATM   13  C5  UNL     1     -35.866 -45.052  20.763  1.00  0.00     0.155 A 
HETATM   14  C2  UNL     1     -35.374 -45.019  22.036  1.00  0.00    -0.009 A 
HETATM   15  C1  UNL     1     -35.209 -43.822  22.897  1.00  0.00     0.052 C 
HETATM   16  C3  UNL     1     -35.027 -46.296  22.432  1.00  0.00     0.035 A 
HETATM   17  C4  UNL     1     -35.342 -47.087  21.322  1.00  0.00     0.145 A 
HETATM   18  O1  UNL     1     -35.828 -46.311  20.378  1.00  0.00    -0.305 OA
ENDBRANCH  10  13
ENDBRANCH   8   9
BRANCH   8  19
HETATM   19  N2  UNL     1     -38.247 -42.944  17.825  1.00  0.00    -0.338 N 
HETATM   20  C8  UNL     1     -39.377 -43.477  17.178  1.00  0.00     0.248 C 
HETATM   21  O3  UNL     1     -40.482 -43.597  17.775  1.00  0.00    -0.271 OA
ATOM     22  H2  UNL     1     -37.368 -42.865  17.313  1.00  0.00     0.163 HD
BRANCH  20  23
HETATM   23  C9  UNL     1     -39.261 -43.902  15.762  1.00  0.00     0.270 C 
HETATM   24  C10 UNL     1     -37.879 -44.375  15.407  1.00  0.00     0.050 C 
BRANCH  23  25
HETATM   25  N3  UNL     1     -39.676 -42.828  14.869  1.00  0.00    -0.067 N 
ATOM     26  H33 UNL     1     -39.634 -41.918  15.326  1.00  0.00     0.275 HD
ATOM     27  H32 UNL     1     -38.990 -42.662  14.132  1.00  0.00     0.275 HD
ATOM     28  H31 UNL     1     -40.602 -43.018  14.486  1.00  0.00     0.275 HD
ENDBRANCH  23  25
ENDBRANCH  20  23
ENDBRANCH   8  19
ENDBRANCH   5   8
ENDBRANCH   1   4
BRANCH   1  29
HETATM   29  C14 UNL     1     -35.140 -39.366  17.112  1.00  0.00     0.014 C 
HETATM   30  C15 UNL     1     -33.761 -38.831  17.382  1.00  0.00     0.012 C 
HETATM   31  C16 UNL     1     -35.866 -38.505  16.072  1.00  0.00     0.012 C 
ENDBRANCH   1  29
TORSDOF 8
ENDMDL
MODEL 5
REMARK VINA RESULT: -5.395781448      4.910      7.598
REMARK  8 active torsions:
REMARK  status: ('A' for Active; 'I' for Inactive)
REMARK    1  A    between atoms: C5_6  and  N1_7 
REMARK       I    between atoms: N1_7  and  C6_9 
REMARK    2  A    between atoms: C6_9  and  C7_11 
REMARK    3  A    between atoms: C7_11  and  N2_12 
REMARK    4  A    between atoms: C7_11  and  C11_22 
REMARK       I    between atoms: N2_12  and  C8_14 
REMARK    5  A    between atoms: C8_14  and  C9_16 
REMARK    6  A    between atoms: C9_16  and  N3_18 
REMARK       I    between atoms: C11_22  and  N4_24 
REMARK    7  A    between atoms: N4_24  and  C12_26 
REMARK    8  A    between atoms: C12_26  and  C14_29 
ROOT
HETATM    1  C12 UNL     1     -34.917 -38.589  19.453  1.00  0.00     0.195 C 
HETATM    2  C13 UNL     1     -34.175 -38.807  18.240  1.00  0.00     0.085 C 
HETATM    3  N5  UNL     1     -33.582 -39.008  17.259  1.00  0.00    -0.195 NA
ENDROOT
BRANCH   1   4
HETATM    4  N4  UNL     1     -36.056 -39.474  19.625  1.00  0.00    -0.342 N 
HETATM    5  C11 UNL     1     -37.383 -39.060  19.418  1.00  0.00     0.251 C 
HETATM    6  O4  UNL     1     -37.629 -37.889  19.078  1.00  0.00    -0.271 OA
ATOM      7  H4  UNL     1     -35.885 -40.439  19.909  1.00  0.00     0.163 HD
BRANCH   5   8
HETATM    8  C7  UNL     1     -38.518 -39.999  19.603  1.00  0.00     0.269 C 
BRANCH   8   9
HETATM    9  C6  UNL     1     -38.423 -40.967  18.451  1.00  0.00     0.255 C 
HETATM   10  N1  UNL     1     -39.382 -41.997  18.241  1.00  0.00    -0.305 N 
ATOM     11  H1  UNL     1     -40.177 -42.107  18.871  1.00  0.00     0.171 HD
HETATM   12  O2  UNL     1     -37.458 -40.864  17.641  1.00  0.00    -0.270 OA
BRANCH  10  13
HETATM   13  C5  UNL     1     -39.206 -42.870  17.130  1.00  0.00     0.155 A 
HETATM   14  C2  UNL     1     -38.574 -44.081  17.133  1.00  0.00    -0.009 A 
HETATM   15  C1  UNL     1     -37.928 -44.746  18.290  1.00  0.00     0.052 C 
HETATM   16  C3  UNL     1     -38.609 -44.625  15.863  1.00  0.00     0.035 A 
HETATM   17  C4  UNL     1     -39.297 -43.669  15.109  1.00  0.00     0.145 A 
HETATM   18  O1  UNL     1     -39.622 -42.667  15.897  1.00  0.00    -0.305 OA
ENDBRANCH  10  13
ENDBRANCH   8   9
BRANCH   8  19
HETATM   19  N2  UNL     1     -39.756 -39.228  19.332  1.00  0.00    -0.338 N 
HETATM   20  C8  UNL     1     -40.710 -39.004  20.342  1.00  0.00     0.248 C 
HETATM   21  O3  UNL     1     -40.552 -39.453  21.510  1.00  0.00    -0.271 OA
ATOM     22  H2  UNL     1     -39.919 -38.854  18.397  1.00  0.00     0.163 HD
BRANCH  20  23
HETATM   23  C9  UNL     1     -41.927 -38.219  20.019  1.00  0.00     0.270 C 
HETATM   24  C10 UNL     1     -41.746 -37.329  18.821  1.00  0.00     0.050 C 
BRANCH  23  25
HETATM   25  N3  UNL     1     -42.354 -37.439  21.172  1.00  0.00    -0.067 N 
ATOM     26  H33 UNL     1     -42.841 -36.587  20.894  1.00  0.00     0.275 HD
ATOM     27  H32 UNL     1     -43.116 -37.893  21.676  1.00  0.00     0.275 HD
ATOM     28  H31 UNL     1     -41.563 -37.240  21.784  1.00  0.00     0.275 HD
ENDBRANCH  23  25
ENDBRANCH  20  23
ENDBRANCH   8  19
ENDBRANCH   5   8
ENDBRANCH   1   4
BRANCH   1  29
HETATM   29  C14 UNL     1     -33.965 -38.609  20.629  1.00  0.00     0.014 C 
HETATM   30  C15 UNL     1     -34.590 -39.102  21.905  1.00  0.00     0.012 C 
HETATM   31  C16 UNL     1     -33.324 -37.231  20.832  1.00  0.00     0.012 C 
ENDBRANCH   1  29
TORSDOF 8
ENDMDL
