MODEL 1
REMARK VINA RESULT: -6.624775417      0.000      0.000
REMARK  13 active torsions:
REMARK  status: ('A' for Active; 'I' for Inactive)
REMARK    1  A    between atoms: C2_2  and  C3_3 
REMARK    2  A    between atoms: C2_2  and  C15_26 
REMARK    3  A    between atoms: C3_3  and  C4_4 
REMARK    4  A    between atoms: C4_4  and  O1_5 
REMARK    5  A    between atoms: C4_4  and  C5_7 
REMARK    6  A    between atoms: C5_7  and  O2_8 
REMARK    7  A    between atoms: C5_7  and  C6_10 
REMARK    8  A    between atoms: C6_10  and  C8_12 
REMARK    9  A    between atoms: C8_12  and  O3_13 
REMARK   10  A    between atoms: C8_12  and  C9_15 
REMARK   11  A    between atoms: C9_15  and  C10_16 
REMARK   12  A    between atoms: C9_15  and  S1_19 
REMARK   13  A    between atoms: S1_19  and  C11_22 
ROOT
HETATM    1  C6  UNL     1      38.158  73.431  22.746  1.00  0.00     0.043 C 
HETATM    2  C7  UNL     1      39.290  73.733  23.698  1.00  0.00     0.015 C 
ENDROOT
BRANCH   1   3
HETATM    3  C5  UNL     1      38.124  74.401  21.584  1.00  0.00     0.153 C 
BRANCH   3   4
HETATM    4  C4  UNL     1      38.485  73.706  20.296  1.00  0.00     0.148 C 
BRANCH   4   5
HETATM    5  C3  UNL     1      39.713  72.863  20.457  1.00  0.00     0.049 C 
BRANCH   5   6
HETATM    6  C2  UNL     1      39.696  71.824  19.334  1.00  0.00     0.085 C 
HETATM    7  C1  UNL     1      39.858  70.431  19.900  1.00  0.00     0.021 C 
BRANCH   6   8
HETATM    8  C15 UNL     1      40.736  72.122  18.318  1.00  0.00     0.176 C 
HETATM    9  O8  UNL     1      41.842  71.527  18.286  1.00  0.00    -0.648 OA
HETATM   10  O9  UNL     1      40.496  73.091  17.362  1.00  0.00    -0.648 OA
ENDBRANCH   6   8
ENDBRANCH   5   6
ENDBRANCH   4   5
BRANCH   4  11
HETATM   11  O1  UNL     1      38.819  74.727  19.376  1.00  0.00    -0.393 OA
ATOM     12  H1  UNL     1      37.997  75.064  19.039  1.00  0.00     0.210 HD
ENDBRANCH   4  11
ENDBRANCH   3   4
BRANCH   3  13
HETATM   13  O2  UNL     1      36.822  74.877  21.458  1.00  0.00    -0.393 OA
ATOM     14  H2  UNL     1      36.607  75.346  22.256  1.00  0.00     0.210 HD
ENDBRANCH   3  13
ENDBRANCH   1   3
BRANCH   1  15
HETATM   15  C8  UNL     1      36.868  73.630  23.502  1.00  0.00     0.153 C 
BRANCH  15  16
HETATM   16  O3  UNL     1      35.868  72.934  22.826  1.00  0.00    -0.393 OA
ATOM     17  H3  UNL     1      35.962  72.013  23.036  1.00  0.00     0.210 HD
ENDBRANCH  15  16
BRANCH  15  18
HETATM   18  C9  UNL     1      36.944  73.322  24.962  1.00  0.00     0.238 C 
BRANCH  18  19
HETATM   19  C10 UNL     1      35.974  72.314  25.415  1.00  0.00     0.194 C 
HETATM   20  O4  UNL     1      35.115  71.767  24.683  1.00  0.00    -0.647 OA
HETATM   21  O5  UNL     1      35.975  71.909  26.749  1.00  0.00    -0.647 OA
ENDBRANCH  18  19
BRANCH  18  22
HETATM   22  S1  UNL     1      36.788  74.856  25.878  1.00  0.00     0.165 S 
HETATM   23  O6  UNL     1      35.345  75.141  26.184  1.00  0.00    -0.226 OA
HETATM   24  O7  UNL     1      37.295  76.004  25.054  1.00  0.00    -0.226 OA
BRANCH  22  25
HETATM   25  C11 UNL     1      37.762  74.773  27.344  1.00  0.00     0.109 C 
HETATM   26  C12 UNL     1      38.760  75.906  27.493  1.00  0.00     0.020 C 
HETATM   27  C13 UNL     1      39.838  74.865  27.794  1.00  0.00     0.002 C 
HETATM   28  C14 UNL     1      38.926  73.812  27.197  1.00  0.00     0.020 C 
ENDBRANCH  22  25
ENDBRANCH  18  22
ENDBRANCH  15  18
ENDBRANCH   1  15
TORSDOF 13
ENDMDL
MODEL 2
REMARK VINA RESULT: -6.560489871      1.577      2.439
REMARK  13 active torsions:
REMARK  status: ('A' for Active; 'I' for Inactive)
REMARK    1  A    between atoms: C2_2  and  C3_3 
REMARK    2  A    between atoms: C2_2  and  C15_26 
REMARK    3  A    between atoms: C3_3  and  C4_4 
REMARK    4  A    between atoms: C4_4  and  O1_5 
REMARK    5  A    between atoms: C4_4  and  C5_7 
REMARK    6  A    between atoms: C5_7  and  O2_8 
REMARK    7  A    between atoms: C5_7  and  C6_10 
REMARK    8  A    between atoms: C6_10  and  C8_12 
REMARK    9  A    between atoms: C8_12  and  O3_13 
REMARK   10  A    between atoms: C8_12  and  C9_15 
REMARK   11  A    between atoms: C9_15  and  C10_16 
REMARK   12  A    between atoms: C9_15  and  S1_19 
REMARK   13  A    between atoms: S1_19  and  C11_22 
ROOT
HETATM    1  C6  UNL     1      36.358  74.268  23.590  1.00  0.00     0.043 C 
HETATM    2  C7  UNL     1      35.652  72.939  23.471  1.00  0.00     0.015 C 
ENDROOT
BRANCH   1   3
HETATM    3  C5  UNL     1      37.764  74.212  23.030  1.00  0.00     0.153 C 
BRANCH   3   4
HETATM    4  C4  UNL     1      37.776  73.537  21.683  1.00  0.00     0.148 C 
BRANCH   4   5
HETATM    5  C3  UNL     1      39.173  73.387  21.160  1.00  0.00     0.049 C 
BRANCH   5   6
HETATM    6  C2  UNL     1      39.073  72.679  19.807  1.00  0.00     0.085 C 
HETATM    7  C1  UNL     1      39.890  71.406  19.815  1.00  0.00     0.021 C 
BRANCH   6   8
HETATM    8  C15 UNL     1      39.485  73.582  18.704  1.00  0.00     0.176 C 
HETATM    9  O8  UNL     1      39.119  74.782  18.639  1.00  0.00    -0.648 OA
HETATM   10  O9  UNL     1      40.302  73.099  17.698  1.00  0.00    -0.648 OA
ENDBRANCH   6   8
ENDBRANCH   5   6
ENDBRANCH   4   5
BRANCH   4  11
HETATM   11  O1  UNL     1      37.110  74.414  20.795  1.00  0.00    -0.393 OA
ATOM     12  H1  UNL     1      36.514  74.930  21.325  1.00  0.00     0.210 HD
ENDBRANCH   4  11
ENDBRANCH   3   4
BRANCH   3  13
HETATM   13  O2  UNL     1      38.209  75.519  22.853  1.00  0.00    -0.393 OA
ATOM     14  H2  UNL     1      38.406  75.877  23.711  1.00  0.00     0.210 HD
ENDBRANCH   3  13
ENDBRANCH   1   3
BRANCH   1  15
HETATM   15  C8  UNL     1      36.500  74.573  25.061  1.00  0.00     0.153 C 
BRANCH  15  16
HETATM   16  O3  UNL     1      35.221  74.612  25.612  1.00  0.00    -0.393 OA
ATOM     17  H3  UNL     1      35.153  75.404  26.132  1.00  0.00     0.210 HD
ENDBRANCH  15  16
BRANCH  15  18
HETATM   18  C9  UNL     1      37.452  73.687  25.795  1.00  0.00     0.238 C 
BRANCH  18  19
HETATM   19  C10 UNL     1      36.868  72.411  26.236  1.00  0.00     0.194 C 
HETATM   20  O4  UNL     1      37.379  71.283  26.037  1.00  0.00    -0.647 OA
HETATM   21  O5  UNL     1      35.658  72.411  26.927  1.00  0.00    -0.647 OA
ENDBRANCH  18  19
BRANCH  18  22
HETATM   22  S1  UNL     1      38.152  74.608  27.165  1.00  0.00     0.165 S 
HETATM   23  O6  UNL     1      39.265  73.830  27.807  1.00  0.00    -0.226 OA
HETATM   24  O7  UNL     1      37.110  74.833  28.222  1.00  0.00    -0.226 OA
BRANCH  22  25
HETATM   25  C11 UNL     1      38.698  76.185  26.602  1.00  0.00     0.109 C 
HETATM   26  C12 UNL     1      39.553  76.942  27.603  1.00  0.00     0.020 C 
HETATM   27  C13 UNL     1      38.667  78.167  27.375  1.00  0.00     0.002 C 
HETATM   28  C14 UNL     1      37.627  77.247  26.766  1.00  0.00     0.020 C 
ENDBRANCH  22  25
ENDBRANCH  18  22
ENDBRANCH  15  18
ENDBRANCH   1  15
TORSDOF 13
ENDMDL
MODEL 3
REMARK VINA RESULT: -6.267331139      3.178      8.377
REMARK  13 active torsions:
REMARK  status: ('A' for Active; 'I' for Inactive)
REMARK    1  A    between atoms: C2_2  and  C3_3 
REMARK    2  A    between atoms: C2_2  and  C15_26 
REMARK    3  A    between atoms: C3_3  and  C4_4 
REMARK    4  A    between atoms: C4_4  and  O1_5 
REMARK    5  A    between atoms: C4_4  and  C5_7 
REMARK    6  A    between atoms: C5_7  and  O2_8 
REMARK    7  A    between atoms: C5_7  and  C6_10 
REMARK    8  A    between atoms: C6_10  and  C8_12 
REMARK    9  A    between atoms: C8_12  and  O3_13 
REMARK   10  A    between atoms: C8_12  and  C9_15 
REMARK   11  A    between atoms: C9_15  and  C10_16 
REMARK   12  A    between atoms: C9_15  and  S1_19 
REMARK   13  A    between atoms: S1_19  and  C11_22 
ROOT
HETATM    1  C6  UNL     1      40.205  72.595  19.510  1.00  0.00     0.043 C 
HETATM    2  C7  UNL     1      41.482  71.797  19.624  1.00  0.00     0.015 C 
ENDROOT
BRANCH   1   3
HETATM    3  C5  UNL     1      39.294  72.371  20.700  1.00  0.00     0.153 C 
BRANCH   3   4
HETATM    4  C4  UNL     1      38.842  73.686  21.281  1.00  0.00     0.148 C 
BRANCH   4   5
HETATM    5  C3  UNL     1      37.396  73.641  21.674  1.00  0.00     0.049 C 
BRANCH   5   6
HETATM    6  C2  UNL     1      37.299  74.197  23.096  1.00  0.00     0.085 C 
HETATM    7  C1  UNL     1      38.548  73.863  23.880  1.00  0.00     0.021 C 
BRANCH   6   8
HETATM    8  C15 UNL     1      36.080  73.699  23.779  1.00  0.00     0.176 C 
HETATM    9  O8  UNL     1      35.486  72.649  23.426  1.00  0.00    -0.648 OA
HETATM   10  O9  UNL     1      35.561  74.405  24.848  1.00  0.00    -0.648 OA
ENDBRANCH   6   8
ENDBRANCH   5   6
ENDBRANCH   4   5
BRANCH   4  11
HETATM   11  O1  UNL     1      38.943  74.635  20.238  1.00  0.00    -0.393 OA
ATOM     12  H1  UNL     1      39.801  74.516  19.848  1.00  0.00     0.210 HD
ENDBRANCH   4  11
ENDBRANCH   3   4
BRANCH   3  13
HETATM   13  O2  UNL     1      38.163  71.694  20.254  1.00  0.00    -0.393 OA
ATOM     14  H2  UNL     1      38.455  70.948  19.743  1.00  0.00     0.210 HD
ENDBRANCH   3  13
ENDBRANCH   1   3
BRANCH   1  15
HETATM   15  C8  UNL     1      39.460  72.082  18.303  1.00  0.00     0.153 C 
BRANCH  15  16
HETATM   16  O3  UNL     1      39.072  73.185  17.544  1.00  0.00    -0.393 OA
ATOM     17  H3  UNL     1      39.375  73.045  16.655  1.00  0.00     0.210 HD
ENDBRANCH  15  16
BRANCH  15  18
HETATM   18  C9  UNL     1      40.177  71.028  17.525  1.00  0.00     0.238 C 
BRANCH  18  19
HETATM   19  C10 UNL     1      40.340  71.342  16.098  1.00  0.00     0.194 C 
HETATM   20  O4  UNL     1      39.445  71.213  15.229  1.00  0.00    -0.647 OA
HETATM   21  O5  UNL     1      41.566  71.818  15.634  1.00  0.00    -0.647 OA
ENDBRANCH  18  19
BRANCH  18  22
HETATM   22  S1  UNL     1      39.337  69.463  17.772  1.00  0.00     0.165 S 
HETATM   23  O6  UNL     1      39.550  68.968  19.174  1.00  0.00    -0.226 OA
HETATM   24  O7  UNL     1      39.903  68.422  16.850  1.00  0.00    -0.226 OA
BRANCH  22  25
HETATM   25  C11 UNL     1      37.625  69.642  17.396  1.00  0.00     0.109 C 
HETATM   26  C12 UNL     1      36.693  69.052  18.438  1.00  0.00     0.020 C 
HETATM   27  C13 UNL     1      35.945  68.341  17.311  1.00  0.00     0.002 C 
HETATM   28  C14 UNL     1      37.146  68.586  16.419  1.00  0.00     0.020 C 
ENDBRANCH  22  25
ENDBRANCH  18  22
ENDBRANCH  15  18
ENDBRANCH   1  15
TORSDOF 13
ENDMDL
MODEL 4
REMARK VINA RESULT: -6.191782321      2.661      7.842
REMARK  13 active torsions:
REMARK  status: ('A' for Active; 'I' for Inactive)
REMARK    1  A    between atoms: C2_2  and  C3_3 
REMARK    2  A    between atoms: C2_2  and  C15_26 
REMARK    3  A    between atoms: C3_3  and  C4_4 
REMARK    4  A    between atoms: C4_4  and  O1_5 
REMARK    5  A    between atoms: C4_4  and  C5_7 
REMARK    6  A    between atoms: C5_7  and  O2_8 
REMARK    7  A    between atoms: C5_7  and  C6_10 
REMARK    8  A    between atoms: C6_10  and  C8_12 
REMARK    9  A    between atoms: C8_12  and  O3_13 
REMARK   10  A    between atoms: C8_12  and  C9_15 
REMARK   11  A    between atoms: C9_15  and  C10_16 
REMARK   12  A    between atoms: C9_15  and  S1_19 
REMARK   13  A    between atoms: S1_19  and  C11_22 
ROOT
HETATM    1  C6  UNL     1      39.460  73.316  19.906  1.00  0.00     0.043 C 
HETATM    2  C7  UNL     1      40.544  72.414  20.445  1.00  0.00     0.015 C 
ENDROOT
BRANCH   1   3
HETATM    3  C5  UNL     1      38.276  73.398  20.847  1.00  0.00     0.153 C 
BRANCH   3   4
HETATM    4  C4  UNL     1      38.701  73.916  22.197  1.00  0.00     0.148 C 
BRANCH   4   5
HETATM    5  C3  UNL     1      37.974  73.215  23.305  1.00  0.00     0.049 C 
BRANCH   5   6
HETATM    6  C2  UNL     1      37.548  74.286  24.311  1.00  0.00     0.085 C 
HETATM    7  C1  UNL     1      38.327  74.142  25.599  1.00  0.00     0.021 C 
BRANCH   6   8
HETATM    8  C15 UNL     1      36.084  74.235  24.553  1.00  0.00     0.176 C 
HETATM    9  O8  UNL     1      35.279  73.733  23.729  1.00  0.00    -0.648 OA
HETATM   10  O9  UNL     1      35.569  74.757  25.725  1.00  0.00    -0.648 OA
ENDBRANCH   6   8
ENDBRANCH   5   6
ENDBRANCH   4   5
BRANCH   4  11
HETATM   11  O1  UNL     1      38.297  75.270  22.247  1.00  0.00    -0.393 OA
ATOM     12  H1  UNL     1      39.090  75.784  22.344  1.00  0.00     0.210 HD
ENDBRANCH   4  11
ENDBRANCH   3   4
BRANCH   3  13
HETATM   13  O2  UNL     1      37.364  74.304  20.315  1.00  0.00    -0.393 OA
ATOM     14  H2  UNL     1      37.206  74.058  19.410  1.00  0.00     0.210 HD
ENDBRANCH   3  13
ENDBRANCH   1   3
BRANCH   1  15
HETATM   15  C8  UNL     1      38.945  72.691  18.632  1.00  0.00     0.153 C 
BRANCH  15  16
HETATM   16  O3  UNL     1      38.710  73.718  17.721  1.00  0.00    -0.393 OA
ATOM     17  H3  UNL     1      38.863  74.542  18.167  1.00  0.00     0.210 HD
ENDBRANCH  15  16
BRANCH  15  18
HETATM   18  C9  UNL     1      39.787  71.581  18.096  1.00  0.00     0.238 C 
BRANCH  18  19
HETATM   19  C10 UNL     1      40.310  71.823  16.743  1.00  0.00     0.194 C 
HETATM   20  O4  UNL     1      39.748  71.459  15.682  1.00  0.00    -0.647 OA
HETATM   21  O5  UNL     1      41.517  72.501  16.583  1.00  0.00    -0.647 OA
ENDBRANCH  18  19
BRANCH  18  22
HETATM   22  S1  UNL     1      38.847  70.056  18.184  1.00  0.00     0.165 S 
HETATM   23  O6  UNL     1      38.128  69.807  16.889  1.00  0.00    -0.226 OA
HETATM   24  O7  UNL     1      37.799  70.157  19.254  1.00  0.00    -0.226 OA
BRANCH  22  25
HETATM   25  C11 UNL     1      39.918  68.722  18.603  1.00  0.00     0.109 C 
HETATM   26  C12 UNL     1      39.841  68.295  20.058  1.00  0.00     0.020 C 
HETATM   27  C13 UNL     1      41.367  68.356  20.117  1.00  0.00     0.002 C 
HETATM   28  C14 UNL     1      41.338  69.192  18.852  1.00  0.00     0.020 C 
ENDBRANCH  22  25
ENDBRANCH  18  22
ENDBRANCH  15  18
ENDBRANCH   1  15
TORSDOF 13
ENDMDL
MODEL 5
REMARK VINA RESULT: -6.147199279      2.413      7.555
REMARK  13 active torsions:
REMARK  status: ('A' for Active; 'I' for Inactive)
REMARK    1  A    between atoms: C2_2  and  C3_3 
REMARK    2  A    between atoms: C2_2  and  C15_26 
REMARK    3  A    between atoms: C3_3  and  C4_4 
REMARK    4  A    between atoms: C4_4  and  O1_5 
REMARK    5  A    between atoms: C4_4  and  C5_7 
REMARK    6  A    between atoms: C5_7  and  O2_8 
REMARK    7  A    between atoms: C5_7  and  C6_10 
REMARK    8  A    between atoms: C6_10  and  C8_12 
REMARK    9  A    between atoms: C8_12  and  O3_13 
REMARK   10  A    between atoms: C8_12  and  C9_15 
REMARK   11  A    between atoms: C9_15  and  C10_16 
REMARK   12  A    between atoms: C9_15  and  S1_19 
REMARK   13  A    between atoms: S1_19  and  C11_22 
ROOT
HETATM    1  C6  UNL     1      38.391  74.182  22.350  1.00  0.00     0.043 C 
HETATM    2  C7  UNL     1      39.869  73.952  22.555  1.00  0.00     0.015 C 
ENDROOT
BRANCH   1   3
HETATM    3  C5  UNL     1      37.555  73.356  23.306  1.00  0.00     0.153 C 
BRANCH   3   4
HETATM    4  C4  UNL     1      37.163  74.169  24.513  1.00  0.00     0.148 C 
BRANCH   4   5
HETATM    5  C3  UNL     1      37.878  73.699  25.743  1.00  0.00     0.049 C 
BRANCH   5   6
HETATM    6  C2  UNL     1      37.822  74.841  26.760  1.00  0.00     0.085 C 
HETATM    7  C1  UNL     1      37.597  76.162  26.060  1.00  0.00     0.021 C 
BRANCH   6   8
HETATM    8  C15 UNL     1      39.048  74.870  27.595  1.00  0.00     0.176 C 
HETATM    9  O8  UNL     1      39.549  75.939  28.026  1.00  0.00    -0.648 OA
HETATM   10  O9  UNL     1      39.679  73.683  27.921  1.00  0.00    -0.648 OA
ENDBRANCH   6   8
ENDBRANCH   5   6
ENDBRANCH   4   5
BRANCH   4  11
HETATM   11  O1  UNL     1      35.789  73.919  24.729  1.00  0.00    -0.393 OA
ATOM     12  H1  UNL     1      35.315  74.503  24.149  1.00  0.00     0.210 HD
ENDBRANCH   4  11
ENDBRANCH   3   4
BRANCH   3  13
HETATM   13  O2  UNL     1      36.386  72.987  22.647  1.00  0.00    -0.393 OA
ATOM     14  H2  UNL     1      36.585  72.923  21.720  1.00  0.00     0.210 HD
ENDBRANCH   3  13
ENDBRANCH   1   3
BRANCH   1  15
HETATM   15  C8  UNL     1      38.048  73.701  20.962  1.00  0.00     0.153 C 
BRANCH  15  16
HETATM   16  O3  UNL     1      37.018  74.503  20.477  1.00  0.00    -0.393 OA
ATOM     17  H3  UNL     1      36.939  74.343  19.545  1.00  0.00     0.210 HD
ENDBRANCH  15  16
BRANCH  15  18
HETATM   18  C9  UNL     1      39.213  73.578  20.036  1.00  0.00     0.238 C 
BRANCH  18  19
HETATM   19  C10 UNL     1      39.091  74.378  18.808  1.00  0.00     0.194 C 
HETATM   20  O4  UNL     1      38.618  73.960  17.725  1.00  0.00    -0.647 OA
HETATM   21  O5  UNL     1      39.524  75.703  18.805  1.00  0.00    -0.647 OA
ENDBRANCH  18  19
BRANCH  18  22
HETATM   22  S1  UNL     1      39.478  71.841  19.676  1.00  0.00     0.165 S 
HETATM   23  O6  UNL     1      38.617  71.406  18.525  1.00  0.00    -0.226 OA
HETATM   24  O7  UNL     1      39.083  71.003  20.858  1.00  0.00    -0.226 OA
BRANCH  22  25
HETATM   25  C11 UNL     1      41.186  71.555  19.359  1.00  0.00     0.109 C 
HETATM   26  C12 UNL     1      41.572  71.650  17.894  1.00  0.00     0.020 C 
HETATM   27  C13 UNL     1      42.298  70.312  18.038  1.00  0.00     0.002 C 
HETATM   28  C14 UNL     1      41.514  70.075  19.314  1.00  0.00     0.020 C 
ENDBRANCH  22  25
ENDBRANCH  18  22
ENDBRANCH  15  18
ENDBRANCH   1  15
TORSDOF 13
ENDMDL
