MODEL 1
REMARK VINA RESULT: -6.794554368      0.000      0.000
REMARK  13 active torsions:
REMARK  status: ('A' for Active; 'I' for Inactive)
REMARK    1  A    between atoms: C3_3  and  C4_4 
REMARK    2  A    between atoms: C4_4  and  N1_5 
REMARK    3  A    between atoms: N1_5  and  N2_6 
REMARK       I    between atoms: N1_5  and  C5_10 
REMARK    4  A    between atoms: N2_6  and  O1_8 
REMARK       I    between atoms: C5_10  and  N3_12 
REMARK    5  A    between atoms: N3_12  and  C6_14 
REMARK    6  A    between atoms: C6_14  and  C7_15 
REMARK    7  A    between atoms: C7_15  and  C8_16 
REMARK    8  A    between atoms: C8_16  and  C9_17 
REMARK    9  A    between atoms: C9_17  and  N4_18 
REMARK   10  A    between atoms: C9_17  and  C12_23 
REMARK       I    between atoms: N4_18  and  C10_20 
REMARK   11  A    between atoms: C12_23  and  N6_26 
REMARK   12  A    between atoms: N6_26  and  N7_27 
REMARK   13  A    between atoms: N7_27  and  C14_29 
ROOT
HETATM    1  C1  UNL     1      39.338  77.388  27.515  1.00  0.00     0.012 C 
HETATM    2  C2  UNL     1      39.027  76.219  27.520  1.00  0.00    -0.116 C 
HETATM    3  C3  UNL     1      38.690  74.813  27.540  1.00  0.00     0.115 C 
ENDROOT
BRANCH   3   4
HETATM    4  C4  UNL     1      37.292  74.473  27.136  1.00  0.00     0.168 C 
BRANCH   4   5
HETATM    5  N1  UNL     1      37.156  73.638  25.987  1.00  0.00    -0.223 N 
HETATM    6  C5  UNL     1      37.312  74.089  24.662  1.00  0.00     0.338 C 
HETATM    7  O2  UNL     1      37.561  75.270  24.364  1.00  0.00    -0.245 OA
HETATM    8  N3  UNL     1      37.182  73.169  23.592  1.00  0.00    -0.342 N 
ATOM      9  H3  UNL     1      36.974  72.196  23.820  1.00  0.00     0.164 HD
BRANCH   5  10
HETATM   10  N2  UNL     1      36.847  72.280  26.213  1.00  0.00    -0.204 N 
ATOM     11  H2  UNL     1      37.253  71.533  25.650  1.00  0.00     0.216 HD
BRANCH  10  12
HETATM   12  O1  UNL     1      36.047  72.046  27.143  1.00  0.00    -0.274 OA
ATOM     13  H1  UNL     1      36.040  71.155  27.473  1.00  0.00     0.246 HD
ENDBRANCH  10  12
ENDBRANCH   5  10
BRANCH   8  14
HETATM   14  C6  UNL     1      37.325  73.520  22.215  1.00  0.00     0.124 C 
BRANCH  14  15
HETATM   15  C7  UNL     1      38.707  73.148  21.739  1.00  0.00     0.022 C 
BRANCH  15  16
HETATM   16  C8  UNL     1      38.693  73.221  20.227  1.00  0.00     0.029 C 
BRANCH  16  17
HETATM   17  C9  UNL     1      39.380  72.051  19.578  1.00  0.00     0.119 C 
BRANCH  17  18
HETATM   18  N4  UNL     1      38.464  71.506  18.596  1.00  0.00    -0.354 N 
HETATM   19  C10 UNL     1      38.163  70.115  18.583  1.00  0.00     0.214 C 
HETATM   20  C11 UNL     1      37.236  69.509  17.603  1.00  0.00     0.117 C 
HETATM   21  O3  UNL     1      38.688  69.341  19.425  1.00  0.00    -0.274 OA
ATOM     22  H4  UNL     1      38.032  72.123  17.909  1.00  0.00     0.162 HD
ENDBRANCH  17  18
BRANCH  17  23
HETATM   23  C12 UNL     1      40.711  72.378  18.985  1.00  0.00     0.228 C 
HETATM   24  C13 UNL     1      41.574  71.206  19.143  1.00  0.00     0.084 C 
HETATM   25  N5  UNL     1      42.263  70.277  19.268  1.00  0.00    -0.195 NA
BRANCH  23  26
HETATM   26  N6  UNL     1      40.678  72.717  17.596  1.00  0.00    -0.118 NA
BRANCH  26  27
HETATM   27  N7  UNL     1      41.533  71.997  16.810  1.00  0.00    -0.281 N 
ATOM     28  H7  UNL     1      42.521  71.935  17.058  1.00  0.00     0.184 HD
BRANCH  27  29
HETATM   29  C14 UNL     1      41.055  71.337  15.657  1.00  0.00     0.196 C 
HETATM   30  N8  UNL     1      39.674  71.137  15.447  1.00  0.00    -0.069 NA
HETATM   31  S1  UNL     1      42.098  70.793  14.544  1.00  0.00    -0.043 SA
ENDBRANCH  27  29
ENDBRANCH  26  27
ENDBRANCH  23  26
ENDBRANCH  17  23
ENDBRANCH  16  17
ENDBRANCH  15  16
ENDBRANCH  14  15
ENDBRANCH   8  14
ENDBRANCH   4   5
ENDBRANCH   3   4
TORSDOF 13
ENDMDL
MODEL 2
REMARK VINA RESULT: -6.749710257      1.588      1.987
REMARK  13 active torsions:
REMARK  status: ('A' for Active; 'I' for Inactive)
REMARK    1  A    between atoms: C3_3  and  C4_4 
REMARK    2  A    between atoms: C4_4  and  N1_5 
REMARK    3  A    between atoms: N1_5  and  N2_6 
REMARK       I    between atoms: N1_5  and  C5_10 
REMARK    4  A    between atoms: N2_6  and  O1_8 
REMARK       I    between atoms: C5_10  and  N3_12 
REMARK    5  A    between atoms: N3_12  and  C6_14 
REMARK    6  A    between atoms: C6_14  and  C7_15 
REMARK    7  A    between atoms: C7_15  and  C8_16 
REMARK    8  A    between atoms: C8_16  and  C9_17 
REMARK    9  A    between atoms: C9_17  and  N4_18 
REMARK   10  A    between atoms: C9_17  and  C12_23 
REMARK       I    between atoms: N4_18  and  C10_20 
REMARK   11  A    between atoms: C12_23  and  N6_26 
REMARK   12  A    between atoms: N6_26  and  N7_27 
REMARK   13  A    between atoms: N7_27  and  C14_29 
ROOT
HETATM    1  C1  UNL     1      39.476  74.323  27.703  1.00  0.00     0.012 C 
HETATM    2  C2  UNL     1      38.458  73.973  27.152  1.00  0.00    -0.116 C 
HETATM    3  C3  UNL     1      37.240  73.523  26.515  1.00  0.00     0.115 C 
ENDROOT
BRANCH   3   4
HETATM    4  C4  UNL     1      36.631  74.471  25.533  1.00  0.00     0.168 C 
BRANCH   4   5
HETATM    5  N1  UNL     1      36.504  73.995  24.195  1.00  0.00    -0.223 N 
HETATM    6  C5  UNL     1      37.595  73.752  23.337  1.00  0.00     0.338 C 
HETATM    7  O2  UNL     1      38.778  73.955  23.659  1.00  0.00    -0.245 OA
HETATM    8  N3  UNL     1      37.359  73.251  22.033  1.00  0.00    -0.342 N 
ATOM      9  H3  UNL     1      36.393  73.083  21.752  1.00  0.00     0.164 HD
BRANCH   5  10
HETATM   10  N2  UNL     1      35.197  73.757  23.719  1.00  0.00    -0.204 N 
ATOM     11  H2  UNL     1      34.615  74.505  23.343  1.00  0.00     0.216 HD
BRANCH  10  12
HETATM   12  O1  UNL     1      34.795  72.577  23.784  1.00  0.00    -0.274 OA
ATOM     13  H1  UNL     1      33.979  72.388  23.334  1.00  0.00     0.246 HD
ENDBRANCH  10  12
ENDBRANCH   5  10
BRANCH   8  14
HETATM   14  C6  UNL     1      38.392  72.968  21.087  1.00  0.00     0.124 C 
BRANCH  14  15
HETATM   15  C7  UNL     1      38.589  74.159  20.182  1.00  0.00     0.022 C 
BRANCH  15  16
HETATM   16  C8  UNL     1      38.665  73.634  18.765  1.00  0.00     0.029 C 
BRANCH  16  17
HETATM   17  C9  UNL     1      39.380  72.315  18.667  1.00  0.00     0.119 C 
BRANCH  17  18
HETATM   18  N4  UNL     1      38.632  71.489  17.740  1.00  0.00    -0.354 N 
HETATM   19  C10 UNL     1      38.176  70.199  18.129  1.00  0.00     0.214 C 
HETATM   20  C11 UNL     1      37.409  69.317  17.222  1.00  0.00     0.117 C 
HETATM   21  O3  UNL     1      38.415  69.759  19.284  1.00  0.00    -0.274 OA
ATOM     22  H4  UNL     1      38.432  71.835  16.802  1.00  0.00     0.162 HD
ENDBRANCH  17  18
BRANCH  17  23
HETATM   23  C12 UNL     1      40.819  72.429  18.283  1.00  0.00     0.228 C 
HETATM   24  C13 UNL     1      41.533  71.298  18.879  1.00  0.00     0.084 C 
HETATM   25  N5  UNL     1      42.105  70.403  19.353  1.00  0.00    -0.195 NA
BRANCH  23  26
HETATM   26  N6  UNL     1      41.065  72.412  16.874  1.00  0.00    -0.118 NA
BRANCH  26  27
HETATM   27  N7  UNL     1      42.116  71.629  16.486  1.00  0.00    -0.281 N 
ATOM     28  H7  UNL     1      42.213  70.686  16.861  1.00  0.00     0.184 HD
BRANCH  27  29
HETATM   29  C14 UNL     1      43.068  72.122  15.567  1.00  0.00     0.196 C 
HETATM   30  N8  UNL     1      44.265  72.727  16.005  1.00  0.00    -0.069 NA
HETATM   31  S1  UNL     1      42.796  72.000  13.975  1.00  0.00    -0.043 SA
ENDBRANCH  27  29
ENDBRANCH  26  27
ENDBRANCH  23  26
ENDBRANCH  17  23
ENDBRANCH  16  17
ENDBRANCH  15  16
ENDBRANCH  14  15
ENDBRANCH   8  14
ENDBRANCH   4   5
ENDBRANCH   3   4
TORSDOF 13
ENDMDL
MODEL 3
REMARK VINA RESULT: -6.693580399      1.909      2.277
REMARK  13 active torsions:
REMARK  status: ('A' for Active; 'I' for Inactive)
REMARK    1  A    between atoms: C3_3  and  C4_4 
REMARK    2  A    between atoms: C4_4  and  N1_5 
REMARK    3  A    between atoms: N1_5  and  N2_6 
REMARK       I    between atoms: N1_5  and  C5_10 
REMARK    4  A    between atoms: N2_6  and  O1_8 
REMARK       I    between atoms: C5_10  and  N3_12 
REMARK    5  A    between atoms: N3_12  and  C6_14 
REMARK    6  A    between atoms: C6_14  and  C7_15 
REMARK    7  A    between atoms: C7_15  and  C8_16 
REMARK    8  A    between atoms: C8_16  and  C9_17 
REMARK    9  A    between atoms: C9_17  and  N4_18 
REMARK   10  A    between atoms: C9_17  and  C12_23 
REMARK       I    between atoms: N4_18  and  C10_20 
REMARK   11  A    between atoms: C12_23  and  N6_26 
REMARK   12  A    between atoms: N6_26  and  N7_27 
REMARK   13  A    between atoms: N7_27  and  C14_29 
ROOT
HETATM    1  C1  UNL     1      39.462  74.706  27.550  1.00  0.00     0.012 C 
HETATM    2  C2  UNL     1      38.322  74.413  27.272  1.00  0.00    -0.116 C 
HETATM    3  C3  UNL     1      36.947  74.092  26.960  1.00  0.00     0.115 C 
ENDROOT
BRANCH   3   4
HETATM    4  C4  UNL     1      36.742  72.943  26.027  1.00  0.00     0.168 C 
BRANCH   4   5
HETATM    5  N1  UNL     1      36.441  73.278  24.674  1.00  0.00    -0.223 N 
HETATM    6  C5  UNL     1      37.416  73.564  23.697  1.00  0.00     0.338 C 
HETATM    7  O2  UNL     1      38.637  73.576  23.931  1.00  0.00    -0.245 OA
HETATM    8  N3  UNL     1      37.010  73.859  22.372  1.00  0.00    -0.342 N 
ATOM      9  H3  UNL     1      36.012  73.857  22.165  1.00  0.00     0.164 HD
BRANCH   5  10
HETATM   10  N2  UNL     1      35.079  73.320  24.309  1.00  0.00    -0.204 N 
ATOM     11  H2  UNL     1      34.504  74.148  24.463  1.00  0.00     0.216 HD
BRANCH  10  12
HETATM   12  O1  UNL     1      34.619  72.284  23.786  1.00  0.00    -0.274 OA
ATOM     13  H1  UNL     1      33.681  72.155  23.870  1.00  0.00     0.246 HD
ENDBRANCH  10  12
ENDBRANCH   5  10
BRANCH   8  14
HETATM   14  C6  UNL     1      37.916  74.158  21.308  1.00  0.00     0.124 C 
BRANCH  14  15
HETATM   15  C7  UNL     1      38.417  72.874  20.695  1.00  0.00     0.022 C 
BRANCH  15  16
HETATM   16  C8  UNL     1      39.908  73.030  20.490  1.00  0.00     0.029 C 
BRANCH  16  17
HETATM   17  C9  UNL     1      40.468  72.052  19.495  1.00  0.00     0.119 C 
BRANCH  17  18
HETATM   18  N4  UNL     1      39.724  70.816  19.641  1.00  0.00    -0.354 N 
HETATM   19  C10 UNL     1      40.405  69.578  19.797  1.00  0.00     0.214 C 
HETATM   20  C11 UNL     1      39.695  68.290  19.950  1.00  0.00     0.117 C 
HETATM   21  O3  UNL     1      41.664  69.538  19.810  1.00  0.00    -0.274 OA
ATOM     22  H4  UNL     1      38.705  70.836  19.633  1.00  0.00     0.162 HD
ENDBRANCH  17  18
BRANCH  17  23
HETATM   23  C12 UNL     1      40.466  72.546  18.086  1.00  0.00     0.228 C 
HETATM   24  C13 UNL     1      41.686  72.064  17.438  1.00  0.00     0.084 C 
HETATM   25  N5  UNL     1      42.657  71.684  16.920  1.00  0.00    -0.195 NA
BRANCH  23  26
HETATM   26  N6  UNL     1      39.350  72.112  17.302  1.00  0.00    -0.118 NA
BRANCH  26  27
HETATM   27  N7  UNL     1      39.643  71.159  16.367  1.00  0.00    -0.281 N 
ATOM     28  H7  UNL     1      40.476  71.256  15.788  1.00  0.00     0.184 HD
BRANCH  27  29
HETATM   29  C14 UNL     1      38.796  70.042  16.201  1.00  0.00     0.196 C 
HETATM   30  N8  UNL     1      37.833  69.702  17.174  1.00  0.00    -0.069 NA
HETATM   31  S1  UNL     1      38.921  69.121  14.874  1.00  0.00    -0.043 SA
ENDBRANCH  27  29
ENDBRANCH  26  27
ENDBRANCH  23  26
ENDBRANCH  17  23
ENDBRANCH  16  17
ENDBRANCH  15  16
ENDBRANCH  14  15
ENDBRANCH   8  14
ENDBRANCH   4   5
ENDBRANCH   3   4
TORSDOF 13
ENDMDL
MODEL 4
REMARK VINA RESULT: -6.584638768      2.268      3.381
REMARK  13 active torsions:
REMARK  status: ('A' for Active; 'I' for Inactive)
REMARK    1  A    between atoms: C3_3  and  C4_4 
REMARK    2  A    between atoms: C4_4  and  N1_5 
REMARK    3  A    between atoms: N1_5  and  N2_6 
REMARK       I    between atoms: N1_5  and  C5_10 
REMARK    4  A    between atoms: N2_6  and  O1_8 
REMARK       I    between atoms: C5_10  and  N3_12 
REMARK    5  A    between atoms: N3_12  and  C6_14 
REMARK    6  A    between atoms: C6_14  and  C7_15 
REMARK    7  A    between atoms: C7_15  and  C8_16 
REMARK    8  A    between atoms: C8_16  and  C9_17 
REMARK    9  A    between atoms: C9_17  and  N4_18 
REMARK   10  A    between atoms: C9_17  and  C12_23 
REMARK       I    between atoms: N4_18  and  C10_20 
REMARK   11  A    between atoms: C12_23  and  N6_26 
REMARK   12  A    between atoms: N6_26  and  N7_27 
REMARK   13  A    between atoms: N7_27  and  C14_29 
ROOT
HETATM    1  C1  UNL     1      39.402  74.334  27.508  1.00  0.00     0.012 C 
HETATM    2  C2  UNL     1      38.337  73.938  27.093  1.00  0.00    -0.116 C 
HETATM    3  C3  UNL     1      37.045  73.488  26.623  1.00  0.00     0.115 C 
ENDROOT
BRANCH   3   4
HETATM    4  C4  UNL     1      37.069  72.511  25.492  1.00  0.00     0.168 C 
BRANCH   4   5
HETATM    5  N1  UNL     1      36.838  73.049  24.192  1.00  0.00    -0.223 N 
HETATM    6  C5  UNL     1      37.847  73.594  23.373  1.00  0.00     0.338 C 
HETATM    7  O2  UNL     1      39.037  73.681  23.720  1.00  0.00    -0.245 OA
HETATM    8  N3  UNL     1      37.514  74.078  22.084  1.00  0.00    -0.342 N 
ATOM      9  H3  UNL     1      36.540  74.017  21.787  1.00  0.00     0.164 HD
BRANCH   5  10
HETATM   10  N2  UNL     1      35.511  73.024  23.712  1.00  0.00    -0.204 N 
ATOM     11  H2  UNL     1      35.068  72.162  23.395  1.00  0.00     0.216 HD
BRANCH  10  12
HETATM   12  O1  UNL     1      34.911  74.118  23.698  1.00  0.00    -0.274 OA
ATOM     13  H1  UNL     1      34.296  74.249  22.986  1.00  0.00     0.246 HD
ENDBRANCH  10  12
ENDBRANCH   5  10
BRANCH   8  14
HETATM   14  C6  UNL     1      38.459  74.645  21.175  1.00  0.00     0.124 C 
BRANCH  14  15
HETATM   15  C7  UNL     1      38.636  73.726  19.992  1.00  0.00     0.022 C 
BRANCH  15  16
HETATM   16  C8  UNL     1      39.819  72.831  20.296  1.00  0.00     0.029 C 
BRANCH  16  17
HETATM   17  C9  UNL     1      40.108  71.849  19.195  1.00  0.00     0.119 C 
BRANCH  17  18
HETATM   18  N4  UNL     1      40.453  70.589  19.823  1.00  0.00    -0.354 N 
HETATM   19  C10 UNL     1      41.641  69.899  19.453  1.00  0.00     0.214 C 
HETATM   20  C11 UNL     1      42.039  68.612  20.063  1.00  0.00     0.117 C 
HETATM   21  O3  UNL     1      42.409  70.375  18.576  1.00  0.00    -0.274 OA
ATOM     22  H4  UNL     1      39.840  70.194  20.535  1.00  0.00     0.162 HD
ENDBRANCH  17  18
BRANCH  17  23
HETATM   23  C12 UNL     1      39.001  71.699  18.205  1.00  0.00     0.228 C 
HETATM   24  C13 UNL     1      39.601  71.556  16.877  1.00  0.00     0.084 C 
HETATM   25  N5  UNL     1      40.074  71.444  15.820  1.00  0.00    -0.195 NA
BRANCH  23  26
HETATM   26  N6  UNL     1      38.149  70.571  18.427  1.00  0.00    -0.118 NA
BRANCH  26  27
HETATM   27  N7  UNL     1      37.920  69.800  17.322  1.00  0.00    -0.281 N 
ATOM     28  H7  UNL     1      38.508  69.910  16.496  1.00  0.00     0.184 HD
BRANCH  27  29
HETATM   29  C14 UNL     1      36.873  68.853  17.320  1.00  0.00     0.196 C 
HETATM   30  N8  UNL     1      36.021  68.701  18.435  1.00  0.00    -0.069 NA
HETATM   31  S1  UNL     1      36.632  67.914  16.022  1.00  0.00    -0.043 SA
ENDBRANCH  27  29
ENDBRANCH  26  27
ENDBRANCH  23  26
ENDBRANCH  17  23
ENDBRANCH  16  17
ENDBRANCH  15  16
ENDBRANCH  14  15
ENDBRANCH   8  14
ENDBRANCH   4   5
ENDBRANCH   3   4
TORSDOF 13
ENDMDL
MODEL 5
REMARK VINA RESULT: -6.493286549      2.289      3.231
REMARK  13 active torsions:
REMARK  status: ('A' for Active; 'I' for Inactive)
REMARK    1  A    between atoms: C3_3  and  C4_4 
REMARK    2  A    between atoms: C4_4  and  N1_5 
REMARK    3  A    between atoms: N1_5  and  N2_6 
REMARK       I    between atoms: N1_5  and  C5_10 
REMARK    4  A    between atoms: N2_6  and  O1_8 
REMARK       I    between atoms: C5_10  and  N3_12 
REMARK    5  A    between atoms: N3_12  and  C6_14 
REMARK    6  A    between atoms: C6_14  and  C7_15 
REMARK    7  A    between atoms: C7_15  and  C8_16 
REMARK    8  A    between atoms: C8_16  and  C9_17 
REMARK    9  A    between atoms: C9_17  and  N4_18 
REMARK   10  A    between atoms: C9_17  and  C12_23 
REMARK       I    between atoms: N4_18  and  C10_20 
REMARK   11  A    between atoms: C12_23  and  N6_26 
REMARK   12  A    between atoms: N6_26  and  N7_27 
REMARK   13  A    between atoms: N7_27  and  C14_29 
ROOT
HETATM    1  C1  UNL     1      39.406  74.959  27.788  1.00  0.00     0.012 C 
HETATM    2  C2  UNL     1      38.280  74.660  27.461  1.00  0.00    -0.116 C 
HETATM    3  C3  UNL     1      36.921  74.332  27.089  1.00  0.00     0.115 C 
ENDROOT
BRANCH   3   4
HETATM    4  C4  UNL     1      36.761  73.160  26.176  1.00  0.00     0.168 C 
BRANCH   4   5
HETATM    5  N1  UNL     1      36.455  73.461  24.816  1.00  0.00    -0.223 N 
HETATM    6  C5  UNL     1      37.420  73.802  23.847  1.00  0.00     0.338 C 
HETATM    7  O2  UNL     1      38.634  73.898  24.094  1.00  0.00    -0.245 OA
HETATM    8  N3  UNL     1      37.011  74.056  22.515  1.00  0.00    -0.342 N 
ATOM      9  H3  UNL     1      36.017  73.985  22.297  1.00  0.00     0.164 HD
BRANCH   5  10
HETATM   10  N2  UNL     1      35.098  73.407  24.435  1.00  0.00    -0.204 N 
ATOM     11  H2  UNL     1      34.433  74.133  24.703  1.00  0.00     0.216 HD
BRANCH  10  12
HETATM   12  O1  UNL     1      34.757  72.420  23.752  1.00  0.00    -0.274 OA
ATOM     13  H1  UNL     1      33.826  72.230  23.726  1.00  0.00     0.246 HD
ENDBRANCH  10  12
ENDBRANCH   5  10
BRANCH   8  14
HETATM   14  C6  UNL     1      37.907  74.405  21.458  1.00  0.00     0.124 C 
BRANCH  14  15
HETATM   15  C7  UNL     1      38.597  73.163  20.949  1.00  0.00     0.022 C 
BRANCH  15  16
HETATM   16  C8  UNL     1      39.138  73.485  19.573  1.00  0.00     0.029 C 
BRANCH  16  17
HETATM   17  C9  UNL     1      39.381  72.259  18.737  1.00  0.00     0.119 C 
BRANCH  17  18
HETATM   18  N4  UNL     1      40.792  72.237  18.406  1.00  0.00    -0.354 N 
HETATM   19  C10 UNL     1      41.217  71.965  17.077  1.00  0.00     0.214 C 
HETATM   20  C11 UNL     1      42.643  71.931  16.686  1.00  0.00     0.117 C 
HETATM   21  O3  UNL     1      40.373  71.741  16.169  1.00  0.00    -0.274 OA
ATOM     22  H4  UNL     1      41.484  72.418  19.132  1.00  0.00     0.162 HD
ENDBRANCH  17  18
BRANCH  17  23
HETATM   23  C12 UNL     1      38.933  70.986  19.378  1.00  0.00     0.228 C 
HETATM   24  C13 UNL     1      38.089  70.272  18.417  1.00  0.00     0.084 C 
HETATM   25  N5  UNL     1      37.416  69.704  17.658  1.00  0.00    -0.195 NA
BRANCH  23  26
HETATM   26  N6  UNL     1      39.994  70.109  19.769  1.00  0.00    -0.118 NA
BRANCH  26  27
HETATM   27  N7  UNL     1      39.878  68.828  19.306  1.00  0.00    -0.281 N 
ATOM     28  H7  UNL     1      38.990  68.335  19.396  1.00  0.00     0.184 HD
BRANCH  27  29
HETATM   29  C14 UNL     1      40.983  68.187  18.705  1.00  0.00     0.196 C 
HETATM   30  N8  UNL     1      41.276  68.363  17.336  1.00  0.00    -0.069 NA
HETATM   31  S1  UNL     1      41.941  67.227  19.589  1.00  0.00    -0.043 SA
ENDBRANCH  27  29
ENDBRANCH  26  27
ENDBRANCH  23  26
ENDBRANCH  17  23
ENDBRANCH  16  17
ENDBRANCH  15  16
ENDBRANCH  14  15
ENDBRANCH   8  14
ENDBRANCH   4   5
ENDBRANCH   3   4
TORSDOF 13
ENDMDL
