MODEL 1
REMARK VINA RESULT: -7.923241127      0.000      0.000
REMARK  10 active torsions:
REMARK  status: ('A' for Active; 'I' for Inactive)
REMARK    1  A    between atoms: C3_5  and  N2_6 
REMARK    2  A    between atoms: N2_6  and  C4_8 
REMARK    3  A    between atoms: C7_13  and  C8_14 
REMARK    4  A    between atoms: C8_14  and  S1_15 
REMARK    5  A    between atoms: S1_15  and  N4_18 
REMARK    6  A    between atoms: N4_18  and  C9_20 
REMARK    7  A    between atoms: C10_21  and  O3_22 
REMARK    8  A    between atoms: C11_24  and  C12_25 
REMARK    9  A    between atoms: C12_25  and  O4_28 
REMARK   10  A    between atoms: C17_33  and  C18_34 
ROOT
HETATM    1  N4  UNL     1      -0.569  22.156 -38.216  1.00  0.00    -0.281 N 
ATOM      2  H4  UNL     1      -0.074  22.860 -38.765  1.00  0.00     0.178 HD
ENDROOT
BRANCH   1   3
HETATM    3  S1  UNL     1      -0.609  20.509 -38.795  1.00  0.00     0.236 S 
HETATM    4  O1  UNL     1      -1.272  20.433 -40.112  1.00  0.00    -0.205 OA
HETATM    5  O2  UNL     1      -1.579  19.783 -37.815  1.00  0.00    -0.205 OA
BRANCH   3   6
HETATM    6  C8  UNL     1       0.877  19.642 -38.692  1.00  0.00     0.222 C 
BRANCH   6   7
HETATM    7  C7  UNL     1       1.047  18.674 -37.561  1.00  0.00     0.065 A 
HETATM    8  C2  UNL     1       2.060  18.606 -36.645  1.00  0.00     0.046 A 
HETATM    9  C1  UNL     1       2.983  19.695 -36.220  1.00  0.00     0.071 C 
HETATM   10  N1  UNL     1       1.995  17.392 -36.110  1.00  0.00    -0.194 N 
HETATM   11  C3  UNL     1       0.990  16.656 -36.621  1.00  0.00     0.679 A 
ATOM     12  H1  UNL     1       2.636  17.055 -35.392  1.00  0.00     0.184 HD
HETATM   13  N3  UNL     1       0.376  17.469 -37.535  1.00  0.00    -0.193 N 
ATOM     14  H3  UNL     1      -0.438  17.226 -38.100  1.00  0.00     0.184 HD
BRANCH  11  15
HETATM   15  N2  UNL     1       0.681  15.421 -36.408  1.00  0.00    -0.222 N 
ATOM     16  H2  UNL     1      -0.216  15.190 -35.981  1.00  0.00     0.178 HD
BRANCH  15  17
HETATM   17  C4  UNL     1       1.595  14.365 -36.770  1.00  0.00     0.091 C 
HETATM   18  C5  UNL     1       2.347  14.644 -38.063  1.00  0.00     0.032 C 
HETATM   19  C6  UNL     1       2.644  14.094 -35.696  1.00  0.00     0.032 C 
ENDBRANCH  15  17
ENDBRANCH  11  15
ENDBRANCH   6   7
ENDBRANCH   3   6
ENDBRANCH   1   3
BRANCH   1  20
HETATM   20  C9  UNL     1      -1.201  22.545 -37.013  1.00  0.00     0.084 A 
HETATM   21  C10 UNL     1      -0.882  22.225 -35.750  1.00  0.00     0.102 A 
HETATM   22  C11 UNL     1      -1.481  22.857 -34.663  1.00  0.00     0.012 A 
HETATM   23  C15 UNL     1      -2.413  23.831 -34.914  1.00  0.00     0.033 A 
HETATM   24  C16 UNL     1      -2.760  24.170 -36.209  1.00  0.00     0.020 A 
HETATM   25 BR1  UNL     1      -4.088  25.519 -36.462  1.00  0.00    -0.050 Br
HETATM   26  C17 UNL     1      -2.188  23.555 -37.283  1.00  0.00    -0.007 A 
BRANCH  21  27
HETATM   27  O3  UNL     1       0.054  21.255 -35.462  1.00  0.00    -0.358 OA
ATOM     28  H3  UNL     1       0.587  21.293 -34.677  1.00  0.00     0.217 HD
ENDBRANCH  21  27
BRANCH  22  29
HETATM   29  C12 UNL     1      -1.262  22.505 -33.240  1.00  0.00     0.080 C 
HETATM   30  C13 UNL     1       0.170  22.585 -32.775  1.00  0.00     0.051 C 
HETATM   31  C14 UNL     1      -2.129  23.299 -32.294  1.00  0.00     0.051 C 
BRANCH  29  32
HETATM   32  O4  UNL     1      -1.564  21.099 -33.142  1.00  0.00    -0.386 OA
ATOM     33  H4  UNL     1      -0.859  20.725 -32.625  1.00  0.00     0.211 HD
ENDBRANCH  29  32
ENDBRANCH  22  29
BRANCH  26  34
HETATM   34  C18 UNL     1      -2.645  23.681 -38.694  1.00  0.00     0.014 C 
HETATM   35  C19 UNL     1      -2.728  25.042 -39.282  1.00  0.00     0.015 C 
HETATM   36  C20 UNL     1      -4.107  23.101 -38.709  1.00  0.00     0.015 C 
ENDBRANCH  26  34
ENDBRANCH   1  20
TORSDOF 10
ENDMDL
MODEL 2
REMARK VINA RESULT: -7.843607722      1.024      1.489
REMARK  10 active torsions:
REMARK  status: ('A' for Active; 'I' for Inactive)
REMARK    1  A    between atoms: C3_5  and  N2_6 
REMARK    2  A    between atoms: N2_6  and  C4_8 
REMARK    3  A    between atoms: C7_13  and  C8_14 
REMARK    4  A    between atoms: C8_14  and  S1_15 
REMARK    5  A    between atoms: S1_15  and  N4_18 
REMARK    6  A    between atoms: N4_18  and  C9_20 
REMARK    7  A    between atoms: C10_21  and  O3_22 
REMARK    8  A    between atoms: C11_24  and  C12_25 
REMARK    9  A    between atoms: C12_25  and  O4_28 
REMARK   10  A    between atoms: C17_33  and  C18_34 
ROOT
HETATM    1  N4  UNL     1      -0.996  22.142 -38.465  1.00  0.00    -0.281 N 
ATOM      2  H4  UNL     1      -0.749  22.865 -39.142  1.00  0.00     0.178 HD
ENDROOT
BRANCH   1   3
HETATM    3  S1  UNL     1      -0.754  20.467 -38.893  1.00  0.00     0.236 S 
HETATM    4  O1  UNL     1      -1.347  20.172 -40.212  1.00  0.00    -0.205 OA
HETATM    5  O2  UNL     1      -1.632  19.682 -37.872  1.00  0.00    -0.205 OA
BRANCH   3   6
HETATM    6  C8  UNL     1       0.846  19.862 -38.678  1.00  0.00     0.222 C 
BRANCH   6   7
HETATM    7  C7  UNL     1       1.019  18.384 -38.503  1.00  0.00     0.065 A 
HETATM    8  C2  UNL     1       0.902  17.397 -39.443  1.00  0.00     0.046 A 
HETATM    9  C1  UNL     1       1.041  17.522 -40.920  1.00  0.00     0.071 C 
HETATM   10  N1  UNL     1       0.750  16.262 -38.772  1.00  0.00    -0.194 N 
HETATM   11  C3  UNL     1       0.764  16.445 -37.438  1.00  0.00     0.679 A 
ATOM     12  H1  UNL     1       0.635  15.352 -39.217  1.00  0.00     0.184 HD
HETATM   13  N3  UNL     1       0.947  17.790 -37.260  1.00  0.00    -0.193 N 
ATOM     14  H3  UNL     1       1.018  18.271 -36.363  1.00  0.00     0.184 HD
BRANCH  11  15
HETATM   15  N2  UNL     1       0.561  15.597 -36.486  1.00  0.00    -0.222 N 
ATOM     16  H2  UNL     1      -0.380  15.245 -36.314  1.00  0.00     0.178 HD
BRANCH  15  17
HETATM   17  C4  UNL     1       1.656  15.145 -35.664  1.00  0.00     0.091 C 
HETATM   18  C5  UNL     1       2.963  15.013 -36.432  1.00  0.00     0.032 C 
HETATM   19  C6  UNL     1       1.930  16.066 -34.478  1.00  0.00     0.032 C 
ENDBRANCH  15  17
ENDBRANCH  11  15
ENDBRANCH   6   7
ENDBRANCH   3   6
ENDBRANCH   1   3
BRANCH   1  20
HETATM   20  C9  UNL     1      -1.523  22.530 -37.212  1.00  0.00     0.084 A 
HETATM   21  C10 UNL     1      -1.089  22.221 -35.981  1.00  0.00     0.102 A 
HETATM   22  C11 UNL     1      -1.598  22.851 -34.848  1.00  0.00     0.012 A 
HETATM   23  C15 UNL     1      -2.563  23.810 -35.019  1.00  0.00     0.033 A 
HETATM   24  C16 UNL     1      -3.029  24.137 -36.280  1.00  0.00     0.020 A 
HETATM   25 BR1  UNL     1      -4.394  25.465 -36.420  1.00  0.00    -0.050 Br
HETATM   26  C17 UNL     1      -2.546  23.524 -37.397  1.00  0.00    -0.007 A 
BRANCH  21  27
HETATM   27  O3  UNL     1      -0.117  21.267 -35.773  1.00  0.00    -0.358 OA
ATOM     28  H3  UNL     1      -0.330  20.399 -35.450  1.00  0.00     0.217 HD
ENDBRANCH  21  27
BRANCH  22  29
HETATM   29  C12 UNL     1      -1.247  22.511 -33.448  1.00  0.00     0.080 C 
HETATM   30  C13 UNL     1       0.226  22.541 -33.133  1.00  0.00     0.051 C 
HETATM   31  C14 UNL     1      -1.983  23.351 -32.434  1.00  0.00     0.051 C 
BRANCH  29  32
HETATM   32  O4  UNL     1      -1.590  21.119 -33.295  1.00  0.00    -0.386 OA
ATOM     33  H4  UNL     1      -2.358  20.987 -33.839  1.00  0.00     0.211 HD
ENDBRANCH  29  32
ENDBRANCH  22  29
BRANCH  26  34
HETATM   34  C18 UNL     1      -3.128  23.635 -38.762  1.00  0.00     0.014 C 
HETATM   35  C19 UNL     1      -3.243  24.987 -39.365  1.00  0.00     0.015 C 
HETATM   36  C20 UNL     1      -4.595  23.080 -38.634  1.00  0.00     0.015 C 
ENDBRANCH  26  34
ENDBRANCH   1  20
TORSDOF 10
ENDMDL
MODEL 3
REMARK VINA RESULT: -7.821333403      3.603      7.156
REMARK  10 active torsions:
REMARK  status: ('A' for Active; 'I' for Inactive)
REMARK    1  A    between atoms: C3_5  and  N2_6 
REMARK    2  A    between atoms: N2_6  and  C4_8 
REMARK    3  A    between atoms: C7_13  and  C8_14 
REMARK    4  A    between atoms: C8_14  and  S1_15 
REMARK    5  A    between atoms: S1_15  and  N4_18 
REMARK    6  A    between atoms: N4_18  and  C9_20 
REMARK    7  A    between atoms: C10_21  and  O3_22 
REMARK    8  A    between atoms: C11_24  and  C12_25 
REMARK    9  A    between atoms: C12_25  and  O4_28 
REMARK   10  A    between atoms: C17_33  and  C18_34 
ROOT
HETATM    1  N4  UNL     1      -1.468  19.900 -39.209  1.00  0.00    -0.281 N 
ATOM      2  H4  UNL     1      -2.357  19.801 -39.699  1.00  0.00     0.178 HD
ENDROOT
BRANCH   1   3
HETATM    3  S1  UNL     1      -1.364  21.007 -37.862  1.00  0.00     0.236 S 
HETATM    4  O1  UNL     1      -2.490  20.802 -36.929  1.00  0.00    -0.205 OA
HETATM    5  O2  UNL     1      -1.618  22.407 -38.498  1.00  0.00    -0.205 OA
BRANCH   3   6
HETATM    6  C8  UNL     1       0.180  21.122 -37.105  1.00  0.00     0.222 C 
BRANCH   6   7
HETATM    7  C7  UNL     1       0.268  21.857 -35.801  1.00  0.00     0.065 A 
HETATM    8  C2  UNL     1       1.265  21.814 -34.867  1.00  0.00     0.046 A 
HETATM    9  C1  UNL     1       2.691  21.434 -35.069  1.00  0.00     0.071 C 
HETATM   10  N1  UNL     1       0.744  22.294 -33.744  1.00  0.00    -0.194 N 
HETATM   11  C3  UNL     1      -0.546  22.655 -33.888  1.00  0.00     0.679 A 
ATOM     12  H1  UNL     1       1.262  22.379 -32.870  1.00  0.00     0.184 HD
HETATM   13  N3  UNL     1      -0.851  22.391 -35.196  1.00  0.00    -0.193 N 
ATOM     14  H3  UNL     1      -1.750  22.561 -35.646  1.00  0.00     0.184 HD
BRANCH  11  15
HETATM   15  N2  UNL     1      -1.389  23.074 -33.005  1.00  0.00    -0.222 N 
ATOM     16  H2  UNL     1      -2.374  23.172 -33.251  1.00  0.00     0.178 HD
BRANCH  15  17
HETATM   17  C4  UNL     1      -0.948  23.405 -31.672  1.00  0.00     0.091 C 
HETATM   18  C5  UNL     1      -1.624  24.648 -31.112  1.00  0.00     0.032 C 
HETATM   19  C6  UNL     1      -1.188  22.280 -30.670  1.00  0.00     0.032 C 
ENDBRANCH  15  17
ENDBRANCH  11  15
ENDBRANCH   6   7
ENDBRANCH   3   6
ENDBRANCH   1   3
BRANCH   1  20
HETATM   20  C9  UNL     1      -0.359  19.137 -39.642  1.00  0.00     0.084 A 
HETATM   21  C10 UNL     1       0.201  18.061 -39.070  1.00  0.00     0.102 A 
HETATM   22  C11 UNL     1       1.162  17.300 -39.730  1.00  0.00     0.012 A 
HETATM   23  C15 UNL     1       1.527  17.676 -40.998  1.00  0.00     0.033 A 
HETATM   24  C16 UNL     1       0.966  18.787 -41.601  1.00  0.00     0.020 A 
HETATM   25 BR1  UNL     1       1.555  19.251 -43.358  1.00  0.00    -0.050 Br
HETATM   26  C17 UNL     1       0.030  19.546 -40.965  1.00  0.00    -0.007 A 
BRANCH  21  27
HETATM   27  O3  UNL     1      -0.146  17.652 -37.800  1.00  0.00    -0.358 OA
ATOM     28  H3  UNL     1       0.510  17.459 -37.140  1.00  0.00     0.217 HD
ENDBRANCH  21  27
BRANCH  22  29
HETATM   29  C12 UNL     1       1.900  16.155 -39.144  1.00  0.00     0.080 C 
HETATM   30  C13 UNL     1       2.605  15.271 -40.141  1.00  0.00     0.051 C 
HETATM   31  C14 UNL     1       2.882  16.569 -38.076  1.00  0.00     0.051 C 
BRANCH  29  32
HETATM   32  O4  UNL     1       0.887  15.290 -38.592  1.00  0.00    -0.386 OA
ATOM     33  H4  UNL     1       1.113  15.192 -37.674  1.00  0.00     0.211 HD
ENDBRANCH  29  32
ENDBRANCH  22  29
BRANCH  26  34
HETATM   34  C18 UNL     1      -0.465  20.872 -41.425  1.00  0.00     0.014 C 
HETATM   35  C19 UNL     1      -0.959  20.986 -42.821  1.00  0.00     0.015 C 
HETATM   36  C20 UNL     1       0.771  21.838 -41.312  1.00  0.00     0.015 C 
ENDBRANCH  26  34
ENDBRANCH   1  20
TORSDOF 10
ENDMDL
MODEL 4
REMARK VINA RESULT: -7.754302871      3.434      7.538
REMARK  10 active torsions:
REMARK  status: ('A' for Active; 'I' for Inactive)
REMARK    1  A    between atoms: C3_5  and  N2_6 
REMARK    2  A    between atoms: N2_6  and  C4_8 
REMARK    3  A    between atoms: C7_13  and  C8_14 
REMARK    4  A    between atoms: C8_14  and  S1_15 
REMARK    5  A    between atoms: S1_15  and  N4_18 
REMARK    6  A    between atoms: N4_18  and  C9_20 
REMARK    7  A    between atoms: C10_21  and  O3_22 
REMARK    8  A    between atoms: C11_24  and  C12_25 
REMARK    9  A    between atoms: C12_25  and  O4_28 
REMARK   10  A    between atoms: C17_33  and  C18_34 
ROOT
HETATM    1  N4  UNL     1      -1.355  19.784 -39.462  1.00  0.00    -0.281 N 
ATOM      2  H4  UNL     1      -2.220  19.660 -39.989  1.00  0.00     0.178 HD
ENDROOT
BRANCH   1   3
HETATM    3  S1  UNL     1      -1.313  20.960 -38.171  1.00  0.00     0.236 S 
HETATM    4  O1  UNL     1      -0.975  22.299 -38.695  1.00  0.00    -0.205 OA
HETATM    5  O2  UNL     1      -0.081  20.541 -37.313  1.00  0.00    -0.205 OA
BRANCH   3   6
HETATM    6  C8  UNL     1      -2.654  20.934 -37.089  1.00  0.00     0.222 C 
BRANCH   6   7
HETATM    7  C7  UNL     1      -2.614  21.847 -35.901  1.00  0.00     0.065 A 
HETATM    8  C2  UNL     1      -3.084  23.126 -35.797  1.00  0.00     0.046 A 
HETATM    9  C1  UNL     1      -4.141  23.782 -36.617  1.00  0.00     0.071 C 
HETATM   10  N1  UNL     1      -2.492  23.654 -34.732  1.00  0.00    -0.194 N 
HETATM   11  C3  UNL     1      -1.657  22.789 -34.125  1.00  0.00     0.679 A 
ATOM     12  H1  UNL     1      -2.651  24.608 -34.410  1.00  0.00     0.184 HD
HETATM   13  N3  UNL     1      -1.740  21.634 -34.856  1.00  0.00    -0.193 N 
ATOM     14  H3  UNL     1      -1.240  20.766 -34.661  1.00  0.00     0.184 HD
BRANCH  11  15
HETATM   15  N2  UNL     1      -0.858  22.974 -33.129  1.00  0.00    -0.222 N 
ATOM     16  H2  UNL     1       0.139  23.112 -33.297  1.00  0.00     0.178 HD
BRANCH  15  17
HETATM   17  C4  UNL     1      -1.364  22.989 -31.778  1.00  0.00     0.091 C 
HETATM   18  C5  UNL     1      -0.441  22.292 -30.788  1.00  0.00     0.032 C 
HETATM   19  C6  UNL     1      -1.599  24.400 -31.247  1.00  0.00     0.032 C 
ENDBRANCH  15  17
ENDBRANCH  11  15
ENDBRANCH   6   7
ENDBRANCH   3   6
ENDBRANCH   1   3
BRANCH   1  20
HETATM   20  C9  UNL     1      -0.229  18.999 -39.799  1.00  0.00     0.084 A 
HETATM   21  C10 UNL     1       0.289  17.943 -39.154  1.00  0.00     0.102 A 
HETATM   22  C11 UNL     1       1.280  17.152 -39.727  1.00  0.00     0.012 A 
HETATM   23  C15 UNL     1       1.719  17.474 -40.986  1.00  0.00     0.033 A 
HETATM   24  C16 UNL     1       1.202  18.562 -41.664  1.00  0.00     0.020 A 
HETATM   25 BR1  UNL     1       1.894  18.951 -43.402  1.00  0.00    -0.050 Br
HETATM   26  C17 UNL     1       0.238  19.351 -41.113  1.00  0.00    -0.007 A 
BRANCH  21  27
HETATM   27  O3  UNL     1      -0.133  17.588 -37.890  1.00  0.00    -0.358 OA
ATOM     28  H3  UNL     1       0.446  17.155 -37.274  1.00  0.00     0.217 HD
ENDBRANCH  21  27
BRANCH  22  29
HETATM   29  C12 UNL     1       1.975  16.027 -39.054  1.00  0.00     0.080 C 
HETATM   30  C13 UNL     1       2.733  15.103 -39.973  1.00  0.00     0.051 C 
HETATM   31  C14 UNL     1       2.893  16.478 -37.945  1.00  0.00     0.051 C 
BRANCH  29  32
HETATM   32  O4  UNL     1       0.926  15.187 -38.532  1.00  0.00    -0.386 OA
ATOM     33  H4  UNL     1       1.001  14.367 -39.005  1.00  0.00     0.211 HD
ENDBRANCH  29  32
ENDBRANCH  22  29
BRANCH  26  34
HETATM   34  C18 UNL     1      -0.220  20.660 -41.654  1.00  0.00     0.014 C 
HETATM   35  C19 UNL     1      -0.667  20.713 -43.070  1.00  0.00     0.015 C 
HETATM   36  C20 UNL     1       1.027  21.612 -41.547  1.00  0.00     0.015 C 
ENDBRANCH  26  34
ENDBRANCH   1  20
TORSDOF 10
ENDMDL
MODEL 5
REMARK VINA RESULT: -7.734358936      4.805      7.373
REMARK  10 active torsions:
REMARK  status: ('A' for Active; 'I' for Inactive)
REMARK    1  A    between atoms: C3_5  and  N2_6 
REMARK    2  A    between atoms: N2_6  and  C4_8 
REMARK    3  A    between atoms: C7_13  and  C8_14 
REMARK    4  A    between atoms: C8_14  and  S1_15 
REMARK    5  A    between atoms: S1_15  and  N4_18 
REMARK    6  A    between atoms: N4_18  and  C9_20 
REMARK    7  A    between atoms: C10_21  and  O3_22 
REMARK    8  A    between atoms: C11_24  and  C12_25 
REMARK    9  A    between atoms: C12_25  and  O4_28 
REMARK   10  A    between atoms: C17_33  and  C18_34 
ROOT
HETATM    1  N4  UNL     1       1.688  16.117 -41.627  1.00  0.00    -0.281 N 
ATOM      2  H4  UNL     1       1.438  15.554 -42.440  1.00  0.00     0.178 HD
ENDROOT
BRANCH   1   3
HETATM    3  S1  UNL     1       2.663  15.399 -40.369  1.00  0.00     0.236 S 
HETATM    4  O1  UNL     1       1.850  15.130 -39.167  1.00  0.00    -0.205 OA
HETATM    5  O2  UNL     1       3.641  16.537 -39.947  1.00  0.00    -0.205 OA
BRANCH   3   6
HETATM    6  C8  UNL     1       3.671  14.089 -40.858  1.00  0.00     0.222 C 
BRANCH   6   7
HETATM    7  C7  UNL     1       4.528  13.437 -39.816  1.00  0.00     0.065 A 
HETATM    8  C2  UNL     1       5.042  12.169 -39.810  1.00  0.00     0.046 A 
HETATM    9  C1  UNL     1       5.300  11.282 -40.978  1.00  0.00     0.071 C 
HETATM   10  N1  UNL     1       5.383  11.913 -38.552  1.00  0.00    -0.194 N 
HETATM   11  C3  UNL     1       5.124  12.946 -37.728  1.00  0.00     0.679 A 
ATOM     12  H1  UNL     1       5.794  11.032 -38.245  1.00  0.00     0.184 HD
HETATM   13  N3  UNL     1       4.592  13.922 -38.526  1.00  0.00    -0.193 N 
ATOM     14  H3  UNL     1       4.294  14.848 -38.221  1.00  0.00     0.184 HD
BRANCH  11  15
HETATM   15  N2  UNL     1       5.241  13.026 -36.444  1.00  0.00    -0.222 N 
ATOM     16  H2  UNL     1       5.814  13.762 -36.033  1.00  0.00     0.178 HD
BRANCH  15  17
HETATM   17  C4  UNL     1       4.565  12.082 -35.588  1.00  0.00     0.091 C 
HETATM   18  C5  UNL     1       5.449  10.914 -35.174  1.00  0.00     0.032 C 
HETATM   19  C6  UNL     1       4.038  12.716 -34.304  1.00  0.00     0.032 C 
ENDBRANCH  15  17
ENDBRANCH  11  15
ENDBRANCH   6   7
ENDBRANCH   3   6
ENDBRANCH   1   3
BRANCH   1  20
HETATM   20  C9  UNL     1       1.234  17.454 -41.555  1.00  0.00     0.084 A 
HETATM   21  C10 UNL     1       0.498  18.046 -40.602  1.00  0.00     0.102 A 
HETATM   22  C11 UNL     1       0.307  19.425 -40.578  1.00  0.00     0.012 A 
HETATM   23  C15 UNL     1       0.901  20.178 -41.560  1.00  0.00     0.033 A 
HETATM   24  C16 UNL     1       1.657  19.585 -42.554  1.00  0.00     0.020 A 
HETATM   25 BR1  UNL     1       2.422  20.710 -43.895  1.00  0.00    -0.050 Br
HETATM   26  C17 UNL     1       1.846  18.236 -42.595  1.00  0.00    -0.007 A 
BRANCH  21  27
HETATM   27  O3  UNL     1      -0.107  17.320 -39.599  1.00  0.00    -0.358 OA
ATOM     28  H3  UNL     1       0.335  16.598 -39.168  1.00  0.00     0.217 HD
ENDBRANCH  21  27
BRANCH  22  29
HETATM   29  C12 UNL     1      -0.562  20.153 -39.623  1.00  0.00     0.080 C 
HETATM   30  C13 UNL     1      -0.092  20.139 -38.192  1.00  0.00     0.051 C 
HETATM   31  C14 UNL     1      -0.830  21.579 -40.037  1.00  0.00     0.051 C 
BRANCH  29  32
HETATM   32  O4  UNL     1      -1.792  19.402 -39.576  1.00  0.00    -0.386 OA
ATOM     33  H4  UNL     1      -1.642  18.713 -38.938  1.00  0.00     0.211 HD
ENDBRANCH  29  32
ENDBRANCH  22  29
BRANCH  26  34
HETATM   34  C18 UNL     1       2.444  17.483 -43.731  1.00  0.00     0.014 C 
HETATM   35  C19 UNL     1       3.847  17.788 -44.110  1.00  0.00     0.015 C 
HETATM   36  C20 UNL     1       1.559  17.845 -44.980  1.00  0.00     0.015 C 
ENDBRANCH  26  34
ENDBRANCH   1  20
TORSDOF 10
ENDMDL
