MODEL 1
REMARK VINA RESULT: -7.267625903      0.000      0.000
REMARK  11 active torsions:
REMARK  status: ('A' for Active; 'I' for Inactive)
REMARK    1  A    between atoms: C2_2  and  C3_3 
REMARK    2  A    between atoms: C2_2  and  C4_6 
REMARK    3  A    between atoms: C3_3  and  O1_4 
REMARK    4  A    between atoms: C14_17  and  C15_18 
REMARK    5  A    between atoms: C15_18  and  O2_19 
REMARK    6  A    between atoms: N1_21  and  O3_23 
REMARK    7  A    between atoms: C17_26  and  N2_27 
REMARK    8  A    between atoms: N2_27  and  C18_29 
REMARK    9  A    between atoms: C18_29  and  C19_30 
REMARK   10  A    between atoms: C19_30  and  N3_31 
REMARK   11  A    between atoms: C23_35  and  O4_36 
ROOT
HETATM    1  C4  UNL     1       3.939  14.109 -37.370  1.00  0.00    -0.038 C 
HETATM    2  C5  UNL     1       3.855  14.705 -38.683  1.00  0.00    -0.022 A 
HETATM    3  C6  UNL     1       3.771  14.083 -39.922  1.00  0.00     0.014 A 
HETATM    4  C7  UNL     1       3.722  14.817 -41.080  1.00  0.00     0.020 A 
HETATM    5  C8  UNL     1       3.756  16.171 -41.002  1.00  0.00     0.011 A 
HETATM    6 BR1  UNL     1       3.692  17.192 -42.622  1.00  0.00    -0.051 Br
HETATM    7  C9  UNL     1       3.837  16.772 -39.774  1.00  0.00     0.027 A 
HETATM    8  C10 UNL     1       3.889  16.114 -38.563  1.00  0.00    -0.041 A 
HETATM    9  C11 UNL     1       3.926  16.402 -37.163  1.00  0.00     0.035 C 
HETATM   10  C12 UNL     1       3.261  15.182 -36.514  1.00  0.00     0.033 C 
HETATM   11  C13 UNL     1       1.814  15.163 -36.533  1.00  0.00     0.049 C 
HETATM   12  C14 UNL     1       1.067  16.471 -36.701  1.00  0.00    -0.020 C 
HETATM   13  C16 UNL     1       1.848  17.656 -36.400  1.00  0.00     0.049 C 
HETATM   14  C17 UNL     1       1.560  18.957 -37.069  1.00  0.00     0.091 C 
HETATM   15  C22 UNL     1       2.677  19.810 -36.475  1.00  0.00     0.057 C 
HETATM   16  C23 UNL     1       3.889  18.927 -36.838  1.00  0.00     0.125 C 
HETATM   17  C24 UNL     1       3.365  17.568 -36.514  1.00  0.00     0.034 C 
ENDROOT
BRANCH  12  18
HETATM   18  C15 UNL     1       0.227  16.395 -37.900  1.00  0.00     0.162 C 
HETATM   19  N1  UNL     1       0.251  17.069 -38.964  1.00  0.00    -0.247 N 
ATOM     20  H1  UNL     1       0.961  17.798 -39.039  1.00  0.00     0.196 HD
BRANCH  18  21
HETATM   21  O2  UNL     1      -0.790  15.407 -37.884  1.00  0.00    -0.345 OA
ATOM     22  H2  UNL     1      -1.130  15.148 -38.731  1.00  0.00     0.219 HD
ENDBRANCH  18  21
BRANCH  19  23
HETATM   23  O3  UNL     1      -0.581  16.910 -40.013  1.00  0.00    -0.288 OA
ATOM     24  H3  UNL     1      -0.947  17.610 -40.540  1.00  0.00     0.244 HD
ENDBRANCH  19  23
ENDBRANCH  12  18
BRANCH  14  25
HETATM   25  N2  UNL     1       0.355  19.568 -37.041  1.00  0.00    -0.395 N 
ATOM     26  H2  UNL     1      -0.211  19.327 -36.228  1.00  0.00     0.159 HD
BRANCH  25  27
HETATM   27  C18 UNL     1      -0.252  20.452 -37.899  1.00  0.00     0.085 C 
BRANCH  27  28
HETATM   28  C19 UNL     1      -0.321  21.864 -37.406  1.00  0.00     0.315 C 
BRANCH  28  29
HETATM   29  N3  UNL     1      -0.509  21.820 -35.942  1.00  0.00     0.084 N 
HETATM   30  C20 UNL     1      -1.887  22.064 -35.591  1.00  0.00     0.309 C 
HETATM   31  C21 UNL     1       0.340  22.770 -35.275  1.00  0.00     0.309 C 
ENDBRANCH  28  29
ENDBRANCH  27  28
ENDBRANCH  25  27
ENDBRANCH  14  25
BRANCH   1  32
HETATM   32  C2  UNL     1       4.499  13.040 -36.912  1.00  0.00    -0.053 C 
HETATM   33  C1  UNL     1       4.247  12.819 -35.394  1.00  0.00     0.046 C 
BRANCH  32  34
HETATM   34  C3  UNL     1       5.405  12.054 -37.470  1.00  0.00     0.198 C 
BRANCH  34  35
HETATM   35  O1  UNL     1       5.734  10.941 -36.788  1.00  0.00    -0.397 OA
ATOM     36  H1  UNL     1       5.686  10.911 -35.840  1.00  0.00     0.209 HD
ENDBRANCH  34  35
ENDBRANCH  32  34
ENDBRANCH   1  32
BRANCH  16  37
HETATM   37  O4  UNL     1       4.905  19.370 -35.958  1.00  0.00    -0.395 OA
ATOM     38  H4  UNL     1       5.710  19.132 -36.403  1.00  0.00     0.210 HD
ENDBRANCH  16  37
TORSDOF 11
ENDMDL
MODEL 2
REMARK VINA RESULT: -7.098251879      0.946      1.527
REMARK  11 active torsions:
REMARK  status: ('A' for Active; 'I' for Inactive)
REMARK    1  A    between atoms: C2_2  and  C3_3 
REMARK    2  A    between atoms: C2_2  and  C4_6 
REMARK    3  A    between atoms: C3_3  and  O1_4 
REMARK    4  A    between atoms: C14_17  and  C15_18 
REMARK    5  A    between atoms: C15_18  and  O2_19 
REMARK    6  A    between atoms: N1_21  and  O3_23 
REMARK    7  A    between atoms: C17_26  and  N2_27 
REMARK    8  A    between atoms: N2_27  and  C18_29 
REMARK    9  A    between atoms: C18_29  and  C19_30 
REMARK   10  A    between atoms: C19_30  and  N3_31 
REMARK   11  A    between atoms: C23_35  and  O4_36 
ROOT
HETATM    1  C4  UNL     1       3.947  14.098 -37.404  1.00  0.00    -0.038 C 
HETATM    2  C5  UNL     1       3.854  14.699 -38.715  1.00  0.00    -0.022 A 
HETATM    3  C6  UNL     1       3.765  14.081 -39.956  1.00  0.00     0.014 A 
HETATM    4  C7  UNL     1       3.706  14.818 -41.110  1.00  0.00     0.020 A 
HETATM    5  C8  UNL     1       3.735  16.173 -41.029  1.00  0.00     0.011 A 
HETATM    6 BR1  UNL     1       3.657  17.198 -42.644  1.00  0.00    -0.051 Br
HETATM    7  C9  UNL     1       3.820  16.770 -39.799  1.00  0.00     0.027 A 
HETATM    8  C10 UNL     1       3.882  16.107 -38.591  1.00  0.00    -0.041 A 
HETATM    9  C11 UNL     1       3.926  16.390 -37.190  1.00  0.00     0.035 C 
HETATM   10  C12 UNL     1       3.270  15.166 -36.541  1.00  0.00     0.033 C 
HETATM   11  C13 UNL     1       1.824  15.141 -36.551  1.00  0.00     0.049 C 
HETATM   12  C14 UNL     1       1.070  16.446 -36.711  1.00  0.00    -0.020 C 
HETATM   13  C16 UNL     1       1.848  17.633 -36.410  1.00  0.00     0.049 C 
HETATM   14  C17 UNL     1       1.550  18.936 -37.073  1.00  0.00     0.091 C 
HETATM   15  C22 UNL     1       2.667  19.791 -36.483  1.00  0.00     0.057 C 
HETATM   16  C23 UNL     1       3.881  18.915 -36.856  1.00  0.00     0.125 C 
HETATM   17  C24 UNL     1       3.364  17.552 -36.533  1.00  0.00     0.034 C 
ENDROOT
BRANCH  12  18
HETATM   18  C15 UNL     1       0.223  16.371 -37.905  1.00  0.00     0.162 C 
HETATM   19  N1  UNL     1       0.232  17.055 -38.964  1.00  0.00    -0.247 N 
ATOM     20  H1  UNL     1       0.933  17.793 -39.036  1.00  0.00     0.196 HD
BRANCH  18  21
HETATM   21  O2  UNL     1      -0.781  15.371 -37.892  1.00  0.00    -0.345 OA
ATOM     22  H2  UNL     1      -0.487  14.485 -38.067  1.00  0.00     0.219 HD
ENDBRANCH  18  21
BRANCH  19  23
HETATM   23  O3  UNL     1      -0.604  16.894 -40.008  1.00  0.00    -0.288 OA
ATOM     24  H3  UNL     1      -0.711  17.503 -40.730  1.00  0.00     0.244 HD
ENDBRANCH  19  23
ENDBRANCH  12  18
BRANCH  14  25
HETATM   25  N2  UNL     1       0.343  19.541 -37.037  1.00  0.00    -0.395 N 
ATOM     26  H2  UNL     1      -0.328  19.085 -36.419  1.00  0.00     0.159 HD
BRANCH  25  27
HETATM   27  C18 UNL     1      -0.152  20.654 -37.672  1.00  0.00     0.085 C 
BRANCH  27  28
HETATM   28  C19 UNL     1      -1.176  20.374 -38.727  1.00  0.00     0.315 C 
BRANCH  28  29
HETATM   29  N3  UNL     1      -0.753  21.069 -39.960  1.00  0.00     0.084 N 
HETATM   30  C20 UNL     1       0.351  20.383 -40.586  1.00  0.00     0.309 C 
HETATM   31  C21 UNL     1      -0.392  22.435 -39.696  1.00  0.00     0.309 C 
ENDBRANCH  28  29
ENDBRANCH  27  28
ENDBRANCH  25  27
ENDBRANCH  14  25
BRANCH   1  32
HETATM   32  C2  UNL     1       4.515  13.030 -36.954  1.00  0.00    -0.053 C 
HETATM   33  C1  UNL     1       4.274  12.805 -35.434  1.00  0.00     0.046 C 
BRANCH  32  34
HETATM   34  C3  UNL     1       5.421  12.049 -37.520  1.00  0.00     0.198 C 
BRANCH  34  35
HETATM   35  O1  UNL     1       5.708  10.905 -36.872  1.00  0.00    -0.397 OA
ATOM     36  H1  UNL     1       6.131  10.179 -37.316  1.00  0.00     0.209 HD
ENDBRANCH  34  35
ENDBRANCH  32  34
ENDBRANCH   1  32
BRANCH  16  37
HETATM   37  O4  UNL     1       4.900  19.358 -35.980  1.00  0.00    -0.395 OA
ATOM     38  H4  UNL     1       5.697  19.244 -36.484  1.00  0.00     0.210 HD
ENDBRANCH  16  37
TORSDOF 11
ENDMDL
MODEL 3
REMARK VINA RESULT: -6.996108549      5.041      7.629
REMARK  11 active torsions:
REMARK  status: ('A' for Active; 'I' for Inactive)
REMARK    1  A    between atoms: C2_2  and  C3_3 
REMARK    2  A    between atoms: C2_2  and  C4_6 
REMARK    3  A    between atoms: C3_3  and  O1_4 
REMARK    4  A    between atoms: C14_17  and  C15_18 
REMARK    5  A    between atoms: C15_18  and  O2_19 
REMARK    6  A    between atoms: N1_21  and  O3_23 
REMARK    7  A    between atoms: C17_26  and  N2_27 
REMARK    8  A    between atoms: N2_27  and  C18_29 
REMARK    9  A    between atoms: C18_29  and  C19_30 
REMARK   10  A    between atoms: C19_30  and  N3_31 
REMARK   11  A    between atoms: C23_35  and  O4_36 
ROOT
HETATM    1  C4  UNL     1       0.929  21.614 -35.625  1.00  0.00    -0.038 C 
HETATM    2  C5  UNL     1       0.573  21.206 -36.965  1.00  0.00    -0.022 A 
HETATM    3  C6  UNL     1       0.814  19.996 -37.603  1.00  0.00     0.014 A 
HETATM    4  C7  UNL     1       0.420  19.791 -38.901  1.00  0.00     0.020 A 
HETATM    5  C8  UNL     1      -0.216  20.791 -39.561  1.00  0.00     0.011 A 
HETATM    6 BR1  UNL     1      -0.762  20.501 -41.374  1.00  0.00    -0.051 Br
HETATM    7  C9  UNL     1      -0.450  21.978 -38.919  1.00  0.00     0.027 A 
HETATM    8  C10 UNL     1      -0.090  22.269 -37.620  1.00  0.00    -0.041 A 
HETATM    9  C11 UNL     1      -0.210  23.325 -36.663  1.00  0.00     0.035 C 
HETATM   10  C12 UNL     1      -0.195  22.605 -35.309  1.00  0.00     0.033 C 
HETATM   11  C13 UNL     1      -1.445  22.007 -34.895  1.00  0.00     0.049 C 
HETATM   12  C14 UNL     1      -2.738  22.517 -35.501  1.00  0.00    -0.020 C 
HETATM   13  C16 UNL     1      -2.641  23.830 -36.110  1.00  0.00     0.049 C 
HETATM   14  C17 UNL     1      -3.527  24.217 -37.247  1.00  0.00     0.091 C 
HETATM   15  C22 UNL     1      -2.976  25.609 -37.544  1.00  0.00     0.057 C 
HETATM   16  C23 UNL     1      -1.484  25.259 -37.722  1.00  0.00     0.125 C 
HETATM   17  C24 UNL     1      -1.276  24.302 -36.595  1.00  0.00     0.034 C 
ENDROOT
BRANCH  12  18
HETATM   18  C15 UNL     1      -3.423  21.411 -36.176  1.00  0.00     0.162 C 
HETATM   19  N1  UNL     1      -3.024  20.621 -37.072  1.00  0.00    -0.247 N 
ATOM     20  H1  UNL     1      -2.068  20.742 -37.409  1.00  0.00     0.196 HD
BRANCH  18  21
HETATM   21  O2  UNL     1      -4.760  21.170 -35.770  1.00  0.00    -0.345 OA
ATOM     22  H2  UNL     1      -4.889  21.006 -34.843  1.00  0.00     0.219 HD
ENDBRANCH  18  21
BRANCH  19  23
HETATM   23  O3  UNL     1      -3.750  19.630 -37.625  1.00  0.00    -0.288 OA
ATOM     24  H3  UNL     1      -3.764  19.402 -38.548  1.00  0.00     0.244 HD
ENDBRANCH  19  23
ENDBRANCH  12  18
BRANCH  14  25
HETATM   25  N2  UNL     1      -4.876  24.180 -37.197  1.00  0.00    -0.395 N 
ATOM     26  H2  UNL     1      -5.246  23.735 -36.357  1.00  0.00     0.159 HD
BRANCH  25  27
HETATM   27  C18 UNL     1      -5.845  24.629 -38.061  1.00  0.00     0.085 C 
BRANCH  27  28
HETATM   28  C19 UNL     1      -5.672  24.194 -39.483  1.00  0.00     0.315 C 
BRANCH  28  29
HETATM   29  N3  UNL     1      -5.288  25.381 -40.273  1.00  0.00     0.084 N 
HETATM   30  C20 UNL     1      -5.892  26.576 -39.734  1.00  0.00     0.309 C 
HETATM   31  C21 UNL     1      -5.650  25.232 -41.656  1.00  0.00     0.309 C 
ENDBRANCH  28  29
ENDBRANCH  27  28
ENDBRANCH  25  27
ENDBRANCH  14  25
BRANCH   1  32
HETATM   32  C2  UNL     1       1.939  21.369 -34.859  1.00  0.00    -0.053 C 
HETATM   33  C1  UNL     1       2.021  22.322 -33.633  1.00  0.00     0.046 C 
BRANCH  32  34
HETATM   34  C3  UNL     1       3.080  20.477 -34.943  1.00  0.00     0.198 C 
BRANCH  34  35
HETATM   35  O1  UNL     1       3.936  20.532 -35.979  1.00  0.00    -0.397 OA
ATOM     36  H1  UNL     1       4.822  20.194 -35.906  1.00  0.00     0.209 HD
ENDBRANCH  34  35
ENDBRANCH  32  34
ENDBRANCH   1  32
BRANCH  16  37
HETATM   37  O4  UNL     1      -0.824  26.497 -37.545  1.00  0.00    -0.395 OA
ATOM     38  H4  UNL     1      -1.490  27.141 -37.755  1.00  0.00     0.210 HD
ENDBRANCH  16  37
TORSDOF 11
ENDMDL
MODEL 4
REMARK VINA RESULT: -6.985661839      5.286      8.106
REMARK  11 active torsions:
REMARK  status: ('A' for Active; 'I' for Inactive)
REMARK    1  A    between atoms: C2_2  and  C3_3 
REMARK    2  A    between atoms: C2_2  and  C4_6 
REMARK    3  A    between atoms: C3_3  and  O1_4 
REMARK    4  A    between atoms: C14_17  and  C15_18 
REMARK    5  A    between atoms: C15_18  and  O2_19 
REMARK    6  A    between atoms: N1_21  and  O3_23 
REMARK    7  A    between atoms: C17_26  and  N2_27 
REMARK    8  A    between atoms: N2_27  and  C18_29 
REMARK    9  A    between atoms: C18_29  and  C19_30 
REMARK   10  A    between atoms: C19_30  and  N3_31 
REMARK   11  A    between atoms: C23_35  and  O4_36 
ROOT
HETATM    1  C4  UNL     1       0.535  22.088 -35.168  1.00  0.00    -0.038 C 
HETATM    2  C5  UNL     1       0.406  21.540 -36.498  1.00  0.00    -0.022 A 
HETATM    3  C6  UNL     1       0.806  20.297 -36.975  1.00  0.00     0.014 A 
HETATM    4  C7  UNL     1       0.622  19.951 -38.289  1.00  0.00     0.020 A 
HETATM    5  C8  UNL     1       0.038  20.843 -39.129  1.00  0.00     0.011 A 
HETATM    6 BR1  UNL     1      -0.214  20.357 -40.964  1.00  0.00    -0.051 Br
HETATM    7  C9  UNL     1      -0.355  22.063 -38.646  1.00  0.00     0.027 A 
HETATM    8  C10 UNL     1      -0.209  22.492 -37.343  1.00  0.00    -0.041 A 
HETATM    9  C11 UNL     1      -0.528  23.618 -36.521  1.00  0.00     0.035 C 
HETATM   10  C12 UNL     1      -0.676  23.023 -35.115  1.00  0.00     0.033 C 
HETATM   11  C13 UNL     1      -1.939  22.380 -34.828  1.00  0.00     0.049 C 
HETATM   12  C14 UNL     1      -3.153  22.745 -35.660  1.00  0.00    -0.020 C 
HETATM   13  C16 UNL     1      -3.039  24.002 -36.375  1.00  0.00     0.049 C 
HETATM   14  C17 UNL     1      -3.765  24.225 -37.659  1.00  0.00     0.091 C 
HETATM   15  C22 UNL     1      -3.254  25.619 -38.009  1.00  0.00     0.057 C 
HETATM   16  C23 UNL     1      -1.735  25.358 -37.936  1.00  0.00     0.125 C 
HETATM   17  C24 UNL     1      -1.645  24.521 -36.702  1.00  0.00     0.034 C 
ENDROOT
BRANCH  12  18
HETATM   18  C15 UNL     1      -3.668  21.538 -36.315  1.00  0.00     0.162 C 
HETATM   19  N1  UNL     1      -3.273  20.930 -37.346  1.00  0.00    -0.247 N 
ATOM     20  H1  UNL     1      -2.461  21.313 -37.831  1.00  0.00     0.196 HD
BRANCH  18  21
HETATM   21  O2  UNL     1      -4.799  20.937 -35.707  1.00  0.00    -0.345 OA
ATOM     22  H2  UNL     1      -5.120  20.144 -36.119  1.00  0.00     0.219 HD
ENDBRANCH  18  21
BRANCH  19  23
HETATM   23  O3  UNL     1      -3.831  19.817 -37.862  1.00  0.00    -0.288 OA
ATOM     24  H3  UNL     1      -3.411  18.968 -37.931  1.00  0.00     0.244 HD
ENDBRANCH  19  23
ENDBRANCH  12  18
BRANCH  14  25
HETATM   25  N2  UNL     1      -5.102  24.100 -37.800  1.00  0.00    -0.395 N 
ATOM     26  H2  UNL     1      -5.511  23.364 -37.223  1.00  0.00     0.159 HD
BRANCH  25  27
HETATM   27  C18 UNL     1      -6.017  24.774 -38.571  1.00  0.00     0.085 C 
BRANCH  27  28
HETATM   28  C19 UNL     1      -6.800  25.826 -37.846  1.00  0.00     0.315 C 
BRANCH  28  29
HETATM   29  N3  UNL     1      -6.549  27.116 -38.518  1.00  0.00     0.084 N 
HETATM   30  C20 UNL     1      -7.711  27.969 -38.447  1.00  0.00     0.309 C 
HETATM   31  C21 UNL     1      -6.164  26.928 -39.890  1.00  0.00     0.309 C 
ENDBRANCH  28  29
ENDBRANCH  27  28
ENDBRANCH  25  27
ENDBRANCH  14  25
BRANCH   1  32
HETATM   32  C2  UNL     1       1.431  21.982 -34.245  1.00  0.00    -0.053 C 
HETATM   33  C1  UNL     1       0.924  22.432 -32.846  1.00  0.00     0.046 C 
BRANCH  32  34
HETATM   34  C3  UNL     1       2.841  21.642 -34.237  1.00  0.00     0.198 C 
BRANCH  34  35
HETATM   35  O1  UNL     1       3.555  21.591 -35.377  1.00  0.00    -0.397 OA
ATOM     36  H1  UNL     1       4.481  21.803 -35.390  1.00  0.00     0.209 HD
ENDBRANCH  34  35
ENDBRANCH  32  34
ENDBRANCH   1  32
BRANCH  16  37
HETATM   37  O4  UNL     1      -1.177  26.650 -37.788  1.00  0.00    -0.395 OA
ATOM     38  H4  UNL     1      -1.217  26.808 -36.852  1.00  0.00     0.210 HD
ENDBRANCH  16  37
TORSDOF 11
ENDMDL
MODEL 5
REMARK VINA RESULT: -6.946419672      7.753     10.432
REMARK  11 active torsions:
REMARK  status: ('A' for Active; 'I' for Inactive)
REMARK    1  A    between atoms: C2_2  and  C3_3 
REMARK    2  A    between atoms: C2_2  and  C4_6 
REMARK    3  A    between atoms: C3_3  and  O1_4 
REMARK    4  A    between atoms: C14_17  and  C15_18 
REMARK    5  A    between atoms: C15_18  and  O2_19 
REMARK    6  A    between atoms: N1_21  and  O3_23 
REMARK    7  A    between atoms: C17_26  and  N2_27 
REMARK    8  A    between atoms: N2_27  and  C18_29 
REMARK    9  A    between atoms: C18_29  and  C19_30 
REMARK   10  A    between atoms: C19_30  and  N3_31 
REMARK   11  A    between atoms: C23_35  and  O4_36 
ROOT
HETATM    1  C4  UNL     1      -1.878  23.484 -36.357  1.00  0.00    -0.038 C 
HETATM    2  C5  UNL     1      -1.428  23.621 -37.723  1.00  0.00    -0.022 A 
HETATM    3  C6  UNL     1      -0.788  22.689 -38.531  1.00  0.00     0.014 A 
HETATM    4  C7  UNL     1      -0.409  23.004 -39.810  1.00  0.00     0.020 A 
HETATM    5  C8  UNL     1      -0.669  24.248 -40.286  1.00  0.00     0.011 A 
HETATM    6 BR1  UNL     1      -0.134  24.685 -42.073  1.00  0.00    -0.051 Br
HETATM    7  C9  UNL     1      -1.303  25.157 -39.481  1.00  0.00     0.027 A 
HETATM    8  C10 UNL     1      -1.719  24.925 -38.186  1.00  0.00    -0.041 A 
HETATM    9  C11 UNL     1      -2.415  25.586 -37.127  1.00  0.00     0.035 C 
HETATM   10  C12 UNL     1      -3.070  24.444 -36.341  1.00  0.00     0.033 C 
HETATM   11  C13 UNL     1      -4.296  23.914 -36.896  1.00  0.00     0.049 C 
HETATM   12  C14 UNL     1      -5.099  24.773 -37.853  1.00  0.00    -0.020 C 
HETATM   13  C16 UNL     1      -4.796  26.190 -37.791  1.00  0.00     0.049 C 
HETATM   14  C17 UNL     1      -4.962  27.065 -38.988  1.00  0.00     0.091 C 
HETATM   15  C22 UNL     1      -4.451  28.385 -38.420  1.00  0.00     0.057 C 
HETATM   16  C23 UNL     1      -3.073  27.921 -37.903  1.00  0.00     0.125 C 
HETATM   17  C24 UNL     1      -3.425  26.613 -37.277  1.00  0.00     0.034 C 
ENDROOT
BRANCH  12  18
HETATM   18  C15 UNL     1      -5.227  24.075 -39.136  1.00  0.00     0.162 C 
HETATM   19  N1  UNL     1      -4.397  23.913 -40.070  1.00  0.00    -0.247 N 
ATOM     20  H1  UNL     1      -3.471  24.323 -39.947  1.00  0.00     0.196 HD
BRANCH  18  21
HETATM   21  O2  UNL     1      -6.485  23.473 -39.392  1.00  0.00    -0.345 OA
ATOM     22  H2  UNL     1      -6.876  23.004 -38.666  1.00  0.00     0.219 HD
ENDBRANCH  18  21
BRANCH  19  23
HETATM   23  O3  UNL     1      -4.628  23.245 -41.218  1.00  0.00    -0.288 OA
ATOM     24  H3  UNL     1      -5.033  23.608 -41.997  1.00  0.00     0.244 HD
ENDBRANCH  19  23
ENDBRANCH  12  18
BRANCH  14  25
HETATM   25  N2  UNL     1      -6.121  27.195 -39.670  1.00  0.00    -0.395 N 
ATOM     26  H2  UNL     1      -6.954  27.047 -39.101  1.00  0.00     0.159 HD
BRANCH  25  27
HETATM   27  C18 UNL     1      -6.391  27.489 -40.984  1.00  0.00     0.085 C 
BRANCH  27  28
HETATM   28  C19 UNL     1      -6.130  26.373 -41.947  1.00  0.00     0.315 C 
BRANCH  28  29
HETATM   29  N3  UNL     1      -5.150  26.855 -42.941  1.00  0.00     0.084 N 
HETATM   30  C20 UNL     1      -5.432  26.316 -44.249  1.00  0.00     0.309 C 
HETATM   31  C21 UNL     1      -3.805  26.524 -42.556  1.00  0.00     0.309 C 
ENDBRANCH  28  29
ENDBRANCH  27  28
ENDBRANCH  25  27
ENDBRANCH  14  25
BRANCH   1  32
HETATM   32  C2  UNL     1      -1.419  22.854 -35.329  1.00  0.00    -0.053 C 
HETATM   33  C1  UNL     1       0.133  22.875 -35.240  1.00  0.00     0.046 C 
BRANCH  32  34
HETATM   34  C3  UNL     1      -2.020  22.033 -34.294  1.00  0.00     0.198 C 
BRANCH  34  35
HETATM   35  O1  UNL     1      -1.265  21.291 -33.464  1.00  0.00    -0.397 OA
ATOM     36  H1  UNL     1      -1.374  20.348 -33.407  1.00  0.00     0.209 HD
ENDBRANCH  34  35
ENDBRANCH  32  34
ENDBRANCH   1  32
BRANCH  16  37
HETATM   37  O4  UNL     1      -2.710  28.919 -36.968  1.00  0.00    -0.395 OA
ATOM     38  H4  UNL     1      -1.762  28.953 -37.029  1.00  0.00     0.210 HD
ENDBRANCH  16  37
TORSDOF 11
ENDMDL
