MODEL 1
REMARK VINA RESULT: -9.499076461      0.000      0.000
REMARK  7 active torsions:
REMARK  status: ('A' for Active; 'I' for Inactive)
REMARK    1  A    between atoms: C3_3  and  N1_4 
REMARK    2  A    between atoms: N1_4  and  C4_6 
REMARK    3  A    between atoms: N5_15  and  C7_17 
REMARK    4  A    between atoms: C11_22  and  N6_23 
REMARK    5  A    between atoms: N6_23  and  C12_25 
REMARK    6  A    between atoms: C12_25  and  C13_26 
REMARK    7  A    between atoms: N8_36  and  C20_38 
ROOT
HETATM    1  C1  UNL     1      -2.011  23.469 -32.692  1.00  0.00     0.014 C 
HETATM    2  C2  UNL     1      -0.933  22.970 -32.885  1.00  0.00    -0.098 C 
HETATM    3  C3  UNL     1       0.387  22.333 -33.114  1.00  0.00     0.215 C 
ENDROOT
BRANCH   3   4
HETATM    4  N1  UNL     1       0.846  22.492 -34.453  1.00  0.00    -0.364 N 
ATOM      5  H1  UNL     1       0.613  23.363 -34.929  1.00  0.00     0.162 HD
BRANCH   4   6
HETATM    6  C4  UNL     1       1.531  21.625 -35.108  1.00  0.00     0.134 A 
HETATM    7  N2  UNL     1       2.818  21.281 -34.910  1.00  0.00    -0.283 N 
HETATM    8  N3  UNL     1       3.099  20.361 -35.814  1.00  0.00    -0.283 N 
ATOM      9  H2  UNL     1       3.450  21.657 -34.202  1.00  0.00     0.188 HD
HETATM   10  C5  UNL     1       2.033  20.100 -36.590  1.00  0.00     0.153 A 
ATOM     11  H3  UNL     1       4.007  19.908 -35.912  1.00  0.00     0.188 HD
HETATM   12  N4  UNL     1       1.794  19.268 -37.639  1.00  0.00    -0.174 N 
HETATM   13  C25 UNL     1       1.008  20.898 -36.161  1.00  0.00     0.099 A 
HETATM   14  C6  UNL     1       0.607  19.197 -38.261  1.00  0.00     0.685 A 
ATOM     15  H4  UNL     1       2.552  18.670 -37.968  1.00  0.00     0.186 HD
HETATM   16  N5  UNL     1       0.321  18.404 -39.230  1.00  0.00    -0.192 N 
HETATM   17  N7  UNL     1      -0.403  20.008 -37.812  1.00  0.00    -0.176 N 
ATOM     18  H5  UNL     1      -0.621  18.455 -39.617  1.00  0.00     0.184 HD
HETATM   19  C19 UNL     1      -0.255  20.857 -36.788  1.00  0.00     0.135 A 
ATOM     20  H7  UNL     1      -1.308  19.963 -38.281  1.00  0.00     0.186 HD
HETATM   21  N8  UNL     1      -1.130  21.643 -36.323  1.00  0.00    -0.370 N 
ATOM     22  H8  UNL     1      -0.865  22.227 -35.530  1.00  0.00     0.161 HD
BRANCH  16  23
HETATM   23  C7  UNL     1       1.206  17.470 -39.800  1.00  0.00     0.051 A 
HETATM   24  C8  UNL     1       1.608  17.502 -41.122  1.00  0.00     0.032 A 
HETATM   25  C9  UNL     1       2.476  16.588 -41.683  1.00  0.00     0.028 A 
HETATM   26  C10 UNL     1       2.988  15.574 -40.897  1.00  0.00     0.060 A 
HETATM   27 CL1  UNL     1       4.098  14.412 -41.614  1.00  0.00    -0.082 Cl
HETATM   28  C11 UNL     1       2.613  15.497 -39.551  1.00  0.00     0.052 A 
HETATM   29  C18 UNL     1       1.745  16.428 -39.039  1.00  0.00     0.060 A 
BRANCH  28  30
HETATM   30  N6  UNL     1       3.120  14.447 -38.747  1.00  0.00    -0.388 N 
ATOM     31  H6  UNL     1       3.865  13.875 -39.146  1.00  0.00     0.159 HD
BRANCH  30  32
HETATM   32  C12 UNL     1       2.682  14.118 -37.427  1.00  0.00     0.124 C 
BRANCH  32  33
HETATM   33  C13 UNL     1       3.714  14.504 -36.381  1.00  0.00     0.007 C 
HETATM   34  C14 UNL     1       3.504  13.847 -35.058  1.00  0.00     0.032 C 
HETATM   35  C15 UNL     1       3.989  12.438 -34.964  1.00  0.00     0.168 C 
HETATM   36  O1  UNL     1       5.258  12.252 -35.518  1.00  0.00    -0.391 OA
HETATM   37  C16 UNL     1       5.212  12.609 -36.874  1.00  0.00     0.168 C 
HETATM   38  C17 UNL     1       5.067  14.089 -36.961  1.00  0.00     0.032 C 
ENDBRANCH  32  33
ENDBRANCH  30  32
ENDBRANCH  28  30
ENDBRANCH  16  23
BRANCH  21  39
HETATM   39  C20 UNL     1      -2.472  21.775 -36.829  1.00  0.00     0.083 C 
HETATM   40  C21 UNL     1      -3.498  21.720 -35.714  1.00  0.00     0.025 C 
HETATM   41  C22 UNL     1      -4.209  23.045 -35.749  1.00  0.00     0.002 C 
HETATM   42  C23 UNL     1      -3.158  23.981 -36.315  1.00  0.00     0.002 C 
HETATM   43  C24 UNL     1      -2.620  23.146 -37.469  1.00  0.00     0.025 C 
ENDBRANCH  21  39
ENDBRANCH   4   6
ENDBRANCH   3   4
TORSDOF 7
ENDMDL
MODEL 2
REMARK VINA RESULT: -9.494387075      1.004      1.154
REMARK  7 active torsions:
REMARK  status: ('A' for Active; 'I' for Inactive)
REMARK    1  A    between atoms: C3_3  and  N1_4 
REMARK    2  A    between atoms: N1_4  and  C4_6 
REMARK    3  A    between atoms: N5_15  and  C7_17 
REMARK    4  A    between atoms: C11_22  and  N6_23 
REMARK    5  A    between atoms: N6_23  and  C12_25 
REMARK    6  A    between atoms: C12_25  and  C13_26 
REMARK    7  A    between atoms: N8_36  and  C20_38 
ROOT
HETATM    1  C1  UNL     1      -1.935  22.930 -33.409  1.00  0.00     0.014 C 
HETATM    2  C2  UNL     1      -0.749  22.746 -33.493  1.00  0.00    -0.098 C 
HETATM    3  C3  UNL     1       0.711  22.501 -33.582  1.00  0.00     0.215 C 
ENDROOT
BRANCH   3   4
HETATM    4  N1  UNL     1       1.163  22.366 -34.925  1.00  0.00    -0.364 N 
ATOM      5  H1  UNL     1       0.910  23.104 -35.582  1.00  0.00     0.162 HD
BRANCH   4   6
HETATM    6  C4  UNL     1       1.864  21.388 -35.376  1.00  0.00     0.134 A 
HETATM    7  N2  UNL     1       3.114  21.043 -35.012  1.00  0.00    -0.283 N 
HETATM    8  N3  UNL     1       3.431  19.986 -35.737  1.00  0.00    -0.283 N 
ATOM      9  H2  UNL     1       3.699  21.506 -34.316  1.00  0.00     0.188 HD
HETATM   10  C5  UNL     1       2.425  19.638 -36.557  1.00  0.00     0.153 A 
ATOM     11  H3  UNL     1       4.325  19.497 -35.681  1.00  0.00     0.188 HD
HETATM   12  N4  UNL     1       2.241  18.660 -37.484  1.00  0.00    -0.174 N 
HETATM   13  C25 UNL     1       1.402  20.522 -36.348  1.00  0.00     0.099 A 
HETATM   14  C6  UNL     1       1.110  18.527 -38.193  1.00  0.00     0.685 A 
ATOM     15  H4  UNL     1       2.998  17.996 -37.648  1.00  0.00     0.186 HD
HETATM   16  N5  UNL     1       0.874  17.600 -39.051  1.00  0.00    -0.192 N 
HETATM   17  N7  UNL     1       0.100  19.426 -37.966  1.00  0.00    -0.176 N 
ATOM     18  H5  UNL     1      -0.029  17.617 -39.524  1.00  0.00     0.184 HD
HETATM   19  C19 UNL     1       0.196  20.419 -37.074  1.00  0.00     0.135 A 
ATOM     20  H7  UNL     1      -0.762  19.334 -38.502  1.00  0.00     0.186 HD
HETATM   21  N8  UNL     1      -0.682  21.292 -36.815  1.00  0.00    -0.370 N 
ATOM     22  H8  UNL     1      -0.461  21.985 -36.099  1.00  0.00     0.161 HD
BRANCH  16  23
HETATM   23  C7  UNL     1       1.764  16.565 -39.389  1.00  0.00     0.051 A 
HETATM   24  C8  UNL     1       2.042  16.186 -40.689  1.00  0.00     0.032 A 
HETATM   25  C9  UNL     1       2.915  15.171 -41.024  1.00  0.00     0.028 A 
HETATM   26  C10 UNL     1       3.562  14.479 -40.019  1.00  0.00     0.060 A 
HETATM   27 CL1  UNL     1       4.678  13.189 -40.447  1.00  0.00    -0.082 Cl
HETATM   28  C11 UNL     1       3.316  14.824 -38.684  1.00  0.00     0.052 A 
HETATM   29  C18 UNL     1       2.438  15.839 -38.401  1.00  0.00     0.060 A 
BRANCH  28  30
HETATM   30  N6  UNL     1       3.962  14.105 -37.650  1.00  0.00    -0.388 N 
ATOM     31  H6  UNL     1       4.975  13.998 -37.721  1.00  0.00     0.159 HD
BRANCH  30  32
HETATM   32  C12 UNL     1       3.323  13.514 -36.516  1.00  0.00     0.124 C 
BRANCH  32  33
HETATM   33  C13 UNL     1       4.286  13.353 -35.351  1.00  0.00     0.007 C 
HETATM   34  C14 UNL     1       3.702  12.626 -34.186  1.00  0.00     0.032 C 
HETATM   35  C15 UNL     1       3.669  11.139 -34.317  1.00  0.00     0.168 C 
HETATM   36  O1  UNL     1       4.860  10.601 -34.810  1.00  0.00    -0.391 OA
HETATM   37  C16 UNL     1       5.107  11.146 -36.078  1.00  0.00     0.168 C 
HETATM   38  C17 UNL     1       5.482  12.577 -35.906  1.00  0.00     0.032 C 
ENDBRANCH  32  33
ENDBRANCH  30  32
ENDBRANCH  28  30
ENDBRANCH  16  23
BRANCH  21  39
HETATM   39  C20 UNL     1      -1.969  21.382 -37.455  1.00  0.00     0.083 C 
HETATM   40  C21 UNL     1      -3.101  21.273 -36.452  1.00  0.00     0.025 C 
HETATM   41  C22 UNL     1      -3.854  22.573 -36.546  1.00  0.00     0.002 C 
HETATM   42  C23 UNL     1      -2.787  23.554 -36.991  1.00  0.00     0.002 C 
HETATM   43  C24 UNL     1      -2.103  22.756 -38.092  1.00  0.00     0.025 C 
ENDBRANCH  21  39
ENDBRANCH   4   6
ENDBRANCH   3   4
TORSDOF 7
ENDMDL
MODEL 3
REMARK VINA RESULT: -9.422487259      1.118      1.497
REMARK  7 active torsions:
REMARK  status: ('A' for Active; 'I' for Inactive)
REMARK    1  A    between atoms: C3_3  and  N1_4 
REMARK    2  A    between atoms: N1_4  and  C4_6 
REMARK    3  A    between atoms: N5_15  and  C7_17 
REMARK    4  A    between atoms: C11_22  and  N6_23 
REMARK    5  A    between atoms: N6_23  and  C12_25 
REMARK    6  A    between atoms: C12_25  and  C13_26 
REMARK    7  A    between atoms: N8_36  and  C20_38 
ROOT
HETATM    1  C1  UNL     1      -2.033  23.199 -32.845  1.00  0.00     0.014 C 
HETATM    2  C2  UNL     1      -0.877  22.904 -33.001  1.00  0.00    -0.098 C 
HETATM    3  C3  UNL     1       0.544  22.520 -33.180  1.00  0.00     0.215 C 
ENDROOT
BRANCH   3   4
HETATM    4  N1  UNL     1       0.949  22.540 -34.545  1.00  0.00    -0.364 N 
ATOM      5  H1  UNL     1       0.703  23.362 -35.095  1.00  0.00     0.162 HD
BRANCH   4   6
HETATM    6  C4  UNL     1       1.599  21.604 -35.138  1.00  0.00     0.134 A 
HETATM    7  N2  UNL     1       2.846  21.174 -34.864  1.00  0.00    -0.283 N 
HETATM    8  N3  UNL     1       3.100  20.206 -35.725  1.00  0.00    -0.283 N 
ATOM      9  H2  UNL     1       3.468  21.526 -34.137  1.00  0.00     0.188 HD
HETATM   10  C5  UNL     1       2.057  19.997 -36.546  1.00  0.00     0.153 A 
ATOM     11  H3  UNL     1       3.976  19.685 -35.762  1.00  0.00     0.188 HD
HETATM   12  N4  UNL     1       1.808  19.149 -37.580  1.00  0.00    -0.174 N 
HETATM   13  C25 UNL     1       1.075  20.882 -36.193  1.00  0.00     0.099 A 
HETATM   14  C6  UNL     1       0.652  19.144 -38.259  1.00  0.00     0.685 A 
ATOM     15  H4  UNL     1       2.535  18.487 -37.852  1.00  0.00     0.186 HD
HETATM   16  N5  UNL     1       0.354  18.341 -39.218  1.00  0.00    -0.192 N 
HETATM   17  N7  UNL     1      -0.316  20.041 -37.887  1.00  0.00    -0.176 N 
ATOM     18  H5  UNL     1      -0.562  18.447 -39.653  1.00  0.00     0.184 HD
HETATM   19  C19 UNL     1      -0.156  20.911 -36.883  1.00  0.00     0.135 A 
ATOM     20  H7  UNL     1      -1.198  20.046 -38.400  1.00  0.00     0.186 HD
HETATM   21  N8  UNL     1      -0.992  21.773 -36.487  1.00  0.00    -0.370 N 
ATOM     22  H8  UNL     1      -0.723  22.363 -35.699  1.00  0.00     0.161 HD
BRANCH  16  23
HETATM   23  C7  UNL     1       1.194  17.327 -39.713  1.00  0.00     0.051 A 
HETATM   24  C8  UNL     1       1.496  17.166 -41.052  1.00  0.00     0.032 A 
HETATM   25  C9  UNL     1       2.320  16.174 -41.541  1.00  0.00     0.028 A 
HETATM   26  C10 UNL     1       2.889  15.275 -40.659  1.00  0.00     0.060 A 
HETATM   27 CL1  UNL     1       3.942  14.012 -41.284  1.00  0.00    -0.082 Cl
HETATM   28  C11 UNL     1       2.616  15.394 -39.291  1.00  0.00     0.052 A 
HETATM   29  C18 UNL     1       1.789  16.397 -38.854  1.00  0.00     0.060 A 
BRANCH  28  30
HETATM   30  N6  UNL     1       3.182  14.464 -38.386  1.00  0.00    -0.388 N 
ATOM     31  H6  UNL     1       3.472  13.562 -38.767  1.00  0.00     0.159 HD
BRANCH  30  32
HETATM   32  C12 UNL     1       3.384  14.675 -36.987  1.00  0.00     0.124 C 
BRANCH  32  33
HETATM   33  C13 UNL     1       2.208  14.170 -36.168  1.00  0.00     0.007 C 
HETATM   34  C14 UNL     1       2.606  13.415 -34.945  1.00  0.00     0.032 C 
HETATM   35  C15 UNL     1       3.007  14.260 -33.781  1.00  0.00     0.168 C 
HETATM   36  O1  UNL     1       2.145  15.335 -33.553  1.00  0.00    -0.391 OA
HETATM   37  C16 UNL     1       2.129  16.146 -34.697  1.00  0.00     0.168 C 
HETATM   38  C17 UNL     1       1.410  15.416 -35.777  1.00  0.00     0.032 C 
ENDBRANCH  32  33
ENDBRANCH  30  32
ENDBRANCH  28  30
ENDBRANCH  16  23
BRANCH  21  39
HETATM   39  C20 UNL     1      -2.294  21.986 -37.065  1.00  0.00     0.083 C 
HETATM   40  C21 UNL     1      -3.397  21.798 -36.042  1.00  0.00     0.025 C 
HETATM   41  C22 UNL     1      -4.100  23.126 -35.954  1.00  0.00     0.002 C 
HETATM   42  C23 UNL     1      -3.010  24.114 -36.318  1.00  0.00     0.002 C 
HETATM   43  C24 UNL     1      -2.393  23.430 -37.529  1.00  0.00     0.025 C 
ENDBRANCH  21  39
ENDBRANCH   4   6
ENDBRANCH   3   4
TORSDOF 7
ENDMDL
MODEL 4
REMARK VINA RESULT: -9.317295035      1.556      2.168
REMARK  7 active torsions:
REMARK  status: ('A' for Active; 'I' for Inactive)
REMARK    1  A    between atoms: C3_3  and  N1_4 
REMARK    2  A    between atoms: N1_4  and  C4_6 
REMARK    3  A    between atoms: N5_15  and  C7_17 
REMARK    4  A    between atoms: C11_22  and  N6_23 
REMARK    5  A    between atoms: N6_23  and  C12_25 
REMARK    6  A    between atoms: C12_25  and  C13_26 
REMARK    7  A    between atoms: N8_36  and  C20_38 
ROOT
HETATM    1  C1  UNL     1      -1.215  23.111 -34.819  1.00  0.00     0.014 C 
HETATM    2  C2  UNL     1      -0.141  22.646 -35.095  1.00  0.00    -0.098 C 
HETATM    3  C3  UNL     1       1.194  22.087 -35.420  1.00  0.00     0.215 C 
ENDROOT
BRANCH   3   4
HETATM    4  N1  UNL     1       1.240  20.670 -35.294  1.00  0.00    -0.364 N 
ATOM      5  H1  UNL     1       0.568  20.233 -34.664  1.00  0.00     0.162 HD
BRANCH   4   6
HETATM    6  C4  UNL     1       2.061  19.897 -35.912  1.00  0.00     0.134 A 
HETATM    7  N2  UNL     1       3.301  19.545 -35.523  1.00  0.00    -0.283 N 
HETATM    8  N3  UNL     1       3.770  18.747 -36.464  1.00  0.00    -0.283 N 
ATOM      9  H2  UNL     1       3.782  19.836 -34.671  1.00  0.00     0.188 HD
HETATM   10  C5  UNL     1       2.872  18.572 -37.448  1.00  0.00     0.153 A 
ATOM     11  H3  UNL     1       4.696  18.318 -36.446  1.00  0.00     0.188 HD
HETATM   12  N4  UNL     1       2.854  17.874 -38.615  1.00  0.00    -0.174 N 
HETATM   13  C25 UNL     1       1.761  19.301 -37.122  1.00  0.00     0.099 A 
HETATM   14  C6  UNL     1       1.803  17.869 -39.448  1.00  0.00     0.685 A 
ATOM     15  H4  UNL     1       3.678  17.329 -38.868  1.00  0.00     0.186 HD
HETATM   16  N5  UNL     1       1.723  17.198 -40.542  1.00  0.00    -0.192 N 
HETATM   17  N7  UNL     1       0.702  18.608 -39.099  1.00  0.00    -0.176 N 
ATOM     18  H5  UNL     1       0.865  17.287 -41.086  1.00  0.00     0.184 HD
HETATM   19  C19 UNL     1       0.634  19.324 -37.971  1.00  0.00     0.135 A 
ATOM     20  H7  UNL     1      -0.101  18.612 -39.728  1.00  0.00     0.186 HD
HETATM   21  N8  UNL     1      -0.336  20.038 -37.584  1.00  0.00    -0.370 N 
ATOM     22  H8  UNL     1      -0.238  20.522 -36.691  1.00  0.00     0.161 HD
BRANCH  16  23
HETATM   23  C7  UNL     1       2.726  16.351 -41.046  1.00  0.00     0.051 A 
HETATM   24  C8  UNL     1       3.294  16.496 -42.298  1.00  0.00     0.032 A 
HETATM   25  C9  UNL     1       4.279  15.668 -42.795  1.00  0.00     0.028 A 
HETATM   26  C10 UNL     1       4.741  14.626 -42.015  1.00  0.00     0.060 A 
HETATM   27 CL1  UNL     1       6.000  13.573 -42.649  1.00  0.00    -0.082 Cl
HETATM   28  C11 UNL     1       4.199  14.436 -40.739  1.00  0.00     0.052 A 
HETATM   29  C18 UNL     1       3.221  15.285 -40.288  1.00  0.00     0.060 A 
BRANCH  28  30
HETATM   30  N6  UNL     1       4.657  13.357 -39.943  1.00  0.00    -0.388 N 
ATOM     31  H6  UNL     1       5.362  12.744 -40.352  1.00  0.00     0.159 HD
BRANCH  30  32
HETATM   32  C12 UNL     1       4.218  13.051 -38.617  1.00  0.00     0.124 C 
BRANCH  32  33
HETATM   33  C13 UNL     1       4.866  13.962 -37.588  1.00  0.00     0.007 C 
HETATM   34  C14 UNL     1       3.893  14.811 -36.841  1.00  0.00     0.032 C 
HETATM   35  C15 UNL     1       3.175  14.124 -35.727  1.00  0.00     0.168 C 
HETATM   36  O1  UNL     1       4.012  13.346 -34.925  1.00  0.00    -0.391 OA
HETATM   37  C16 UNL     1       4.615  12.366 -35.726  1.00  0.00     0.168 C 
HETATM   38  C17 UNL     1       5.602  13.035 -36.619  1.00  0.00     0.032 C 
ENDBRANCH  32  33
ENDBRANCH  30  32
ENDBRANCH  28  30
ENDBRANCH  16  23
BRANCH  21  39
HETATM   39  C20 UNL     1      -1.567  20.219 -38.309  1.00  0.00     0.083 C 
HETATM   40  C21 UNL     1      -2.713  20.582 -37.384  1.00  0.00     0.025 C 
HETATM   41  C22 UNL     1      -3.182  21.940 -37.831  1.00  0.00     0.002 C 
HETATM   42  C23 UNL     1      -1.929  22.554 -38.426  1.00  0.00     0.002 C 
HETATM   43  C24 UNL     1      -1.407  21.393 -39.260  1.00  0.00     0.025 C 
ENDBRANCH  21  39
ENDBRANCH   4   6
ENDBRANCH   3   4
TORSDOF 7
ENDMDL
MODEL 5
REMARK VINA RESULT: -9.297636025      1.142      1.343
REMARK  7 active torsions:
REMARK  status: ('A' for Active; 'I' for Inactive)
REMARK    1  A    between atoms: C3_3  and  N1_4 
REMARK    2  A    between atoms: N1_4  and  C4_6 
REMARK    3  A    between atoms: N5_15  and  C7_17 
REMARK    4  A    between atoms: C11_22  and  N6_23 
REMARK    5  A    between atoms: N6_23  and  C12_25 
REMARK    6  A    between atoms: C12_25  and  C13_26 
REMARK    7  A    between atoms: N8_36  and  C20_38 
ROOT
HETATM    1  C1  UNL     1      -0.157  22.642 -31.268  1.00  0.00     0.014 C 
HETATM    2  C2  UNL     1      -0.614  22.768 -32.374  1.00  0.00    -0.098 C 
HETATM    3  C3  UNL     1      -1.190  22.941 -33.729  1.00  0.00     0.215 C 
ENDROOT
BRANCH   3   4
HETATM    4  N1  UNL     1      -0.193  23.097 -34.733  1.00  0.00    -0.364 N 
ATOM      5  H1  UNL     1      -0.033  24.037 -35.093  1.00  0.00     0.162 HD
BRANCH   4   6
HETATM    6  C4  UNL     1       0.523  22.147 -35.220  1.00  0.00     0.134 A 
HETATM    7  N2  UNL     1       1.753  21.767 -34.827  1.00  0.00    -0.283 N 
HETATM    8  N3  UNL     1       2.097  20.760 -35.609  1.00  0.00    -0.283 N 
ATOM      9  H2  UNL     1       2.309  22.174 -34.074  1.00  0.00     0.188 HD
HETATM   10  C5  UNL     1       1.126  20.479 -36.495  1.00  0.00     0.153 A 
ATOM     11  H3  UNL     1       2.984  20.261 -35.549  1.00  0.00     0.188 HD
HETATM   12  N4  UNL     1       0.978  19.570 -37.496  1.00  0.00    -0.174 N 
HETATM   13  C25 UNL     1       0.100  21.355 -36.270  1.00  0.00     0.099 A 
HETATM   14  C6  UNL     1      -0.121  19.497 -38.262  1.00  0.00     0.685 A 
ATOM     15  H4  UNL     1       1.738  18.913 -37.673  1.00  0.00     0.186 HD
HETATM   16  N5  UNL     1      -0.324  18.636 -39.193  1.00  0.00    -0.192 N 
HETATM   17  N7  UNL     1      -1.135  20.387 -38.017  1.00  0.00    -0.176 N 
ATOM     18  H5  UNL     1      -1.205  18.693 -39.703  1.00  0.00     0.184 HD
HETATM   19  C19 UNL     1      -1.073  21.314 -37.054  1.00  0.00     0.135 A 
ATOM     20  H7  UNL     1      -1.973  20.340 -38.596  1.00  0.00     0.186 HD
HETATM   21  N8  UNL     1      -1.957  22.175 -36.773  1.00  0.00    -0.370 N 
ATOM     22  H8  UNL     1      -1.764  22.813 -36.001  1.00  0.00     0.161 HD
BRANCH  16  23
HETATM   23  C7  UNL     1       0.574  17.619 -39.564  1.00  0.00     0.051 A 
HETATM   24  C8  UNL     1       1.231  17.580 -40.780  1.00  0.00     0.032 A 
HETATM   25  C9  UNL     1       2.113  16.585 -41.146  1.00  0.00     0.028 A 
HETATM   26  C10 UNL     1       2.373  15.556 -40.262  1.00  0.00     0.060 A 
HETATM   27 CL1  UNL     1       3.502  14.289 -40.729  1.00  0.00    -0.082 Cl
HETATM   28  C11 UNL     1       1.735  15.548 -39.016  1.00  0.00     0.052 A 
HETATM   29  C18 UNL     1       0.865  16.559 -38.698  1.00  0.00     0.060 A 
BRANCH  28  30
HETATM   30  N6  UNL     1       1.984  14.484 -38.114  1.00  0.00    -0.388 N 
ATOM     31  H6  UNL     1       2.432  13.649 -38.493  1.00  0.00     0.159 HD
BRANCH  30  32
HETATM   32  C12 UNL     1       1.664  14.476 -36.721  1.00  0.00     0.124 C 
BRANCH  32  33
HETATM   33  C13 UNL     1       2.793  15.053 -35.883  1.00  0.00     0.007 C 
HETATM   34  C14 UNL     1       2.481  15.130 -34.426  1.00  0.00     0.032 C 
HETATM   35  C15 UNL     1       2.628  13.847 -33.677  1.00  0.00     0.168 C 
HETATM   36  O1  UNL     1       3.799  13.154 -33.991  1.00  0.00    -0.391 OA
HETATM   37  C16 UNL     1       3.791  12.860 -35.363  1.00  0.00     0.168 C 
HETATM   38  C17 UNL     1       3.992  14.131 -36.113  1.00  0.00     0.032 C 
ENDBRANCH  32  33
ENDBRANCH  30  32
ENDBRANCH  28  30
ENDBRANCH  16  23
BRANCH  21  39
HETATM   39  C20 UNL     1      -3.214  22.321 -37.461  1.00  0.00     0.083 C 
HETATM   40  C21 UNL     1      -4.305  22.817 -36.532  1.00  0.00     0.025 C 
HETATM   41  C22 UNL     1      -4.753  24.136 -37.100  1.00  0.00     0.002 C 
HETATM   42  C23 UNL     1      -3.511  24.642 -37.809  1.00  0.00     0.002 C 
HETATM   43  C24 UNL     1      -3.061  23.383 -38.536  1.00  0.00     0.025 C 
ENDBRANCH  21  39
ENDBRANCH   4   6
ENDBRANCH   3   4
TORSDOF 7
ENDMDL
