MODEL 1
REMARK VINA RESULT: -8.449480276      0.000      0.000
REMARK  9 active torsions:
REMARK  status: ('A' for Active; 'I' for Inactive)
REMARK    1  A    between atoms: C2_2  and  C3_3 
REMARK    2  A    between atoms: C3_3  and  C5_6 
REMARK    3  A    between atoms: C3_3  and  N4_17 
REMARK    4  A    between atoms: C10_11  and  N2_12 
REMARK    5  A    between atoms: C13_20  and  N5_21 
REMARK    6  A    between atoms: N5_21  and  C14_23 
REMARK    7  A    between atoms: C17_29  and  N7_30 
REMARK    8  A    between atoms: C18_35  and  C19_36 
REMARK    9  A    between atoms: C19_36  and  N9_37 
ROOT
HETATM    1  C3  UNL     1       2.310  15.136 -37.485  1.00  0.00     0.164 C 
HETATM    2  C4  UNL     1       0.976  14.483 -37.860  1.00  0.00     0.097 C 
HETATM    3  N1  UNL     1      -0.055  13.987 -38.124  1.00  0.00    -0.194 NA
ENDROOT
BRANCH   1   4
HETATM    4  C2  UNL     1       3.022  15.113 -38.810  1.00  0.00     0.049 C 
HETATM    5  C1  UNL     1       2.208  15.190 -40.039  1.00  0.00     0.009 C 
ENDBRANCH   1   4
BRANCH   1   6
HETATM    6  C5  UNL     1       2.836  14.213 -36.475  1.00  0.00     0.054 A 
HETATM    7  C6  UNL     1       4.050  13.579 -36.568  1.00  0.00     0.035 A 
HETATM    8  C7  UNL     1       4.509  12.690 -35.592  1.00  0.00    -0.057 A 
HETATM    9  C8  UNL     1       5.810  12.009 -35.681  1.00  0.00     0.048 C 
HETATM   10  C9  UNL     1       3.712  12.439 -34.498  1.00  0.00     0.054 A 
HETATM   11  C10 UNL     1       2.501  13.081 -34.421  1.00  0.00     0.099 A 
HETATM   12  N3  UNL     1       2.107  13.931 -35.392  1.00  0.00    -0.343 N 
ATOM     13  H3  UNL     1       1.199  14.384 -35.294  1.00  0.00     0.167 HD
BRANCH  11  14
HETATM   14  N2  UNL     1       1.744  12.852 -33.415  1.00  0.00    -0.385 N 
ATOM     15  H22 UNL     1       2.122  12.414 -32.575  1.00  0.00     0.157 HD
ATOM     16  H21 UNL     1       0.762  13.122 -33.467  1.00  0.00     0.157 HD
ENDBRANCH  11  14
ENDBRANCH   1   6
BRANCH   1  17
HETATM   17  N4  UNL     1       1.983  16.433 -36.979  1.00  0.00    -0.366 N 
HETATM   18  C11 UNL     1       0.689  16.931 -37.296  1.00  0.00     0.126 C 
HETATM   19  C12 UNL     1       0.759  18.018 -38.311  1.00  0.00     0.046 C 
HETATM   20  C13 UNL     1       1.087  19.383 -37.880  1.00  0.00     0.107 C 
HETATM   21  C18 UNL     1       1.710  19.470 -36.495  1.00  0.00     0.050 C 
HETATM   22  C23 UNL     1       2.853  18.633 -36.181  1.00  0.00    -0.009 C 
HETATM   23  C24 UNL     1       4.201  19.307 -36.306  1.00  0.00     0.021 C 
HETATM   24  C25 UNL     1       2.793  18.239 -34.677  1.00  0.00     0.021 C 
HETATM   25  C26 UNL     1       3.012  17.392 -37.022  1.00  0.00     0.070 C 
BRANCH  20  26
HETATM   26  N5  UNL     1      -0.130  20.157 -37.849  1.00  0.00    -0.221 N 
ATOM     27  H5  UNL     1      -0.732  19.969 -37.047  1.00  0.00     0.178 HD
BRANCH  26  28
HETATM   28  C14 UNL     1      -0.571  21.022 -38.643  1.00  0.00     0.679 A 
HETATM   29  N6  UNL     1       0.145  21.276 -39.775  1.00  0.00    -0.200 N 
HETATM   30  C15 UNL     1      -0.177  22.167 -40.706  1.00  0.00     0.133 A 
ATOM     31  H6  UNL     1       0.999  20.737 -39.919  1.00  0.00     0.183 HD
HETATM   32  C16 UNL     1      -1.322  22.893 -40.508  1.00  0.00     0.093 A 
HETATM   33 CL1  UNL     1      -1.803  24.094 -41.690  1.00  0.00    -0.079 Cl
HETATM   34  C17 UNL     1      -2.064  22.658 -39.376  1.00  0.00     0.138 A 
HETATM   35  N8  UNL     1      -1.690  21.745 -38.475  1.00  0.00    -0.175 N 
ATOM     36  H8  UNL     1      -2.263  21.596 -37.646  1.00  0.00     0.186 HD
BRANCH  34  37
HETATM   37  N7  UNL     1      -3.148  23.374 -39.235  1.00  0.00    -0.384 N 
ATOM     38  H72 UNL     1      -3.941  23.293 -39.872  1.00  0.00     0.157 HD
ATOM     39  H71 UNL     1      -3.161  24.025 -38.450  1.00  0.00     0.157 HD
ENDBRANCH  34  37
ENDBRANCH  26  28
ENDBRANCH  20  26
BRANCH  21  40
HETATM   40  C19 UNL     1       1.735  20.936 -36.073  1.00  0.00     0.280 C 
BRANCH  40  41
HETATM   41  N9  UNL     1       1.240  21.162 -34.769  1.00  0.00     0.097 N 
HETATM   42  C20 UNL     1       1.537  22.387 -34.017  1.00  0.00     0.308 A 
HETATM   43  C21 UNL     1       0.273  22.249 -34.622  1.00  0.00     0.247 A 
HETATM   44  C22 UNL     1      -0.074  23.185 -35.727  1.00  0.00     0.045 C 
ENDBRANCH  40  41
ENDBRANCH  21  40
ENDBRANCH   1  17
TORSDOF 9
ENDMDL
MODEL 2
REMARK VINA RESULT: -8.122830886      2.953      5.407
REMARK  9 active torsions:
REMARK  status: ('A' for Active; 'I' for Inactive)
REMARK    1  A    between atoms: C2_2  and  C3_3 
REMARK    2  A    between atoms: C3_3  and  C5_6 
REMARK    3  A    between atoms: C3_3  and  N4_17 
REMARK    4  A    between atoms: C10_11  and  N2_12 
REMARK    5  A    between atoms: C13_20  and  N5_21 
REMARK    6  A    between atoms: N5_21  and  C14_23 
REMARK    7  A    between atoms: C17_29  and  N7_30 
REMARK    8  A    between atoms: C18_35  and  C19_36 
REMARK    9  A    between atoms: C19_36  and  N9_37 
ROOT
HETATM    1  C3  UNL     1       2.426  15.786 -39.054  1.00  0.00     0.164 C 
HETATM    2  C4  UNL     1       3.436  15.768 -37.901  1.00  0.00     0.097 C 
HETATM    3  N1  UNL     1       4.223  15.772 -37.031  1.00  0.00    -0.194 NA
ENDROOT
BRANCH   1   4
HETATM    4  C2  UNL     1       1.358  14.873 -38.513  1.00  0.00     0.049 C 
HETATM    5  C1  UNL     1       1.139  14.849 -37.054  1.00  0.00     0.009 C 
ENDBRANCH   1   4
BRANCH   1   6
HETATM    6  C5  UNL     1       3.212  15.239 -40.165  1.00  0.00     0.054 A 
HETATM    7  C6  UNL     1       3.631  13.934 -40.244  1.00  0.00     0.035 A 
HETATM    8  C7  UNL     1       4.396  13.455 -41.312  1.00  0.00    -0.057 A 
HETATM    9  C8  UNL     1       4.846  12.058 -41.407  1.00  0.00     0.048 C 
HETATM   10  C9  UNL     1       4.744  14.326 -42.319  1.00  0.00     0.054 A 
HETATM   11  C10 UNL     1       4.317  15.627 -42.224  1.00  0.00     0.099 A 
HETATM   12  N3  UNL     1       3.580  16.037 -41.171  1.00  0.00    -0.343 N 
ATOM     13  H3  UNL     1       3.286  17.013 -41.142  1.00  0.00     0.167 HD
BRANCH  11  14
HETATM   14  N2  UNL     1       4.639  16.451 -43.148  1.00  0.00    -0.385 N 
ATOM     15  H22 UNL     1       4.101  16.491 -44.014  1.00  0.00     0.157 HD
ATOM     16  H21 UNL     1       5.435  17.072 -42.999  1.00  0.00     0.157 HD
ENDBRANCH  11  14
ENDBRANCH   1   6
BRANCH   1  17
HETATM   17  N4  UNL     1       2.047  17.153 -39.223  1.00  0.00    -0.366 N 
HETATM   18  C11 UNL     1       2.527  18.071 -38.246  1.00  0.00     0.126 C 
HETATM   19  C12 UNL     1       1.435  18.518 -37.339  1.00  0.00     0.046 C 
HETATM   20  C13 UNL     1       0.529  19.587 -37.778  1.00  0.00     0.107 C 
HETATM   21  C18 UNL     1       0.556  19.856 -39.275  1.00  0.00     0.050 C 
HETATM   22  C23 UNL     1       0.389  18.746 -40.195  1.00  0.00    -0.009 C 
HETATM   23  C24 UNL     1      -1.011  18.562 -40.737  1.00  0.00     0.021 C 
HETATM   24  C25 UNL     1       1.231  19.019 -41.474  1.00  0.00     0.021 C 
HETATM   25  C26 UNL     1       0.726  17.382 -39.650  1.00  0.00     0.070 C 
BRANCH  20  26
HETATM   26  N5  UNL     1       0.915  20.812 -37.119  1.00  0.00    -0.221 N 
ATOM     27  H5  UNL     1       1.593  21.375 -37.632  1.00  0.00     0.178 HD
BRANCH  26  28
HETATM   28  C14 UNL     1       0.555  21.298 -36.020  1.00  0.00     0.679 A 
HETATM   29  N6  UNL     1       1.516  21.824 -35.208  1.00  0.00    -0.200 N 
HETATM   30  C15 UNL     1       1.302  22.363 -34.012  1.00  0.00     0.133 A 
ATOM     31  H6  UNL     1       2.477  21.802 -35.545  1.00  0.00     0.183 HD
HETATM   32  C16 UNL     1       0.009  22.388 -33.559  1.00  0.00     0.093 A 
HETATM   33 CL1  UNL     1      -0.346  23.075 -31.986  1.00  0.00    -0.079 Cl
HETATM   34  C17 UNL     1      -0.979  21.866 -34.357  1.00  0.00     0.138 A 
HETATM   35  N8  UNL     1      -0.703  21.338 -35.552  1.00  0.00    -0.175 N 
ATOM     36  H8  UNL     1      -1.461  20.958 -36.119  1.00  0.00     0.186 HD
BRANCH  34  37
HETATM   37  N7  UNL     1      -2.195  21.916 -33.880  1.00  0.00    -0.384 N 
ATOM     38  H72 UNL     1      -2.390  22.152 -32.907  1.00  0.00     0.157 HD
ATOM     39  H71 UNL     1      -2.947  21.705 -34.537  1.00  0.00     0.157 HD
ENDBRANCH  34  37
ENDBRANCH  26  28
ENDBRANCH  20  26
BRANCH  21  40
HETATM   40  C19 UNL     1      -0.204  21.153 -39.541  1.00  0.00     0.280 C 
BRANCH  40  41
HETATM   41  N9  UNL     1       0.387  21.964 -40.535  1.00  0.00     0.097 N 
HETATM   42  C20 UNL     1      -0.371  22.484 -41.679  1.00  0.00     0.308 A 
HETATM   43  C21 UNL     1      -0.082  23.348 -40.606  1.00  0.00     0.247 A 
HETATM   44  C22 UNL     1      -1.223  23.862 -39.800  1.00  0.00     0.045 C 
ENDBRANCH  40  41
ENDBRANCH  21  40
ENDBRANCH   1  17
TORSDOF 9
ENDMDL
MODEL 3
REMARK VINA RESULT: -7.937527559      4.007      6.285
REMARK  9 active torsions:
REMARK  status: ('A' for Active; 'I' for Inactive)
REMARK    1  A    between atoms: C2_2  and  C3_3 
REMARK    2  A    between atoms: C3_3  and  C5_6 
REMARK    3  A    between atoms: C3_3  and  N4_17 
REMARK    4  A    between atoms: C10_11  and  N2_12 
REMARK    5  A    between atoms: C13_20  and  N5_21 
REMARK    6  A    between atoms: N5_21  and  C14_23 
REMARK    7  A    between atoms: C17_29  and  N7_30 
REMARK    8  A    between atoms: C18_35  and  C19_36 
REMARK    9  A    between atoms: C19_36  and  N9_37 
ROOT
HETATM    1  C3  UNL     1       3.342  17.550 -42.914  1.00  0.00     0.164 C 
HETATM    2  C4  UNL     1       2.378  17.532 -44.105  1.00  0.00     0.097 C 
HETATM    3  N1  UNL     1       1.635  17.494 -45.013  1.00  0.00    -0.194 NA
ENDROOT
BRANCH   1   4
HETATM    4  C2  UNL     1       3.731  19.004 -42.883  1.00  0.00     0.049 C 
HETATM    5  C1  UNL     1       4.167  19.634 -44.144  1.00  0.00     0.009 C 
ENDBRANCH   1   4
BRANCH   1   6
HETATM    6  C5  UNL     1       4.395  16.630 -43.351  1.00  0.00     0.054 A 
HETATM    7  C6  UNL     1       5.696  16.684 -42.915  1.00  0.00     0.035 A 
HETATM    8  C7  UNL     1       6.678  15.798 -43.370  1.00  0.00    -0.057 A 
HETATM    9  C8  UNL     1       8.073  15.845 -42.906  1.00  0.00     0.048 C 
HETATM   10  C9  UNL     1       6.326  14.839 -44.293  1.00  0.00     0.054 A 
HETATM   11  C10 UNL     1       5.022  14.799 -44.718  1.00  0.00     0.099 A 
HETATM   12  N3  UNL     1       4.114  15.678 -44.245  1.00  0.00    -0.343 N 
ATOM     13  H3  UNL     1       3.157  15.612 -44.591  1.00  0.00     0.167 HD
BRANCH  11  14
HETATM   14  N2  UNL     1       4.681  13.919 -45.582  1.00  0.00    -0.385 N 
ATOM     15  H22 UNL     1       5.195  13.041 -45.654  1.00  0.00     0.157 HD
ATOM     16  H21 UNL     1       3.883  14.109 -46.189  1.00  0.00     0.157 HD
ENDBRANCH  11  14
ENDBRANCH   1   6
BRANCH   1  17
HETATM   17  N4  UNL     1       2.587  17.086 -41.792  1.00  0.00    -0.366 N 
HETATM   18  C11 UNL     1       1.331  17.714 -41.568  1.00  0.00     0.126 C 
HETATM   19  C12 UNL     1       1.378  18.617 -40.385  1.00  0.00     0.046 C 
HETATM   20  C13 UNL     1       1.238  18.045 -39.039  1.00  0.00     0.107 C 
HETATM   21  C18 UNL     1       1.455  16.540 -38.972  1.00  0.00     0.050 C 
HETATM   22  C23 UNL     1       2.655  15.973 -39.558  1.00  0.00    -0.009 C 
HETATM   23  C24 UNL     1       3.780  15.697 -38.586  1.00  0.00     0.021 C 
HETATM   24  C25 UNL     1       2.323  14.563 -40.125  1.00  0.00     0.021 C 
HETATM   25  C26 UNL     1       3.322  16.802 -40.625  1.00  0.00     0.070 C 
BRANCH  20  26
HETATM   26  N5  UNL     1      -0.102  18.303 -38.570  1.00  0.00    -0.221 N 
ATOM     27  H5  UNL     1      -0.740  17.510 -38.650  1.00  0.00     0.178 HD
BRANCH  26  28
HETATM   28  C14 UNL     1      -0.613  19.338 -38.081  1.00  0.00     0.679 A 
HETATM   29  N6  UNL     1       0.202  20.196 -37.405  1.00  0.00    -0.200 N 
HETATM   30  C15 UNL     1      -0.184  21.324 -36.819  1.00  0.00     0.133 A 
ATOM     31  H6  UNL     1       1.190  19.952 -37.343  1.00  0.00     0.183 HD
HETATM   32  C16 UNL     1      -1.513  21.648 -36.899  1.00  0.00     0.093 A 
HETATM   33 CL1  UNL     1      -2.095  23.117 -36.141  1.00  0.00    -0.079 Cl
HETATM   34  C17 UNL     1      -2.358  20.803 -37.575  1.00  0.00     0.138 A 
HETATM   35  N8  UNL     1      -1.910  19.681 -38.147  1.00  0.00    -0.175 N 
ATOM     36  H8  UNL     1      -2.564  19.075 -38.641  1.00  0.00     0.186 HD
BRANCH  34  37
HETATM   37  N7  UNL     1      -3.615  21.158 -37.625  1.00  0.00    -0.384 N 
ATOM     38  H72 UNL     1      -4.120  21.490 -36.804  1.00  0.00     0.157 HD
ATOM     39  H71 UNL     1      -4.068  21.085 -38.536  1.00  0.00     0.157 HD
ENDBRANCH  34  37
ENDBRANCH  26  28
ENDBRANCH  20  26
BRANCH  21  40
HETATM   40  C19 UNL     1       1.008  16.054 -37.596  1.00  0.00     0.280 C 
BRANCH  40  41
HETATM   41  N9  UNL     1       1.762  16.594 -36.530  1.00  0.00     0.097 N 
HETATM   42  C20 UNL     1       1.351  16.453 -35.127  1.00  0.00     0.308 A 
HETATM   43  C21 UNL     1       2.380  15.629 -35.620  1.00  0.00     0.247 A 
HETATM   44  C22 UNL     1       2.124  14.164 -35.691  1.00  0.00     0.045 C 
ENDBRANCH  40  41
ENDBRANCH  21  40
ENDBRANCH   1  17
TORSDOF 9
ENDMDL
MODEL 4
REMARK VINA RESULT: -7.883451697      3.440      9.833
REMARK  9 active torsions:
REMARK  status: ('A' for Active; 'I' for Inactive)
REMARK    1  A    between atoms: C2_2  and  C3_3 
REMARK    2  A    between atoms: C3_3  and  C5_6 
REMARK    3  A    between atoms: C3_3  and  N4_17 
REMARK    4  A    between atoms: C10_11  and  N2_12 
REMARK    5  A    between atoms: C13_20  and  N5_21 
REMARK    6  A    between atoms: N5_21  and  C14_23 
REMARK    7  A    between atoms: C17_29  and  N7_30 
REMARK    8  A    between atoms: C18_35  and  C19_36 
REMARK    9  A    between atoms: C19_36  and  N9_37 
ROOT
HETATM    1  C3  UNL     1      -2.537  23.259 -37.374  1.00  0.00     0.164 C 
HETATM    2  C4  UNL     1      -3.151  22.169 -36.489  1.00  0.00     0.097 C 
HETATM    3  N1  UNL     1      -3.635  21.326 -35.831  1.00  0.00    -0.194 NA
ENDROOT
BRANCH   1   4
HETATM    4  C2  UNL     1      -1.523  23.852 -36.434  1.00  0.00     0.049 C 
HETATM    5  C1  UNL     1      -0.899  22.965 -35.433  1.00  0.00     0.009 C 
ENDBRANCH   1   4
BRANCH   1   6
HETATM    6  C5  UNL     1      -3.693  24.111 -37.665  1.00  0.00     0.054 A 
HETATM    7  C6  UNL     1      -4.197  25.050 -36.799  1.00  0.00     0.035 A 
HETATM    8  C7  UNL     1      -5.315  25.831 -37.107  1.00  0.00    -0.057 A 
HETATM    9  C8  UNL     1      -5.860  26.842 -36.187  1.00  0.00     0.048 C 
HETATM   10  C9  UNL     1      -5.935  25.650 -38.322  1.00  0.00     0.054 A 
HETATM   11  C10 UNL     1      -5.419  24.708 -39.176  1.00  0.00     0.099 A 
HETATM   12  N3  UNL     1      -4.336  23.981 -38.829  1.00  0.00    -0.343 N 
ATOM     13  H3  UNL     1      -3.988  23.290 -39.494  1.00  0.00     0.167 HD
BRANCH  11  14
HETATM   14  N2  UNL     1      -5.988  24.520 -40.306  1.00  0.00    -0.385 N 
ATOM     15  H22 UNL     1      -6.997  24.382 -40.358  1.00  0.00     0.157 HD
ATOM     16  H21 UNL     1      -5.417  24.521 -41.151  1.00  0.00     0.157 HD
ENDBRANCH  11  14
ENDBRANCH   1   6
BRANCH   1  17
HETATM   17  N4  UNL     1      -2.005  22.584 -38.516  1.00  0.00    -0.366 N 
HETATM   18  C11 UNL     1      -1.940  21.164 -38.441  1.00  0.00     0.126 C 
HETATM   19  C12 UNL     1      -0.537  20.693 -38.274  1.00  0.00     0.046 C 
HETATM   20  C13 UNL     1       0.331  20.589 -39.453  1.00  0.00     0.107 C 
HETATM   21  C18 UNL     1      -0.172  21.349 -40.671  1.00  0.00     0.050 C 
HETATM   22  C23 UNL     1      -0.539  22.746 -40.530  1.00  0.00    -0.009 C 
HETATM   23  C24 UNL     1       0.524  23.738 -40.945  1.00  0.00     0.021 C 
HETATM   24  C25 UNL     1      -1.714  23.061 -41.500  1.00  0.00     0.021 C 
HETATM   25  C26 UNL     1      -0.900  23.195 -39.137  1.00  0.00     0.070 C 
BRANCH  20  26
HETATM   26  N5  UNL     1       0.425  19.199 -39.829  1.00  0.00    -0.221 N 
ATOM     27  H5  UNL     1       0.178  19.003 -40.799  1.00  0.00     0.178 HD
BRANCH  26  28
HETATM   28  C14 UNL     1       0.761  18.191 -39.161  1.00  0.00     0.679 A 
HETATM   29  N6  UNL     1       2.040  18.130 -38.694  1.00  0.00    -0.200 N 
HETATM   30  C15 UNL     1       2.554  17.131 -37.986  1.00  0.00     0.133 A 
ATOM     31  H6  UNL     1       2.653  18.917 -38.905  1.00  0.00     0.183 HD
HETATM   32  C16 UNL     1       1.729  16.072 -37.707  1.00  0.00     0.093 A 
HETATM   33 CL1  UNL     1       2.343  14.714 -36.785  1.00  0.00    -0.079 Cl
HETATM   34  C17 UNL     1       0.435  16.107 -38.165  1.00  0.00     0.138 A 
HETATM   35  N8  UNL     1      -0.026  17.143 -38.872  1.00  0.00    -0.175 N 
ATOM     36  H8  UNL     1      -0.992  17.136 -39.197  1.00  0.00     0.186 HD
BRANCH  34  37
HETATM   37  N7  UNL     1      -0.311  15.075 -37.870  1.00  0.00    -0.384 N 
ATOM     38  H72 UNL     1       0.044  14.280 -37.340  1.00  0.00     0.157 HD
ATOM     39  H71 UNL     1      -1.276  15.107 -38.201  1.00  0.00     0.157 HD
ENDBRANCH  34  37
ENDBRANCH  26  28
ENDBRANCH  20  26
BRANCH  21  40
HETATM   40  C19 UNL     1       0.663  20.927 -41.877  1.00  0.00     0.280 C 
BRANCH  40  41
HETATM   41  N9  UNL     1      -0.104  20.426 -42.953  1.00  0.00     0.097 N 
HETATM   42  C20 UNL     1       0.055  20.919 -44.327  1.00  0.00     0.308 A 
HETATM   43  C21 UNL     1       0.626  19.681 -43.978  1.00  0.00     0.247 A 
HETATM   44  C22 UNL     1       2.110  19.569 -44.000  1.00  0.00     0.045 C 
ENDBRANCH  40  41
ENDBRANCH  21  40
ENDBRANCH   1  17
TORSDOF 9
ENDMDL
MODEL 5
REMARK VINA RESULT: -7.793512359      3.353      9.808
REMARK  9 active torsions:
REMARK  status: ('A' for Active; 'I' for Inactive)
REMARK    1  A    between atoms: C2_2  and  C3_3 
REMARK    2  A    between atoms: C3_3  and  C5_6 
REMARK    3  A    between atoms: C3_3  and  N4_17 
REMARK    4  A    between atoms: C10_11  and  N2_12 
REMARK    5  A    between atoms: C13_20  and  N5_21 
REMARK    6  A    between atoms: N5_21  and  C14_23 
REMARK    7  A    between atoms: C17_29  and  N7_30 
REMARK    8  A    between atoms: C18_35  and  C19_36 
REMARK    9  A    between atoms: C19_36  and  N9_37 
ROOT
HETATM    1  C3  UNL     1      -3.488  23.903 -38.591  1.00  0.00     0.164 C 
HETATM    2  C4  UNL     1      -3.306  23.812 -40.110  1.00  0.00     0.097 C 
HETATM    3  N1  UNL     1      -3.145  23.755 -41.271  1.00  0.00    -0.194 NA
ENDROOT
BRANCH   1   4
HETATM    4  C2  UNL     1      -4.738  23.085 -38.404  1.00  0.00     0.049 C 
HETATM    5  C1  UNL     1      -5.982  23.561 -39.038  1.00  0.00     0.009 C 
ENDBRANCH   1   4
BRANCH   1   6
HETATM    6  C5  UNL     1      -3.647  25.345 -38.382  1.00  0.00     0.054 A 
HETATM    7  C6  UNL     1      -4.030  25.913 -37.192  1.00  0.00     0.035 A 
HETATM    8  C7  UNL     1      -4.189  27.294 -37.037  1.00  0.00    -0.057 A 
HETATM    9  C8  UNL     1      -4.595  27.913 -35.766  1.00  0.00     0.048 C 
HETATM   10  C9  UNL     1      -3.956  28.112 -38.120  1.00  0.00     0.054 A 
HETATM   11  C10 UNL     1      -3.574  27.527 -39.301  1.00  0.00     0.099 A 
HETATM   12  N3  UNL     1      -3.435  26.189 -39.395  1.00  0.00    -0.343 N 
ATOM     13  H3  UNL     1      -3.151  25.798 -40.294  1.00  0.00     0.167 HD
BRANCH  11  14
HETATM   14  N2  UNL     1      -3.362  28.273 -40.319  1.00  0.00    -0.385 N 
ATOM     15  H22 UNL     1      -4.143  28.608 -40.884  1.00  0.00     0.157 HD
ATOM     16  H21 UNL     1      -2.402  28.532 -40.547  1.00  0.00     0.157 HD
ENDBRANCH  11  14
ENDBRANCH   1   6
BRANCH   1  17
HETATM   17  N4  UNL     1      -2.297  23.356 -38.020  1.00  0.00    -0.366 N 
HETATM   18  C11 UNL     1      -1.432  22.656 -38.906  1.00  0.00     0.126 C 
HETATM   19  C12 UNL     1      -1.486  21.187 -38.670  1.00  0.00     0.046 C 
HETATM   20  C13 UNL     1      -0.699  20.606 -37.575  1.00  0.00     0.107 C 
HETATM   21  C18 UNL     1      -0.217  21.616 -36.545  1.00  0.00     0.050 C 
HETATM   22  C23 UNL     1      -1.174  22.530 -35.949  1.00  0.00    -0.009 C 
HETATM   23  C24 UNL     1      -1.703  22.118 -34.593  1.00  0.00     0.021 C 
HETATM   24  C25 UNL     1      -0.467  23.884 -35.657  1.00  0.00     0.021 C 
HETATM   25  C26 UNL     1      -2.430  22.778 -36.744  1.00  0.00     0.070 C 
BRANCH  20  26
HETATM   26  N5  UNL     1       0.473  19.979 -38.137  1.00  0.00    -0.221 N 
ATOM     27  H5  UNL     1       1.139  20.626 -38.559  1.00  0.00     0.178 HD
BRANCH  26  28
HETATM   28  C14 UNL     1       0.808  18.772 -38.193  1.00  0.00     0.679 A 
HETATM   29  N6  UNL     1       2.105  18.481 -38.498  1.00  0.00    -0.200 N 
HETATM   30  C15 UNL     1       2.614  17.259 -38.609  1.00  0.00     0.133 A 
ATOM     31  H6  UNL     1       2.736  19.267 -38.654  1.00  0.00     0.183 HD
HETATM   32  C16 UNL     1       1.763  16.205 -38.403  1.00  0.00     0.093 A 
HETATM   33 CL1  UNL     1       2.363  14.565 -38.543  1.00  0.00    -0.079 Cl
HETATM   34  C17 UNL     1       0.451  16.468 -38.094  1.00  0.00     0.138 A 
HETATM   35  N8  UNL     1      -0.003  17.721 -37.994  1.00  0.00    -0.175 N 
ATOM     36  H8  UNL     1      -0.984  17.881 -37.763  1.00  0.00     0.186 HD
BRANCH  34  37
HETATM   37  N7  UNL     1      -0.319  15.429 -37.904  1.00  0.00    -0.384 N 
ATOM     38  H72 UNL     1       0.051  14.481 -37.838  1.00  0.00     0.157 HD
ATOM     39  H71 UNL     1      -1.319  15.617 -37.825  1.00  0.00     0.157 HD
ENDBRANCH  34  37
ENDBRANCH  26  28
ENDBRANCH  20  26
BRANCH  21  40
HETATM   40  C19 UNL     1       0.803  20.929 -35.642  1.00  0.00     0.280 C 
BRANCH  40  41
HETATM   41  N9  UNL     1       2.010  21.649 -35.495  1.00  0.00     0.097 N 
HETATM   42  C20 UNL     1       2.802  21.612 -34.259  1.00  0.00     0.308 A 
HETATM   43  C21 UNL     1       3.229  20.852 -35.364  1.00  0.00     0.247 A 
HETATM   44  C22 UNL     1       3.221  19.369 -35.233  1.00  0.00     0.045 C 
ENDBRANCH  40  41
ENDBRANCH  21  40
ENDBRANCH   1  17
TORSDOF 9
ENDMDL
