MODEL 1
REMARK VINA RESULT: -8.570553810      0.000      0.000
REMARK  11 active torsions:
REMARK  status: ('A' for Active; 'I' for Inactive)
REMARK    1  A    between atoms: C2_2  and  O1_4 
REMARK    2  A    between atoms: O1_4  and  C4_5 
REMARK    3  A    between atoms: C4_5  and  N2_9 
REMARK    4  A    between atoms: N2_9  and  C5_11 
REMARK    5  A    between atoms: C5_11  and  C6_12 
REMARK    6  A    between atoms: C6_12  and  C7_13 
REMARK    7  A    between atoms: C6_12  and  C9_17 
REMARK    8  A    between atoms: C7_13  and  C8_15 
REMARK    9  A    between atoms: C14_22  and  O3_23 
REMARK   10  A    between atoms: C18_28  and  O4_29 
REMARK   11  A    between atoms: C24_36  and  O5_37 
ROOT
HETATM    1  C9  UNL     1       1.451  17.489 -38.972  1.00  0.00     0.007 C 
HETATM    2  C10 UNL     1       1.292  16.292 -39.913  1.00  0.00     0.007 C 
HETATM    3  C11 UNL     1       2.527  15.474 -39.412  1.00  0.00     0.006 C 
HETATM    4  C12 UNL     1       2.147  15.528 -37.963  1.00  0.00     0.001 C 
HETATM    5  C13 UNL     1       2.841  14.712 -37.021  1.00  0.00     0.026 C 
HETATM    6  C14 UNL     1       4.288  14.396 -37.149  1.00  0.00     0.123 C 
HETATM    7  C15 UNL     1       4.514  13.169 -36.239  1.00  0.00     0.037 C 
HETATM    8  C16 UNL     1       4.217  13.551 -34.813  1.00  0.00    -0.001 C 
HETATM    9  C17 UNL     1       4.532  12.423 -33.900  1.00  0.00     0.037 C 
HETATM   10  C18 UNL     1       3.405  11.527 -33.539  1.00  0.00     0.118 C 
HETATM   11  C19 UNL     1       2.070  12.179 -33.411  1.00  0.00     0.032 C 
HETATM   12  C20 UNL     1       1.841  13.039 -34.646  1.00  0.00     0.012 C 
HETATM   13  C21 UNL     1       2.843  14.144 -34.605  1.00  0.00    -0.034 C 
HETATM   14  C22 UNL     1       2.854  14.746 -33.209  1.00  0.00     0.016 C 
HETATM   15  C23 UNL     1       2.654  15.228 -35.587  1.00  0.00     0.030 C 
HETATM   16  C24 UNL     1       1.339  15.920 -35.582  1.00  0.00     0.124 C 
HETATM   17  C25 UNL     1       1.498  17.226 -36.398  1.00  0.00     0.042 C 
HETATM   18  C26 UNL     1       2.061  17.051 -37.723  1.00  0.00    -0.033 C 
HETATM   19  C27 UNL     1       3.519  17.602 -37.685  1.00  0.00     0.016 C 
ENDROOT
BRANCH   1  20
HETATM   20  C6  UNL     1       0.398  18.487 -39.111  1.00  0.00     0.084 C 
BRANCH  20  21
HETATM   21  C5  UNL     1       0.732  19.825 -38.417  1.00  0.00     0.136 C 
BRANCH  21  22
HETATM   22  N2  UNL     1      -0.397  20.715 -38.605  1.00  0.00    -0.356 N 
ATOM     23  H2  UNL     1      -0.396  21.370 -39.387  1.00  0.00     0.163 HD
BRANCH  22  24
HETATM   24  C4  UNL     1      -1.515  20.688 -37.706  1.00  0.00     0.212 C 
HETATM   25  N1  UNL     1      -2.507  19.940 -38.012  1.00  0.00    -0.365 N 
ATOM     26  H12 UNL     1      -3.302  19.921 -37.373  1.00  0.00     0.159 HD
ATOM     27  H11 UNL     1      -2.477  19.393 -38.871  1.00  0.00     0.159 HD
BRANCH  24  28
HETATM   28  O1  UNL     1      -1.555  21.428 -36.544  1.00  0.00    -0.318 OA
BRANCH  28  29
HETATM   29  C2  UNL     1      -1.084  22.754 -36.462  1.00  0.00     0.123 C 
HETATM   30  C1  UNL     1      -2.152  23.666 -35.847  1.00  0.00     0.040 C 
HETATM   31  C3  UNL     1       0.132  22.879 -35.577  1.00  0.00     0.040 C 
ENDBRANCH  28  29
ENDBRANCH  24  28
ENDBRANCH  22  24
ENDBRANCH  21  22
ENDBRANCH  20  21
BRANCH  20  32
HETATM   32  C7  UNL     1       0.080  18.892 -40.507  1.00  0.00     0.182 C 
HETATM   33  O2  UNL     1      -1.162  18.912 -40.755  1.00  0.00    -0.290 OA
BRANCH  32  34
HETATM   34  C8  UNL     1       0.906  19.262 -41.632  1.00  0.00     0.238 C 
HETATM   35  F1  UNL     1       1.280  18.349 -42.549  1.00  0.00    -0.216 F 
ENDBRANCH  32  34
ENDBRANCH  20  32
ENDBRANCH   1  20
BRANCH  16  36
HETATM   36  O5  UNL     1       0.915  16.331 -34.320  1.00  0.00    -0.395 OA
ATOM     37  H5  UNL     1       1.327  17.129 -34.012  1.00  0.00     0.210 HD
ENDBRANCH  16  36
BRANCH   6  38
HETATM   38  O3  UNL     1       4.707  14.058 -38.417  1.00  0.00    -0.395 OA
ATOM     39  H3  UNL     1       4.914  14.790 -38.985  1.00  0.00     0.210 HD
ENDBRANCH   6  38
BRANCH  10  40
HETATM   40  O4  UNL     1       3.304  10.396 -34.378  1.00  0.00    -0.396 OA
ATOM     41  H4  UNL     1       4.084   9.854 -34.369  1.00  0.00     0.210 HD
ENDBRANCH  10  40
TORSDOF 11
ENDMDL
MODEL 2
REMARK VINA RESULT: -8.567189614      0.782      1.053
REMARK  11 active torsions:
REMARK  status: ('A' for Active; 'I' for Inactive)
REMARK    1  A    between atoms: C2_2  and  O1_4 
REMARK    2  A    between atoms: O1_4  and  C4_5 
REMARK    3  A    between atoms: C4_5  and  N2_9 
REMARK    4  A    between atoms: N2_9  and  C5_11 
REMARK    5  A    between atoms: C5_11  and  C6_12 
REMARK    6  A    between atoms: C6_12  and  C7_13 
REMARK    7  A    between atoms: C6_12  and  C9_17 
REMARK    8  A    between atoms: C7_13  and  C8_15 
REMARK    9  A    between atoms: C14_22  and  O3_23 
REMARK   10  A    between atoms: C18_28  and  O4_29 
REMARK   11  A    between atoms: C24_36  and  O5_37 
ROOT
HETATM    1  C9  UNL     1       1.438  17.553 -38.909  1.00  0.00     0.007 C 
HETATM    2  C10 UNL     1       1.241  16.363 -39.853  1.00  0.00     0.007 C 
HETATM    3  C11 UNL     1       2.471  15.522 -39.378  1.00  0.00     0.006 C 
HETATM    4  C12 UNL     1       2.118  15.575 -37.922  1.00  0.00     0.001 C 
HETATM    5  C13 UNL     1       2.814  14.743 -36.996  1.00  0.00     0.026 C 
HETATM    6  C14 UNL     1       4.253  14.403 -37.152  1.00  0.00     0.123 C 
HETATM    7  C15 UNL     1       4.474  13.168 -36.251  1.00  0.00     0.037 C 
HETATM    8  C16 UNL     1       4.210  13.548 -34.819  1.00  0.00    -0.001 C 
HETATM    9  C17 UNL     1       4.521  12.410 -33.916  1.00  0.00     0.037 C 
HETATM   10  C18 UNL     1       3.385  11.533 -33.539  1.00  0.00     0.118 C 
HETATM   11  C19 UNL     1       2.064  12.207 -33.384  1.00  0.00     0.032 C 
HETATM   12  C20 UNL     1       1.828  13.077 -34.611  1.00  0.00     0.012 C 
HETATM   13  C21 UNL     1       2.850  14.163 -34.583  1.00  0.00    -0.034 C 
HETATM   14  C22 UNL     1       2.897  14.758 -33.185  1.00  0.00     0.016 C 
HETATM   15  C23 UNL     1       2.663  15.256 -35.557  1.00  0.00     0.030 C 
HETATM   16  C24 UNL     1       1.360  15.970 -35.525  1.00  0.00     0.124 C 
HETATM   17  C25 UNL     1       1.527  17.277 -36.338  1.00  0.00     0.042 C 
HETATM   18  C26 UNL     1       2.063  17.099 -37.674  1.00  0.00    -0.033 C 
HETATM   19  C27 UNL     1       3.531  17.625 -37.660  1.00  0.00     0.016 C 
ENDROOT
BRANCH   1  20
HETATM   20  C6  UNL     1       0.400  18.570 -39.026  1.00  0.00     0.084 C 
BRANCH  20  21
HETATM   21  C5  UNL     1       0.780  19.906 -38.353  1.00  0.00     0.136 C 
BRANCH  21  22
HETATM   22  N2  UNL     1      -0.424  20.706 -38.245  1.00  0.00    -0.356 N 
ATOM     23  H2  UNL     1      -1.002  20.859 -39.071  1.00  0.00     0.163 HD
BRANCH  22  24
HETATM   24  C4  UNL     1      -0.816  21.284 -36.991  1.00  0.00     0.212 C 
HETATM   25  N1  UNL     1      -1.992  21.027 -36.558  1.00  0.00    -0.365 N 
ATOM     26  H12 UNL     1      -2.271  21.439 -35.667  1.00  0.00     0.159 HD
ATOM     27  H11 UNL     1      -2.610  20.429 -37.107  1.00  0.00     0.159 HD
BRANCH  24  28
HETATM   28  O1  UNL     1       0.019  22.093 -36.250  1.00  0.00    -0.318 OA
BRANCH  28  29
HETATM   29  C2  UNL     1       0.570  21.699 -35.015  1.00  0.00     0.123 C 
HETATM   30  C1  UNL     1       2.076  21.989 -34.982  1.00  0.00     0.040 C 
HETATM   31  C3  UNL     1      -0.026  22.455 -33.852  1.00  0.00     0.040 C 
ENDBRANCH  28  29
ENDBRANCH  24  28
ENDBRANCH  22  24
ENDBRANCH  21  22
ENDBRANCH  20  21
BRANCH  20  32
HETATM   32  C7  UNL     1       0.048  18.969 -40.415  1.00  0.00     0.182 C 
HETATM   33  O2  UNL     1      -1.200  18.981 -40.634  1.00  0.00    -0.290 OA
BRANCH  32  34
HETATM   34  C8  UNL     1       0.844  19.342 -41.558  1.00  0.00     0.238 C 
HETATM   35  F1  UNL     1       1.232  18.422 -42.464  1.00  0.00    -0.216 F 
ENDBRANCH  32  34
ENDBRANCH  20  32
ENDBRANCH   1  20
BRANCH  16  36
HETATM   36  O5  UNL     1       0.966  16.382 -34.254  1.00  0.00    -0.395 OA
ATOM     37  H5  UNL     1       0.572  15.697 -33.728  1.00  0.00     0.210 HD
ENDBRANCH  16  36
BRANCH   6  38
HETATM   38  O3  UNL     1       4.643  14.064 -38.429  1.00  0.00    -0.395 OA
ATOM     39  H3  UNL     1       5.547  14.262 -38.644  1.00  0.00     0.210 HD
ENDBRANCH   6  38
BRANCH  10  40
HETATM   40  O4  UNL     1       3.250  10.408 -34.382  1.00  0.00    -0.396 OA
ATOM     41  H4  UNL     1       2.646   9.758 -34.043  1.00  0.00     0.210 HD
ENDBRANCH  10  40
TORSDOF 11
ENDMDL
MODEL 3
REMARK VINA RESULT: -8.334316118      0.958      1.129
REMARK  11 active torsions:
REMARK  status: ('A' for Active; 'I' for Inactive)
REMARK    1  A    between atoms: C2_2  and  O1_4 
REMARK    2  A    between atoms: O1_4  and  C4_5 
REMARK    3  A    between atoms: C4_5  and  N2_9 
REMARK    4  A    between atoms: N2_9  and  C5_11 
REMARK    5  A    between atoms: C5_11  and  C6_12 
REMARK    6  A    between atoms: C6_12  and  C7_13 
REMARK    7  A    between atoms: C6_12  and  C9_17 
REMARK    8  A    between atoms: C7_13  and  C8_15 
REMARK    9  A    between atoms: C14_22  and  O3_23 
REMARK   10  A    between atoms: C18_28  and  O4_29 
REMARK   11  A    between atoms: C24_36  and  O5_37 
ROOT
HETATM    1  C9  UNL     1       1.439  17.472 -38.949  1.00  0.00     0.007 C 
HETATM    2  C10 UNL     1       1.265  16.273 -39.886  1.00  0.00     0.007 C 
HETATM    3  C11 UNL     1       2.501  15.451 -39.394  1.00  0.00     0.006 C 
HETATM    4  C12 UNL     1       2.134  15.510 -37.942  1.00  0.00     0.001 C 
HETATM    5  C13 UNL     1       2.832  14.693 -37.003  1.00  0.00     0.026 C 
HETATM    6  C14 UNL     1       4.276  14.370 -37.143  1.00  0.00     0.123 C 
HETATM    7  C15 UNL     1       4.504  13.144 -36.232  1.00  0.00     0.037 C 
HETATM    8  C16 UNL     1       4.221  13.532 -34.805  1.00  0.00    -0.001 C 
HETATM    9  C17 UNL     1       4.539  12.404 -33.891  1.00  0.00     0.037 C 
HETATM   10  C18 UNL     1       3.410  11.515 -33.518  1.00  0.00     0.118 C 
HETATM   11  C19 UNL     1       2.079  12.174 -33.380  1.00  0.00     0.032 C 
HETATM   12  C20 UNL     1       1.844  13.031 -34.616  1.00  0.00     0.012 C 
HETATM   13  C21 UNL     1       2.852  14.131 -34.586  1.00  0.00    -0.034 C 
HETATM   14  C22 UNL     1       2.878  14.736 -33.192  1.00  0.00     0.016 C 
HETATM   15  C23 UNL     1       2.660  15.214 -35.569  1.00  0.00     0.030 C 
HETATM   16  C24 UNL     1       1.348  15.912 -35.555  1.00  0.00     0.124 C 
HETATM   17  C25 UNL     1       1.506  17.215 -36.376  1.00  0.00     0.042 C 
HETATM   18  C26 UNL     1       2.057  17.034 -37.705  1.00  0.00    -0.033 C 
HETATM   19  C27 UNL     1       3.518  17.579 -37.681  1.00  0.00     0.016 C 
ENDROOT
BRANCH   1  20
HETATM   20  C6  UNL     1       0.388  18.475 -39.082  1.00  0.00     0.084 C 
BRANCH  20  21
HETATM   21  C5  UNL     1       0.734  19.812 -38.392  1.00  0.00     0.136 C 
BRANCH  21  22
HETATM   22  N2  UNL     1      -0.288  20.075 -37.399  1.00  0.00    -0.356 N 
ATOM     23  H2  UNL     1      -0.126  19.809 -36.427  1.00  0.00     0.163 HD
BRANCH  22  24
HETATM   24  C4  UNL     1      -1.526  20.703 -37.763  1.00  0.00     0.212 C 
HETATM   25  N1  UNL     1      -2.537  19.948 -37.974  1.00  0.00    -0.365 N 
ATOM     26  H12 UNL     1      -3.417  20.395 -38.233  1.00  0.00     0.159 HD
ATOM     27  H11 UNL     1      -2.439  18.938 -37.880  1.00  0.00     0.159 HD
BRANCH  24  28
HETATM   28  O1  UNL     1      -1.659  22.069 -37.890  1.00  0.00    -0.318 OA
BRANCH  28  29
HETATM   29  C2  UNL     1      -2.042  22.694 -39.093  1.00  0.00     0.123 C 
HETATM   30  C1  UNL     1      -2.133  24.213 -38.905  1.00  0.00     0.040 C 
HETATM   31  C3  UNL     1      -1.042  22.469 -40.201  1.00  0.00     0.040 C 
ENDBRANCH  28  29
ENDBRANCH  24  28
ENDBRANCH  22  24
ENDBRANCH  21  22
ENDBRANCH  20  21
BRANCH  20  32
HETATM   32  C7  UNL     1       0.062  18.879 -40.477  1.00  0.00     0.182 C 
HETATM   33  O2  UNL     1      -1.182  18.909 -40.713  1.00  0.00    -0.290 OA
BRANCH  32  34
HETATM   34  C8  UNL     1       0.881  19.239 -41.609  1.00  0.00     0.238 C 
HETATM   35  F1  UNL     1       1.238  18.321 -42.528  1.00  0.00    -0.216 F 
ENDBRANCH  32  34
ENDBRANCH  20  32
ENDBRANCH   1  20
BRANCH  16  36
HETATM   36  O5  UNL     1       0.937  16.328 -34.290  1.00  0.00    -0.395 OA
ATOM     37  H5  UNL     1       0.966  15.647 -33.628  1.00  0.00     0.210 HD
ENDBRANCH  16  36
BRANCH   6  38
HETATM   38  O3  UNL     1       4.682  14.027 -38.414  1.00  0.00    -0.395 OA
ATOM     39  H3  UNL     1       5.176  14.693 -38.877  1.00  0.00     0.210 HD
ENDBRANCH   6  38
BRANCH  10  40
HETATM   40  O4  UNL     1       3.297  10.382 -34.354  1.00  0.00    -0.396 OA
ATOM     41  H4  UNL     1       3.660  10.520 -35.220  1.00  0.00     0.210 HD
ENDBRANCH  10  40
TORSDOF 11
ENDMDL
MODEL 4
REMARK VINA RESULT: -8.316026907      0.779      1.066
REMARK  11 active torsions:
REMARK  status: ('A' for Active; 'I' for Inactive)
REMARK    1  A    between atoms: C2_2  and  O1_4 
REMARK    2  A    between atoms: O1_4  and  C4_5 
REMARK    3  A    between atoms: C4_5  and  N2_9 
REMARK    4  A    between atoms: N2_9  and  C5_11 
REMARK    5  A    between atoms: C5_11  and  C6_12 
REMARK    6  A    between atoms: C6_12  and  C7_13 
REMARK    7  A    between atoms: C6_12  and  C9_17 
REMARK    8  A    between atoms: C7_13  and  C8_15 
REMARK    9  A    between atoms: C14_22  and  O3_23 
REMARK   10  A    between atoms: C18_28  and  O4_29 
REMARK   11  A    between atoms: C24_36  and  O5_37 
ROOT
HETATM    1  C9  UNL     1       1.464  17.518 -38.931  1.00  0.00     0.007 C 
HETATM    2  C10 UNL     1       1.295  16.323 -39.873  1.00  0.00     0.007 C 
HETATM    3  C11 UNL     1       2.527  15.498 -39.377  1.00  0.00     0.006 C 
HETATM    4  C12 UNL     1       2.151  15.552 -37.927  1.00  0.00     0.001 C 
HETATM    5  C13 UNL     1       2.842  14.731 -36.987  1.00  0.00     0.026 C 
HETATM    6  C14 UNL     1       4.286  14.406 -37.120  1.00  0.00     0.123 C 
HETATM    7  C15 UNL     1       4.507  13.177 -36.212  1.00  0.00     0.037 C 
HETATM    8  C16 UNL     1       4.217  13.559 -34.785  1.00  0.00    -0.001 C 
HETATM    9  C17 UNL     1       4.527  12.427 -33.873  1.00  0.00     0.037 C 
HETATM   10  C18 UNL     1       3.396  11.538 -33.511  1.00  0.00     0.118 C 
HETATM   11  C19 UNL     1       2.065  12.198 -33.379  1.00  0.00     0.032 C 
HETATM   12  C20 UNL     1       1.838  13.061 -34.612  1.00  0.00     0.012 C 
HETATM   13  C21 UNL     1       2.847  14.159 -34.572  1.00  0.00    -0.034 C 
HETATM   14  C22 UNL     1       2.865  14.759 -33.176  1.00  0.00     0.016 C 
HETATM   15  C23 UNL     1       2.662  15.246 -35.552  1.00  0.00     0.030 C 
HETATM   16  C24 UNL     1       1.351  15.945 -35.543  1.00  0.00     0.124 C 
HETATM   17  C25 UNL     1       1.516  17.252 -36.358  1.00  0.00     0.042 C 
HETATM   18  C26 UNL     1       2.074  17.075 -37.685  1.00  0.00    -0.033 C 
HETATM   19  C27 UNL     1       3.536  17.618 -37.650  1.00  0.00     0.016 C 
ENDROOT
BRANCH   1  20
HETATM   20  C6  UNL     1       0.416  18.523 -39.067  1.00  0.00     0.084 C 
BRANCH  20  21
HETATM   21  C5  UNL     1       0.774  19.869 -38.400  1.00  0.00     0.136 C 
BRANCH  21  22
HETATM   22  N2  UNL     1      -0.463  20.499 -37.983  1.00  0.00    -0.356 N 
ATOM     23  H2  UNL     1      -1.311  20.354 -38.532  1.00  0.00     0.163 HD
BRANCH  22  24
HETATM   24  C4  UNL     1      -0.512  21.324 -36.811  1.00  0.00     0.212 C 
HETATM   25  N1  UNL     1       0.435  21.205 -35.958  1.00  0.00    -0.365 N 
ATOM     26  H12 UNL     1       0.400  21.791 -35.124  1.00  0.00     0.159 HD
ATOM     27  H11 UNL     1       1.186  20.538 -36.133  1.00  0.00     0.159 HD
BRANCH  24  28
HETATM   28  O1  UNL     1      -1.528  22.226 -36.575  1.00  0.00    -0.318 OA
BRANCH  28  29
HETATM   29  C2  UNL     1      -2.442  22.091 -35.511  1.00  0.00     0.123 C 
HETATM   30  C1  UNL     1      -2.286  23.250 -34.519  1.00  0.00     0.040 C 
HETATM   31  C3  UNL     1      -3.877  22.130 -35.977  1.00  0.00     0.040 C 
ENDBRANCH  28  29
ENDBRANCH  24  28
ENDBRANCH  22  24
ENDBRANCH  21  22
ENDBRANCH  20  21
BRANCH  20  32
HETATM   32  C7  UNL     1       0.076  18.909 -40.463  1.00  0.00     0.182 C 
HETATM   33  O2  UNL     1      -1.171  18.949 -40.684  1.00  0.00    -0.290 OA
BRANCH  32  34
HETATM   34  C8  UNL     1       0.883  19.241 -41.612  1.00  0.00     0.238 C 
HETATM   35  F1  UNL     1       1.267  18.293 -42.488  1.00  0.00    -0.216 F 
ENDBRANCH  32  34
ENDBRANCH  20  32
ENDBRANCH   1  20
BRANCH  16  36
HETATM   36  O5  UNL     1       0.933  16.357 -34.279  1.00  0.00    -0.395 OA
ATOM     37  H5  UNL     1       0.113  15.971 -33.997  1.00  0.00     0.210 HD
ENDBRANCH  16  36
BRANCH   6  38
HETATM   38  O3  UNL     1       4.700  14.067 -38.389  1.00  0.00    -0.395 OA
ATOM     39  H3  UNL     1       4.919  13.151 -38.514  1.00  0.00     0.210 HD
ENDBRANCH   6  38
BRANCH  10  40
HETATM   40  O4  UNL     1       3.286  10.409 -34.352  1.00  0.00    -0.396 OA
ATOM     41  H4  UNL     1       3.607   9.611 -33.949  1.00  0.00     0.210 HD
ENDBRANCH  10  40
TORSDOF 11
ENDMDL
MODEL 5
REMARK VINA RESULT: -7.469011477      3.901      8.029
REMARK  11 active torsions:
REMARK  status: ('A' for Active; 'I' for Inactive)
REMARK    1  A    between atoms: C2_2  and  O1_4 
REMARK    2  A    between atoms: O1_4  and  C4_5 
REMARK    3  A    between atoms: C4_5  and  N2_9 
REMARK    4  A    between atoms: N2_9  and  C5_11 
REMARK    5  A    between atoms: C5_11  and  C6_12 
REMARK    6  A    between atoms: C6_12  and  C7_13 
REMARK    7  A    between atoms: C6_12  and  C9_17 
REMARK    8  A    between atoms: C7_13  and  C8_15 
REMARK    9  A    between atoms: C14_22  and  O3_23 
REMARK   10  A    between atoms: C18_28  and  O4_29 
REMARK   11  A    between atoms: C24_36  and  O5_37 
ROOT
HETATM    1  C9  UNL     1       2.366  15.699 -37.936  1.00  0.00     0.007 C 
HETATM    2  C10 UNL     1       3.768  15.359 -37.423  1.00  0.00     0.007 C 
HETATM    3  C11 UNL     1       4.245  14.536 -38.664  1.00  0.00     0.006 C 
HETATM    4  C12 UNL     1       3.893  15.590 -39.669  1.00  0.00     0.001 C 
HETATM    5  C13 UNL     1       4.340  15.457 -41.018  1.00  0.00     0.026 C 
HETATM    6  C14 UNL     1       4.459  14.139 -41.693  1.00  0.00     0.123 C 
HETATM    7  C15 UNL     1       5.377  14.392 -42.909  1.00  0.00     0.037 C 
HETATM    8  C16 UNL     1       4.704  15.364 -43.841  1.00  0.00    -0.001 C 
HETATM    9  C17 UNL     1       5.514  15.543 -45.074  1.00  0.00     0.037 C 
HETATM   10  C18 UNL     1       6.450  16.694 -45.092  1.00  0.00     0.118 C 
HETATM   11  C19 UNL     1       5.992  17.917 -44.372  1.00  0.00     0.032 C 
HETATM   12  C20 UNL     1       5.507  17.502 -42.991  1.00  0.00     0.012 C 
HETATM   13  C21 UNL     1       4.290  16.661 -43.187  1.00  0.00    -0.034 C 
HETATM   14  C22 UNL     1       3.368  17.354 -44.178  1.00  0.00     0.016 C 
HETATM   15  C23 UNL     1       3.521  16.339 -41.970  1.00  0.00     0.030 C 
HETATM   16  C24 UNL     1       3.052  17.484 -41.147  1.00  0.00     0.124 C 
HETATM   17  C25 UNL     1       1.978  16.945 -40.170  1.00  0.00     0.042 C 
HETATM   18  C26 UNL     1       2.388  15.794 -39.390  1.00  0.00    -0.033 C 
HETATM   19  C27 UNL     1       1.634  14.554 -39.960  1.00  0.00     0.016 C 
ENDROOT
BRANCH   1  20
HETATM   20  C6  UNL     1       1.601  16.547 -37.030  1.00  0.00     0.084 C 
BRANCH  20  21
HETATM   21  C5  UNL     1       0.997  15.773 -35.838  1.00  0.00     0.136 C 
BRANCH  21  22
HETATM   22  N2  UNL     1       1.812  14.595 -35.618  1.00  0.00    -0.356 N 
ATOM     23  H2  UNL     1       1.872  13.881 -36.344  1.00  0.00     0.163 HD
BRANCH  22  24
HETATM   24  C4  UNL     1       2.536  14.417 -34.392  1.00  0.00     0.212 C 
HETATM   25  N1  UNL     1       2.141  15.073 -33.366  1.00  0.00    -0.365 N 
ATOM     26  H12 UNL     1       2.656  14.947 -32.495  1.00  0.00     0.159 HD
ATOM     27  H11 UNL     1       1.336  15.693 -33.447  1.00  0.00     0.159 HD
BRANCH  24  28
HETATM   28  O1  UNL     1       3.625  13.578 -34.284  1.00  0.00    -0.318 OA
BRANCH  28  29
HETATM   29  C2  UNL     1       3.755  12.390 -35.030  1.00  0.00     0.123 C 
HETATM   30  C1  UNL     1       5.167  12.275 -35.615  1.00  0.00     0.040 C 
HETATM   31  C3  UNL     1       3.550  11.156 -34.186  1.00  0.00     0.040 C 
ENDBRANCH  28  29
ENDBRANCH  24  28
ENDBRANCH  22  24
ENDBRANCH  21  22
ENDBRANCH  20  21
BRANCH  20  32
HETATM   32  C7  UNL     1       2.367  17.644 -36.379  1.00  0.00     0.182 C 
HETATM   33  O2  UNL     1       2.277  17.638 -35.115  1.00  0.00    -0.290 OA
BRANCH  32  34
HETATM   34  C8  UNL     1       3.186  18.711 -36.901  1.00  0.00     0.238 C 
HETATM   35  F1  UNL     1       4.478  18.834 -36.541  1.00  0.00    -0.216 F 
ENDBRANCH  32  34
ENDBRANCH  20  32
ENDBRANCH   1  20
BRANCH  16  36
HETATM   36  O5  UNL     1       2.411  18.485 -41.874  1.00  0.00    -0.395 OA
ATOM     37  H5  UNL     1       2.906  19.293 -41.944  1.00  0.00     0.210 HD
ENDBRANCH  16  36
BRANCH   6  38
HETATM   38  O3  UNL     1       5.033  13.139 -40.938  1.00  0.00    -0.395 OA
ATOM     39  H3  UNL     1       4.589  12.300 -40.971  1.00  0.00     0.210 HD
ENDBRANCH   6  38
BRANCH  10  40
HETATM   40  O4  UNL     1       7.755  16.354 -44.672  1.00  0.00    -0.396 OA
ATOM     41  H4  UNL     1       8.105  16.952 -44.022  1.00  0.00     0.210 HD
ENDBRANCH  10  40
TORSDOF 11
ENDMDL
