MODEL 1
REMARK VINA RESULT: -7.903625584      0.000      0.000
REMARK  15 active torsions:
REMARK  status: ('A' for Active; 'I' for Inactive)
REMARK    1  A    between atoms: C3_10  and  C4_11 
REMARK    2  A    between atoms: C6_15  and  C7_16 
REMARK    3  A    between atoms: C7_16  and  N5_17 
REMARK    4  A    between atoms: N5_17  and  C8_19 
REMARK    5  A    between atoms: C8_19  and  C9_20 
REMARK    6  A    between atoms: C9_20  and  O1_21 
REMARK    7  A    between atoms: C9_20  and  C10_23 
REMARK    8  A    between atoms: C10_23  and  O2_24 
REMARK    9  A    between atoms: C10_23  and  C11_26 
REMARK   10  A    between atoms: C11_26  and  O3_27 
REMARK   11  A    between atoms: C11_26  and  C12_29 
REMARK   12  A    between atoms: C12_29  and  O4_30 
REMARK   13  A    between atoms: C13_37  and  C14_38 
REMARK   14  A    between atoms: C15_43  and  N11_44 
REMARK   15  A    between atoms: N14_51  and  O5_52 
ROOT
HETATM    1  N1  UNL     1      28.292  33.344 -19.186  1.00  0.00    -0.233 N 
ATOM      2  H11 UNL     1      29.213  33.292 -19.620  1.00  0.00     0.174 HD
ATOM      3  H12 UNL     1      28.190  33.232 -18.178  1.00  0.00     0.174 HD
HETATM    4  C1  UNL     1      27.249  33.551 -19.904  1.00  0.00     0.703 C 
HETATM    5  N2  UNL     1      25.959  33.623 -19.296  1.00  0.00    -0.158 N 
ATOM      6  H2  UNL     1      25.849  33.505 -18.289  1.00  0.00     0.187 HD
HETATM    7  C2  UNL     1      24.951  33.839 -20.036  1.00  0.00     0.219 A 
HETATM    8  N3  UNL     1      23.560  33.951 -19.738  1.00  0.00    -0.309 N 
ATOM      9  H3  UNL     1      23.114  33.821 -18.830  1.00  0.00     0.170 HD
HETATM   10  C3  UNL     1      22.925  34.280 -20.963  1.00  0.00     0.151 A 
HETATM   11  N7  UNL     1      23.785  34.366 -21.901  1.00  0.00    -0.276 N 
ATOM     12  H7  UNL     1      23.567  34.592 -22.871  1.00  0.00     0.189 HD
HETATM   13  N8  UNL     1      25.045  34.113 -21.419  1.00  0.00    -0.227 N 
HETATM   14  C13 UNL     1      26.345  34.179 -22.128  1.00  0.00     0.312 C 
HETATM   15  N14 UNL     1      27.394  33.708 -21.331  1.00  0.00    -0.058 N 
ENDROOT
BRANCH  10  16
HETATM   16  C4  UNL     1      21.489  34.488 -21.113  1.00  0.00     0.095 A 
HETATM   17  C5  UNL     1      20.498  33.529 -21.156  1.00  0.00     0.123 A 
HETATM   18  N4  UNL     1      19.342  34.168 -21.303  1.00  0.00    -0.349 N 
HETATM   19  C6  UNL     1      19.550  35.483 -21.355  1.00  0.00     0.121 A 
ATOM     20  H4  UNL     1      18.429  33.717 -21.367  1.00  0.00     0.167 HD
HETATM   21  N6  UNL     1      20.882  35.654 -21.235  1.00  0.00    -0.337 N 
ATOM     22  H6  UNL     1      21.355  36.558 -21.239  1.00  0.00     0.167 HD
BRANCH  19  23
HETATM   23  C7  UNL     1      18.592  36.566 -21.506  1.00  0.00     0.132 C 
BRANCH  23  24
HETATM   24  N5  UNL     1      17.729  36.802 -20.633  1.00  0.00    -0.393 N 
ATOM     25  H5  UNL     1      17.122  36.013 -20.415  1.00  0.00     0.159 HD
BRANCH  24  26
HETATM   26  C8  UNL     1      17.449  37.984 -19.890  1.00  0.00     0.153 C 
BRANCH  26  27
HETATM   27  C9  UNL     1      18.285  39.172 -20.163  1.00  0.00     0.167 C 
BRANCH  27  28
HETATM   28  O1  UNL     1      17.547  40.290 -20.515  1.00  0.00    -0.391 OA
ATOM     29  H1  UNL     1      18.081  41.064 -20.652  1.00  0.00     0.210 HD
ENDBRANCH  27  28
BRANCH  27  30
HETATM   30  C10 UNL     1      19.484  39.447 -19.361  1.00  0.00     0.179 C 
BRANCH  30  31
HETATM   31  O2  UNL     1      19.625  38.266 -18.527  1.00  0.00    -0.390 OA
ATOM     32  H2  UNL     1      20.492  37.940 -18.735  1.00  0.00     0.210 HD
ENDBRANCH  30  31
BRANCH  30  33
HETATM   33  C11 UNL     1      20.822  39.515 -20.045  1.00  0.00     0.173 C 
BRANCH  33  34
HETATM   34  O3  UNL     1      21.333  38.172 -19.872  1.00  0.00    -0.391 OA
ATOM     35  H3  UNL     1      20.595  37.634 -20.135  1.00  0.00     0.210 HD
ENDBRANCH  33  34
BRANCH  33  36
HETATM   36  C12 UNL     1      21.865  40.337 -19.319  1.00  0.00     0.198 C 
BRANCH  36  37
HETATM   37  O4  UNL     1      21.832  40.051 -17.966  1.00  0.00    -0.398 OA
ATOM     38  H4  UNL     1      21.453  40.781 -17.490  1.00  0.00     0.209 HD
ENDBRANCH  36  37
ENDBRANCH  33  36
ENDBRANCH  30  33
ENDBRANCH  27  30
ENDBRANCH  26  27
ENDBRANCH  24  26
ENDBRANCH  23  24
ENDBRANCH  19  23
ENDBRANCH  10  16
BRANCH  14  39
HETATM   39  C14 UNL     1      26.398  35.533 -22.684  1.00  0.00     0.115 A 
HETATM   40  N9  UNL     1      27.063  36.437 -21.904  1.00  0.00    -0.283 N 
HETATM   41  N10 UNL     1      27.178  37.681 -22.257  1.00  0.00    -0.132 N 
ATOM     42  H9  UNL     1      27.477  36.128 -21.025  1.00  0.00     0.187 HD
HETATM   43  C15 UNL     1      26.663  38.170 -23.395  1.00  0.00     0.691 A 
ATOM     44  H10 UNL     1      27.685  38.316 -21.640  1.00  0.00     0.205 HD
HETATM   45  N12 UNL     1      26.009  37.323 -24.180  1.00  0.00    -0.176 N 
HETATM   46  C16 UNL     1      25.874  36.007 -23.833  1.00  0.00     0.160 A 
ATOM     47  H12 UNL     1      25.603  37.658 -25.054  1.00  0.00     0.185 HD
HETATM   48  N13 UNL     1      25.189  35.186 -24.727  1.00  0.00    -0.080 NA
BRANCH  43  49
HETATM   49  N11 UNL     1      26.809  39.417 -23.693  1.00  0.00    -0.233 N 
ATOM     50 2H11 UNL     1      27.723  39.868 -23.725  1.00  0.00     0.174 HD
ATOM     51 1H11 UNL     1      25.995  39.994 -23.907  1.00  0.00     0.174 HD
ENDBRANCH  43  49
ENDBRANCH  14  39
BRANCH  15  52
HETATM   52  O5  UNL     1      28.577  33.329 -21.854  1.00  0.00    -0.272 OA
ATOM     53  H5  UNL     1      28.571  32.532 -22.370  1.00  0.00     0.245 HD
ENDBRANCH  15  52
TORSDOF 15
ENDMDL
MODEL 2
REMARK VINA RESULT: -7.900496697      3.062      7.811
REMARK  15 active torsions:
REMARK  status: ('A' for Active; 'I' for Inactive)
REMARK    1  A    between atoms: C3_10  and  C4_11 
REMARK    2  A    between atoms: C6_15  and  C7_16 
REMARK    3  A    between atoms: C7_16  and  N5_17 
REMARK    4  A    between atoms: N5_17  and  C8_19 
REMARK    5  A    between atoms: C8_19  and  C9_20 
REMARK    6  A    between atoms: C9_20  and  O1_21 
REMARK    7  A    between atoms: C9_20  and  C10_23 
REMARK    8  A    between atoms: C10_23  and  O2_24 
REMARK    9  A    between atoms: C10_23  and  C11_26 
REMARK   10  A    between atoms: C11_26  and  O3_27 
REMARK   11  A    between atoms: C11_26  and  C12_29 
REMARK   12  A    between atoms: C12_29  and  O4_30 
REMARK   13  A    between atoms: C13_37  and  C14_38 
REMARK   14  A    between atoms: C15_43  and  N11_44 
REMARK   15  A    between atoms: N14_51  and  O5_52 
ROOT
HETATM    1  N1  UNL     1      18.289  36.563 -26.206  1.00  0.00    -0.233 N 
ATOM      2  H11 UNL     1      17.400  36.169 -25.900  1.00  0.00     0.174 HD
ATOM      3  H12 UNL     1      18.346  37.091 -27.077  1.00  0.00     0.174 HD
HETATM    4  C1  UNL     1      19.347  36.400 -25.500  1.00  0.00     0.703 C 
HETATM    5  N2  UNL     1      20.593  36.952 -25.929  1.00  0.00    -0.158 N 
ATOM      6  H2  UNL     1      20.658  37.474 -26.803  1.00  0.00     0.187 HD
HETATM    7  C2  UNL     1      21.616  36.778 -25.201  1.00  0.00     0.219 A 
HETATM    8  N3  UNL     1      22.975  37.185 -25.358  1.00  0.00    -0.309 N 
ATOM      9  H3  UNL     1      23.382  37.672 -26.157  1.00  0.00     0.170 HD
HETATM   10  C3  UNL     1      23.644  36.774 -24.177  1.00  0.00     0.151 A 
HETATM   11  N7  UNL     1      22.831  36.193 -23.385  1.00  0.00    -0.276 N 
ATOM     12  H7  UNL     1      23.080  35.810 -22.473  1.00  0.00     0.189 HD
HETATM   13  N8  UNL     1      21.574  36.156 -23.933  1.00  0.00    -0.227 N 
HETATM   14  C13 UNL     1      20.312  35.652 -23.339  1.00  0.00     0.312 C 
HETATM   15  N14 UNL     1      19.265  35.653 -24.268  1.00  0.00    -0.058 N 
ENDROOT
BRANCH  10  16
HETATM   16  C4  UNL     1      25.063  36.992 -23.920  1.00  0.00     0.095 A 
HETATM   17  C5  UNL     1      26.030  37.399 -24.816  1.00  0.00     0.123 A 
HETATM   18  N4  UNL     1      27.178  37.465 -24.149  1.00  0.00    -0.349 N 
HETATM   19  C6  UNL     1      26.987  37.119 -22.876  1.00  0.00     0.121 A 
ATOM     20  H4  UNL     1      28.073  37.739 -24.554  1.00  0.00     0.167 HD
HETATM   21  N6  UNL     1      25.675  36.832 -22.761  1.00  0.00    -0.337 N 
ATOM     22  H6  UNL     1      25.219  36.533 -21.899  1.00  0.00     0.167 HD
BRANCH  19  23
HETATM   23  C7  UNL     1      27.945  37.044 -21.785  1.00  0.00     0.132 C 
BRANCH  23  24
HETATM   24  N5  UNL     1      27.667  37.468 -20.641  1.00  0.00    -0.393 N 
ATOM     25  H5  UNL     1      28.313  38.171 -20.283  1.00  0.00     0.159 HD
BRANCH  24  26
HETATM   26  C8  UNL     1      26.604  37.138 -19.754  1.00  0.00     0.153 C 
BRANCH  26  27
HETATM   27  C9  UNL     1      26.510  35.734 -19.300  1.00  0.00     0.167 C 
BRANCH  27  28
HETATM   28  O1  UNL     1      27.232  35.484 -18.145  1.00  0.00    -0.391 OA
ATOM     29  H1  UNL     1      27.435  34.564 -18.022  1.00  0.00     0.210 HD
ENDBRANCH  27  28
BRANCH  27  30
HETATM   30  C10 UNL     1      25.250  34.990 -19.417  1.00  0.00     0.179 C 
BRANCH  30  31
HETATM   31  O2  UNL     1      24.329  35.950 -20.002  1.00  0.00    -0.390 OA
ATOM     32  H2  UNL     1      24.211  35.641 -20.892  1.00  0.00     0.210 HD
ENDBRANCH  30  31
BRANCH  30  33
HETATM   33  C11 UNL     1      25.166  33.840 -20.383  1.00  0.00     0.173 C 
BRANCH  33  34
HETATM   34  O3  UNL     1      24.402  34.402 -21.476  1.00  0.00    -0.391 OA
ATOM     35  H3  UNL     1      24.072  33.628 -21.918  1.00  0.00     0.210 HD
ENDBRANCH  33  34
BRANCH  33  36
HETATM   36  C12 UNL     1      24.274  32.701 -19.938  1.00  0.00     0.198 C 
BRANCH  36  37
HETATM   37  O4  UNL     1      23.335  33.163 -19.035  1.00  0.00    -0.398 OA
ATOM     38  H4  UNL     1      23.756  33.708 -18.381  1.00  0.00     0.209 HD
ENDBRANCH  36  37
ENDBRANCH  33  36
ENDBRANCH  30  33
ENDBRANCH  27  30
ENDBRANCH  26  27
ENDBRANCH  24  26
ENDBRANCH  23  24
ENDBRANCH  19  23
ENDBRANCH  10  16
BRANCH  14  39
HETATM   39  C14 UNL     1      20.173  36.387 -22.080  1.00  0.00     0.115 A 
HETATM   40  N9  UNL     1      19.387  37.502 -22.160  1.00  0.00    -0.283 N 
HETATM   41  N10 UNL     1      19.184  38.264 -21.130  1.00  0.00    -0.132 N 
ATOM     42  H9  UNL     1      18.949  37.740 -23.050  1.00  0.00     0.187 HD
HETATM   43  C15 UNL     1      19.722  38.024 -19.924  1.00  0.00     0.691 A 
ATOM     44  H10 UNL     1      18.588  39.084 -21.242  1.00  0.00     0.205 HD
HETATM   45  N12 UNL     1      20.493  36.950 -19.805  1.00  0.00    -0.176 N 
HETATM   46  C16 UNL     1      20.722  36.130 -20.874  1.00  0.00     0.160 A 
ATOM     47  H12 UNL     1      20.920  36.735 -18.904  1.00  0.00     0.185 HD
HETATM   48  N13 UNL     1      21.529  35.015 -20.653  1.00  0.00    -0.080 NA
BRANCH  43  49
HETATM   49  N11 UNL     1      19.486  38.819 -18.935  1.00  0.00    -0.233 N 
ATOM     50 2H11 UNL     1      20.154  39.527 -18.630  1.00  0.00     0.174 HD
ATOM     51 1H11 UNL     1      18.605  38.757 -18.424  1.00  0.00     0.174 HD
ENDBRANCH  43  49
ENDBRANCH  14  39
BRANCH  15  52
HETATM   52  O5  UNL     1      18.148  34.921 -24.090  1.00  0.00    -0.272 OA
ATOM     53  H5  UNL     1      18.071  34.470 -23.257  1.00  0.00     0.245 HD
ENDBRANCH  15  52
TORSDOF 15
ENDMDL
MODEL 3
REMARK VINA RESULT: -7.888437304      1.547      2.245
REMARK  15 active torsions:
REMARK  status: ('A' for Active; 'I' for Inactive)
REMARK    1  A    between atoms: C3_10  and  C4_11 
REMARK    2  A    between atoms: C6_15  and  C7_16 
REMARK    3  A    between atoms: C7_16  and  N5_17 
REMARK    4  A    between atoms: N5_17  and  C8_19 
REMARK    5  A    between atoms: C8_19  and  C9_20 
REMARK    6  A    between atoms: C9_20  and  O1_21 
REMARK    7  A    between atoms: C9_20  and  C10_23 
REMARK    8  A    between atoms: C10_23  and  O2_24 
REMARK    9  A    between atoms: C10_23  and  C11_26 
REMARK   10  A    between atoms: C11_26  and  O3_27 
REMARK   11  A    between atoms: C11_26  and  C12_29 
REMARK   12  A    between atoms: C12_29  and  O4_30 
REMARK   13  A    between atoms: C13_37  and  C14_38 
REMARK   14  A    between atoms: C15_43  and  N11_44 
REMARK   15  A    between atoms: N14_51  and  O5_52 
ROOT
HETATM    1  N1  UNL     1      28.532  33.058 -19.752  1.00  0.00    -0.233 N 
ATOM      2  H11 UNL     1      29.395  32.944 -20.283  1.00  0.00     0.174 HD
ATOM      3  H12 UNL     1      28.501  32.822 -18.761  1.00  0.00     0.174 HD
HETATM    4  C1  UNL     1      27.473  33.501 -20.326  1.00  0.00     0.703 C 
HETATM    5  N2  UNL     1      26.264  33.661 -19.583  1.00  0.00    -0.158 N 
ATOM      6  H2  UNL     1      26.225  33.420 -18.592  1.00  0.00     0.187 HD
HETATM    7  C2  UNL     1      25.239  34.110 -20.181  1.00  0.00     0.219 A 
HETATM    8  N3  UNL     1      23.910  34.365 -19.728  1.00  0.00    -0.309 N 
ATOM      9  H3  UNL     1      23.529  34.171 -18.802  1.00  0.00     0.170 HD
HETATM   10  C3  UNL     1      23.228  34.943 -20.829  1.00  0.00     0.151 A 
HETATM   11  N7  UNL     1      24.008  35.042 -21.833  1.00  0.00    -0.276 N 
ATOM     12  H7  UNL     1      23.744  35.428 -22.739  1.00  0.00     0.189 HD
HETATM   13  N8  UNL     1      25.254  34.558 -21.520  1.00  0.00    -0.227 N 
HETATM   14  C13 UNL     1      26.485  34.547 -22.347  1.00  0.00     0.312 C 
HETATM   15  N14 UNL     1      27.517  33.834 -21.729  1.00  0.00    -0.058 N 
ENDROOT
BRANCH  10  16
HETATM   16  C4  UNL     1      21.830  35.361 -20.801  1.00  0.00     0.095 A 
HETATM   17  C5  UNL     1      20.741  34.692 -21.319  1.00  0.00     0.123 A 
HETATM   18  N4  UNL     1      19.670  35.437 -21.068  1.00  0.00    -0.349 N 
HETATM   19  C6  UNL     1      20.025  36.544 -20.417  1.00  0.00     0.121 A 
ATOM     20  H4  UNL     1      18.715  35.196 -21.334  1.00  0.00     0.167 HD
HETATM   21  N6  UNL     1      21.364  36.473 -20.265  1.00  0.00    -0.337 N 
ATOM     22  H6  UNL     1      21.935  37.179 -19.801  1.00  0.00     0.167 HD
BRANCH  19  23
HETATM   23  C7  UNL     1      19.201  37.642 -19.938  1.00  0.00     0.132 C 
BRANCH  23  24
HETATM   24  N5  UNL     1      19.593  38.407 -19.031  1.00  0.00    -0.393 N 
ATOM     25  H5  UNL     1      19.565  38.002 -18.096  1.00  0.00     0.159 HD
BRANCH  24  26
HETATM   26  C8  UNL     1      20.072  39.746 -19.079  1.00  0.00     0.153 C 
BRANCH  26  27
HETATM   27  C9  UNL     1      20.699  40.200 -20.339  1.00  0.00     0.167 C 
BRANCH  27  28
HETATM   28  O1  UNL     1      20.113  41.340 -20.860  1.00  0.00    -0.391 OA
ATOM     29  H1  UNL     1      20.537  41.651 -21.652  1.00  0.00     0.210 HD
ENDBRANCH  27  28
BRANCH  27  30
HETATM   30  C10 UNL     1      22.151  40.103 -20.533  1.00  0.00     0.179 C 
BRANCH  30  31
HETATM   31  O2  UNL     1      22.550  39.017 -19.653  1.00  0.00    -0.390 OA
ATOM     32  H2  UNL     1      22.818  39.456 -18.855  1.00  0.00     0.210 HD
ENDBRANCH  30  31
BRANCH  30  33
HETATM   33  C11 UNL     1      22.683  39.645 -21.863  1.00  0.00     0.173 C 
BRANCH  33  34
HETATM   34  O3  UNL     1      21.568  38.904 -22.411  1.00  0.00    -0.391 OA
ATOM     35  H3  UNL     1      20.831  39.478 -22.237  1.00  0.00     0.210 HD
ENDBRANCH  33  34
BRANCH  33  36
HETATM   36  C12 UNL     1      23.753  38.578 -21.785  1.00  0.00     0.198 C 
BRANCH  36  37
HETATM   37  O4  UNL     1      23.730  37.804 -22.931  1.00  0.00    -0.398 OA
ATOM     38  H4  UNL     1      24.504  37.254 -22.965  1.00  0.00     0.209 HD
ENDBRANCH  36  37
ENDBRANCH  33  36
ENDBRANCH  30  33
ENDBRANCH  27  30
ENDBRANCH  26  27
ENDBRANCH  24  26
ENDBRANCH  23  24
ENDBRANCH  19  23
ENDBRANCH  10  16
BRANCH  14  39
HETATM   39  C14 UNL     1      26.688  35.946 -22.731  1.00  0.00     0.115 A 
HETATM   40  N9  UNL     1      26.379  36.223 -24.033  1.00  0.00    -0.283 N 
HETATM   41  N10 UNL     1      26.524  37.416 -24.525  1.00  0.00    -0.132 N 
ATOM     42  H9  UNL     1      26.026  35.477 -24.632  1.00  0.00     0.187 HD
HETATM   43  C15 UNL     1      26.982  38.453 -23.807  1.00  0.00     0.691 A 
ATOM     44  H10 UNL     1      26.278  37.572 -25.502  1.00  0.00     0.205 HD
HETATM   45  N12 UNL     1      27.294  38.223 -22.538  1.00  0.00    -0.176 N 
HETATM   46  C16 UNL     1      27.150  36.977 -21.994  1.00  0.00     0.160 A 
ATOM     47  H12 UNL     1      27.646  38.987 -21.960  1.00  0.00     0.185 HD
HETATM   48  N13 UNL     1      27.484  36.833 -20.649  1.00  0.00    -0.080 NA
BRANCH  43  49
HETATM   49  N11 UNL     1      27.106  39.617 -24.350  1.00  0.00    -0.233 N 
ATOM     50 2H11 UNL     1      26.302  40.182 -24.622  1.00  0.00     0.174 HD
ATOM     51 1H11 UNL     1      28.032  40.008 -24.525  1.00  0.00     0.174 HD
ENDBRANCH  43  49
ENDBRANCH  14  39
BRANCH  15  52
HETATM   52  O5  UNL     1      28.583  33.376 -22.415  1.00  0.00    -0.272 OA
ATOM     53  H5  UNL     1      28.688  33.710 -23.298  1.00  0.00     0.245 HD
ENDBRANCH  15  52
TORSDOF 15
ENDMDL
MODEL 4
REMARK VINA RESULT: -7.868940995      3.222      8.234
REMARK  15 active torsions:
REMARK  status: ('A' for Active; 'I' for Inactive)
REMARK    1  A    between atoms: C3_10  and  C4_11 
REMARK    2  A    between atoms: C6_15  and  C7_16 
REMARK    3  A    between atoms: C7_16  and  N5_17 
REMARK    4  A    between atoms: N5_17  and  C8_19 
REMARK    5  A    between atoms: C8_19  and  C9_20 
REMARK    6  A    between atoms: C9_20  and  O1_21 
REMARK    7  A    between atoms: C9_20  and  C10_23 
REMARK    8  A    between atoms: C10_23  and  O2_24 
REMARK    9  A    between atoms: C10_23  and  C11_26 
REMARK   10  A    between atoms: C11_26  and  O3_27 
REMARK   11  A    between atoms: C11_26  and  C12_29 
REMARK   12  A    between atoms: C12_29  and  O4_30 
REMARK   13  A    between atoms: C13_37  and  C14_38 
REMARK   14  A    between atoms: C15_43  and  N11_44 
REMARK   15  A    between atoms: N14_51  and  O5_52 
ROOT
HETATM    1  N1  UNL     1      16.536  37.892 -22.297  1.00  0.00    -0.233 N 
ATOM      2  H11 UNL     1      15.716  37.949 -21.693  1.00  0.00     0.174 HD
ATOM      3  H12 UNL     1      16.431  37.883 -23.311  1.00  0.00     0.174 HD
HETATM    4  C1  UNL     1      17.712  37.833 -21.787  1.00  0.00     0.703 C 
HETATM    5  N2  UNL     1      18.861  37.754 -22.632  1.00  0.00    -0.158 N 
ATOM      6  H2  UNL     1      18.761  37.736 -23.647  1.00  0.00     0.187 HD
HETATM    7  C2  UNL     1      20.008  37.706 -22.093  1.00  0.00     0.219 A 
HETATM    8  N3  UNL     1      21.317  37.612 -22.652  1.00  0.00    -0.309 N 
ATOM      9  H3  UNL     1      21.559  37.514 -23.638  1.00  0.00     0.170 HD
HETATM   10  C3  UNL     1      22.215  37.683 -21.556  1.00  0.00     0.151 A 
HETATM   11  N7  UNL     1      21.571  37.806 -20.462  1.00  0.00    -0.276 N 
ATOM     12  H7  UNL     1      22.000  37.877 -19.539  1.00  0.00     0.189 HD
HETATM   13  N8  UNL     1      20.221  37.830 -20.701  1.00  0.00    -0.227 N 
HETATM   14  C13 UNL     1      19.107  38.035 -19.745  1.00  0.00     0.312 C 
HETATM   15  N14 UNL     1      17.860  37.846 -20.351  1.00  0.00    -0.058 N 
ENDROOT
BRANCH  10  16
HETATM   16  C4  UNL     1      23.667  37.623 -21.679  1.00  0.00     0.095 A 
HETATM   17  C5  UNL     1      24.439  38.016 -22.753  1.00  0.00     0.123 A 
HETATM   18  N4  UNL     1      25.706  37.782 -22.429  1.00  0.00    -0.349 N 
HETATM   19  C6  UNL     1      25.777  37.261 -21.205  1.00  0.00     0.121 A 
ATOM     20  H4  UNL     1      26.508  37.973 -23.031  1.00  0.00     0.167 HD
HETATM   21  N6  UNL     1      24.505  37.173 -20.764  1.00  0.00    -0.337 N 
ATOM     22  H6  UNL     1      24.230  36.809 -19.852  1.00  0.00     0.167 HD
BRANCH  19  23
HETATM   23  C7  UNL     1      26.943  36.849 -20.440  1.00  0.00     0.132 C 
BRANCH  23  24
HETATM   24  N5  UNL     1      27.027  35.705 -19.942  1.00  0.00    -0.393 N 
ATOM     25  H5  UNL     1      27.646  35.641 -19.134  1.00  0.00     0.159 HD
BRANCH  24  26
HETATM   26  C8  UNL     1      26.408  34.477 -20.309  1.00  0.00     0.153 C 
BRANCH  26  27
HETATM   27  C9  UNL     1      25.293  33.999 -19.464  1.00  0.00     0.167 C 
BRANCH  27  28
HETATM   28  O1  UNL     1      24.956  34.883 -18.453  1.00  0.00    -0.391 OA
ATOM     29  H1  UNL     1      24.036  34.851 -18.219  1.00  0.00     0.210 HD
ENDBRANCH  27  28
BRANCH  27  30
HETATM   30  C10 UNL     1      24.164  33.269 -20.053  1.00  0.00     0.179 C 
BRANCH  30  31
HETATM   31  O2  UNL     1      23.399  32.819 -18.901  1.00  0.00    -0.390 OA
ATOM     32  H2  UNL     1      22.499  32.844 -19.201  1.00  0.00     0.210 HD
ENDBRANCH  30  31
BRANCH  30  33
HETATM   33  C11 UNL     1      23.134  34.028 -20.842  1.00  0.00     0.173 C 
BRANCH  33  34
HETATM   34  O3  UNL     1      22.511  34.857 -19.834  1.00  0.00    -0.391 OA
ATOM     35  H3  UNL     1      22.063  34.221 -19.289  1.00  0.00     0.210 HD
ENDBRANCH  33  34
BRANCH  33  36
HETATM   36  C12 UNL     1      21.963  33.196 -21.322  1.00  0.00     0.198 C 
BRANCH  36  37
HETATM   37  O4  UNL     1      21.074  32.991 -20.283  1.00  0.00    -0.398 OA
ATOM     38  H4  UNL     1      20.182  33.077 -20.599  1.00  0.00     0.209 HD
ENDBRANCH  36  37
ENDBRANCH  33  36
ENDBRANCH  30  33
ENDBRANCH  27  30
ENDBRANCH  26  27
ENDBRANCH  24  26
ENDBRANCH  23  24
ENDBRANCH  19  23
ENDBRANCH  10  16
BRANCH  14  39
HETATM   39  C14 UNL     1      19.414  39.304 -19.081  1.00  0.00     0.115 A 
HETATM   40  N9  UNL     1      20.134  39.177 -17.927  1.00  0.00    -0.283 N 
HETATM   41  N10 UNL     1      20.467  40.213 -17.219  1.00  0.00    -0.132 N 
ATOM     42  H9  UNL     1      20.415  38.248 -17.614  1.00  0.00     0.187 HD
HETATM   43  C15 UNL     1      20.137  41.469 -17.557  1.00  0.00     0.691 A 
ATOM     44  H10 UNL     1      21.006  40.065 -16.365  1.00  0.00     0.205 HD
HETATM   45  N12 UNL     1      19.437  41.633 -18.673  1.00  0.00    -0.176 N 
HETATM   46  C16 UNL     1      19.074  40.560 -19.438  1.00  0.00     0.160 A 
ATOM     47  H12 UNL     1      19.166  42.573 -18.963  1.00  0.00     0.185 HD
HETATM   48  N13 UNL     1      18.356  40.829 -20.602  1.00  0.00    -0.080 NA
BRANCH  43  49
HETATM   49  N11 UNL     1      20.496  42.460 -16.813  1.00  0.00    -0.233 N 
ATOM     50 2H11 UNL     1      21.034  42.333 -15.956  1.00  0.00     0.174 HD
ATOM     51 1H11 UNL     1      20.244  43.414 -17.070  1.00  0.00     0.174 HD
ENDBRANCH  43  49
ENDBRANCH  14  39
BRANCH  15  52
HETATM   52  O5  UNL     1      16.742  37.618 -19.636  1.00  0.00    -0.272 OA
ATOM     53  H5  UNL     1      16.269  36.820 -19.840  1.00  0.00     0.245 HD
ENDBRANCH  15  52
TORSDOF 15
ENDMDL
MODEL 5
REMARK VINA RESULT: -7.867120745      2.708      8.808
REMARK  15 active torsions:
REMARK  status: ('A' for Active; 'I' for Inactive)
REMARK    1  A    between atoms: C3_10  and  C4_11 
REMARK    2  A    between atoms: C6_15  and  C7_16 
REMARK    3  A    between atoms: C7_16  and  N5_17 
REMARK    4  A    between atoms: N5_17  and  C8_19 
REMARK    5  A    between atoms: C8_19  and  C9_20 
REMARK    6  A    between atoms: C9_20  and  O1_21 
REMARK    7  A    between atoms: C9_20  and  C10_23 
REMARK    8  A    between atoms: C10_23  and  O2_24 
REMARK    9  A    between atoms: C10_23  and  C11_26 
REMARK   10  A    between atoms: C11_26  and  O3_27 
REMARK   11  A    between atoms: C11_26  and  C12_29 
REMARK   12  A    between atoms: C12_29  and  O4_30 
REMARK   13  A    between atoms: C13_37  and  C14_38 
REMARK   14  A    between atoms: C15_43  and  N11_44 
REMARK   15  A    between atoms: N14_51  and  O5_52 
ROOT
HETATM    1  N1  UNL     1      16.446  38.564 -22.915  1.00  0.00    -0.233 N 
ATOM      2  H11 UNL     1      15.632  39.052 -22.542  1.00  0.00     0.174 HD
ATOM      3  H12 UNL     1      16.537  38.405 -23.918  1.00  0.00     0.174 HD
HETATM    4  C1  UNL     1      17.367  38.145 -22.127  1.00  0.00     0.703 C 
HETATM    5  N2  UNL     1      18.508  37.461 -22.650  1.00  0.00    -0.158 N 
ATOM      6  H2  UNL     1      18.600  37.293 -23.652  1.00  0.00     0.187 HD
HETATM    7  C2  UNL     1      19.403  37.069 -21.842  1.00  0.00     0.219 A 
HETATM    8  N3  UNL     1      20.626  36.364 -22.049  1.00  0.00    -0.309 N 
ATOM      9  H3  UNL     1      20.981  35.994 -22.931  1.00  0.00     0.170 HD
HETATM   10  C3  UNL     1      21.249  36.283 -20.777  1.00  0.00     0.151 A 
HETATM   11  N7  UNL     1      20.528  36.854 -19.893  1.00  0.00    -0.276 N 
ATOM     12  H7  UNL     1      20.767  36.924 -18.903  1.00  0.00     0.189 HD
HETATM   13  N8  UNL     1      19.387  37.361 -20.460  1.00  0.00    -0.227 N 
HETATM   14  C13 UNL     1      18.310  38.165 -19.832  1.00  0.00     0.312 C 
HETATM   15  N14 UNL     1      17.239  38.370 -20.708  1.00  0.00    -0.058 N 
ENDROOT
BRANCH  10  16
HETATM   16  C4  UNL     1      22.532  35.634 -20.531  1.00  0.00     0.095 A 
HETATM   17  C5  UNL     1      22.903  34.348 -20.861  1.00  0.00     0.123 A 
HETATM   18  N4  UNL     1      24.156  34.184 -20.448  1.00  0.00    -0.349 N 
HETATM   19  C6  UNL     1      24.597  35.303 -19.874  1.00  0.00     0.121 A 
ATOM     20  H4  UNL     1      24.699  33.328 -20.556  1.00  0.00     0.167 HD
HETATM   21  N6  UNL     1      23.576  36.181 -19.937  1.00  0.00    -0.337 N 
ATOM     22  H6  UNL     1      23.607  37.135 -19.577  1.00  0.00     0.167 HD
BRANCH  19  23
HETATM   23  C7  UNL     1      25.894  35.589 -19.281  1.00  0.00     0.132 C 
BRANCH  23  24
HETATM   24  N5  UNL     1      26.921  35.712 -19.983  1.00  0.00    -0.393 N 
ATOM     25  H5  UNL     1      27.796  35.590 -19.475  1.00  0.00     0.159 HD
BRANCH  24  26
HETATM   26  C8  UNL     1      27.078  35.993 -21.369  1.00  0.00     0.153 C 
BRANCH  26  27
HETATM   27  C9  UNL     1      27.091  34.844 -22.299  1.00  0.00     0.167 C 
BRANCH  27  28
HETATM   28  O1  UNL     1      26.514  35.127 -23.526  1.00  0.00    -0.391 OA
ATOM     29  H1  UNL     1      25.758  34.585 -23.718  1.00  0.00     0.210 HD
ENDBRANCH  27  28
BRANCH  27  30
HETATM   30  C10 UNL     1      28.239  33.931 -22.348  1.00  0.00     0.179 C 
BRANCH  30  31
HETATM   31  O2  UNL     1      29.299  34.665 -21.678  1.00  0.00    -0.390 OA
ATOM     32  H2  UNL     1      29.987  34.720 -22.330  1.00  0.00     0.210 HD
ENDBRANCH  30  31
BRANCH  30  33
HETATM   33  C11 UNL     1      28.192  32.651 -21.559  1.00  0.00     0.173 C 
BRANCH  33  34
HETATM   34  O3  UNL     1      26.857  32.673 -21.001  1.00  0.00    -0.391 OA
ATOM     35  H3  UNL     1      27.015  32.900 -20.092  1.00  0.00     0.210 HD
ENDBRANCH  33  34
BRANCH  33  36
HETATM   36  C12 UNL     1      29.047  32.644 -20.310  1.00  0.00     0.198 C 
BRANCH  36  37
HETATM   37  O4  UNL     1      28.407  33.335 -19.297  1.00  0.00    -0.398 OA
ATOM     38  H4  UNL     1      28.909  33.268 -18.493  1.00  0.00     0.209 HD
ENDBRANCH  36  37
ENDBRANCH  33  36
ENDBRANCH  30  33
ENDBRANCH  27  30
ENDBRANCH  26  27
ENDBRANCH  24  26
ENDBRANCH  23  24
ENDBRANCH  19  23
ENDBRANCH  10  16
BRANCH  14  39
HETATM   39  C14 UNL     1      19.001  39.312 -19.237  1.00  0.00     0.115 A 
HETATM   40  N9  UNL     1      19.799  38.999 -18.173  1.00  0.00    -0.283 N 
HETATM   41  N10 UNL     1      20.461  39.913 -17.532  1.00  0.00    -0.132 N 
ATOM     42  H9  UNL     1      19.875  38.027 -17.876  1.00  0.00     0.187 HD
HETATM   43  C15 UNL     1      20.415  41.214 -17.855  1.00  0.00     0.691 A 
ATOM     44  H10 UNL     1      21.044  39.628 -16.744  1.00  0.00     0.205 HD
HETATM   45  N12 UNL     1      19.651  41.558 -18.884  1.00  0.00    -0.176 N 
HETATM   46  C16 UNL     1      18.943  40.616 -19.578  1.00  0.00     0.160 A 
ATOM     47  H12 UNL     1      19.590  42.538 -19.161  1.00  0.00     0.185 HD
HETATM   48  N13 UNL     1      18.182  41.065 -20.655  1.00  0.00    -0.080 NA
BRANCH  43  49
HETATM   49  N11 UNL     1      21.096  42.078 -17.180  1.00  0.00    -0.233 N 
ATOM     50 2H11 UNL     1      21.642  41.821 -16.358  1.00  0.00     0.174 HD
ATOM     51 1H11 UNL     1      21.103  43.059 -17.459  1.00  0.00     0.174 HD
ENDBRANCH  43  49
ENDBRANCH  14  39
BRANCH  15  52
HETATM   52  O5  UNL     1      16.019  38.740 -20.273  1.00  0.00    -0.272 OA
ATOM     53  H5  UNL     1      15.986  39.156 -19.420  1.00  0.00     0.245 HD
ENDBRANCH  15  52
TORSDOF 15
ENDMDL
