MODEL 1
REMARK VINA RESULT: -9.203309574      0.000      0.000
REMARK  15 active torsions:
REMARK  status: ('A' for Active; 'I' for Inactive)
REMARK       I    between atoms: C2_2  and  N1_4 
REMARK    1  A    between atoms: N1_4  and  C3_6 
REMARK    2  A    between atoms: C3_6  and  C4_7 
REMARK    3  A    between atoms: C3_6  and  C17_38 
REMARK    4  A    between atoms: C6_11  and  N3_12 
REMARK    5  A    between atoms: N3_12  and  N4_14 
REMARK    6  A    between atoms: N4_14  and  C7_16 
REMARK    7  A    between atoms: C7_16  and  O2_17 
REMARK    8  A    between atoms: C7_16  and  C8_19 
REMARK    9  A    between atoms: C8_19  and  O3_20 
REMARK   10  A    between atoms: C11_24  and  O4_25 
REMARK   11  A    between atoms: C14_31  and  O7_32 
REMARK   12  A    between atoms: C17_38  and  O10_39 
REMARK   13  A    between atoms: C17_38  and  C18_41 
REMARK   14  A    between atoms: C18_41  and  O11_42 
REMARK   15  A    between atoms: C18_41  and  O12_44 
ROOT
HETATM    1  C4  UNL     1      19.633  39.892 -19.600  1.00  0.00     0.154 A 
HETATM    2  N2  UNL     1      20.713  39.131 -19.899  1.00  0.00    -0.335 N 
ATOM      3  H2  UNL     1      21.663  39.471 -19.741  1.00  0.00     0.168 HD
HETATM    4  C5  UNL     1      20.482  37.895 -20.418  1.00  0.00     0.082 A 
HETATM    5  C6  UNL     1      21.519  36.990 -20.664  1.00  0.00     0.088 A 
HETATM    6  C9  UNL     1      21.262  35.713 -21.079  1.00  0.00     0.034 A 
HETATM    7  C10 UNL     1      22.263  34.790 -21.283  1.00  0.00     0.059 A 
HETATM    8  C11 UNL     1      21.969  33.518 -21.684  1.00  0.00     0.142 A 
HETATM    9  C12 UNL     1      20.615  33.238 -21.870  1.00  0.00     0.322 A 
HETATM   10  O5  UNL     1      20.378  32.063 -22.257  1.00  0.00    -0.257 OA
HETATM   11  O6  UNL     1      19.688  34.080 -21.672  1.00  0.00    -0.270 OA
HETATM   12  C13 UNL     1      19.941  35.304 -21.273  1.00  0.00     0.126 A 
HETATM   13  C14 UNL     1      18.903  36.171 -21.039  1.00  0.00     0.119 A 
HETATM   14  C15 UNL     1      19.206  37.426 -20.623  1.00  0.00     0.104 A 
HETATM   15  C16 UNL     1      18.164  38.267 -20.295  1.00  0.00     0.304 A 
HETATM   16  O8  UNL     1      16.995  37.877 -20.463  1.00  0.00    -0.259 OA
HETATM   17  O9  UNL     1      18.448  39.469 -19.797  1.00  0.00    -0.259 OA
ENDROOT
BRANCH   1  18
HETATM   18  C3  UNL     1      19.804  41.301 -19.013  1.00  0.00     0.193 C 
BRANCH  18  19
HETATM   19  N1  UNL     1      18.564  41.915 -19.134  1.00  0.00    -0.347 N 
HETATM   20  C2  UNL     1      18.086  43.098 -19.813  1.00  0.00     0.214 C 
HETATM   21  C1  UNL     1      19.806  43.519 -20.313  1.00  0.00     0.117 C 
HETATM   22  O1  UNL     1      17.745  43.988 -20.328  1.00  0.00    -0.274 OA
ATOM     23  H1  UNL     1      17.826  41.422 -18.632  1.00  0.00     0.163 HD
ENDBRANCH  18  19
BRANCH  18  24
HETATM   24  C17 UNL     1      20.262  41.130 -17.603  1.00  0.00     0.203 C 
BRANCH  24  25
HETATM   25  O10 UNL     1      21.253  40.203 -17.392  1.00  0.00    -0.388 OA
ATOM     26  H10 UNL     1      22.137  40.473 -17.609  1.00  0.00     0.210 HD
ENDBRANCH  24  25
BRANCH  24  27
HETATM   27  C18 UNL     1      20.443  42.328 -16.757  1.00  0.00     0.284 C 
BRANCH  27  28
HETATM   28  O11 UNL     1      21.677  42.686 -16.340  1.00  0.00    -0.369 OA
ATOM     29  H11 UNL     1      21.796  43.469 -15.815  1.00  0.00     0.212 HD
ENDBRANCH  27  28
BRANCH  27  30
HETATM   30  O12 UNL     1      19.630  42.241 -15.610  1.00  0.00    -0.369 OA
ATOM     31  H12 UNL     1      20.092  41.787 -14.914  1.00  0.00     0.212 HD
ENDBRANCH  27  30
ENDBRANCH  24  27
ENDBRANCH  18  24
ENDBRANCH   1  18
BRANCH   5  32
HETATM   32  N3  UNL     1      22.878  37.421 -20.533  1.00  0.00    -0.300 N 
ATOM     33  H3  UNL     1      23.204  37.997 -21.309  1.00  0.00     0.186 HD
BRANCH  32  34
HETATM   34  N4  UNL     1      23.798  37.215 -19.592  1.00  0.00    -0.305 N 
ATOM     35  H4  UNL     1      23.798  37.901 -18.838  1.00  0.00     0.183 HD
BRANCH  34  36
HETATM   36  C7  UNL     1      24.731  36.246 -19.474  1.00  0.00     0.256 C 
BRANCH  36  37
HETATM   37  O2  UNL     1      24.885  35.579 -18.245  1.00  0.00    -0.373 OA
ATOM     38  H2  UNL     1      25.305  34.727 -18.224  1.00  0.00     0.212 HD
ENDBRANCH  36  37
BRANCH  36  39
HETATM   39  C8  UNL     1      26.191  36.727 -19.714  1.00  0.00     0.218 C 
BRANCH  39  40
HETATM   40  O3  UNL     1      27.095  36.172 -18.864  1.00  0.00    -0.397 OA
ATOM     41  H3  UNL     1      27.140  35.224 -18.922  1.00  0.00     0.209 HD
ENDBRANCH  39  40
ENDBRANCH  36  39
ENDBRANCH  34  36
ENDBRANCH  32  34
ENDBRANCH   5  32
BRANCH  13  42
HETATM   42  O7  UNL     1      17.565  35.777 -21.202  1.00  0.00    -0.357 OA
ATOM     43  H7  UNL     1      17.149  35.771 -22.056  1.00  0.00     0.218 HD
ENDBRANCH  13  42
BRANCH   8  44
HETATM   44  O4  UNL     1      22.948  32.591 -21.872  1.00  0.00    -0.355 OA
ATOM     45  H4  UNL     1      22.978  32.056 -22.658  1.00  0.00     0.218 HD
ENDBRANCH   8  44
TORSDOF 15
ENDMDL
MODEL 2
REMARK VINA RESULT: -8.990377900      2.253      7.077
REMARK  15 active torsions:
REMARK  status: ('A' for Active; 'I' for Inactive)
REMARK       I    between atoms: C2_2  and  N1_4 
REMARK    1  A    between atoms: N1_4  and  C3_6 
REMARK    2  A    between atoms: C3_6  and  C4_7 
REMARK    3  A    between atoms: C3_6  and  C17_38 
REMARK    4  A    between atoms: C6_11  and  N3_12 
REMARK    5  A    between atoms: N3_12  and  N4_14 
REMARK    6  A    between atoms: N4_14  and  C7_16 
REMARK    7  A    between atoms: C7_16  and  O2_17 
REMARK    8  A    between atoms: C7_16  and  C8_19 
REMARK    9  A    between atoms: C8_19  and  O3_20 
REMARK   10  A    between atoms: C11_24  and  O4_25 
REMARK   11  A    between atoms: C14_31  and  O7_32 
REMARK   12  A    between atoms: C17_38  and  O10_39 
REMARK   13  A    between atoms: C17_38  and  C18_41 
REMARK   14  A    between atoms: C18_41  and  O11_42 
REMARK   15  A    between atoms: C18_41  and  O12_44 
ROOT
HETATM    1  C4  UNL     1      24.622  35.014 -20.699  1.00  0.00     0.154 A 
HETATM    2  N2  UNL     1      23.697  35.972 -20.449  1.00  0.00    -0.335 N 
ATOM      3  H2  UNL     1      23.957  36.862 -20.022  1.00  0.00     0.168 HD
HETATM    4  C5  UNL     1      22.409  35.702 -20.791  1.00  0.00     0.082 A 
HETATM    5  C6  UNL     1      21.395  36.658 -20.673  1.00  0.00     0.088 A 
HETATM    6  C9  UNL     1      20.130  36.409 -21.124  1.00  0.00     0.034 A 
HETATM    7  C10 UNL     1      19.128  37.351 -21.061  1.00  0.00     0.059 A 
HETATM    8  C11 UNL     1      17.877  37.073 -21.536  1.00  0.00     0.142 A 
HETATM    9  C12 UNL     1      17.700  35.796 -22.069  1.00  0.00     0.322 A 
HETATM   10  O5  UNL     1      16.532  35.565 -22.481  1.00  0.00    -0.257 OA
HETATM   11  O6  UNL     1      18.622  34.930 -22.141  1.00  0.00    -0.270 OA
HETATM   12  C13 UNL     1      19.836  35.174 -21.706  1.00  0.00     0.126 A 
HETATM   13  C14 UNL     1      20.811  34.217 -21.835  1.00  0.00     0.119 A 
HETATM   14  C15 UNL     1      22.053  34.510 -21.378  1.00  0.00     0.104 A 
HETATM   15  C16 UNL     1      23.056  33.589 -21.593  1.00  0.00     0.304 A 
HETATM   16  O8  UNL     1      22.773  32.500 -22.126  1.00  0.00    -0.259 OA
HETATM   17  O9  UNL     1      24.298  33.903 -21.233  1.00  0.00    -0.259 OA
ENDROOT
BRANCH   1  18
HETATM   18  C3  UNL     1      26.099  35.235 -20.343  1.00  0.00     0.193 C 
BRANCH  18  19
HETATM   19  N1  UNL     1      26.404  36.521 -20.773  1.00  0.00    -0.347 N 
HETATM   20  C2  UNL     1      27.212  37.061 -21.842  1.00  0.00     0.214 C 
HETATM   21  C1  UNL     1      27.772  35.367 -22.290  1.00  0.00     0.117 C 
HETATM   22  O1  UNL     1      27.821  37.450 -22.649  1.00  0.00    -0.274 OA
ATOM     23  H1  UNL     1      25.960  37.244 -20.208  1.00  0.00     0.163 HD
ENDBRANCH  18  19
BRANCH  18  24
HETATM   24  C17 UNL     1      26.223  35.042 -18.868  1.00  0.00     0.203 C 
BRANCH  24  25
HETATM   25  O10 UNL     1      25.076  35.218 -18.133  1.00  0.00    -0.388 OA
ATOM     26  H10 UNL     1      25.179  35.631 -17.284  1.00  0.00     0.210 HD
ENDBRANCH  24  25
BRANCH  24  27
HETATM   27  C18 UNL     1      27.036  33.920 -18.357  1.00  0.00     0.284 C 
BRANCH  27  28
HETATM   28  O11 UNL     1      27.618  34.000 -17.140  1.00  0.00    -0.369 OA
ATOM     29  H11 UNL     1      28.151  33.284 -16.817  1.00  0.00     0.212 HD
ENDBRANCH  27  28
BRANCH  27  30
HETATM   30  O12 UNL     1      28.053  33.598 -19.278  1.00  0.00    -0.369 OA
ATOM     31  H12 UNL     1      28.497  32.802 -19.012  1.00  0.00     0.212 HD
ENDBRANCH  27  30
ENDBRANCH  24  27
ENDBRANCH  18  24
ENDBRANCH   1  18
BRANCH   5  32
HETATM   32  N3  UNL     1      21.671  37.901 -20.018  1.00  0.00    -0.300 N 
ATOM     33  H3  UNL     1      21.406  37.915 -19.033  1.00  0.00     0.186 HD
BRANCH  32  34
HETATM   34  N4  UNL     1      22.208  39.042 -20.447  1.00  0.00    -0.305 N 
ATOM     35  H4  UNL     1      23.122  38.944 -20.887  1.00  0.00     0.183 HD
BRANCH  34  36
HETATM   36  C7  UNL     1      21.738  40.307 -20.395  1.00  0.00     0.256 C 
BRANCH  36  37
HETATM   37  O2  UNL     1      22.472  41.343 -21.000  1.00  0.00    -0.373 OA
ATOM     38  H2  UNL     1      22.812  42.050 -20.464  1.00  0.00     0.212 HD
ENDBRANCH  36  37
BRANCH  36  39
HETATM   39  C8  UNL     1      21.588  40.877 -18.955  1.00  0.00     0.218 C 
BRANCH  39  40
HETATM   40  O3  UNL     1      21.875  39.976 -17.979  1.00  0.00    -0.397 OA
ATOM     41  H3  UNL     1      21.116  39.707 -17.473  1.00  0.00     0.209 HD
ENDBRANCH  39  40
ENDBRANCH  36  39
ENDBRANCH  34  36
ENDBRANCH  32  34
ENDBRANCH   5  32
BRANCH  13  42
HETATM   42  O7  UNL     1      20.547  32.976 -22.439  1.00  0.00    -0.357 OA
ATOM     43  H7  UNL     1      21.219  32.311 -22.523  1.00  0.00     0.218 HD
ENDBRANCH  13  42
BRANCH   8  44
HETATM   44  O4  UNL     1      16.882  38.002 -21.496  1.00  0.00    -0.355 OA
ATOM     45  H4  UNL     1      16.653  38.514 -22.263  1.00  0.00     0.218 HD
ENDBRANCH   8  44
TORSDOF 15
ENDMDL
MODEL 3
REMARK VINA RESULT: -8.951066157      3.062      7.896
REMARK  15 active torsions:
REMARK  status: ('A' for Active; 'I' for Inactive)
REMARK       I    between atoms: C2_2  and  N1_4 
REMARK    1  A    between atoms: N1_4  and  C3_6 
REMARK    2  A    between atoms: C3_6  and  C4_7 
REMARK    3  A    between atoms: C3_6  and  C17_38 
REMARK    4  A    between atoms: C6_11  and  N3_12 
REMARK    5  A    between atoms: N3_12  and  N4_14 
REMARK    6  A    between atoms: N4_14  and  C7_16 
REMARK    7  A    between atoms: C7_16  and  O2_17 
REMARK    8  A    between atoms: C7_16  and  C8_19 
REMARK    9  A    between atoms: C8_19  and  O3_20 
REMARK   10  A    between atoms: C11_24  and  O4_25 
REMARK   11  A    between atoms: C14_31  and  O7_32 
REMARK   12  A    between atoms: C17_38  and  O10_39 
REMARK   13  A    between atoms: C17_38  and  C18_41 
REMARK   14  A    between atoms: C18_41  and  O11_42 
REMARK   15  A    between atoms: C18_41  and  O12_44 
ROOT
HETATM    1  C4  UNL     1      25.149  35.924 -21.400  1.00  0.00     0.154 A 
HETATM    2  N2  UNL     1      23.880  35.727 -20.967  1.00  0.00    -0.335 N 
ATOM      3  H2  UNL     1      23.619  34.885 -20.453  1.00  0.00     0.168 HD
HETATM    4  C5  UNL     1      22.969  36.697 -21.246  1.00  0.00     0.082 A 
HETATM    5  C6  UNL     1      21.659  36.643 -20.758  1.00  0.00     0.088 A 
HETATM    6  C9  UNL     1      20.787  37.678 -20.952  1.00  0.00     0.034 A 
HETATM    7  C10 UNL     1      19.509  37.668 -20.441  1.00  0.00     0.059 A 
HETATM    8  C11 UNL     1      18.669  38.727 -20.642  1.00  0.00     0.142 A 
HETATM    9  C12 UNL     1      19.192  39.784 -21.387  1.00  0.00     0.322 A 
HETATM   10  O5  UNL     1      18.387  40.736 -21.569  1.00  0.00    -0.257 OA
HETATM   11  O6  UNL     1      20.372  39.803 -21.849  1.00  0.00    -0.270 OA
HETATM   12  C13 UNL     1      21.204  38.807 -21.659  1.00  0.00     0.126 A 
HETATM   13  C14 UNL     1      22.484  38.887 -22.149  1.00  0.00     0.119 A 
HETATM   14  C15 UNL     1      23.315  37.839 -21.928  1.00  0.00     0.104 A 
HETATM   15  C16 UNL     1      24.627  37.957 -22.335  1.00  0.00     0.304 A 
HETATM   16  O8  UNL     1      24.980  38.978 -22.952  1.00  0.00    -0.259 OA
HETATM   17  O9  UNL     1      25.476  36.974 -22.041  1.00  0.00    -0.259 OA
ENDROOT
BRANCH   1  18
HETATM   18  C3  UNL     1      26.242  34.878 -21.130  1.00  0.00     0.193 C 
BRANCH  18  19
HETATM   19  N1  UNL     1      27.443  35.576 -21.129  1.00  0.00    -0.347 N 
HETATM   20  C2  UNL     1      28.707  35.410 -21.809  1.00  0.00     0.214 C 
HETATM   21  C1  UNL     1      28.115  33.832 -22.546  1.00  0.00     0.117 C 
HETATM   22  O1  UNL     1      29.648  35.270 -22.327  1.00  0.00    -0.274 OA
ATOM     23  H1  UNL     1      27.429  36.387 -20.510  1.00  0.00     0.163 HD
ENDBRANCH  18  19
BRANCH  18  24
HETATM   24  C17 UNL     1      25.912  34.233 -19.825  1.00  0.00     0.203 C 
BRANCH  24  25
HETATM   25  O10 UNL     1      25.420  32.953 -19.886  1.00  0.00    -0.388 OA
ATOM     26  H10 UNL     1      24.600  32.838 -20.352  1.00  0.00     0.210 HD
ENDBRANCH  24  25
BRANCH  24  27
HETATM   27  C18 UNL     1      26.831  34.415 -18.683  1.00  0.00     0.284 C 
BRANCH  27  28
HETATM   28  O11 UNL     1      27.216  35.656 -18.310  1.00  0.00    -0.369 OA
ATOM     29  H11 UNL     1      28.005  35.777 -17.796  1.00  0.00     0.212 HD
ENDBRANCH  27  28
BRANCH  27  30
HETATM   30  O12 UNL     1      28.006  33.662 -18.880  1.00  0.00    -0.369 OA
ATOM     31  H12 UNL     1      28.715  34.019 -18.359  1.00  0.00     0.212 HD
ENDBRANCH  27  30
ENDBRANCH  24  27
ENDBRANCH  18  24
ENDBRANCH   1  18
BRANCH   5  32
HETATM   32  N3  UNL     1      21.203  35.462 -20.090  1.00  0.00    -0.300 N 
ATOM     33  H3  UNL     1      20.296  35.570 -19.635  1.00  0.00     0.186 HD
BRANCH  32  34
HETATM   34  N4  UNL     1      21.735  34.249 -19.948  1.00  0.00    -0.305 N 
ATOM     35  H4  UNL     1      22.207  34.092 -19.058  1.00  0.00     0.183 HD
BRANCH  34  36
HETATM   36  C7  UNL     1      21.750  33.193 -20.790  1.00  0.00     0.256 C 
BRANCH  36  37
HETATM   37  O2  UNL     1      22.838  33.023 -21.665  1.00  0.00    -0.373 OA
ATOM     38  H2  UNL     1      22.913  33.578 -22.433  1.00  0.00     0.212 HD
ENDBRANCH  36  37
BRANCH  36  39
HETATM   39  C8  UNL     1      20.570  33.163 -21.804  1.00  0.00     0.218 C 
BRANCH  39  40
HETATM   40  O3  UNL     1      20.383  31.949 -22.386  1.00  0.00    -0.397 OA
ATOM     41  H3  UNL     1      19.480  31.777 -22.626  1.00  0.00     0.209 HD
ENDBRANCH  39  40
ENDBRANCH  36  39
ENDBRANCH  34  36
ENDBRANCH  32  34
ENDBRANCH   5  32
BRANCH  13  42
HETATM   42  O7  UNL     1      22.936  40.022 -22.843  1.00  0.00    -0.357 OA
ATOM     43  H7  UNL     1      22.471  40.849 -22.799  1.00  0.00     0.218 HD
ENDBRANCH  13  42
BRANCH   8  44
HETATM   44  O4  UNL     1      17.408  38.738 -20.127  1.00  0.00    -0.355 OA
ATOM     45  H4  UNL     1      17.257  38.816 -19.192  1.00  0.00     0.218 HD
ENDBRANCH   8  44
TORSDOF 15
ENDMDL
MODEL 4
REMARK VINA RESULT: -8.871972692      2.209      7.239
REMARK  15 active torsions:
REMARK  status: ('A' for Active; 'I' for Inactive)
REMARK       I    between atoms: C2_2  and  N1_4 
REMARK    1  A    between atoms: N1_4  and  C3_6 
REMARK    2  A    between atoms: C3_6  and  C4_7 
REMARK    3  A    between atoms: C3_6  and  C17_38 
REMARK    4  A    between atoms: C6_11  and  N3_12 
REMARK    5  A    between atoms: N3_12  and  N4_14 
REMARK    6  A    between atoms: N4_14  and  C7_16 
REMARK    7  A    between atoms: C7_16  and  O2_17 
REMARK    8  A    between atoms: C7_16  and  C8_19 
REMARK    9  A    between atoms: C8_19  and  O3_20 
REMARK   10  A    between atoms: C11_24  and  O4_25 
REMARK   11  A    between atoms: C14_31  and  O7_32 
REMARK   12  A    between atoms: C17_38  and  O10_39 
REMARK   13  A    between atoms: C17_38  and  C18_41 
REMARK   14  A    between atoms: C18_41  and  O11_42 
REMARK   15  A    between atoms: C18_41  and  O12_44 
ROOT
HETATM    1  C4  UNL     1      24.271  35.015 -20.488  1.00  0.00     0.154 A 
HETATM    2  N2  UNL     1      23.340  35.975 -20.275  1.00  0.00    -0.335 N 
ATOM      3  H2  UNL     1      23.577  36.850 -19.805  1.00  0.00     0.168 HD
HETATM    4  C5  UNL     1      22.076  35.728 -20.713  1.00  0.00     0.082 A 
HETATM    5  C6  UNL     1      21.065  36.691 -20.637  1.00  0.00     0.088 A 
HETATM    6  C9  UNL     1      19.831  36.468 -21.183  1.00  0.00     0.034 A 
HETATM    7  C10 UNL     1      18.835  37.418 -21.162  1.00  0.00     0.059 A 
HETATM    8  C11 UNL     1      17.618  37.167 -21.730  1.00  0.00     0.142 A 
HETATM    9  C12 UNL     1      17.469  35.907 -22.311  1.00  0.00     0.322 A 
HETATM   10  O5  UNL     1      16.330  35.700 -22.810  1.00  0.00    -0.257 OA
HETATM   11  O6  UNL     1      18.386  35.034 -22.344  1.00  0.00    -0.270 OA
HETATM   12  C13 UNL     1      19.568  35.254 -21.819  1.00  0.00     0.126 A 
HETATM   13  C14 UNL     1      20.542  34.290 -21.908  1.00  0.00     0.119 A 
HETATM   14  C15 UNL     1      21.752  34.557 -21.358  1.00  0.00     0.104 A 
HETATM   15  C16 UNL     1      22.760  33.632 -21.530  1.00  0.00     0.304 A 
HETATM   16  O8  UNL     1      22.505  32.563 -22.112  1.00  0.00    -0.259 OA
HETATM   17  O9  UNL     1      23.976  33.923 -21.075  1.00  0.00    -0.259 OA
ENDROOT
BRANCH   1  18
HETATM   18  C3  UNL     1      25.722  35.211 -20.024  1.00  0.00     0.193 C 
BRANCH  18  19
HETATM   19  N1  UNL     1      26.488  34.349 -20.798  1.00  0.00    -0.347 N 
HETATM   20  C2  UNL     1      27.416  33.282 -20.501  1.00  0.00     0.214 C 
HETATM   21  C1  UNL     1      27.272  33.642 -18.703  1.00  0.00     0.117 C 
HETATM   22  O1  UNL     1      28.110  32.485 -20.261  1.00  0.00    -0.274 OA
ATOM     23  H1  UNL     1      26.368  34.503 -21.799  1.00  0.00     0.163 HD
ENDBRANCH  18  19
BRANCH  18  24
HETATM   24  C17 UNL     1      26.048  36.654 -20.218  1.00  0.00     0.203 C 
BRANCH  24  25
HETATM   25  O10 UNL     1      26.034  37.439 -19.091  1.00  0.00    -0.388 OA
ATOM     26  H10 UNL     1      26.264  38.353 -19.211  1.00  0.00     0.210 HD
ENDBRANCH  24  25
BRANCH  24  27
HETATM   27  C18 UNL     1      27.148  37.024 -21.132  1.00  0.00     0.284 C 
BRANCH  27  28
HETATM   28  O11 UNL     1      28.245  37.654 -20.656  1.00  0.00    -0.369 OA
ATOM     29  H11 UNL     1      29.084  37.210 -20.644  1.00  0.00     0.212 HD
ENDBRANCH  27  28
BRANCH  27  30
HETATM   30  O12 UNL     1      26.655  37.805 -22.196  1.00  0.00    -0.369 OA
ATOM     31  H12 UNL     1      26.680  37.309 -23.006  1.00  0.00     0.212 HD
ENDBRANCH  27  30
ENDBRANCH  24  27
ENDBRANCH  18  24
ENDBRANCH   1  18
BRANCH   5  32
HETATM   32  N3  UNL     1      21.305  37.912 -19.928  1.00  0.00    -0.300 N 
ATOM     33  H3  UNL     1      20.849  37.954 -19.017  1.00  0.00     0.186 HD
BRANCH  32  34
HETATM   34  N4  UNL     1      22.008  39.002 -20.231  1.00  0.00    -0.305 N 
ATOM     35  H4  UNL     1      22.974  38.823 -20.506  1.00  0.00     0.183 HD
BRANCH  34  36
HETATM   36  C7  UNL     1      21.651  40.304 -20.233  1.00  0.00     0.256 C 
BRANCH  36  37
HETATM   37  O2  UNL     1      22.450  41.239 -20.916  1.00  0.00    -0.373 OA
ATOM     38  H2  UNL     1      22.088  41.711 -21.657  1.00  0.00     0.212 HD
ENDBRANCH  36  37
BRANCH  36  39
HETATM   39  C8  UNL     1      21.601  40.958 -18.822  1.00  0.00     0.218 C 
BRANCH  39  40
HETATM   40  O3  UNL     1      21.551  40.058 -17.805  1.00  0.00    -0.397 OA
ATOM     41  H3  UNL     1      22.254  40.158 -17.173  1.00  0.00     0.209 HD
ENDBRANCH  39  40
ENDBRANCH  36  39
ENDBRANCH  34  36
ENDBRANCH  32  34
ENDBRANCH   5  32
BRANCH  13  42
HETATM   42  O7  UNL     1      20.310  33.070 -22.565  1.00  0.00    -0.357 OA
ATOM     43  H7  UNL     1      21.021  32.477 -22.778  1.00  0.00     0.218 HD
ENDBRANCH  13  42
BRANCH   8  44
HETATM   44  O4  UNL     1      16.631  38.104 -21.732  1.00  0.00    -0.355 OA
ATOM     45  H4  UNL     1      15.842  37.989 -22.248  1.00  0.00     0.218 HD
ENDBRANCH   8  44
TORSDOF 15
ENDMDL
MODEL 5
REMARK VINA RESULT: -8.760088642      3.088      5.139
REMARK  15 active torsions:
REMARK  status: ('A' for Active; 'I' for Inactive)
REMARK       I    between atoms: C2_2  and  N1_4 
REMARK    1  A    between atoms: N1_4  and  C3_6 
REMARK    2  A    between atoms: C3_6  and  C4_7 
REMARK    3  A    between atoms: C3_6  and  C17_38 
REMARK    4  A    between atoms: C6_11  and  N3_12 
REMARK    5  A    between atoms: N3_12  and  N4_14 
REMARK    6  A    between atoms: N4_14  and  C7_16 
REMARK    7  A    between atoms: C7_16  and  O2_17 
REMARK    8  A    between atoms: C7_16  and  C8_19 
REMARK    9  A    between atoms: C8_19  and  O3_20 
REMARK   10  A    between atoms: C11_24  and  O4_25 
REMARK   11  A    between atoms: C14_31  and  O7_32 
REMARK   12  A    between atoms: C17_38  and  O10_39 
REMARK   13  A    between atoms: C17_38  and  C18_41 
REMARK   14  A    between atoms: C18_41  and  O11_42 
REMARK   15  A    between atoms: C18_41  and  O12_44 
ROOT
HETATM    1  C4  UNL     1      21.959  37.448 -20.698  1.00  0.00     0.154 A 
HETATM    2  N2  UNL     1      23.252  37.568 -21.084  1.00  0.00    -0.335 N 
ATOM      3  H2  UNL     1      23.663  38.480 -21.289  1.00  0.00     0.168 HD
HETATM    4  C5  UNL     1      23.981  36.425 -21.187  1.00  0.00     0.082 A 
HETATM    5  C6  UNL     1      25.350  36.444 -21.475  1.00  0.00     0.088 A 
HETATM    6  C9  UNL     1      26.093  35.296 -21.465  1.00  0.00     0.034 A 
HETATM    7  C10 UNL     1      27.449  35.295 -21.700  1.00  0.00     0.059 A 
HETATM    8  C11 UNL     1      28.163  34.131 -21.666  1.00  0.00     0.142 A 
HETATM    9  C12 UNL     1      27.429  32.977 -21.389  1.00  0.00     0.322 A 
HETATM   10  O5  UNL     1      28.113  31.919 -21.384  1.00  0.00    -0.257 OA
HETATM   11  O6  UNL     1      26.183  32.974 -21.160  1.00  0.00    -0.270 OA
HETATM   12  C13 UNL     1      25.475  34.079 -21.172  1.00  0.00     0.126 A 
HETATM   13  C14 UNL     1      24.134  34.030 -20.884  1.00  0.00     0.119 A 
HETATM   14  C15 UNL     1      23.439  35.194 -20.901  1.00  0.00     0.104 A 
HETATM   15  C16 UNL     1      22.114  35.163 -20.520  1.00  0.00     0.304 A 
HETATM   16  O8  UNL     1      21.589  34.068 -20.249  1.00  0.00    -0.259 OA
HETATM   17  O9  UNL     1      21.446  36.311 -20.442  1.00  0.00    -0.259 OA
ENDROOT
BRANCH   1  18
HETATM   18  C3  UNL     1      21.063  38.688 -20.559  1.00  0.00     0.193 C 
BRANCH  18  19
HETATM   19  N1  UNL     1      20.095  38.353 -19.620  1.00  0.00    -0.347 N 
HETATM   20  C2  UNL     1      18.661  38.178 -19.667  1.00  0.00     0.214 C 
HETATM   21  C1  UNL     1      18.643  38.723 -21.424  1.00  0.00     0.117 C 
HETATM   22  O1  UNL     1      17.587  38.052 -19.721  1.00  0.00    -0.274 OA
ATOM     23  H1  UNL     1      20.483  38.195 -18.690  1.00  0.00     0.163 HD
ENDBRANCH  18  19
BRANCH  18  24
HETATM   24  C17 UNL     1      21.947  39.817 -20.144  1.00  0.00     0.203 C 
BRANCH  24  25
HETATM   25  O10 UNL     1      22.474  40.581 -21.156  1.00  0.00    -0.388 OA
ATOM     26  H10 UNL     1      23.071  41.273 -20.895  1.00  0.00     0.210 HD
ENDBRANCH  24  25
BRANCH  24  27
HETATM   27  C18 UNL     1      21.560  40.640 -18.979  1.00  0.00     0.284 C 
BRANCH  27  28
HETATM   28  O11 UNL     1      21.477  40.082 -17.751  1.00  0.00    -0.369 OA
ATOM     29  H11 UNL     1      20.903  39.340 -17.601  1.00  0.00     0.212 HD
ENDBRANCH  27  28
BRANCH  27  30
HETATM   30  O12 UNL     1      20.330  41.282 -19.224  1.00  0.00    -0.369 OA
ATOM     31  H12 UNL     1      19.834  41.358 -18.417  1.00  0.00     0.212 HD
ENDBRANCH  27  30
ENDBRANCH  24  27
ENDBRANCH  18  24
ENDBRANCH   1  18
BRANCH   5  32
HETATM   32  N3  UNL     1      25.977  37.677 -21.842  1.00  0.00    -0.300 N 
ATOM     33  H3  UNL     1      26.400  38.173 -21.058  1.00  0.00     0.186 HD
BRANCH  32  34
HETATM   34  N4  UNL     1      26.113  38.302 -23.011  1.00  0.00    -0.305 N 
ATOM     35  H4  UNL     1      26.998  38.129 -23.487  1.00  0.00     0.183 HD
BRANCH  34  36
HETATM   36  C7  UNL     1      25.271  39.128 -23.668  1.00  0.00     0.256 C 
BRANCH  36  37
HETATM   37  O2  UNL     1      24.450  40.005 -22.936  1.00  0.00    -0.373 OA
ATOM     38  H2  UNL     1      23.664  40.356 -23.340  1.00  0.00     0.212 HD
ENDBRANCH  36  37
BRANCH  36  39
HETATM   39  C8  UNL     1      24.199  38.399 -24.530  1.00  0.00     0.218 C 
BRANCH  39  40
HETATM   40  O3  UNL     1      22.960  38.395 -23.972  1.00  0.00    -0.397 OA
ATOM     41  H3  UNL     1      22.575  37.529 -23.906  1.00  0.00     0.209 HD
ENDBRANCH  39  40
ENDBRANCH  36  39
ENDBRANCH  34  36
ENDBRANCH  32  34
ENDBRANCH   5  32
BRANCH  13  42
HETATM   42  O7  UNL     1      23.494  32.822 -20.562  1.00  0.00    -0.357 OA
ATOM     43  H7  UNL     1      22.606  32.639 -20.843  1.00  0.00     0.218 HD
ENDBRANCH  13  42
BRANCH   8  44
HETATM   44  O4  UNL     1      29.508  34.119 -21.880  1.00  0.00    -0.355 OA
ATOM     45  H4  UNL     1      30.066  33.467 -21.472  1.00  0.00     0.218 HD
ENDBRANCH   8  44
TORSDOF 15
ENDMDL
