MODEL 1
REMARK VINA RESULT: -8.164894829      0.000      0.000
REMARK  9 active torsions:
REMARK  status: ('A' for Active; 'I' for Inactive)
REMARK    1  A    between atoms: O1_1  and  C1_3 
REMARK    2  A    between atoms: N1_6  and  C4_7 
REMARK    3  A    between atoms: C7_10  and  C8_11 
REMARK    4  A    between atoms: C8_11  and  O2_12 
REMARK    5  A    between atoms: C8_11  and  C9_14 
REMARK    6  A    between atoms: C8_11  and  C14_24 
REMARK    7  A    between atoms: C10_19  and  C11_20 
REMARK    8  A    between atoms: C14_24  and  O4_25 
REMARK    9  A    between atoms: C14_24  and  C15_27 
ROOT
HETATM    1  C8  UNL     1       7.084   2.272   5.173  1.00  0.00     0.177 C 
ENDROOT
BRANCH   1   2
HETATM    2  C7  UNL     1       6.852   3.681   4.802  1.00  0.00    -0.013 A 
HETATM    3  C6  UNL     1       7.719   4.374   3.992  1.00  0.00     0.013 A 
HETATM    4  C5  UNL     1       7.426   5.690   3.696  1.00  0.00     0.030 A 
HETATM    5  C4  UNL     1       6.302   6.345   4.173  1.00  0.00     0.030 A 
HETATM    6  C19 UNL     1       5.451   5.639   4.977  1.00  0.00     0.030 A 
HETATM    7  C18 UNL     1       5.734   4.328   5.279  1.00  0.00     0.013 A 
BRANCH   5   8
HETATM    8  N1  UNL     1       6.003   7.687   3.849  1.00  0.00    -0.381 N 
HETATM    9  C3  UNL     1       6.979   8.592   3.287  1.00  0.00     0.125 C 
HETATM   10  C2  UNL     1       6.483   9.243   2.013  1.00  0.00     0.051 C 
HETATM   11  C1  UNL     1       5.048   9.643   2.047  1.00  0.00     0.121 C 
HETATM   12  C21 UNL     1       4.145   8.600   2.699  1.00  0.00     0.051 C 
HETATM   13  C20 UNL     1       4.689   8.251   4.077  1.00  0.00     0.125 C 
BRANCH  11  14
HETATM   14  O1  UNL     1       4.605   9.756   0.713  1.00  0.00    -0.395 OA
ATOM     15  H1  UNL     1       3.889   9.142   0.595  1.00  0.00     0.210 HD
ENDBRANCH  11  14
ENDBRANCH   5   8
ENDBRANCH   1   2
BRANCH   1  16
HETATM   16  O2  UNL     1       5.851   1.658   5.352  1.00  0.00    -0.374 OA
ATOM     17  H2  UNL     1       5.386   1.672   4.524  1.00  0.00     0.211 HD
ENDBRANCH   1  16
BRANCH   1  18
HETATM   18  C9  UNL     1       7.723   1.526   4.022  1.00  0.00     0.182 A 
HETATM   19  N2  UNL     1       7.303   1.416   2.755  1.00  0.00    -0.279 N 
HETATM   20  N3  UNL     1       8.134   0.681   2.047  1.00  0.00    -0.281 N 
ATOM     21  H2  UNL     1       6.453   1.844   2.389  1.00  0.00     0.189 HD
HETATM   22  C10 UNL     1       9.116   0.316   2.904  1.00  0.00     0.144 A 
ATOM     23  H3  UNL     1       8.054   0.437   1.059  1.00  0.00     0.189 HD
HETATM   24  O3  UNL     1       8.849   0.829   4.065  1.00  0.00    -0.278 OA
BRANCH  22  25
HETATM   25  C11 UNL     1      10.266  -0.537   2.471  1.00  0.00     0.062 A 
HETATM   26  C12 UNL     1      10.075  -1.511   1.354  1.00  0.00     0.013 A 
HETATM   27  C13 UNL     1      10.168  -2.014   2.756  1.00  0.00     0.013 A 
ENDBRANCH  22  25
ENDBRANCH   1  18
BRANCH   1  28
HETATM   28  C14 UNL     1       7.867   2.101   6.424  1.00  0.00     0.169 C 
BRANCH  28  29
HETATM   29  O4  UNL     1       8.903   3.013   6.570  1.00  0.00    -0.391 OA
ATOM     30  H4  UNL     1       9.179   3.143   7.470  1.00  0.00     0.210 HD
ENDBRANCH  28  29
BRANCH  28  31
HETATM   31  C15 UNL     1       7.002   2.098   7.652  1.00  0.00     0.018 A 
HETATM   32  C16 UNL     1       7.634   1.788   8.962  1.00  0.00     0.008 A 
HETATM   33  C17 UNL     1       7.045   3.130   8.689  1.00  0.00     0.008 A 
ENDBRANCH  28  31
ENDBRANCH   1  28
TORSDOF 9
ENDMDL
MODEL 2
REMARK VINA RESULT: -8.073659407      0.876      1.157
REMARK  9 active torsions:
REMARK  status: ('A' for Active; 'I' for Inactive)
REMARK    1  A    between atoms: O1_1  and  C1_3 
REMARK    2  A    between atoms: N1_6  and  C4_7 
REMARK    3  A    between atoms: C7_10  and  C8_11 
REMARK    4  A    between atoms: C8_11  and  O2_12 
REMARK    5  A    between atoms: C8_11  and  C9_14 
REMARK    6  A    between atoms: C8_11  and  C14_24 
REMARK    7  A    between atoms: C10_19  and  C11_20 
REMARK    8  A    between atoms: C14_24  and  O4_25 
REMARK    9  A    between atoms: C14_24  and  C15_27 
ROOT
HETATM    1  C8  UNL     1       7.225   2.302   5.016  1.00  0.00     0.177 C 
ENDROOT
BRANCH   1   2
HETATM    2  C7  UNL     1       6.873   3.700   4.702  1.00  0.00    -0.013 A 
HETATM    3  C6  UNL     1       7.680   4.497   3.926  1.00  0.00     0.013 A 
HETATM    4  C5  UNL     1       7.275   5.794   3.683  1.00  0.00     0.030 A 
HETATM    5  C4  UNL     1       6.098   6.331   4.180  1.00  0.00     0.030 A 
HETATM    6  C19 UNL     1       5.308   5.521   4.950  1.00  0.00     0.030 A 
HETATM    7  C18 UNL     1       5.703   4.228   5.199  1.00  0.00     0.013 A 
BRANCH   5   8
HETATM    8  N1  UNL     1       5.685   7.654   3.910  1.00  0.00    -0.381 N 
HETATM    9  C3  UNL     1       6.533   8.618   3.247  1.00  0.00     0.125 C 
HETATM   10  C2  UNL     1       5.853   9.245   2.049  1.00  0.00     0.051 C 
HETATM   11  C1  UNL     1       4.412   9.559   2.257  1.00  0.00     0.121 C 
HETATM   12  C21 UNL     1       3.654   8.462   2.998  1.00  0.00     0.051 C 
HETATM   13  C20 UNL     1       4.376   8.138   4.298  1.00  0.00     0.125 C 
BRANCH  11  14
HETATM   14  O1  UNL     1       3.807   9.652   0.985  1.00  0.00    -0.395 OA
ATOM     15  H1  UNL     1       4.307  10.279   0.475  1.00  0.00     0.210 HD
ENDBRANCH  11  14
ENDBRANCH   5   8
ENDBRANCH   1   2
BRANCH   1  16
HETATM   16  O2  UNL     1       6.050   1.570   5.131  1.00  0.00    -0.374 OA
ATOM     17  H2  UNL     1       5.425   1.906   4.500  1.00  0.00     0.211 HD
ENDBRANCH   1  16
BRANCH   1  18
HETATM   18  C9  UNL     1       7.959   1.672   3.852  1.00  0.00     0.182 A 
HETATM   19  N2  UNL     1       7.458   1.144   2.728  1.00  0.00    -0.279 N 
HETATM   20  N3  UNL     1       8.419   0.694   1.951  1.00  0.00    -0.281 N 
ATOM     21  H2  UNL     1       6.463   1.098   2.505  1.00  0.00     0.189 HD
HETATM   22  C10 UNL     1       9.571   0.951   2.613  1.00  0.00     0.144 A 
ATOM     23  H3  UNL     1       8.317   0.245   1.040  1.00  0.00     0.189 HD
HETATM   24  O3  UNL     1       9.271   1.530   3.735  1.00  0.00    -0.278 OA
BRANCH  22  25
HETATM   25  C11 UNL     1      10.906   0.583   2.049  1.00  0.00     0.062 A 
HETATM   26  C12 UNL     1      12.107   1.388   2.425  1.00  0.00     0.013 A 
HETATM   27  C13 UNL     1      11.521   1.543   1.062  1.00  0.00     0.013 A 
ENDBRANCH  22  25
ENDBRANCH   1  18
BRANCH   1  28
HETATM   28  C14 UNL     1       7.989   2.143   6.281  1.00  0.00     0.169 C 
BRANCH  28  29
HETATM   29  O4  UNL     1       9.017   3.064   6.439  1.00  0.00    -0.391 OA
ATOM     30  H4  UNL     1       9.630   2.844   7.130  1.00  0.00     0.210 HD
ENDBRANCH  28  29
BRANCH  28  31
HETATM   31  C15 UNL     1       7.104   2.142   7.494  1.00  0.00     0.018 A 
HETATM   32  C16 UNL     1       7.701   1.770   8.805  1.00  0.00     0.008 A 
HETATM   33  C17 UNL     1       7.171   3.142   8.561  1.00  0.00     0.008 A 
ENDBRANCH  28  31
ENDBRANCH   1  28
TORSDOF 9
ENDMDL
MODEL 3
REMARK VINA RESULT: -8.063589332      3.596      6.720
REMARK  9 active torsions:
REMARK  status: ('A' for Active; 'I' for Inactive)
REMARK    1  A    between atoms: O1_1  and  C1_3 
REMARK    2  A    between atoms: N1_6  and  C4_7 
REMARK    3  A    between atoms: C7_10  and  C8_11 
REMARK    4  A    between atoms: C8_11  and  O2_12 
REMARK    5  A    between atoms: C8_11  and  C9_14 
REMARK    6  A    between atoms: C8_11  and  C14_24 
REMARK    7  A    between atoms: C10_19  and  C11_20 
REMARK    8  A    between atoms: C14_24  and  O4_25 
REMARK    9  A    between atoms: C14_24  and  C15_27 
ROOT
HETATM    1  C8  UNL     1      11.714   1.059   1.373  1.00  0.00     0.177 C 
ENDROOT
BRANCH   1   2
HETATM    2  C7  UNL     1      10.700   1.594   2.301  1.00  0.00    -0.013 A 
HETATM    3  C6  UNL     1       9.400   1.148   2.296  1.00  0.00     0.013 A 
HETATM    4  C5  UNL     1       8.516   1.703   3.199  1.00  0.00     0.030 A 
HETATM    5  C4  UNL     1       8.873   2.686   4.109  1.00  0.00     0.030 A 
HETATM    6  C19 UNL     1      10.171   3.116   4.099  1.00  0.00     0.030 A 
HETATM    7  C18 UNL     1      11.061   2.570   3.203  1.00  0.00     0.013 A 
BRANCH   5   8
HETATM    8  N1  UNL     1       7.964   3.234   5.040  1.00  0.00    -0.381 N 
HETATM    9  C3  UNL     1       7.108   4.356   4.730  1.00  0.00     0.125 C 
HETATM   10  C2  UNL     1       5.653   4.059   5.024  1.00  0.00     0.051 C 
HETATM   11  C1  UNL     1       5.426   3.291   6.280  1.00  0.00     0.121 C 
HETATM   12  C21 UNL     1       6.427   2.159   6.486  1.00  0.00     0.051 C 
HETATM   13  C20 UNL     1       7.842   2.710   6.385  1.00  0.00     0.125 C 
BRANCH  11  14
HETATM   14  O1  UNL     1       4.162   2.673   6.179  1.00  0.00    -0.395 OA
ATOM     15  H1  UNL     1       4.236   1.804   6.556  1.00  0.00     0.210 HD
ENDBRANCH  11  14
ENDBRANCH   5   8
ENDBRANCH   1   2
BRANCH   1  16
HETATM   16  O2  UNL     1      12.972   1.321   1.901  1.00  0.00    -0.374 OA
ATOM     17  H2  UNL     1      13.353   0.500   2.189  1.00  0.00     0.211 HD
ENDBRANCH   1  16
BRANCH   1  18
HETATM   18  C9  UNL     1      11.626  -0.450   1.313  1.00  0.00     0.182 A 
HETATM   19  N2  UNL     1      11.277  -1.310   2.279  1.00  0.00    -0.279 N 
HETATM   20  N3  UNL     1      11.320  -2.551   1.841  1.00  0.00    -0.281 N 
ATOM     21  H2  UNL     1      11.013  -1.040   3.226  1.00  0.00     0.189 HD
HETATM   22  C10 UNL     1      11.712  -2.466   0.548  1.00  0.00     0.144 A 
ATOM     23  H3  UNL     1      11.104  -3.398   2.367  1.00  0.00     0.189 HD
HETATM   24  O3  UNL     1      11.886  -1.212   0.261  1.00  0.00    -0.278 OA
BRANCH  22  25
HETATM   25  C11 UNL     1      11.881  -3.680  -0.308  1.00  0.00     0.062 A 
HETATM   26  C12 UNL     1      12.130  -5.003   0.340  1.00  0.00     0.013 A 
HETATM   27  C13 UNL     1      13.253  -4.303  -0.349  1.00  0.00     0.013 A 
ENDBRANCH  22  25
ENDBRANCH   1  18
BRANCH   1  28
HETATM   28  C14 UNL     1      11.656   1.654   0.012  1.00  0.00     0.169 C 
BRANCH  28  29
HETATM   29  O4  UNL     1      11.262   2.985  -0.007  1.00  0.00    -0.391 OA
ATOM     30  H4  UNL     1      11.973   3.600   0.134  1.00  0.00     0.210 HD
ENDBRANCH  28  29
BRANCH  28  31
HETATM   31  C15 UNL     1      12.939   1.483  -0.749  1.00  0.00     0.018 A 
HETATM   32  C16 UNL     1      12.868   1.283  -2.221  1.00  0.00     0.008 A 
HETATM   33  C17 UNL     1      13.509   2.497  -1.638  1.00  0.00     0.008 A 
ENDBRANCH  28  31
ENDBRANCH   1  28
TORSDOF 9
ENDMDL
MODEL 4
REMARK VINA RESULT: -7.907482824      3.520      6.585
REMARK  9 active torsions:
REMARK  status: ('A' for Active; 'I' for Inactive)
REMARK    1  A    between atoms: O1_1  and  C1_3 
REMARK    2  A    between atoms: N1_6  and  C4_7 
REMARK    3  A    between atoms: C7_10  and  C8_11 
REMARK    4  A    between atoms: C8_11  and  O2_12 
REMARK    5  A    between atoms: C8_11  and  C9_14 
REMARK    6  A    between atoms: C8_11  and  C14_24 
REMARK    7  A    between atoms: C10_19  and  C11_20 
REMARK    8  A    between atoms: C14_24  and  O4_25 
REMARK    9  A    between atoms: C14_24  and  C15_27 
ROOT
HETATM    1  C8  UNL     1      11.734   1.227   1.362  1.00  0.00     0.177 C 
ENDROOT
BRANCH   1   2
HETATM    2  C7  UNL     1      10.710   1.735   2.294  1.00  0.00    -0.013 A 
HETATM    3  C6  UNL     1       9.404   1.307   2.248  1.00  0.00     0.013 A 
HETATM    4  C5  UNL     1       8.511   1.836   3.158  1.00  0.00     0.030 A 
HETATM    5  C4  UNL     1       8.864   2.774   4.114  1.00  0.00     0.030 A 
HETATM    6  C19 UNL     1      10.168   3.188   4.145  1.00  0.00     0.030 A 
HETATM    7  C18 UNL     1      11.066   2.668   3.243  1.00  0.00     0.013 A 
BRANCH   5   8
HETATM    8  N1  UNL     1       7.945   3.296   5.052  1.00  0.00    -0.381 N 
HETATM    9  C3  UNL     1       7.072   4.408   4.756  1.00  0.00     0.125 C 
HETATM   10  C2  UNL     1       5.622   4.084   5.043  1.00  0.00     0.051 C 
HETATM   11  C1  UNL     1       5.405   3.295   6.289  1.00  0.00     0.121 C 
HETATM   12  C21 UNL     1       6.424   2.176   6.481  1.00  0.00     0.051 C 
HETATM   13  C20 UNL     1       7.830   2.751   6.389  1.00  0.00     0.125 C 
BRANCH  11  14
HETATM   14  O1  UNL     1       4.151   2.658   6.178  1.00  0.00    -0.395 OA
ATOM     15  H1  UNL     1       3.554   3.092   6.777  1.00  0.00     0.210 HD
ENDBRANCH  11  14
ENDBRANCH   5   8
ENDBRANCH   1   2
BRANCH   1  16
HETATM   16  O2  UNL     1      12.986   1.470   1.912  1.00  0.00    -0.374 OA
ATOM     17  H2  UNL     1      13.007   1.098   2.785  1.00  0.00     0.211 HD
ENDBRANCH   1  16
BRANCH   1  18
HETATM   18  C9  UNL     1      11.644  -0.281   1.257  1.00  0.00     0.182 A 
HETATM   19  N2  UNL     1      12.153  -1.089   0.319  1.00  0.00    -0.279 N 
HETATM   20  N3  UNL     1      11.862  -2.347   0.575  1.00  0.00    -0.281 N 
ATOM     21  H2  UNL     1      12.693  -0.773  -0.486  1.00  0.00     0.189 HD
HETATM   22  C10 UNL     1      11.142  -2.327   1.721  1.00  0.00     0.144 A 
ATOM     23  H3  UNL     1      12.124  -3.165   0.025  1.00  0.00     0.189 HD
HETATM   24  O3  UNL     1      11.028  -1.092   2.104  1.00  0.00    -0.278 OA
BRANCH  22  25
HETATM   25  C11 UNL     1      10.619  -3.579   2.348  1.00  0.00     0.062 A 
HETATM   26  C12 UNL     1       9.701  -4.462   1.566  1.00  0.00     0.013 A 
HETATM   27  C13 UNL     1       9.146  -3.622   2.667  1.00  0.00     0.013 A 
ENDBRANCH  22  25
ENDBRANCH   1  18
BRANCH   1  28
HETATM   28  C14 UNL     1      11.692   1.861   0.019  1.00  0.00     0.169 C 
BRANCH  28  29
HETATM   29  O4  UNL     1      11.407   3.220   0.044  1.00  0.00    -0.391 OA
ATOM     30  H4  UNL     1      10.575   3.432   0.450  1.00  0.00     0.210 HD
ENDBRANCH  28  29
BRANCH  28  31
HETATM   31  C15 UNL     1      12.938   1.608  -0.779  1.00  0.00     0.018 A 
HETATM   32  C16 UNL     1      12.806   1.361  -2.240  1.00  0.00     0.008 A 
HETATM   33  C17 UNL     1      13.518   2.565  -1.724  1.00  0.00     0.008 A 
ENDBRANCH  28  31
ENDBRANCH   1  28
TORSDOF 9
ENDMDL
MODEL 5
REMARK VINA RESULT: -7.750592559      1.640      2.148
REMARK  9 active torsions:
REMARK  status: ('A' for Active; 'I' for Inactive)
REMARK    1  A    between atoms: O1_1  and  C1_3 
REMARK    2  A    between atoms: N1_6  and  C4_7 
REMARK    3  A    between atoms: C7_10  and  C8_11 
REMARK    4  A    between atoms: C8_11  and  O2_12 
REMARK    5  A    between atoms: C8_11  and  C9_14 
REMARK    6  A    between atoms: C8_11  and  C14_24 
REMARK    7  A    between atoms: C10_19  and  C11_20 
REMARK    8  A    between atoms: C14_24  and  O4_25 
REMARK    9  A    between atoms: C14_24  and  C15_27 
ROOT
HETATM    1  C8  UNL     1       6.736   3.465   5.029  1.00  0.00     0.177 C 
ENDROOT
BRANCH   1   2
HETATM    2  C7  UNL     1       6.471   4.739   4.333  1.00  0.00    -0.013 A 
HETATM    3  C6  UNL     1       5.193   5.194   4.110  1.00  0.00     0.013 A 
HETATM    4  C5  UNL     1       5.036   6.396   3.450  1.00  0.00     0.030 A 
HETATM    5  C4  UNL     1       6.098   7.165   3.003  1.00  0.00     0.030 A 
HETATM    6  C19 UNL     1       7.362   6.696   3.235  1.00  0.00     0.030 A 
HETATM    7  C18 UNL     1       7.530   5.499   3.892  1.00  0.00     0.013 A 
BRANCH   5   8
HETATM    8  N1  UNL     1       5.925   8.403   2.344  1.00  0.00    -0.381 N 
HETATM    9  C3  UNL     1       7.024   9.296   2.057  1.00  0.00     0.125 C 
HETATM   10  C2  UNL     1       7.073   9.683   0.594  1.00  0.00     0.051 C 
HETATM   11  C1  UNL     1       5.739   9.943  -0.017  1.00  0.00     0.121 C 
HETATM   12  C21 UNL     1       4.674   8.936   0.406  1.00  0.00     0.051 C 
HETATM   13  C20 UNL     1       4.618   8.866   1.925  1.00  0.00     0.125 C 
BRANCH  11  14
HETATM   14  O1  UNL     1       5.874   9.797  -1.413  1.00  0.00    -0.395 OA
ATOM     15  H1  UNL     1       6.349  10.554  -1.737  1.00  0.00     0.210 HD
ENDBRANCH  11  14
ENDBRANCH   5   8
ENDBRANCH   1   2
BRANCH   1  16
HETATM   16  O2  UNL     1       5.536   2.779   5.161  1.00  0.00    -0.374 OA
ATOM     17  H2  UNL     1       5.656   2.085   5.798  1.00  0.00     0.211 HD
ENDBRANCH   1  16
BRANCH   1  18
HETATM   18  C9  UNL     1       7.602   2.569   4.169  1.00  0.00     0.182 A 
HETATM   19  N2  UNL     1       7.234   1.549   3.383  1.00  0.00    -0.279 N 
HETATM   20  N3  UNL     1       8.280   1.012   2.792  1.00  0.00    -0.281 N 
ATOM     21  H2  UNL     1       6.273   1.232   3.260  1.00  0.00     0.189 HD
HETATM   22  C10 UNL     1       9.347   1.724   3.224  1.00  0.00     0.144 A 
ATOM     23  H3  UNL     1       8.285   0.223   2.145  1.00  0.00     0.189 HD
HETATM   24  O3  UNL     1       8.918   2.639   4.038  1.00  0.00    -0.278 OA
BRANCH  22  25
HETATM   25  C11 UNL     1      10.738   1.417   2.770  1.00  0.00     0.062 A 
HETATM   26  C12 UNL     1      11.794   2.469   2.881  1.00  0.00     0.013 A 
HETATM   27  C13 UNL     1      11.232   2.134   1.540  1.00  0.00     0.013 A 
ENDBRANCH  22  25
ENDBRANCH   1  18
BRANCH   1  28
HETATM   28  C14 UNL     1       7.320   3.632   6.386  1.00  0.00     0.169 C 
BRANCH  28  29
HETATM   29  O4  UNL     1       6.790   4.699   7.101  1.00  0.00    -0.391 OA
ATOM     30  H4  UNL     1       6.357   4.445   7.908  1.00  0.00     0.210 HD
ENDBRANCH  28  29
BRANCH  28  31
HETATM   31  C15 UNL     1       7.250   2.375   7.204  1.00  0.00     0.018 A 
HETATM   32  C16 UNL     1       8.500   1.866   7.828  1.00  0.00     0.008 A 
HETATM   33  C17 UNL     1       7.359   2.337   8.663  1.00  0.00     0.008 A 
ENDBRANCH  28  31
ENDBRANCH   1  28
TORSDOF 9
ENDMDL
