MODEL 1
REMARK VINA RESULT: -4.798140378      0.000      0.000
REMARK  2 active torsions:
REMARK  status: ('A' for Active; 'I' for Inactive)
REMARK    1  A    between atoms: N1_1  and  C1_4 
REMARK    2  A    between atoms: C2_7  and  N3_8 
ROOT
HETATM    1  C1  UNL     1     -22.176 -37.705  24.959  1.00  0.00     0.694 A 
HETATM    2  N2  UNL     1     -21.022 -38.329  25.283  1.00  0.00    -0.021 N 
ATOM      3  H2  UNL     1     -20.470 -37.963  26.058  1.00  0.00     0.203 HD
HETATM    4  C2  UNL     1     -20.569 -39.412  24.627  1.00  0.00     0.715 A 
HETATM    5  N6  UNL     1     -21.341 -39.855  23.605  1.00  0.00    -0.139 N 
ATOM      6  H6  UNL     1     -21.039 -40.673  23.076  1.00  0.00     0.189 HD
HETATM    7  C5  UNL     1     -22.498 -39.247  23.264  1.00  0.00     0.352 A 
HETATM    8  O1  UNL     1     -23.212 -39.664  22.312  1.00  0.00    -0.246 OA
HETATM    9  N7  UNL     1     -22.923 -38.166  23.940  1.00  0.00    -0.141 N 
ATOM     10  H7  UNL     1     -23.796 -37.704  23.686  1.00  0.00     0.189 HD
ENDROOT
BRANCH   4  11
HETATM   11  N3  UNL     1     -19.352 -40.053  24.984  1.00  0.00    -0.109 N 
HETATM   12  C3  UNL     1     -19.205 -41.061  26.015  1.00  0.00     0.182 C 
HETATM   13  C4  UNL     1     -17.702 -41.108  26.186  1.00  0.00     0.154 C 
HETATM   14  N4  UNL     1     -17.222 -40.703  24.900  1.00  0.00    -0.124 NA
HETATM   15  N5  UNL     1     -18.130 -39.800  24.393  1.00  0.00    -0.014 NA
ENDBRANCH   4  11
BRANCH   1  16
HETATM   16  N1  UNL     1     -22.581 -36.667  25.612  1.00  0.00    -0.234 N 
ATOM     17  H12 UNL     1     -23.562 -36.605  25.882  1.00  0.00     0.174 HD
ATOM     18  H11 UNL     1     -21.938 -35.915  25.860  1.00  0.00     0.174 HD
ENDBRANCH   1  16
TORSDOF 2
ENDMDL
MODEL 2
REMARK VINA RESULT: -4.774573457      1.153      1.248
REMARK  2 active torsions:
REMARK  status: ('A' for Active; 'I' for Inactive)
REMARK    1  A    between atoms: N1_1  and  C1_4 
REMARK    2  A    between atoms: C2_7  and  N3_8 
ROOT
HETATM    1  C1  UNL     1     -22.079 -37.550  25.149  1.00  0.00     0.694 A 
HETATM    2  N2  UNL     1     -21.016 -38.116  25.760  1.00  0.00    -0.021 N 
ATOM      3  H2  UNL     1     -20.661 -37.692  26.617  1.00  0.00     0.203 HD
HETATM    4  C2  UNL     1     -20.403 -39.216  25.287  1.00  0.00     0.715 A 
HETATM    5  N6  UNL     1     -20.914 -39.738  24.145  1.00  0.00    -0.139 N 
ATOM      6  H6  UNL     1     -20.483 -40.571  23.747  1.00  0.00     0.189 HD
HETATM    7  C5  UNL     1     -21.976 -39.188  23.518  1.00  0.00     0.352 A 
HETATM    8  O1  UNL     1     -22.447 -39.678  22.456  1.00  0.00    -0.246 OA
HETATM    9  N7  UNL     1     -22.566 -38.088  24.017  1.00  0.00    -0.141 N 
ATOM     10  H7  UNL     1     -23.368 -37.670  23.547  1.00  0.00     0.189 HD
ENDROOT
BRANCH   4  11
HETATM   11  N3  UNL     1     -19.285 -39.796  25.945  1.00  0.00    -0.109 N 
HETATM   12  C3  UNL     1     -18.442 -40.844  25.404  1.00  0.00     0.182 C 
HETATM   13  C4  UNL     1     -17.679 -41.289  26.633  1.00  0.00     0.154 C 
HETATM   14  N4  UNL     1     -17.666 -40.110  27.445  1.00  0.00    -0.124 NA
HETATM   15  N5  UNL     1     -18.845 -39.438  27.204  1.00  0.00    -0.014 NA
ENDBRANCH   4  11
BRANCH   1  16
HETATM   16  N1  UNL     1     -22.643 -36.493  25.632  1.00  0.00    -0.234 N 
ATOM     17  H12 UNL     1     -22.714 -36.390  26.645  1.00  0.00     0.174 HD
ATOM     18  H11 UNL     1     -23.016 -35.766  25.021  1.00  0.00     0.174 HD
ENDBRANCH   1  16
TORSDOF 2
ENDMDL
MODEL 3
REMARK VINA RESULT: -4.762439998      2.115      2.531
REMARK  2 active torsions:
REMARK  status: ('A' for Active; 'I' for Inactive)
REMARK    1  A    between atoms: N1_1  and  C1_4 
REMARK    2  A    between atoms: C2_7  and  N3_8 
ROOT
HETATM    1  C1  UNL     1     -22.091 -37.559  25.158  1.00  0.00     0.694 A 
HETATM    2  N2  UNL     1     -21.007 -38.313  24.872  1.00  0.00    -0.021 N 
ATOM      3  H2  UNL     1     -20.650 -38.312  23.917  1.00  0.00     0.203 HD
HETATM    4  C2  UNL     1     -20.379 -39.066  25.793  1.00  0.00     0.715 A 
HETATM    5  N6  UNL     1     -20.896 -39.031  27.045  1.00  0.00    -0.139 N 
ATOM      6  H6  UNL     1     -20.454 -39.586  27.777  1.00  0.00     0.189 HD
HETATM    7  C5  UNL     1     -21.978 -38.284  27.353  1.00  0.00     0.352 A 
HETATM    8  O1  UNL     1     -22.454 -38.256  28.520  1.00  0.00    -0.246 OA
HETATM    9  N7  UNL     1     -22.584 -37.543  26.410  1.00  0.00    -0.141 N 
ATOM     10  H7  UNL     1     -23.401 -36.978  26.638  1.00  0.00     0.189 HD
ENDROOT
BRANCH   4  11
HETATM   11  N3  UNL     1     -19.240 -39.853  25.470  1.00  0.00    -0.109 N 
HETATM   12  C3  UNL     1     -18.853 -41.082  26.133  1.00  0.00     0.182 C 
HETATM   13  C4  UNL     1     -17.437 -41.268  25.633  1.00  0.00     0.154 C 
HETATM   14  N4  UNL     1     -17.457 -40.605  24.364  1.00  0.00    -0.124 NA
HETATM   15  N5  UNL     1     -18.336 -39.550  24.471  1.00  0.00    -0.014 NA
ENDBRANCH   4  11
BRANCH   1  16
HETATM   16  N1  UNL     1     -22.670 -36.848  24.249  1.00  0.00    -0.234 N 
ATOM     17  H12 UNL     1     -23.523 -37.200  23.815  1.00  0.00     0.174 HD
ATOM     18  H11 UNL     1     -22.288 -35.946  23.962  1.00  0.00     0.174 HD
ENDBRANCH   1  16
TORSDOF 2
ENDMDL
MODEL 4
REMARK VINA RESULT: -4.599200998      2.240      3.150
REMARK  2 active torsions:
REMARK  status: ('A' for Active; 'I' for Inactive)
REMARK    1  A    between atoms: N1_1  and  C1_4 
REMARK    2  A    between atoms: C2_7  and  N3_8 
ROOT
HETATM    1  C1  UNL     1     -20.292 -38.575  26.188  1.00  0.00     0.694 A 
HETATM    2  N2  UNL     1     -20.111 -39.606  25.333  1.00  0.00    -0.021 N 
ATOM      3  H2  UNL     1     -19.406 -40.307  25.557  1.00  0.00     0.203 HD
HETATM    4  C2  UNL     1     -20.821 -39.746  24.199  1.00  0.00     0.715 A 
HETATM    5  N6  UNL     1     -21.742 -38.784  23.951  1.00  0.00    -0.139 N 
ATOM      6  H6  UNL     1     -22.304 -38.847  23.102  1.00  0.00     0.189 HD
HETATM    7  C5  UNL     1     -21.941 -37.746  24.791  1.00  0.00     0.352 A 
HETATM    8  O1  UNL     1     -22.800 -36.855  24.555  1.00  0.00    -0.246 OA
HETATM    9  N7  UNL     1     -21.215 -37.635  25.917  1.00  0.00    -0.141 N 
ATOM     10  H7  UNL     1     -21.361 -36.852  26.554  1.00  0.00     0.189 HD
ENDROOT
BRANCH   4  11
HETATM   11  N3  UNL     1     -20.613 -40.838  23.314  1.00  0.00    -0.109 N 
HETATM   12  C3  UNL     1     -19.575 -41.841  23.446  1.00  0.00     0.182 C 
HETATM   13  C4  UNL     1     -19.615 -42.504  22.086  1.00  0.00     0.154 C 
HETATM   14  N4  UNL     1     -20.971 -42.303  21.673  1.00  0.00    -0.124 NA
HETATM   15  N5  UNL     1     -21.379 -41.096  22.194  1.00  0.00    -0.014 NA
ENDBRANCH   4  11
BRANCH   1  16
HETATM   16  N1  UNL     1     -19.593 -38.473  27.269  1.00  0.00    -0.234 N 
ATOM     17  H12 UNL     1     -18.671 -38.906  27.304  1.00  0.00     0.174 HD
ATOM     18  H11 UNL     1     -19.948 -37.968  28.082  1.00  0.00     0.174 HD
ENDBRANCH   1  16
TORSDOF 2
ENDMDL
MODEL 5
REMARK VINA RESULT: -4.570750105      2.843      3.547
REMARK  2 active torsions:
REMARK  status: ('A' for Active; 'I' for Inactive)
REMARK    1  A    between atoms: N1_1  and  C1_4 
REMARK    2  A    between atoms: C2_7  and  N3_8 
ROOT
HETATM    1  C1  UNL     1     -20.029 -38.167  28.394  1.00  0.00     0.694 A 
HETATM    2  N2  UNL     1     -19.553 -38.614  27.212  1.00  0.00    -0.021 N 
ATOM      3  H2  UNL     1     -18.544 -38.617  27.062  1.00  0.00     0.203 HD
HETATM    4  C2  UNL     1     -20.351 -39.055  26.223  1.00  0.00     0.715 A 
HETATM    5  N6  UNL     1     -21.682 -39.028  26.476  1.00  0.00    -0.139 N 
ATOM      6  H6  UNL     1     -22.328 -39.352  25.756  1.00  0.00     0.189 HD
HETATM    7  C5  UNL     1     -22.181 -38.585  27.651  1.00  0.00     0.352 A 
HETATM    8  O1  UNL     1     -23.420 -38.562  27.880  1.00  0.00    -0.246 OA
HETATM    9  N7  UNL     1     -21.355 -38.150  28.619  1.00  0.00    -0.141 N 
ATOM     10  H7  UNL     1     -21.727 -37.815  29.507  1.00  0.00     0.189 HD
ENDROOT
BRANCH   4  11
HETATM   11  N3  UNL     1     -19.829 -39.522  24.987  1.00  0.00    -0.109 N 
HETATM   12  C3  UNL     1     -20.619 -39.961  23.854  1.00  0.00     0.182 C 
HETATM   13  C4  UNL     1     -19.575 -40.652  23.002  1.00  0.00     0.154 C 
HETATM   14  N4  UNL     1     -18.368 -39.974  23.366  1.00  0.00    -0.124 NA
HETATM   15  N5  UNL     1     -18.484 -39.622  24.692  1.00  0.00    -0.014 NA
ENDBRANCH   4  11
BRANCH   1  16
HETATM   16  N1  UNL     1     -19.233 -37.750  29.322  1.00  0.00    -0.234 N 
ATOM     17  H12 UNL     1     -18.528 -37.051  29.090  1.00  0.00     0.174 HD
ATOM     18  H11 UNL     1     -19.298 -38.109  30.275  1.00  0.00     0.174 HD
ENDBRANCH   1  16
TORSDOF 2
ENDMDL
