MODEL 1
REMARK VINA RESULT: -6.849796025      0.000      0.000
REMARK  6 active torsions:
REMARK  status: ('A' for Active; 'I' for Inactive)
REMARK    1  A    between atoms: C3_4  and  S1_5 
REMARK    2  A    between atoms: S1_5  and  C4_6 
REMARK    3  A    between atoms: C4_6  and  C5_7 
REMARK       I    between atoms: C5_7  and  N2_9 
REMARK    4  A    between atoms: N2_9  and  N3_11 
REMARK    5  A    between atoms: C6_13  and  C7_14 
REMARK    6  A    between atoms: C10_17  and  C11_18 
ROOT
HETATM    1  N1  UNL     1     -10.885   0.928  -4.829  1.00  0.00    -0.191 NA
HETATM    2  C1  UNL     1     -10.892   2.085  -4.595  1.00  0.00     0.102 C 
HETATM    3  C2  UNL     1     -10.858   3.548  -4.319  1.00  0.00     0.075 A 
HETATM    4  C3  UNL     1     -11.960   4.298  -4.545  1.00  0.00     0.063 A 
HETATM    5  S2  UNL     1     -11.414   5.903  -4.151  1.00  0.00    -0.086 SA
HETATM    6  C12 UNL     1      -9.832   5.554  -3.720  1.00  0.00    -0.008 A 
HETATM    7  C13 UNL     1      -9.735   4.189  -3.887  1.00  0.00    -0.022 A 
HETATM    8  C14 UNL     1      -8.386   3.554  -3.559  1.00  0.00     0.041 C 
HETATM    9  C15 UNL     1      -7.287   4.411  -4.021  1.00  0.00     0.005 C 
HETATM   10  C16 UNL     1      -7.548   5.857  -4.253  1.00  0.00     0.005 C 
HETATM   11  C17 UNL     1      -8.589   6.307  -3.249  1.00  0.00     0.046 C 
ENDROOT
BRANCH   4  12
HETATM   12  S1  UNL     1     -13.630   3.978  -5.040  1.00  0.00    -0.112 SA
BRANCH  12  13
HETATM   13  C4  UNL     1     -14.633   2.974  -4.011  1.00  0.00     0.184 C 
BRANCH  13  14
HETATM   14  C5  UNL     1     -14.473   1.499  -4.265  1.00  0.00     0.245 C 
HETATM   15  O1  UNL     1     -15.030   1.021  -5.272  1.00  0.00    -0.271 OA
HETATM   16  N2  UNL     1     -13.719   0.667  -3.398  1.00  0.00    -0.270 N 
ATOM     17  H2  UNL     1     -13.269   1.066  -2.575  1.00  0.00     0.190 HD
BRANCH  16  18
HETATM   18  N3  UNL     1     -13.595  -0.656  -3.659  1.00  0.00    -0.307 N 
HETATM   19  C6  UNL     1     -13.767  -1.624  -2.876  1.00  0.00     0.144 C 
ATOM     20  H3  UNL     1     -13.328  -0.898  -4.613  1.00  0.00     0.186 HD
BRANCH  19  21
HETATM   21  C7  UNL     1     -14.148  -1.492  -1.488  1.00  0.00     0.093 A 
HETATM   22  C8  UNL     1     -13.530  -0.969  -0.402  1.00  0.00     0.041 A 
HETATM   23  C9  UNL     1     -14.381  -1.120   0.678  1.00  0.00     0.043 A 
HETATM   24  C10 UNL     1     -15.494  -1.735   0.203  1.00  0.00     0.113 A 
HETATM   25  O3  UNL     1     -15.332  -1.938  -1.055  1.00  0.00    -0.306 OA
BRANCH  24  26
HETATM   26  C11 UNL     1     -16.678  -2.108   0.973  1.00  0.00     0.295 C 
HETATM   27  O2  UNL     1     -17.679  -1.354   1.035  1.00  0.00    -0.299 OA
ENDBRANCH  24  26
ENDBRANCH  19  21
ENDBRANCH  16  18
ENDBRANCH  13  14
ENDBRANCH  12  13
ENDBRANCH   4  12
TORSDOF 6
ENDMDL
MODEL 2
REMARK VINA RESULT: -6.439440828      3.836      6.895
REMARK  6 active torsions:
REMARK  status: ('A' for Active; 'I' for Inactive)
REMARK    1  A    between atoms: C3_4  and  S1_5 
REMARK    2  A    between atoms: S1_5  and  C4_6 
REMARK    3  A    between atoms: C4_6  and  C5_7 
REMARK       I    between atoms: C5_7  and  N2_9 
REMARK    4  A    between atoms: N2_9  and  N3_11 
REMARK    5  A    between atoms: C6_13  and  C7_14 
REMARK    6  A    between atoms: C10_17  and  C11_18 
ROOT
HETATM    1  N1  UNL     1     -16.097   0.940  -7.025  1.00  0.00    -0.191 NA
HETATM    2  C1  UNL     1     -16.675   1.941  -6.793  1.00  0.00     0.102 C 
HETATM    3  C2  UNL     1     -17.441   3.180  -6.482  1.00  0.00     0.075 A 
HETATM    4  C3  UNL     1     -16.795   4.260  -5.989  1.00  0.00     0.063 A 
HETATM    5  S2  UNL     1     -18.092   5.393  -5.729  1.00  0.00    -0.086 SA
HETATM    6  C12 UNL     1     -19.380   4.456  -6.253  1.00  0.00    -0.008 A 
HETATM    7  C13 UNL     1     -18.794   3.265  -6.627  1.00  0.00    -0.022 A 
HETATM    8  C14 UNL     1     -19.728   2.185  -7.169  1.00  0.00     0.041 C 
HETATM    9  C15 UNL     1     -20.982   2.157  -6.406  1.00  0.00     0.005 C 
HETATM   10  C16 UNL     1     -21.383   3.364  -5.634  1.00  0.00     0.005 C 
HETATM   11  C17 UNL     1     -20.896   4.582  -6.391  1.00  0.00     0.046 C 
ENDROOT
BRANCH   4  12
HETATM   12  S1  UNL     1     -15.107   4.688  -5.664  1.00  0.00    -0.112 SA
BRANCH  12  13
HETATM   13  C4  UNL     1     -14.301   3.942  -4.298  1.00  0.00     0.184 C 
BRANCH  13  14
HETATM   14  C5  UNL     1     -13.249   2.939  -4.690  1.00  0.00     0.245 C 
HETATM   15  O1  UNL     1     -12.055   3.260  -4.532  1.00  0.00    -0.271 OA
HETATM   16  N2  UNL     1     -13.587   1.669  -5.224  1.00  0.00    -0.270 N 
ATOM     17  H2  UNL     1     -14.566   1.416  -5.352  1.00  0.00     0.190 HD
BRANCH  16  18
HETATM   18  N3  UNL     1     -12.614   0.791  -5.565  1.00  0.00    -0.307 N 
HETATM   19  C6  UNL     1     -12.182  -0.187  -4.905  1.00  0.00     0.144 C 
ATOM     20  H3  UNL     1     -12.177   0.943  -6.474  1.00  0.00     0.186 HD
BRANCH  19  21
HETATM   21  C7  UNL     1     -12.670  -0.569  -3.599  1.00  0.00     0.093 A 
HETATM   22  C8  UNL     1     -12.098  -0.618  -2.372  1.00  0.00     0.041 A 
HETATM   23  C9  UNL     1     -13.056  -1.067  -1.481  1.00  0.00     0.043 A 
HETATM   24  C10 UNL     1     -14.184  -1.275  -2.207  1.00  0.00     0.113 A 
HETATM   25  O3  UNL     1     -13.932  -0.978  -3.431  1.00  0.00    -0.306 OA
BRANCH  24  26
HETATM   26  C11 UNL     1     -15.469  -1.752  -1.700  1.00  0.00     0.295 C 
HETATM   27  O2  UNL     1     -16.212  -2.486  -2.396  1.00  0.00    -0.299 OA
ENDBRANCH  24  26
ENDBRANCH  19  21
ENDBRANCH  16  18
ENDBRANCH  13  14
ENDBRANCH  12  13
ENDBRANCH   4  12
TORSDOF 6
ENDMDL
MODEL 3
REMARK VINA RESULT: -6.286113381      1.942      2.347
REMARK  6 active torsions:
REMARK  status: ('A' for Active; 'I' for Inactive)
REMARK    1  A    between atoms: C3_4  and  S1_5 
REMARK    2  A    between atoms: S1_5  and  C4_6 
REMARK    3  A    between atoms: C4_6  and  C5_7 
REMARK       I    between atoms: C5_7  and  N2_9 
REMARK    4  A    between atoms: N2_9  and  N3_11 
REMARK    5  A    between atoms: C6_13  and  C7_14 
REMARK    6  A    between atoms: C10_17  and  C11_18 
ROOT
HETATM    1  N1  UNL     1      -9.692   2.974  -6.183  1.00  0.00    -0.191 NA
HETATM    2  C1  UNL     1      -9.889   3.805  -5.369  1.00  0.00     0.102 C 
HETATM    3  C2  UNL     1     -10.092   4.868  -4.345  1.00  0.00     0.075 A 
HETATM    4  C3  UNL     1     -11.223   5.607  -4.363  1.00  0.00     0.063 A 
HETATM    5  S2  UNL     1     -10.967   6.726  -3.055  1.00  0.00    -0.086 SA
HETATM    6  C12 UNL     1      -9.453   6.210  -2.549  1.00  0.00    -0.008 A 
HETATM    7  C13 UNL     1      -9.155   5.169  -3.402  1.00  0.00    -0.022 A 
HETATM    8  C14 UNL     1      -7.815   4.470  -3.184  1.00  0.00     0.041 C 
HETATM    9  C15 UNL     1      -6.770   5.448  -2.857  1.00  0.00     0.005 C 
HETATM   10  C16 UNL     1      -7.170   6.777  -2.319  1.00  0.00     0.005 C 
HETATM   11  C17 UNL     1      -8.420   6.583  -1.487  1.00  0.00     0.046 C 
ENDROOT
BRANCH   4  12
HETATM   12  S1  UNL     1     -12.725   5.603  -5.303  1.00  0.00    -0.112 SA
BRANCH  12  13
HETATM   13  C4  UNL     1     -13.841   4.268  -5.094  1.00  0.00     0.184 C 
BRANCH  13  14
HETATM   14  C5  UNL     1     -13.355   2.974  -5.691  1.00  0.00     0.245 C 
HETATM   15  O1  UNL     1     -13.614   2.757  -6.891  1.00  0.00    -0.271 OA
HETATM   16  N2  UNL     1     -12.628   2.024  -4.930  1.00  0.00    -0.270 N 
ATOM     17  H2  UNL     1     -12.423   2.210  -3.948  1.00  0.00     0.190 HD
BRANCH  16  18
HETATM   18  N3  UNL     1     -12.205   0.872  -5.501  1.00  0.00    -0.307 N 
HETATM   19  C6  UNL     1     -12.205  -0.286  -5.012  1.00  0.00     0.144 C 
ATOM     20  H3  UNL     1     -11.839   0.954  -6.449  1.00  0.00     0.186 HD
BRANCH  19  21
HETATM   21  C7  UNL     1     -12.683  -0.611  -3.687  1.00  0.00     0.093 A 
HETATM   22  C8  UNL     1     -12.104  -0.593  -2.462  1.00  0.00     0.041 A 
HETATM   23  C9  UNL     1     -13.052  -1.011  -1.545  1.00  0.00     0.043 A 
HETATM   24  C10 UNL     1     -14.181  -1.268  -2.254  1.00  0.00     0.113 A 
HETATM   25  O3  UNL     1     -13.938  -1.028  -3.493  1.00  0.00    -0.306 OA
BRANCH  24  26
HETATM   26  C11 UNL     1     -15.457  -1.738  -1.719  1.00  0.00     0.295 C 
HETATM   27  O2  UNL     1     -16.207  -2.489  -2.387  1.00  0.00    -0.299 OA
ENDBRANCH  24  26
ENDBRANCH  19  21
ENDBRANCH  16  18
ENDBRANCH  13  14
ENDBRANCH  12  13
ENDBRANCH   4  12
TORSDOF 6
ENDMDL
MODEL 4
REMARK VINA RESULT: -6.267748277      3.549      4.967
REMARK  6 active torsions:
REMARK  status: ('A' for Active; 'I' for Inactive)
REMARK    1  A    between atoms: C3_4  and  S1_5 
REMARK    2  A    between atoms: S1_5  and  C4_6 
REMARK    3  A    between atoms: C4_6  and  C5_7 
REMARK       I    between atoms: C5_7  and  N2_9 
REMARK    4  A    between atoms: N2_9  and  N3_11 
REMARK    5  A    between atoms: C6_13  and  C7_14 
REMARK    6  A    between atoms: C10_17  and  C11_18 
ROOT
HETATM    1  N1  UNL     1     -14.588   0.951  -5.689  1.00  0.00    -0.191 NA
HETATM    2  C1  UNL     1     -13.508   0.728  -6.108  1.00  0.00     0.102 C 
HETATM    3  C2  UNL     1     -12.158   0.465  -6.679  1.00  0.00     0.075 A 
HETATM    4  C3  UNL     1     -11.056   0.725  -5.940  1.00  0.00     0.063 A 
HETATM    5  S2  UNL     1      -9.761   0.332  -7.036  1.00  0.00    -0.086 SA
HETATM    6  C12 UNL     1     -10.667  -0.142  -8.366  1.00  0.00    -0.008 A 
HETATM    7  C13 UNL     1     -11.972   0.009  -7.951  1.00  0.00    -0.022 A 
HETATM    8  C14 UNL     1     -13.058  -0.358  -8.960  1.00  0.00     0.041 C 
HETATM    9  C15 UNL     1     -12.680   0.085 -10.308  1.00  0.00     0.005 C 
HETATM   10  C16 UNL     1     -11.244   0.336 -10.608  1.00  0.00     0.005 C 
HETATM   11  C17 UNL     1     -10.422  -0.638  -9.790  1.00  0.00     0.046 C 
ENDROOT
BRANCH   4  12
HETATM   12  S1  UNL     1     -10.740   1.259  -4.281  1.00  0.00    -0.112 SA
BRANCH  12  13
HETATM   13  C4  UNL     1     -11.132   0.174  -2.962  1.00  0.00     0.184 C 
BRANCH  13  14
HETATM   14  C5  UNL     1     -12.341  -0.685  -3.224  1.00  0.00     0.245 C 
HETATM   15  O1  UNL     1     -12.169  -1.748  -3.851  1.00  0.00    -0.271 OA
HETATM   16  N2  UNL     1     -13.636  -0.313  -2.781  1.00  0.00    -0.270 N 
ATOM     17  H2  UNL     1     -13.766   0.560  -2.271  1.00  0.00     0.190 HD
BRANCH  16  18
HETATM   18  N3  UNL     1     -14.699  -1.111  -3.034  1.00  0.00    -0.307 N 
HETATM   19  C6  UNL     1     -15.422  -1.729  -2.212  1.00  0.00     0.144 C 
ATOM     20  H3  UNL     1     -14.945  -1.226  -4.017  1.00  0.00     0.186 HD
BRANCH  19  21
HETATM   21  C7  UNL     1     -15.239  -1.695  -0.779  1.00  0.00     0.093 A 
HETATM   22  C8  UNL     1     -14.218  -1.295   0.016  1.00  0.00     0.041 A 
HETATM   23  C9  UNL     1     -14.607  -1.494   1.329  1.00  0.00     0.043 A 
HETATM   24  C10 UNL     1     -15.860  -2.013   1.280  1.00  0.00     0.113 A 
HETATM   25  O3  UNL     1     -16.201  -2.118   0.046  1.00  0.00    -0.306 OA
BRANCH  24  26
HETATM   26  C11 UNL     1     -16.690  -2.391   2.422  1.00  0.00     0.295 C 
HETATM   27  O2  UNL     1     -16.506  -3.471   3.032  1.00  0.00    -0.299 OA
ENDBRANCH  24  26
ENDBRANCH  19  21
ENDBRANCH  16  18
ENDBRANCH  13  14
ENDBRANCH  12  13
ENDBRANCH   4  12
TORSDOF 6
ENDMDL
MODEL 5
REMARK VINA RESULT: -6.127569123      3.160      5.999
REMARK  6 active torsions:
REMARK  status: ('A' for Active; 'I' for Inactive)
REMARK    1  A    between atoms: C3_4  and  S1_5 
REMARK    2  A    between atoms: S1_5  and  C4_6 
REMARK    3  A    between atoms: C4_6  and  C5_7 
REMARK       I    between atoms: C5_7  and  N2_9 
REMARK    4  A    between atoms: N2_9  and  N3_11 
REMARK    5  A    between atoms: C6_13  and  C7_14 
REMARK    6  A    between atoms: C10_17  and  C11_18 
ROOT
HETATM    1  N1  UNL     1     -16.525   0.979  -6.668  1.00  0.00    -0.191 NA
HETATM    2  C1  UNL     1     -16.624   2.134  -6.450  1.00  0.00     0.102 C 
HETATM    3  C2  UNL     1     -16.791   3.584  -6.153  1.00  0.00     0.075 A 
HETATM    4  C3  UNL     1     -15.723   4.313  -5.757  1.00  0.00     0.063 A 
HETATM    5  S2  UNL     1     -16.420   5.883  -5.471  1.00  0.00    -0.086 SA
HETATM    6  C12 UNL     1     -18.015   5.547  -5.863  1.00  0.00    -0.008 A 
HETATM    7  C13 UNL     1     -17.998   4.214  -6.215  1.00  0.00    -0.022 A 
HETATM    8  C14 UNL     1     -19.331   3.602  -6.640  1.00  0.00     0.041 C 
HETATM    9  C15 UNL     1     -20.422   4.106  -5.796  1.00  0.00     0.005 C 
HETATM   10  C16 UNL     1     -20.234   5.386  -5.062  1.00  0.00     0.005 C 
HETATM   11  C17 UNL     1     -19.354   6.281  -5.909  1.00  0.00     0.046 C 
ENDROOT
BRANCH   4  12
HETATM   12  S1  UNL     1     -13.988   4.016  -5.564  1.00  0.00    -0.112 SA
BRANCH  12  13
HETATM   13  C4  UNL     1     -13.441   3.120  -4.160  1.00  0.00     0.184 C 
BRANCH  13  14
HETATM   14  C5  UNL     1     -13.284   1.644  -4.409  1.00  0.00     0.245 C 
HETATM   15  O1  UNL     1     -12.787   1.290  -5.496  1.00  0.00    -0.271 OA
HETATM   16  N2  UNL     1     -13.684   0.676  -3.452  1.00  0.00    -0.270 N 
ATOM     17  H2  UNL     1     -14.092   0.975  -2.567  1.00  0.00     0.190 HD
BRANCH  16  18
HETATM   18  N3  UNL     1     -13.526  -0.643  -3.710  1.00  0.00    -0.307 N 
HETATM   19  C6  UNL     1     -13.673  -1.613  -2.925  1.00  0.00     0.144 C 
ATOM     20  H3  UNL     1     -13.253  -0.881  -4.664  1.00  0.00     0.186 HD
BRANCH  19  21
HETATM   21  C7  UNL     1     -14.056  -1.488  -1.536  1.00  0.00     0.093 A 
HETATM   22  C8  UNL     1     -13.401  -1.069  -0.427  1.00  0.00     0.041 A 
HETATM   23  C9  UNL     1     -14.279  -1.165   0.638  1.00  0.00     0.043 A 
HETATM   24  C10 UNL     1     -15.443  -1.643   0.131  1.00  0.00     0.113 A 
HETATM   25  O3  UNL     1     -15.286  -1.821  -1.132  1.00  0.00    -0.306 OA
BRANCH  24  26
HETATM   26  C11 UNL     1     -16.670  -1.915   0.876  1.00  0.00     0.295 C 
HETATM   27  O2  UNL     1     -16.714  -2.807   1.757  1.00  0.00    -0.299 OA
ENDBRANCH  24  26
ENDBRANCH  19  21
ENDBRANCH  16  18
ENDBRANCH  13  14
ENDBRANCH  12  13
ENDBRANCH   4  12
TORSDOF 6
ENDMDL
