MODEL 1
REMARK VINA RESULT: -7.096755722      0.000      0.000
REMARK  13 active torsions:
REMARK  status: ('A' for Active; 'I' for Inactive)
REMARK    1  A    between atoms: O1_2  and  C2_3 
REMARK    2  A    between atoms: C2_3  and  C3_5 
REMARK    3  A    between atoms: C5_7  and  N1_8 
REMARK    4  A    between atoms: N1_8  and  S1_10 
REMARK    5  A    between atoms: S1_10  and  C6_13 
REMARK    6  A    between atoms: C6_13  and  C10_30 
REMARK    7  A    between atoms: N2_14  and  N3_16 
REMARK       I    between atoms: N3_16  and  C7_18 
REMARK    8  A    between atoms: C7_18  and  C8_20 
REMARK    9  A    between atoms: C9_26  and  N6_27 
REMARK   10  A    between atoms: C10_30  and  C12_32 
REMARK   11  A    between atoms: C12_32  and  O7_33 
REMARK   12  A    between atoms: C12_32  and  C13_35 
REMARK   13  A    between atoms: C15_37  and  N7_38 
ROOT
HETATM    1  C6  UNL     1      37.127  62.635  18.165  1.00  0.00     0.148 C 
HETATM    2  N2  UNL     1      38.117  61.937  18.685  1.00  0.00    -0.289 N 
ATOM      3  H2  UNL     1      38.593  62.255  19.530  1.00  0.00     0.187 HD
ENDROOT
BRANCH   1   4
HETATM    4  S1  UNL     1      36.323  62.088  16.732  1.00  0.00     0.276 S 
HETATM    5  O3  UNL     1      35.426  63.242  16.263  1.00  0.00    -0.199 OA
HETATM    6  O4  UNL     1      37.367  61.886  15.632  1.00  0.00    -0.199 OA
BRANCH   4   7
HETATM    7  N1  UNL     1      35.413  60.699  16.989  1.00  0.00    -0.279 N 
ATOM      8  H1  UNL     1      35.257  60.448  17.965  1.00  0.00     0.179 HD
BRANCH   7   9
HETATM    9  C5  UNL     1      34.823  59.814  16.012  1.00  0.00     0.050 A 
HETATM   10  C4  UNL     1      34.852  58.468  16.133  1.00  0.00     0.055 A 
HETATM   11  C3  UNL     1      34.244  57.730  15.166  1.00  0.00     0.082 A 
HETATM   12  S2  UNL     1      33.641  58.914  14.102  1.00  0.00    -0.094 SA
HETATM   13  C16 UNL     1      34.178  60.315  14.915  1.00  0.00     0.080 A 
BRANCH  11  14
HETATM   14  C2  UNL     1      34.153  56.269  15.093  1.00  0.00     0.299 C 
HETATM   15  O2  UNL     1      33.803  55.719  14.034  1.00  0.00    -0.259 OA
BRANCH  14  16
HETATM   16  O1  UNL     1      34.452  55.511  16.190  1.00  0.00    -0.322 OA
HETATM   17  C1  UNL     1      35.633  54.765  16.351  1.00  0.00     0.213 C 
ENDBRANCH  14  16
ENDBRANCH  11  14
ENDBRANCH   7   9
ENDBRANCH   4   7
ENDBRANCH   1   4
BRANCH   1  18
HETATM   18  C10 UNL     1      36.773  63.862  18.872  1.00  0.00     0.082 C 
HETATM   19  C11 UNL     1      38.007  64.716  19.149  1.00  0.00     0.020 C 
BRANCH  18  20
HETATM   20  C12 UNL     1      36.086  63.525  20.186  1.00  0.00     0.187 C 
BRANCH  20  21
HETATM   21  O7  UNL     1      36.842  62.495  20.752  1.00  0.00    -0.388 OA
ATOM     22  H7  UNL     1      36.456  62.334  21.606  1.00  0.00     0.210 HD
ENDBRANCH  20  21
BRANCH  20  23
HETATM   23  C13 UNL     1      34.665  63.139  19.990  1.00  0.00     0.109 A 
HETATM   24  C14 UNL     1      33.721  63.864  19.279  1.00  0.00     0.087 A 
HETATM   25  C15 UNL     1      32.517  63.173  19.330  1.00  0.00     0.121 A 
HETATM   26  N8  UNL     1      32.787  62.078  20.060  1.00  0.00    -0.245 N 
HETATM   27  O8  UNL     1      34.033  62.078  20.432  1.00  0.00    -0.238 OA
ATOM     28  H8  UNL     1      32.111  61.350  20.290  1.00  0.00     0.196 HD
BRANCH  25  29
HETATM   29  N7  UNL     1      31.391  63.500  18.800  1.00  0.00    -0.384 N 
ATOM     30  H72 UNL     1      31.122  63.422  17.819  1.00  0.00     0.157 HD
ATOM     31  H71 UNL     1      30.571  63.896  19.260  1.00  0.00     0.157 HD
ENDBRANCH  25  29
ENDBRANCH  20  23
ENDBRANCH  18  20
ENDBRANCH   1  18
BRANCH   2  32
HETATM   32  N3  UNL     1      38.503  60.743  18.049  1.00  0.00    -0.264 N 
HETATM   33  C7  UNL     1      39.824  60.563  17.629  1.00  0.00     0.292 C 
HETATM   34  O5  UNL     1      40.652  61.525  17.850  1.00  0.00    -0.264 OA
ATOM     35  H3  UNL     1      37.817  60.004  17.894  1.00  0.00     0.190 HD
BRANCH  33  36
HETATM   36  C8  UNL     1      40.338  59.381  16.967  1.00  0.00     0.171 A 
HETATM   37  N4  UNL     1      39.729  58.153  16.978  1.00  0.00    -0.232 N 
HETATM   38  O6  UNL     1      40.436  57.309  16.300  1.00  0.00    -0.155 OA
ATOM     39  H4  UNL     1      38.851  57.938  17.450  1.00  0.00     0.197 HD
HETATM   40  N5  UNL     1      41.488  57.900  15.830  1.00  0.00    -0.224 N 
HETATM   41  C9  UNL     1      41.470  59.207  16.226  1.00  0.00     0.155 A 
ATOM     42  H5  UNL     1      42.210  57.462  15.260  1.00  0.00     0.198 HD
BRANCH  41  43
HETATM   43  N6  UNL     1      42.357  60.094  15.945  1.00  0.00    -0.382 N 
ATOM     44  H62 UNL     1      42.930  60.603  16.618  1.00  0.00     0.157 HD
ATOM     45  H61 UNL     1      42.626  60.424  15.018  1.00  0.00     0.157 HD
ENDBRANCH  41  43
ENDBRANCH  33  36
ENDBRANCH   2  32
TORSDOF 13
ENDMDL
MODEL 2
REMARK VINA RESULT: -6.911611152      4.896     10.389
REMARK  13 active torsions:
REMARK  status: ('A' for Active; 'I' for Inactive)
REMARK    1  A    between atoms: O1_2  and  C2_3 
REMARK    2  A    between atoms: C2_3  and  C3_5 
REMARK    3  A    between atoms: C5_7  and  N1_8 
REMARK    4  A    between atoms: N1_8  and  S1_10 
REMARK    5  A    between atoms: S1_10  and  C6_13 
REMARK    6  A    between atoms: C6_13  and  C10_30 
REMARK    7  A    between atoms: N2_14  and  N3_16 
REMARK       I    between atoms: N3_16  and  C7_18 
REMARK    8  A    between atoms: C7_18  and  C8_20 
REMARK    9  A    between atoms: C9_26  and  N6_27 
REMARK   10  A    between atoms: C10_30  and  C12_32 
REMARK   11  A    between atoms: C12_32  and  O7_33 
REMARK   12  A    between atoms: C12_32  and  C13_35 
REMARK   13  A    between atoms: C15_37  and  N7_38 
ROOT
HETATM    1  C6  UNL     1      39.712  64.160  16.729  1.00  0.00     0.148 C 
HETATM    2  N2  UNL     1      38.747  63.264  16.663  1.00  0.00    -0.289 N 
ATOM      3  H2  UNL     1      38.573  62.748  15.800  1.00  0.00     0.187 HD
ENDROOT
BRANCH   1   4
HETATM    4  S1  UNL     1      40.003  65.032  18.197  1.00  0.00     0.276 S 
HETATM    5  O3  UNL     1      38.654  65.617  18.637  1.00  0.00    -0.199 OA
HETATM    6  O4  UNL     1      40.409  64.036  19.285  1.00  0.00    -0.199 OA
BRANCH   4   7
HETATM    7  N1  UNL     1      41.144  66.251  18.013  1.00  0.00    -0.279 N 
ATOM      8  H1  UNL     1      41.555  66.334  17.084  1.00  0.00     0.179 HD
BRANCH   7   9
HETATM    9  C5  UNL     1      41.619  67.197  18.995  1.00  0.00     0.050 A 
HETATM   10  C4  UNL     1      40.856  67.629  20.023  1.00  0.00     0.055 A 
HETATM   11  C3  UNL     1      41.412  68.503  20.904  1.00  0.00     0.082 A 
HETATM   12  S2  UNL     1      42.986  68.714  20.293  1.00  0.00    -0.094 SA
HETATM   13  C16 UNL     1      42.895  67.685  18.934  1.00  0.00     0.080 A 
BRANCH  11  14
HETATM   14  C2  UNL     1      40.776  69.099  22.083  1.00  0.00     0.299 C 
HETATM   15  O2  UNL     1      39.989  68.426  22.772  1.00  0.00    -0.259 OA
BRANCH  14  16
HETATM   16  O1  UNL     1      41.050  70.393  22.425  1.00  0.00    -0.322 OA
HETATM   17  C1  UNL     1      40.540  71.523  21.761  1.00  0.00     0.213 C 
ENDBRANCH  14  16
ENDBRANCH  11  14
ENDBRANCH   7   9
ENDBRANCH   4   7
ENDBRANCH   1   4
BRANCH   1  18
HETATM   18  C10 UNL     1      40.490  64.350  15.508  1.00  0.00     0.082 C 
HETATM   19  C11 UNL     1      39.662  64.022  14.269  1.00  0.00     0.020 C 
BRANCH  18  20
HETATM   20  C12 UNL     1      41.727  63.468  15.539  1.00  0.00     0.187 C 
BRANCH  20  21
HETATM   21  O7  UNL     1      41.577  62.648  16.661  1.00  0.00    -0.388 OA
ATOM     22  H7  UNL     1      40.742  62.890  17.046  1.00  0.00     0.210 HD
ENDBRANCH  20  21
BRANCH  20  23
HETATM   23  C13 UNL     1      42.980  64.263  15.584  1.00  0.00     0.109 A 
HETATM   24  C14 UNL     1      44.161  63.949  14.930  1.00  0.00     0.087 A 
HETATM   25  C15 UNL     1      45.094  64.937  15.224  1.00  0.00     0.121 A 
HETATM   26  N8  UNL     1      44.440  65.788  16.031  1.00  0.00    -0.245 N 
HETATM   27  O8  UNL     1      43.221  65.381  16.227  1.00  0.00    -0.238 OA
ATOM     28  H8  UNL     1      44.843  66.635  16.433  1.00  0.00     0.196 HD
BRANCH  25  29
HETATM   29  N7  UNL     1      46.312  65.024  14.817  1.00  0.00    -0.384 N 
ATOM     30  H72 UNL     1      46.642  65.068  13.853  1.00  0.00     0.157 HD
ATOM     31  H71 UNL     1      47.161  65.062  15.381  1.00  0.00     0.157 HD
ENDBRANCH  25  29
ENDBRANCH  20  23
ENDBRANCH  18  20
ENDBRANCH   1  18
BRANCH   2  32
HETATM   32  N3  UNL     1      37.964  63.035  17.808  1.00  0.00    -0.264 N 
HETATM   33  C7  UNL     1      36.573  63.157  17.747  1.00  0.00     0.292 C 
HETATM   34  O5  UNL     1      36.057  63.483  16.613  1.00  0.00    -0.264 OA
ATOM     35  H3  UNL     1      38.412  62.777  18.688  1.00  0.00     0.190 HD
BRANCH  33  36
HETATM   36  C8  UNL     1      35.664  62.945  18.856  1.00  0.00     0.171 A 
HETATM   37  N4  UNL     1      36.006  63.061  20.178  1.00  0.00    -0.232 N 
HETATM   38  O6  UNL     1      34.977  62.809  20.919  1.00  0.00    -0.155 OA
ATOM     39  H4  UNL     1      36.933  63.310  20.525  1.00  0.00     0.197 HD
HETATM   40  N5  UNL     1      33.959  62.531  20.170  1.00  0.00    -0.224 N 
HETATM   41  C9  UNL     1      34.344  62.603  18.862  1.00  0.00     0.155 A 
ATOM     42  H5  UNL     1      33.024  62.296  20.502  1.00  0.00     0.198 HD
BRANCH  41  43
HETATM   43  N6  UNL     1      33.594  62.387  17.840  1.00  0.00    -0.382 N 
ATOM     44  H62 UNL     1      33.287  61.474  17.504  1.00  0.00     0.157 HD
ATOM     45  H61 UNL     1      33.193  63.083  17.213  1.00  0.00     0.157 HD
ENDBRANCH  41  43
ENDBRANCH  33  36
ENDBRANCH   2  32
TORSDOF 13
ENDMDL
MODEL 3
REMARK VINA RESULT: -6.863402312      4.359      8.262
REMARK  13 active torsions:
REMARK  status: ('A' for Active; 'I' for Inactive)
REMARK    1  A    between atoms: O1_2  and  C2_3 
REMARK    2  A    between atoms: C2_3  and  C3_5 
REMARK    3  A    between atoms: C5_7  and  N1_8 
REMARK    4  A    between atoms: N1_8  and  S1_10 
REMARK    5  A    between atoms: S1_10  and  C6_13 
REMARK    6  A    between atoms: C6_13  and  C10_30 
REMARK    7  A    between atoms: N2_14  and  N3_16 
REMARK       I    between atoms: N3_16  and  C7_18 
REMARK    8  A    between atoms: C7_18  and  C8_20 
REMARK    9  A    between atoms: C9_26  and  N6_27 
REMARK   10  A    between atoms: C10_30  and  C12_32 
REMARK   11  A    between atoms: C12_32  and  O7_33 
REMARK   12  A    between atoms: C12_32  and  C13_35 
REMARK   13  A    between atoms: C15_37  and  N7_38 
ROOT
HETATM    1  C6  UNL     1      40.601  63.855  16.774  1.00  0.00     0.148 C 
HETATM    2  N2  UNL     1      41.726  64.517  16.954  1.00  0.00    -0.289 N 
ATOM      3  H2  UNL     1      42.549  64.310  16.388  1.00  0.00     0.187 HD
ENDROOT
BRANCH   1   4
HETATM    4  S1  UNL     1      39.207  64.213  17.738  1.00  0.00     0.276 S 
HETATM    5  O3  UNL     1      39.624  64.026  19.203  1.00  0.00    -0.199 OA
HETATM    6  O4  UNL     1      38.869  65.696  17.577  1.00  0.00    -0.199 OA
BRANCH   4   7
HETATM    7  N1  UNL     1      37.894  63.233  17.369  1.00  0.00    -0.279 N 
ATOM      8  H1  UNL     1      38.089  62.449  16.746  1.00  0.00     0.179 HD
BRANCH   7   9
HETATM    9  C5  UNL     1      36.525  63.352  17.815  1.00  0.00     0.050 A 
HETATM   10  C4  UNL     1      36.171  63.263  19.117  1.00  0.00     0.055 A 
HETATM   11  C3  UNL     1      34.856  63.414  19.429  1.00  0.00     0.082 A 
HETATM   12  S2  UNL     1      34.129  63.676  17.913  1.00  0.00    -0.094 SA
HETATM   13  C16 UNL     1      35.517  63.587  16.923  1.00  0.00     0.080 A 
BRANCH  11  14
HETATM   14  C2  UNL     1      34.249  63.357  20.763  1.00  0.00     0.299 C 
HETATM   15  O2  UNL     1      34.434  64.284  21.571  1.00  0.00    -0.259 OA
BRANCH  14  16
HETATM   16  O1  UNL     1      33.481  62.284  21.117  1.00  0.00    -0.322 OA
HETATM   17  C1  UNL     1      32.308  61.884  20.452  1.00  0.00     0.213 C 
ENDBRANCH  14  16
ENDBRANCH  11  14
ENDBRANCH   7   9
ENDBRANCH   4   7
ENDBRANCH   1   4
BRANCH   1  18
HETATM   18  C10 UNL     1      40.622  62.833  15.731  1.00  0.00     0.082 C 
HETATM   19  C11 UNL     1      39.349  62.876  14.891  1.00  0.00     0.020 C 
BRANCH  18  20
HETATM   20  C12 UNL     1      40.769  61.456  16.357  1.00  0.00     0.187 C 
BRANCH  20  21
HETATM   21  O7  UNL     1      40.630  61.651  17.734  1.00  0.00    -0.388 OA
ATOM     22  H7  UNL     1      40.883  60.828  18.137  1.00  0.00     0.210 HD
ENDBRANCH  20  21
BRANCH  20  23
HETATM   23  C13 UNL     1      42.062  60.817  16.005  1.00  0.00     0.109 A 
HETATM   24  C14 UNL     1      43.194  61.478  15.553  1.00  0.00     0.087 A 
HETATM   25  C15 UNL     1      44.188  60.532  15.335  1.00  0.00     0.121 A 
HETATM   26  N8  UNL     1      43.618  59.361  15.661  1.00  0.00    -0.245 N 
HETATM   27  O8  UNL     1      42.390  59.547  16.045  1.00  0.00    -0.238 OA
ATOM     28  H8  UNL     1      44.082  58.454  15.614  1.00  0.00     0.196 HD
BRANCH  25  29
HETATM   29  N7  UNL     1      45.389  60.727  14.916  1.00  0.00    -0.384 N 
ATOM     30  H72 UNL     1      45.854  60.270  14.131  1.00  0.00     0.157 HD
ATOM     31  H71 UNL     1      46.090  61.367  15.290  1.00  0.00     0.157 HD
ENDBRANCH  25  29
ENDBRANCH  20  23
ENDBRANCH  18  20
ENDBRANCH   1  18
BRANCH   2  32
HETATM   32  N3  UNL     1      41.767  65.516  17.944  1.00  0.00    -0.264 N 
HETATM   33  C7  UNL     1      42.882  66.352  18.055  1.00  0.00     0.292 C 
HETATM   34  O5  UNL     1      43.848  66.165  17.223  1.00  0.00    -0.264 OA
ATOM     35  H3  UNL     1      40.980  65.631  18.583  1.00  0.00     0.190 HD
BRANCH  33  36
HETATM   36  C8  UNL     1      43.038  67.413  19.031  1.00  0.00     0.171 A 
HETATM   37  N4  UNL     1      42.063  68.317  19.362  1.00  0.00    -0.232 N 
HETATM   38  O6  UNL     1      42.512  69.133  20.259  1.00  0.00    -0.155 OA
ATOM     39  H4  UNL     1      41.126  68.342  18.962  1.00  0.00     0.197 HD
HETATM   40  N5  UNL     1      43.736  68.828  20.552  1.00  0.00    -0.224 N 
HETATM   41  C9  UNL     1      44.111  67.751  19.802  1.00  0.00     0.155 A 
ATOM     42  H5  UNL     1      44.322  69.313  21.230  1.00  0.00     0.198 HD
BRANCH  41  43
HETATM   43  N6  UNL     1      45.260  67.175  19.828  1.00  0.00    -0.382 N 
ATOM     44  H62 UNL     1      45.496  66.288  19.382  1.00  0.00     0.157 HD
ATOM     45  H61 UNL     1      46.105  67.508  20.291  1.00  0.00     0.157 HD
ENDBRANCH  41  43
ENDBRANCH  33  36
ENDBRANCH   2  32
TORSDOF 13
ENDMDL
MODEL 4
REMARK VINA RESULT: -6.829723532      3.815      9.010
REMARK  13 active torsions:
REMARK  status: ('A' for Active; 'I' for Inactive)
REMARK    1  A    between atoms: O1_2  and  C2_3 
REMARK    2  A    between atoms: C2_3  and  C3_5 
REMARK    3  A    between atoms: C5_7  and  N1_8 
REMARK    4  A    between atoms: N1_8  and  S1_10 
REMARK    5  A    between atoms: S1_10  and  C6_13 
REMARK    6  A    between atoms: C6_13  and  C10_30 
REMARK    7  A    between atoms: N2_14  and  N3_16 
REMARK       I    between atoms: N3_16  and  C7_18 
REMARK    8  A    between atoms: C7_18  and  C8_20 
REMARK    9  A    between atoms: C9_26  and  N6_27 
REMARK   10  A    between atoms: C10_30  and  C12_32 
REMARK   11  A    between atoms: C12_32  and  O7_33 
REMARK   12  A    between atoms: C12_32  and  C13_35 
REMARK   13  A    between atoms: C15_37  and  N7_38 
ROOT
HETATM    1  C6  UNL     1      37.688  62.602  17.868  1.00  0.00     0.148 C 
HETATM    2  N2  UNL     1      36.582  62.033  17.429  1.00  0.00    -0.289 N 
ATOM      3  H2  UNL     1      36.564  61.556  16.528  1.00  0.00     0.187 HD
ENDROOT
BRANCH   1   4
HETATM    4  S1  UNL     1      37.712  63.409  19.401  1.00  0.00     0.276 S 
HETATM    5  O3  UNL     1      36.502  64.353  19.421  1.00  0.00    -0.199 OA
HETATM    6  O4  UNL     1      37.463  62.376  20.501  1.00  0.00    -0.199 OA
BRANCH   4   7
HETATM    7  N1  UNL     1      39.134  64.264  19.661  1.00  0.00    -0.279 N 
ATOM      8  H1  UNL     1      39.593  64.095  20.555  1.00  0.00     0.179 HD
BRANCH   7   9
HETATM    9  C5  UNL     1      39.792  65.208  18.788  1.00  0.00     0.050 A 
HETATM   10  C4  UNL     1      41.039  65.010  18.305  1.00  0.00     0.055 A 
HETATM   11  C3  UNL     1      41.554  65.952  17.470  1.00  0.00     0.082 A 
HETATM   12  S2  UNL     1      40.301  67.099  17.367  1.00  0.00    -0.094 SA
HETATM   13  C16 UNL     1      39.156  66.350  18.387  1.00  0.00     0.080 A 
BRANCH  11  14
HETATM   14  C2  UNL     1      42.875  65.946  16.834  1.00  0.00     0.299 C 
HETATM   15  O2  UNL     1      43.633  66.923  16.963  1.00  0.00    -0.259 OA
BRANCH  14  16
HETATM   16  O1  UNL     1      43.272  64.864  16.099  1.00  0.00    -0.322 OA
HETATM   17  C1  UNL     1      44.400  64.835  15.260  1.00  0.00     0.213 C 
ENDBRANCH  14  16
ENDBRANCH  11  14
ENDBRANCH   7   9
ENDBRANCH   4   7
ENDBRANCH   1   4
BRANCH   1  18
HETATM   18  C10 UNL     1      38.850  62.499  16.991  1.00  0.00     0.082 C 
HETATM   19  C11 UNL     1      38.485  62.841  15.549  1.00  0.00     0.020 C 
BRANCH  18  20
HETATM   20  C12 UNL     1      39.419  61.091  17.048  1.00  0.00     0.187 C 
BRANCH  20  21
HETATM   21  O7  UNL     1      39.279  60.682  18.377  1.00  0.00    -0.388 OA
ATOM     22  H7  UNL     1      40.079  60.952  18.814  1.00  0.00     0.210 HD
ENDBRANCH  20  21
BRANCH  20  23
HETATM   23  C13 UNL     1      40.830  61.039  16.587  1.00  0.00     0.109 A 
HETATM   24  C14 UNL     1      41.526  59.892  16.239  1.00  0.00     0.087 A 
HETATM   25  C15 UNL     1      42.812  60.263  15.865  1.00  0.00     0.121 A 
HETATM   26  N8  UNL     1      42.831  61.598  16.004  1.00  0.00    -0.245 N 
HETATM   27  O8  UNL     1      41.677  62.027  16.422  1.00  0.00    -0.238 OA
ATOM     28  H8  UNL     1      43.637  62.192  15.808  1.00  0.00     0.196 HD
BRANCH  25  29
HETATM   29  N7  UNL     1      43.773  59.503  15.473  1.00  0.00    -0.384 N 
ATOM     30  H72 UNL     1      44.753  59.545  15.757  1.00  0.00     0.157 HD
ATOM     31  H71 UNL     1      43.732  58.728  14.811  1.00  0.00     0.157 HD
ENDBRANCH  25  29
ENDBRANCH  20  23
ENDBRANCH  18  20
ENDBRANCH   1  18
BRANCH   2  32
HETATM   32  N3  UNL     1      35.429  62.098  18.232  1.00  0.00    -0.264 N 
HETATM   33  C7  UNL     1      34.306  62.807  17.797  1.00  0.00     0.292 C 
HETATM   34  O5  UNL     1      34.380  63.385  16.648  1.00  0.00    -0.264 OA
ATOM     35  H3  UNL     1      35.411  61.624  19.136  1.00  0.00     0.190 HD
BRANCH  33  36
HETATM   36  C8  UNL     1      33.065  62.943  18.533  1.00  0.00     0.171 A 
HETATM   37  N4  UNL     1      32.685  62.141  19.577  1.00  0.00    -0.232 N 
HETATM   38  O6  UNL     1      31.530  62.517  20.018  1.00  0.00    -0.155 OA
ATOM     39  H4  UNL     1      33.232  61.365  19.950  1.00  0.00     0.197 HD
HETATM   40  N5  UNL     1      31.109  63.529  19.330  1.00  0.00    -0.224 N 
HETATM   41  C9  UNL     1      32.043  63.833  18.381  1.00  0.00     0.155 A 
ATOM     42  H5  UNL     1      30.226  64.019  19.472  1.00  0.00     0.198 HD
BRANCH  41  43
HETATM   43  N6  UNL     1      31.961  64.781  17.517  1.00  0.00    -0.382 N 
ATOM     44  H62 UNL     1      32.551  65.612  17.481  1.00  0.00     0.157 HD
ATOM     45  H61 UNL     1      31.304  64.852  16.741  1.00  0.00     0.157 HD
ENDBRANCH  41  43
ENDBRANCH  33  36
ENDBRANCH   2  32
TORSDOF 13
ENDMDL
MODEL 5
REMARK VINA RESULT: -6.820108183      3.690      9.504
REMARK  13 active torsions:
REMARK  status: ('A' for Active; 'I' for Inactive)
REMARK    1  A    between atoms: O1_2  and  C2_3 
REMARK    2  A    between atoms: C2_3  and  C3_5 
REMARK    3  A    between atoms: C5_7  and  N1_8 
REMARK    4  A    between atoms: N1_8  and  S1_10 
REMARK    5  A    between atoms: S1_10  and  C6_13 
REMARK    6  A    between atoms: C6_13  and  C10_30 
REMARK    7  A    between atoms: N2_14  and  N3_16 
REMARK       I    between atoms: N3_16  and  C7_18 
REMARK    8  A    between atoms: C7_18  and  C8_20 
REMARK    9  A    between atoms: C9_26  and  N6_27 
REMARK   10  A    between atoms: C10_30  and  C12_32 
REMARK   11  A    between atoms: C12_32  and  O7_33 
REMARK   12  A    between atoms: C12_32  and  C13_35 
REMARK   13  A    between atoms: C15_37  and  N7_38 
ROOT
HETATM    1  C6  UNL     1      37.698  62.374  17.784  1.00  0.00     0.148 C 
HETATM    2  N2  UNL     1      36.552  61.816  17.448  1.00  0.00    -0.289 N 
ATOM      3  H2  UNL     1      36.477  61.244  16.606  1.00  0.00     0.187 HD
ENDROOT
BRANCH   1   4
HETATM    4  S1  UNL     1      37.819  63.341  19.215  1.00  0.00     0.276 S 
HETATM    5  O3  UNL     1      36.685  64.374  19.145  1.00  0.00    -0.199 OA
HETATM    6  O4  UNL     1      37.516  62.460  20.428  1.00  0.00    -0.199 OA
BRANCH   4   7
HETATM    7  N1  UNL     1      39.307  64.106  19.359  1.00  0.00    -0.279 N 
ATOM      8  H1  UNL     1      40.034  63.571  19.833  1.00  0.00     0.179 HD
BRANCH   7   9
HETATM    9  C5  UNL     1      39.694  65.419  18.899  1.00  0.00     0.050 A 
HETATM   10  C4  UNL     1      40.077  66.405  19.741  1.00  0.00     0.055 A 
HETATM   11  C3  UNL     1      40.445  67.597  19.199  1.00  0.00     0.082 A 
HETATM   12  S2  UNL     1      40.253  67.334  17.529  1.00  0.00    -0.094 SA
HETATM   13  C16 UNL     1      39.711  65.716  17.565  1.00  0.00     0.080 A 
BRANCH  11  14
HETATM   14  C2  UNL     1      40.892  68.796  19.915  1.00  0.00     0.299 C 
HETATM   15  O2  UNL     1      40.865  69.904  19.351  1.00  0.00    -0.259 OA
BRANCH  14  16
HETATM   16  O1  UNL     1      41.337  68.694  21.203  1.00  0.00    -0.322 OA
HETATM   17  C1  UNL     1      40.565  68.983  22.343  1.00  0.00     0.213 C 
ENDBRANCH  14  16
ENDBRANCH  11  14
ENDBRANCH   7   9
ENDBRANCH   4   7
ENDBRANCH   1   4
BRANCH   1  18
HETATM   18  C10 UNL     1      38.820  62.116  16.886  1.00  0.00     0.082 C 
HETATM   19  C11 UNL     1      38.406  62.274  15.425  1.00  0.00     0.020 C 
BRANCH  18  20
HETATM   20  C12 UNL     1      39.354  60.711  17.112  1.00  0.00     0.187 C 
BRANCH  20  21
HETATM   21  O7  UNL     1      39.222  60.474  18.483  1.00  0.00    -0.388 OA
ATOM     22  H7  UNL     1      40.089  60.229  18.785  1.00  0.00     0.210 HD
ENDBRANCH  20  21
BRANCH  20  23
HETATM   23  C13 UNL     1      40.757  60.564  16.646  1.00  0.00     0.109 A 
HETATM   24  C14 UNL     1      41.369  59.374  16.288  1.00  0.00     0.087 A 
HETATM   25  C15 UNL     1      42.677  59.657  15.912  1.00  0.00     0.121 A 
HETATM   26  N8  UNL     1      42.790  60.986  16.060  1.00  0.00    -0.245 N 
HETATM   27  O8  UNL     1      41.671  61.492  16.485  1.00  0.00    -0.238 OA
ATOM     28  H8  UNL     1      43.635  61.524  15.867  1.00  0.00     0.196 HD
BRANCH  25  29
HETATM   29  N7  UNL     1      43.582  58.834  15.511  1.00  0.00    -0.384 N 
ATOM     30  H72 UNL     1      43.862  57.957  15.951  1.00  0.00     0.157 HD
ATOM     31  H71 UNL     1      44.180  58.910  14.688  1.00  0.00     0.157 HD
ENDBRANCH  25  29
ENDBRANCH  20  23
ENDBRANCH  18  20
ENDBRANCH   1  18
BRANCH   2  32
HETATM   32  N3  UNL     1      35.434  62.026  18.275  1.00  0.00    -0.264 N 
HETATM   33  C7  UNL     1      34.290  62.648  17.769  1.00  0.00     0.292 C 
HETATM   34  O5  UNL     1      34.310  63.011  16.534  1.00  0.00    -0.264 OA
ATOM     35  H3  UNL     1      35.459  61.722  19.249  1.00  0.00     0.190 HD
BRANCH  33  36
HETATM   36  C8  UNL     1      33.081  62.917  18.523  1.00  0.00     0.171 A 
HETATM   37  N4  UNL     1      32.647  62.177  19.591  1.00  0.00    -0.232 N 
HETATM   38  O6  UNL     1      31.541  62.670  20.043  1.00  0.00    -0.155 OA
ATOM     39  H4  UNL     1      33.125  61.361  19.973  1.00  0.00     0.197 HD
HETATM   40  N5  UNL     1      31.204  63.702  19.339  1.00  0.00    -0.224 N 
HETATM   41  C9  UNL     1      32.145  63.896  18.369  1.00  0.00     0.155 A 
ATOM     42  H5  UNL     1      30.374  64.276  19.485  1.00  0.00     0.198 HD
BRANCH  41  43
HETATM   43  N6  UNL     1      32.137  64.829  17.484  1.00  0.00    -0.382 N 
ATOM     44  H62 UNL     1      31.641  64.807  16.593  1.00  0.00     0.157 HD
ATOM     45  H61 UNL     1      32.618  65.727  17.532  1.00  0.00     0.157 HD
ENDBRANCH  41  43
ENDBRANCH  33  36
ENDBRANCH   2  32
TORSDOF 13
ENDMDL
