MODEL 1
REMARK VINA RESULT: -7.709310236      0.000      0.000
REMARK  10 active torsions:
REMARK  status: ('A' for Active; 'I' for Inactive)
REMARK    1  A    between atoms: N1_1  and  C1_4 
REMARK    2  A    between atoms: C2_9  and  S1_10 
REMARK    3  A    between atoms: S1_10  and  C3_11 
REMARK    4  A    between atoms: C3_11  and  C4_12 
REMARK    5  A    between atoms: C4_12  and  N4_13 
REMARK    6  A    between atoms: C4_12  and  C9_35 
REMARK       I    between atoms: N4_13  and  C5_15 
REMARK    7  A    between atoms: C5_15  and  C6_17 
REMARK    8  A    between atoms: N7_22  and  C7_23 
REMARK    9  A    between atoms: C8_29  and  N10_30 
REMARK       I    between atoms: C9_35  and  N12_37 
REMARK   10  A    between atoms: N12_37  and  C10_39 
ROOT
HETATM    1  C4  UNL     1      39.713  66.334  18.459  1.00  0.00     0.187 C 
ENDROOT
BRANCH   1   2
HETATM    2  C3  UNL     1      39.533  67.731  18.000  1.00  0.00     0.117 C 
BRANCH   2   3
HETATM    3  S1  UNL     1      40.095  69.027  19.079  1.00  0.00    -0.089 SA
BRANCH   3   4
HETATM    4  C2  UNL     1      41.802  68.946  19.537  1.00  0.00     0.174 A 
HETATM    5  N3  UNL     1      42.351  68.928  20.763  1.00  0.00    -0.265 N 
HETATM    6  N2  UNL     1      43.660  68.849  20.707  1.00  0.00    -0.130 N 
ATOM      7  H3  UNL     1      41.815  68.971  21.630  1.00  0.00     0.189 HD
HETATM    8  C1  UNL     1      43.996  68.814  19.406  1.00  0.00     0.692 A 
ATOM      9  H2  UNL     1      44.300  68.819  21.501  1.00  0.00     0.205 HD
HETATM   10  N13 UNL     1      42.879  68.872  18.690  1.00  0.00    -0.168 N 
ATOM     11  H13 UNL     1      42.829  68.863  17.671  1.00  0.00     0.186 HD
BRANCH   8  12
HETATM   12  N1  UNL     1      45.206  68.737  18.977  1.00  0.00    -0.233 N 
ATOM     13  H12 UNL     1      46.042  69.154  19.385  1.00  0.00     0.174 HD
ATOM     14  H11 UNL     1      45.482  68.228  18.139  1.00  0.00     0.174 HD
ENDBRANCH   8  12
ENDBRANCH   3   4
ENDBRANCH   2   3
ENDBRANCH   1   2
BRANCH   1  15
HETATM   15  N4  UNL     1      38.517  65.547  18.206  1.00  0.00    -0.340 N 
HETATM   16  C5  UNL     1      38.126  64.525  19.100  1.00  0.00     0.289 C 
HETATM   17  O1  UNL     1      38.824  64.308  20.113  1.00  0.00    -0.264 OA
ATOM     18  H4  UNL     1      37.955  65.735  17.375  1.00  0.00     0.163 HD
BRANCH  16  19
HETATM   19  C6  UNL     1      36.940  63.721  18.882  1.00  0.00     0.206 A 
HETATM   20  N5  UNL     1      36.829  62.545  18.242  1.00  0.00    -0.264 N 
HETATM   21  N6  UNL     1      35.582  62.145  18.256  1.00  0.00    -0.218 N 
ATOM     22  H5  UNL     1      37.602  62.039  17.808  1.00  0.00     0.190 HD
HETATM   23  N7  UNL     1      34.850  63.053  18.909  1.00  0.00    -0.158 N 
ATOM     24  H6  UNL     1      35.228  61.284  17.839  1.00  0.00     0.210 HD
HETATM   25  N11 UNL     1      35.691  63.999  19.279  1.00  0.00    -0.255 N 
ATOM     26  H11 UNL     1      35.425  64.834  19.800  1.00  0.00     0.191 HD
BRANCH  23  27
HETATM   27  C7  UNL     1      33.460  63.020  19.154  1.00  0.00     0.214 A 
HETATM   28  N8  UNL     1      32.850  62.119  19.972  1.00  0.00    -0.219 N 
HETATM   29  O2  UNL     1      31.568  62.364  19.974  1.00  0.00    -0.153 OA
ATOM     30  H8  UNL     1      33.316  61.378  20.495  1.00  0.00     0.198 HD
HETATM   31  N9  UNL     1      31.307  63.377  19.201  1.00  0.00    -0.222 N 
HETATM   32  C8  UNL     1      32.473  63.813  18.671  1.00  0.00     0.171 A 
ATOM     33  H9  UNL     1      30.384  63.774  19.025  1.00  0.00     0.198 HD
BRANCH  32  34
HETATM   34  N10 UNL     1      32.582  64.797  17.866  1.00  0.00    -0.381 N 
ATOM     35 2H10 UNL     1      33.138  64.788  17.011  1.00  0.00     0.157 HD
ATOM     36 1H10 UNL     1      32.150  65.718  17.939  1.00  0.00     0.157 HD
ENDBRANCH  32  34
ENDBRANCH  23  27
ENDBRANCH  16  19
ENDBRANCH   1  15
BRANCH   1  37
HETATM   37  C9  UNL     1      40.952  65.681  17.970  1.00  0.00     0.245 C 
HETATM   38  O3  UNL     1      41.985  65.822  18.655  1.00  0.00    -0.271 OA
HETATM   39  N12 UNL     1      40.950  64.941  16.789  1.00  0.00    -0.325 N 
ATOM     40  H12 UNL     1      40.064  64.885  16.287  1.00  0.00     0.169 HD
BRANCH  39  41
HETATM   41  C10 UNL     1      42.046  64.260  16.215  1.00  0.00     0.037 A 
HETATM   42  C11 UNL     1      41.952  62.876  16.133  1.00  0.00     0.032 A 
HETATM   43  C12 UNL     1      42.989  62.158  15.606  1.00  0.00     0.042 A 
HETATM   44  C13 UNL     1      44.138  62.769  15.148  1.00  0.00     0.102 A 
HETATM   45  C14 UNL     1      44.271  64.136  15.211  1.00  0.00     0.104 A 
HETATM   46  O5  UNL     1      45.209  62.066  14.606  1.00  0.00    -0.346 OA
HETATM   47  C15 UNL     1      43.193  64.849  15.756  1.00  0.00     0.069 A 
HETATM   48  O4  UNL     1      45.406  64.806  14.764  1.00  0.00    -0.346 OA
HETATM   49  C16 UNL     1      46.321  64.102  13.963  1.00  0.00     0.202 C 
HETATM   50  C17 UNL     1      46.467  62.706  14.498  1.00  0.00     0.202 C 
ENDBRANCH  39  41
ENDBRANCH   1  37
TORSDOF 10
ENDMDL
MODEL 2
REMARK VINA RESULT: -7.543964204      3.117      7.756
REMARK  10 active torsions:
REMARK  status: ('A' for Active; 'I' for Inactive)
REMARK    1  A    between atoms: N1_1  and  C1_4 
REMARK    2  A    between atoms: C2_9  and  S1_10 
REMARK    3  A    between atoms: S1_10  and  C3_11 
REMARK    4  A    between atoms: C3_11  and  C4_12 
REMARK    5  A    between atoms: C4_12  and  N4_13 
REMARK    6  A    between atoms: C4_12  and  C9_35 
REMARK       I    between atoms: N4_13  and  C5_15 
REMARK    7  A    between atoms: C5_15  and  C6_17 
REMARK    8  A    between atoms: N7_22  and  C7_23 
REMARK    9  A    between atoms: C8_29  and  N10_30 
REMARK       I    between atoms: C9_35  and  N12_37 
REMARK   10  A    between atoms: N12_37  and  C10_39 
ROOT
HETATM    1  C4  UNL     1      39.495  62.935  17.469  1.00  0.00     0.187 C 
ENDROOT
BRANCH   1   2
HETATM    2  C3  UNL     1      38.139  62.552  17.925  1.00  0.00     0.117 C 
BRANCH   2   3
HETATM    3  S1  UNL     1      36.945  63.853  18.130  1.00  0.00    -0.089 SA
BRANCH   3   4
HETATM    4  C2  UNL     1      35.593  63.479  19.209  1.00  0.00     0.174 A 
HETATM    5  N3  UNL     1      35.294  64.008  20.407  1.00  0.00    -0.265 N 
HETATM    6  N2  UNL     1      34.198  63.486  20.908  1.00  0.00    -0.130 N 
ATOM      7  H3  UNL     1      35.850  64.726  20.871  1.00  0.00     0.189 HD
HETATM    8  C1  UNL     1      33.753  62.582  20.019  1.00  0.00     0.692 A 
ATOM      9  H2  UNL     1      33.767  63.722  21.801  1.00  0.00     0.205 HD
HETATM   10  N13 UNL     1      34.589  62.570  18.987  1.00  0.00    -0.168 N 
ATOM     11  H13 UNL     1      34.500  61.979  18.161  1.00  0.00     0.186 HD
BRANCH   8  12
HETATM   12  N1  UNL     1      32.692  61.874  20.183  1.00  0.00    -0.233 N 
ATOM     13  H12 UNL     1      31.899  61.779  19.548  1.00  0.00     0.174 HD
ATOM     14  H11 UNL     1      32.511  61.299  21.005  1.00  0.00     0.174 HD
ENDBRANCH   8  12
ENDBRANCH   3   4
ENDBRANCH   2   3
ENDBRANCH   1   2
BRANCH   1  15
HETATM   15  N4  UNL     1      40.048  63.981  18.313  1.00  0.00    -0.340 N 
HETATM   16  C5  UNL     1      40.820  65.025  17.753  1.00  0.00     0.289 C 
HETATM   17  O1  UNL     1      41.019  65.034  16.520  1.00  0.00    -0.264 OA
ATOM     18  H4  UNL     1      39.878  63.962  19.319  1.00  0.00     0.163 HD
BRANCH  16  19
HETATM   19  C6  UNL     1      41.387  66.085  18.562  1.00  0.00     0.206 A 
HETATM   20  N5  UNL     1      42.679  66.423  18.718  1.00  0.00    -0.264 N 
HETATM   21  N6  UNL     1      42.778  67.437  19.541  1.00  0.00    -0.218 N 
ATOM     22  H5  UNL     1      43.465  65.958  18.263  1.00  0.00     0.190 HD
HETATM   23  N7  UNL     1      41.551  67.784  19.940  1.00  0.00    -0.158 N 
ATOM     24  H6  UNL     1      43.647  67.887  19.829  1.00  0.00     0.210 HD
HETATM   25  N11 UNL     1      40.724  66.953  19.337  1.00  0.00    -0.255 N 
ATOM     26  H11 UNL     1      39.710  66.969  19.446  1.00  0.00     0.191 HD
BRANCH  23  27
HETATM   27  C7  UNL     1      41.200  68.823  20.829  1.00  0.00     0.214 A 
HETATM   28  N8  UNL     1      41.537  70.130  20.649  1.00  0.00    -0.219 N 
HETATM   29  O2  UNL     1      41.061  70.821  21.649  1.00  0.00    -0.153 OA
ATOM     30  H8  UNL     1      42.070  70.505  19.865  1.00  0.00     0.198 HD
HETATM   31  N9  UNL     1      40.431  70.037  22.473  1.00  0.00    -0.222 N 
HETATM   32  C8  UNL     1      40.498  68.776  21.988  1.00  0.00     0.171 A 
ATOM     33  H9  UNL     1      39.967  70.323  23.335  1.00  0.00     0.198 HD
BRANCH  32  34
HETATM   34  N10 UNL     1      39.982  67.753  22.550  1.00  0.00    -0.381 N 
ATOM     35 2H10 UNL     1      40.302  66.794  22.417  1.00  0.00     0.157 HD
ATOM     36 1H10 UNL     1      39.195  67.725  23.199  1.00  0.00     0.157 HD
ENDBRANCH  32  34
ENDBRANCH  23  27
ENDBRANCH  16  19
ENDBRANCH   1  15
BRANCH   1  37
HETATM   37  C9  UNL     1      40.423  61.795  17.274  1.00  0.00     0.245 C 
HETATM   38  O3  UNL     1      40.297  60.813  18.034  1.00  0.00    -0.271 OA
HETATM   39  N12 UNL     1      41.396  61.830  16.276  1.00  0.00    -0.325 N 
ATOM     40  H12 UNL     1      41.435  62.675  15.706  1.00  0.00     0.169 HD
BRANCH  39  41
HETATM   41  C10 UNL     1      42.333  60.817  15.972  1.00  0.00     0.037 A 
HETATM   42  C11 UNL     1      43.565  61.230  15.480  1.00  0.00     0.032 A 
HETATM   43  C12 UNL     1      44.507  60.297  15.147  1.00  0.00     0.042 A 
HETATM   44  C13 UNL     1      44.272  58.944  15.285  1.00  0.00     0.102 A 
HETATM   45  C14 UNL     1      43.065  58.495  15.768  1.00  0.00     0.104 A 
HETATM   46  O5  UNL     1      45.210  57.972  14.956  1.00  0.00    -0.346 OA
HETATM   47  C15 UNL     1      42.116  59.473  16.102  1.00  0.00     0.069 A 
HETATM   48  O4  UNL     1      42.773  57.143  15.928  1.00  0.00    -0.346 OA
HETATM   49  C16 UNL     1      43.833  56.223  15.871  1.00  0.00     0.202 C 
HETATM   50  C17 UNL     1      44.781  56.634  14.781  1.00  0.00     0.202 C 
ENDBRANCH  39  41
ENDBRANCH   1  37
TORSDOF 10
ENDMDL
MODEL 3
REMARK VINA RESULT: -7.519978529      0.705      1.380
REMARK  10 active torsions:
REMARK  status: ('A' for Active; 'I' for Inactive)
REMARK    1  A    between atoms: N1_1  and  C1_4 
REMARK    2  A    between atoms: C2_9  and  S1_10 
REMARK    3  A    between atoms: S1_10  and  C3_11 
REMARK    4  A    between atoms: C3_11  and  C4_12 
REMARK    5  A    between atoms: C4_12  and  N4_13 
REMARK    6  A    between atoms: C4_12  and  C9_35 
REMARK       I    between atoms: N4_13  and  C5_15 
REMARK    7  A    between atoms: C5_15  and  C6_17 
REMARK    8  A    between atoms: N7_22  and  C7_23 
REMARK    9  A    between atoms: C8_29  and  N10_30 
REMARK       I    between atoms: C9_35  and  N12_37 
REMARK   10  A    between atoms: N12_37  and  C10_39 
ROOT
HETATM    1  C4  UNL     1      39.684  66.283  18.444  1.00  0.00     0.187 C 
ENDROOT
BRANCH   1   2
HETATM    2  C3  UNL     1      39.518  67.682  17.987  1.00  0.00     0.117 C 
BRANCH   2   3
HETATM    3  S1  UNL     1      40.066  68.972  19.082  1.00  0.00    -0.089 SA
BRANCH   3   4
HETATM    4  C2  UNL     1      41.773  68.901  19.543  1.00  0.00     0.174 A 
HETATM    5  N3  UNL     1      42.320  68.921  20.769  1.00  0.00    -0.265 N 
HETATM    6  N2  UNL     1      43.629  68.837  20.717  1.00  0.00    -0.130 N 
ATOM      7  H3  UNL     1      41.785  68.993  21.635  1.00  0.00     0.189 HD
HETATM    8  C1  UNL     1      43.966  68.759  19.418  1.00  0.00     0.692 A 
ATOM      9  H2  UNL     1      44.269  68.831  21.511  1.00  0.00     0.205 HD
HETATM   10  N13 UNL     1      42.850  68.797  18.699  1.00  0.00    -0.168 N 
ATOM     11  H13 UNL     1      42.801  68.755  17.682  1.00  0.00     0.186 HD
BRANCH   8  12
HETATM   12  N1  UNL     1      45.176  68.665  18.993  1.00  0.00    -0.233 N 
ATOM     13  H12 UNL     1      45.847  69.418  18.843  1.00  0.00     0.174 HD
ATOM     14  H11 UNL     1      45.626  67.785  18.741  1.00  0.00     0.174 HD
ENDBRANCH   8  12
ENDBRANCH   3   4
ENDBRANCH   2   3
ENDBRANCH   1   2
BRANCH   1  15
HETATM   15  N4  UNL     1      38.483  65.507  18.183  1.00  0.00    -0.340 N 
HETATM   16  C5  UNL     1      38.098  64.462  19.053  1.00  0.00     0.289 C 
HETATM   17  O1  UNL     1      38.807  64.214  20.051  1.00  0.00    -0.264 OA
ATOM     18  H4  UNL     1      37.913  65.719  17.364  1.00  0.00     0.163 HD
BRANCH  16  19
HETATM   19  C6  UNL     1      36.908  63.667  18.826  1.00  0.00     0.206 A 
HETATM   20  N5  UNL     1      36.792  62.491  18.185  1.00  0.00    -0.264 N 
HETATM   21  N6  UNL     1      35.542  62.102  18.190  1.00  0.00    -0.218 N 
ATOM     22  H5  UNL     1      37.564  61.978  17.759  1.00  0.00     0.190 HD
HETATM   23  N7  UNL     1      34.812  63.017  18.836  1.00  0.00    -0.158 N 
ATOM     24  H6  UNL     1      35.184  61.243  17.771  1.00  0.00     0.210 HD
HETATM   25  N11 UNL     1      35.657  63.956  19.211  1.00  0.00    -0.255 N 
ATOM     26  H11 UNL     1      35.394  64.794  19.729  1.00  0.00     0.191 HD
BRANCH  23  27
HETATM   27  C7  UNL     1      33.420  62.995  19.070  1.00  0.00     0.214 A 
HETATM   28  N8  UNL     1      32.787  62.060  19.830  1.00  0.00    -0.219 N 
HETATM   29  O2  UNL     1      31.509  62.328  19.837  1.00  0.00    -0.153 OA
ATOM     30  H8  UNL     1      33.235  61.281  20.313  1.00  0.00     0.198 HD
HETATM   31  N9  UNL     1      31.274  63.390  19.123  1.00  0.00    -0.222 N 
HETATM   32  C8  UNL     1      32.451  63.834  18.627  1.00  0.00     0.171 A 
ATOM     33  H9  UNL     1      30.359  63.813  18.964  1.00  0.00     0.198 HD
BRANCH  32  34
HETATM   34  N10 UNL     1      32.584  64.860  17.880  1.00  0.00    -0.381 N 
ATOM     35 2H10 UNL     1      32.542  65.825  18.207  1.00  0.00     0.157 HD
ATOM     36 1H10 UNL     1      32.748  64.885  16.873  1.00  0.00     0.157 HD
ENDBRANCH  32  34
ENDBRANCH  23  27
ENDBRANCH  16  19
ENDBRANCH   1  15
BRANCH   1  37
HETATM   37  C9  UNL     1      40.920  65.620  17.960  1.00  0.00     0.245 C 
HETATM   38  O3  UNL     1      41.949  65.744  18.656  1.00  0.00    -0.271 OA
HETATM   39  N12 UNL     1      40.920  64.891  16.773  1.00  0.00    -0.325 N 
ATOM     40  H12 UNL     1      40.038  64.849  16.262  1.00  0.00     0.169 HD
BRANCH  39  41
HETATM   41  C10 UNL     1      42.014  64.203  16.202  1.00  0.00     0.037 A 
HETATM   42  C11 UNL     1      43.028  64.980  15.655  1.00  0.00     0.032 A 
HETATM   43  C12 UNL     1      44.104  64.373  15.070  1.00  0.00     0.042 A 
HETATM   44  C13 UNL     1      44.217  62.999  15.003  1.00  0.00     0.102 A 
HETATM   45  C14 UNL     1      43.236  62.195  15.533  1.00  0.00     0.104 A 
HETATM   46  O5  UNL     1      45.300  62.353  14.415  1.00  0.00    -0.346 OA
HETATM   47  C15 UNL     1      42.143  62.843  16.127  1.00  0.00     0.069 A 
HETATM   48  O4  UNL     1      43.298  60.805  15.495  1.00  0.00    -0.346 OA
HETATM   49  C16 UNL     1      44.525  60.203  15.169  1.00  0.00     0.202 C 
HETATM   50  C17 UNL     1      45.177  60.986  14.067  1.00  0.00     0.202 C 
ENDBRANCH  39  41
ENDBRANCH   1  37
TORSDOF 10
ENDMDL
MODEL 4
REMARK VINA RESULT: -7.448654342      3.255      8.000
REMARK  10 active torsions:
REMARK  status: ('A' for Active; 'I' for Inactive)
REMARK    1  A    between atoms: N1_1  and  C1_4 
REMARK    2  A    between atoms: C2_9  and  S1_10 
REMARK    3  A    between atoms: S1_10  and  C3_11 
REMARK    4  A    between atoms: C3_11  and  C4_12 
REMARK    5  A    between atoms: C4_12  and  N4_13 
REMARK    6  A    between atoms: C4_12  and  C9_35 
REMARK       I    between atoms: N4_13  and  C5_15 
REMARK    7  A    between atoms: C5_15  and  C6_17 
REMARK    8  A    between atoms: N7_22  and  C7_23 
REMARK    9  A    between atoms: C8_29  and  N10_30 
REMARK       I    between atoms: C9_35  and  N12_37 
REMARK   10  A    between atoms: N12_37  and  C10_39 
ROOT
HETATM    1  C4  UNL     1      38.001  62.865  18.251  1.00  0.00     0.187 C 
ENDROOT
BRANCH   1   2
HETATM    2  C3  UNL     1      37.077  62.350  19.288  1.00  0.00     0.117 C 
BRANCH   2   3
HETATM    3  S1  UNL     1      35.964  63.512  20.044  1.00  0.00    -0.089 SA
BRANCH   3   4
HETATM    4  C2  UNL     1      34.243  63.141  19.865  1.00  0.00     0.174 A 
HETATM    5  N3  UNL     1      33.555  62.078  20.312  1.00  0.00    -0.265 N 
HETATM    6  N2  UNL     1      32.283  62.156  19.997  1.00  0.00    -0.130 N 
ATOM      7  H3  UNL     1      33.970  61.304  20.832  1.00  0.00     0.189 HD
HETATM    8  C1  UNL     1      32.117  63.305  19.319  1.00  0.00     0.692 A 
ATOM      9  H2  UNL     1      31.559  61.475  20.223  1.00  0.00     0.205 HD
HETATM   10  N13 UNL     1      33.297  63.909  19.234  1.00  0.00    -0.168 N 
ATOM     11  H13 UNL     1      33.472  64.802  18.774  1.00  0.00     0.186 HD
BRANCH   8  12
HETATM   12  N1  UNL     1      30.989  63.709  18.852  1.00  0.00    -0.233 N 
ATOM     13  H12 UNL     1      30.433  64.506  19.162  1.00  0.00     0.174 HD
ATOM     14  H11 UNL     1      30.494  63.257  18.084  1.00  0.00     0.174 HD
ENDBRANCH   8  12
ENDBRANCH   3   4
ENDBRANCH   2   3
ENDBRANCH   1   2
BRANCH   1  15
HETATM   15  N4  UNL     1      38.931  63.828  18.818  1.00  0.00    -0.340 N 
HETATM   16  C5  UNL     1      39.242  65.021  18.127  1.00  0.00     0.289 C 
HETATM   17  O1  UNL     1      38.706  65.235  17.019  1.00  0.00    -0.264 OA
ATOM     18  H4  UNL     1      39.362  63.641  19.724  1.00  0.00     0.163 HD
BRANCH  16  19
HETATM   19  C6  UNL     1      40.163  66.004  18.660  1.00  0.00     0.206 A 
HETATM   20  N5  UNL     1      41.424  66.268  18.278  1.00  0.00    -0.264 N 
HETATM   21  N6  UNL     1      41.922  67.229  19.017  1.00  0.00    -0.218 N 
ATOM     22  H5  UNL     1      41.920  65.792  17.525  1.00  0.00     0.190 HD
HETATM   23  N7  UNL     1      40.994  67.614  19.898  1.00  0.00    -0.158 N 
ATOM     24  H6  UNL     1      42.861  67.618  18.933  1.00  0.00     0.210 HD
HETATM   25  N11 UNL     1      39.938  66.860  19.666  1.00  0.00    -0.255 N 
ATOM     26  H11 UNL     1      39.062  66.921  20.186  1.00  0.00     0.191 HD
BRANCH  23  27
HETATM   27  C7  UNL     1      41.112  68.618  20.884  1.00  0.00     0.214 A 
HETATM   28  N8  UNL     1      41.794  69.783  20.711  1.00  0.00    -0.219 N 
HETATM   29  O2  UNL     1      41.707  70.481  21.811  1.00  0.00    -0.153 OA
ATOM     30  H8  UNL     1      42.290  70.063  19.865  1.00  0.00     0.198 HD
HETATM   31  N9  UNL     1      41.003  69.834  22.693  1.00  0.00    -0.222 N 
HETATM   32  C8  UNL     1      40.613  68.661  22.144  1.00  0.00     0.171 A 
ATOM     33  H9  UNL     1      40.783  70.157  23.636  1.00  0.00     0.198 HD
BRANCH  32  34
HETATM   34  N10 UNL     1      39.905  67.781  22.737  1.00  0.00    -0.381 N 
ATOM     35 2H10 UNL     1      39.037  67.974  23.237  1.00  0.00     0.157 HD
ATOM     36 1H10 UNL     1      40.082  66.779  22.809  1.00  0.00     0.157 HD
ENDBRANCH  32  34
ENDBRANCH  23  27
ENDBRANCH  16  19
ENDBRANCH   1  15
BRANCH   1  37
HETATM   37  C9  UNL     1      38.672  61.814  17.448  1.00  0.00     0.245 C 
HETATM   38  O3  UNL     1      38.118  61.458  16.388  1.00  0.00    -0.271 OA
HETATM   39  N12 UNL     1      39.876  61.252  17.871  1.00  0.00    -0.325 N 
ATOM     40  H12 UNL     1      40.254  61.595  18.754  1.00  0.00     0.169 HD
BRANCH  39  41
HETATM   41  C10 UNL     1      40.626  60.258  17.205  1.00  0.00     0.037 A 
HETATM   42  C11 UNL     1      40.309  58.936  17.490  1.00  0.00     0.032 A 
HETATM   43  C12 UNL     1      41.013  57.928  16.893  1.00  0.00     0.042 A 
HETATM   44  C13 UNL     1      42.039  58.183  16.007  1.00  0.00     0.102 A 
HETATM   45  C14 UNL     1      42.384  59.478  15.698  1.00  0.00     0.104 A 
HETATM   46  O5  UNL     1      42.773  57.179  15.383  1.00  0.00    -0.346 OA
HETATM   47  C15 UNL     1      41.646  60.493  16.324  1.00  0.00     0.069 A 
HETATM   48  O4  UNL     1      43.409  59.794  14.811  1.00  0.00    -0.346 OA
HETATM   49  C16 UNL     1      43.915  58.774  13.988  1.00  0.00     0.202 C 
HETATM   50  C17 UNL     1      44.015  57.505  14.786  1.00  0.00     0.202 C 
ENDBRANCH  39  41
ENDBRANCH   1  37
TORSDOF 10
ENDMDL
MODEL 5
REMARK VINA RESULT: -7.404536748      3.693      8.913
REMARK  10 active torsions:
REMARK  status: ('A' for Active; 'I' for Inactive)
REMARK    1  A    between atoms: N1_1  and  C1_4 
REMARK    2  A    between atoms: C2_9  and  S1_10 
REMARK    3  A    between atoms: S1_10  and  C3_11 
REMARK    4  A    between atoms: C3_11  and  C4_12 
REMARK    5  A    between atoms: C4_12  and  N4_13 
REMARK    6  A    between atoms: C4_12  and  C9_35 
REMARK       I    between atoms: N4_13  and  C5_15 
REMARK    7  A    between atoms: C5_15  and  C6_17 
REMARK    8  A    between atoms: N7_22  and  C7_23 
REMARK    9  A    between atoms: C8_29  and  N10_30 
REMARK       I    between atoms: C9_35  and  N12_37 
REMARK   10  A    between atoms: N12_37  and  C10_39 
ROOT
HETATM    1  C4  UNL     1      37.362  64.127  19.041  1.00  0.00     0.187 C 
ENDROOT
BRANCH   1   2
HETATM    2  C3  UNL     1      36.098  64.149  19.813  1.00  0.00     0.117 C 
BRANCH   2   3
HETATM    3  S1  UNL     1      34.595  63.788  18.935  1.00  0.00    -0.089 SA
BRANCH   3   4
HETATM    4  C2  UNL     1      34.770  62.710  17.542  1.00  0.00     0.174 A 
HETATM    5  N3  UNL     1      35.122  63.006  16.281  1.00  0.00    -0.265 N 
HETATM    6  N2  UNL     1      35.159  61.935  15.523  1.00  0.00    -0.130 N 
ATOM      7  H3  UNL     1      35.334  63.949  15.952  1.00  0.00     0.189 HD
HETATM    8  C1  UNL     1      34.821  60.892  16.301  1.00  0.00     0.692 A 
ATOM      9  H2  UNL     1      35.398  61.901  14.532  1.00  0.00     0.205 HD
HETATM   10  N13 UNL     1      34.584  61.350  17.525  1.00  0.00    -0.168 N 
ATOM     11  H13 UNL     1      34.308  60.782  18.325  1.00  0.00     0.186 HD
BRANCH   8  12
HETATM   12  N1  UNL     1      34.753  59.677  15.886  1.00  0.00    -0.233 N 
ATOM     13  H12 UNL     1      35.378  59.203  15.234  1.00  0.00     0.174 HD
ATOM     14  H11 UNL     1      34.032  59.016  16.172  1.00  0.00     0.174 HD
ENDBRANCH   8  12
ENDBRANCH   3   4
ENDBRANCH   2   3
ENDBRANCH   1   2
BRANCH   1  15
HETATM   15  N4  UNL     1      38.331  65.050  19.608  1.00  0.00    -0.340 N 
HETATM   16  C5  UNL     1      39.239  65.741  18.774  1.00  0.00     0.289 C 
HETATM   17  O1  UNL     1      39.197  65.545  17.541  1.00  0.00    -0.264 OA
ATOM     18  H4  UNL     1      38.355  65.201  20.616  1.00  0.00     0.163 HD
BRANCH  16  19
HETATM   19  C6  UNL     1      40.219  66.669  19.302  1.00  0.00     0.206 A 
HETATM   20  N5  UNL     1      40.193  67.348  20.461  1.00  0.00    -0.264 N 
HETATM   21  N6  UNL     1      41.266  68.091  20.567  1.00  0.00    -0.218 N 
ATOM     22  H5  UNL     1      39.448  67.293  21.156  1.00  0.00     0.190 HD
HETATM   23  N7  UNL     1      42.018  67.913  19.476  1.00  0.00    -0.158 N 
ATOM     24  H6  UNL     1      41.491  68.705  21.351  1.00  0.00     0.210 HD
HETATM   25  N11 UNL     1      41.366  67.050  18.723  1.00  0.00    -0.255 N 
ATOM     26  H11 UNL     1      41.693  66.714  17.817  1.00  0.00     0.191 HD
BRANCH  23  27
HETATM   27  C7  UNL     1      43.257  68.522  19.179  1.00  0.00     0.214 A 
HETATM   28  N8  UNL     1      43.394  69.809  18.756  1.00  0.00    -0.219 N 
HETATM   29  O2  UNL     1      44.663  70.050  18.571  1.00  0.00    -0.153 OA
ATOM     30  H8  UNL     1      42.633  70.472  18.610  1.00  0.00     0.198 HD
HETATM   31  N9  UNL     1      45.363  68.990  18.850  1.00  0.00    -0.222 N 
HETATM   32  C8  UNL     1      44.512  68.012  19.236  1.00  0.00     0.171 A 
ATOM     33  H9  UNL     1      46.378  68.910  18.790  1.00  0.00     0.198 HD
BRANCH  32  34
HETATM   34  N10 UNL     1      44.865  66.836  19.582  1.00  0.00    -0.381 N 
ATOM     35 2H10 UNL     1      44.345  65.986  19.365  1.00  0.00     0.157 HD
ATOM     36 1H10 UNL     1      45.691  66.561  20.113  1.00  0.00     0.157 HD
ENDBRANCH  32  34
ENDBRANCH  23  27
ENDBRANCH  16  19
ENDBRANCH   1  15
BRANCH   1  37
HETATM   37  C9  UNL     1      37.918  62.771  18.810  1.00  0.00     0.245 C 
HETATM   38  O3  UNL     1      37.884  61.966  19.763  1.00  0.00    -0.271 OA
HETATM   39  N12 UNL     1      38.456  62.422  17.573  1.00  0.00    -0.325 N 
ATOM     40  H12 UNL     1      38.452  63.144  16.853  1.00  0.00     0.169 HD
BRANCH  39  41
HETATM   41  C10 UNL     1      39.005  61.172  17.211  1.00  0.00     0.037 A 
HETATM   42  C11 UNL     1      40.391  61.084  17.172  1.00  0.00     0.032 A 
HETATM   43  C12 UNL     1      40.984  59.906  16.810  1.00  0.00     0.042 A 
HETATM   44  C13 UNL     1      40.243  58.791  16.477  1.00  0.00     0.102 A 
HETATM   45  C14 UNL     1      38.869  58.837  16.504  1.00  0.00     0.104 A 
HETATM   46  O5  UNL     1      40.817  57.580  16.105  1.00  0.00    -0.346 OA
HETATM   47  C15 UNL     1      38.286  60.056  16.879  1.00  0.00     0.069 A 
HETATM   48  O4  UNL     1      38.071  57.744  16.179  1.00  0.00    -0.346 OA
HETATM   49  C16 UNL     1      38.676  56.478  16.103  1.00  0.00     0.202 C 
HETATM   50  C17 UNL     1      40.018  56.616  15.443  1.00  0.00     0.202 C 
ENDBRANCH  39  41
ENDBRANCH   1  37
TORSDOF 10
ENDMDL
