MODEL 1
REMARK VINA RESULT: -7.130769532      0.000      0.000
REMARK  14 active torsions:
REMARK  status: ('A' for Active; 'I' for Inactive)
REMARK    1  A    between atoms: O1_2  and  C2_3 
REMARK    2  A    between atoms: C2_3  and  C3_5 
REMARK    3  A    between atoms: C3_5  and  C4_6 
REMARK    4  A    between atoms: C5_7  and  C6_8 
REMARK    5  A    between atoms: C7_9  and  C8_10 
REMARK       I    between atoms: C8_10  and  N1_12 
REMARK    6  A    between atoms: N1_12  and  N2_14 
REMARK    7  A    between atoms: N2_14  and  C9_15 
REMARK    8  A    between atoms: C9_15  and  C10_16 
REMARK    9  A    between atoms: C9_15  and  C12_19 
REMARK   10  A    between atoms: C13_23  and  C14_24 
REMARK   11  A    between atoms: C15_30  and  N6_31 
REMARK   12  A    between atoms: N8_36  and  N9_38 
REMARK   13  A    between atoms: N9_38  and  C16_40 
REMARK   14  A    between atoms: C19_43  and  O7_44 
ROOT
HETATM    1  C8  UNL     1      37.982  64.139  19.623  1.00  0.00     0.270 C 
HETATM    2  O3  UNL     1      37.896  63.024  20.142  1.00  0.00    -0.266 OA
HETATM    3  N1  UNL     1      37.009  64.480  18.614  1.00  0.00    -0.199 N 
ATOM      4  H1  UNL     1      37.089  65.406  18.192  1.00  0.00     0.205 HD
ENDROOT
BRANCH   3   5
HETATM    5  N2  UNL     1      36.052  63.736  18.194  1.00  0.00    -0.315 NA
BRANCH   5   6
HETATM    6  C9  UNL     1      35.156  63.043  17.829  1.00  0.00     0.222 C 
BRANCH   6   7
HETATM    7  C10 UNL     1      35.530  61.786  17.090  1.00  0.00     0.192 C 
HETATM    8  C11 UNL     1      36.925  61.328  17.130  1.00  0.00     0.100 C 
HETATM    9  O4  UNL     1      34.682  61.138  16.452  1.00  0.00    -0.290 OA
ENDBRANCH   6   7
BRANCH   6  10
HETATM   10  C12 UNL     1      33.721  63.321  18.003  1.00  0.00     0.175 A 
HETATM   11  N3  UNL     1      32.943  62.527  18.802  1.00  0.00    -0.240 N 
HETATM   12  O5  UNL     1      31.752  62.982  18.737  1.00  0.00    -0.215 OA
ATOM     13  H3  UNL     1      33.256  61.725  19.348  1.00  0.00     0.196 HD
HETATM   14  C13 UNL     1      31.679  64.024  17.947  1.00  0.00     0.204 A 
HETATM   15  N7  UNL     1      32.913  64.241  17.486  1.00  0.00    -0.315 N 
ATOM     16  H7  UNL     1      33.189  64.986  16.846  1.00  0.00     0.169 HD
BRANCH  14  17
HETATM   17  C14 UNL     1      30.472  64.762  17.656  1.00  0.00     0.155 A 
HETATM   18  N4  UNL     1      30.077  65.314  16.487  1.00  0.00    -0.234 N 
HETATM   19  O6  UNL     1      28.923  65.894  16.624  1.00  0.00    -0.155 OA
ATOM     20  H4  UNL     1      30.612  65.281  15.620  1.00  0.00     0.197 HD
HETATM   21  N5  UNL     1      28.516  65.753  17.845  1.00  0.00    -0.224 N 
HETATM   22  C15 UNL     1      29.455  65.043  18.560  1.00  0.00     0.154 A 
ATOM     23  H5  UNL     1      27.638  66.113  18.219  1.00  0.00     0.198 HD
BRANCH  22  24
HETATM   24  N6  UNL     1      29.383  64.729  19.795  1.00  0.00    -0.382 N 
ATOM     25  H62 UNL     1      30.161  64.690  20.453  1.00  0.00     0.157 HD
ATOM     26  H61 UNL     1      28.558  64.460  20.333  1.00  0.00     0.157 HD
ENDBRANCH  22  24
ENDBRANCH  14  17
ENDBRANCH   6  10
ENDBRANCH   5   6
ENDBRANCH   3   5
BRANCH   1  27
HETATM   27  C7  UNL     1      39.020  65.076  20.011  1.00  0.00     0.085 C 
HETATM   28  C6  UNL     1      39.595  65.893  19.171  1.00  0.00     0.070 C 
BRANCH  28  29
HETATM   29  C5  UNL     1      40.634  66.837  19.531  1.00  0.00    -0.071 C 
HETATM   30  C4  UNL     1      41.530  67.587  19.834  1.00  0.00    -0.036 C 
BRANCH  30  31
HETATM   31  C3  UNL     1      42.632  68.428  20.219  1.00  0.00     0.177 C 
HETATM   32  N8  UNL     1      42.489  69.268  21.227  1.00  0.00    -0.286 N 
ATOM     33  H8  UNL     1      43.252  69.887  21.500  1.00  0.00     0.188 HD
BRANCH  31  34
HETATM   34  C2  UNL     1      43.886  68.408  19.533  1.00  0.00     0.320 C 
HETATM   35  O2  UNL     1      44.557  67.325  19.590  1.00  0.00    -0.257 OA
BRANCH  34  36
HETATM   36  O1  UNL     1      44.466  69.417  18.818  1.00  0.00    -0.321 OA
HETATM   37  C1  UNL     1      43.798  70.352  18.013  1.00  0.00     0.213 C 
ENDBRANCH  34  36
ENDBRANCH  31  34
BRANCH  32  38
HETATM   38  N9  UNL     1      41.269  69.294  21.917  1.00  0.00    -0.284 N 
ATOM     39  H9  UNL     1      41.066  68.581  22.617  1.00  0.00     0.188 HD
BRANCH  38  40
HETATM   40  C16 UNL     1      40.321  70.303  21.646  1.00  0.00     0.121 A 
HETATM   41  C17 UNL     1      40.553  71.678  21.598  1.00  0.00     0.054 A 
HETATM   42  C18 UNL     1      39.363  72.316  21.303  1.00  0.00     0.059 A 
HETATM   43  C19 UNL     1      38.414  71.323  21.175  1.00  0.00     0.141 A 
HETATM   44  N10 UNL     1      39.019  70.147  21.385  1.00  0.00    -0.322 N 
ATOM     45  H10 UNL     1      38.545  69.244  21.349  1.00  0.00     0.169 HD
BRANCH  43  46
HETATM   46  O7  UNL     1      37.078  71.554  20.883  1.00  0.00    -0.346 OA
ATOM     47  H7  UNL     1      36.534  70.964  20.375  1.00  0.00     0.219 HD
ENDBRANCH  43  46
ENDBRANCH  38  40
ENDBRANCH  32  38
ENDBRANCH  30  31
ENDBRANCH  28  29
ENDBRANCH   1  27
TORSDOF 14
ENDMDL
MODEL 2
REMARK VINA RESULT: -6.872818653      2.943      4.724
REMARK  14 active torsions:
REMARK  status: ('A' for Active; 'I' for Inactive)
REMARK    1  A    between atoms: O1_2  and  C2_3 
REMARK    2  A    between atoms: C2_3  and  C3_5 
REMARK    3  A    between atoms: C3_5  and  C4_6 
REMARK    4  A    between atoms: C5_7  and  C6_8 
REMARK    5  A    between atoms: C7_9  and  C8_10 
REMARK       I    between atoms: C8_10  and  N1_12 
REMARK    6  A    between atoms: N1_12  and  N2_14 
REMARK    7  A    between atoms: N2_14  and  C9_15 
REMARK    8  A    between atoms: C9_15  and  C10_16 
REMARK    9  A    between atoms: C9_15  and  C12_19 
REMARK   10  A    between atoms: C13_23  and  C14_24 
REMARK   11  A    between atoms: C15_30  and  N6_31 
REMARK   12  A    between atoms: N8_36  and  N9_38 
REMARK   13  A    between atoms: N9_38  and  C16_40 
REMARK   14  A    between atoms: C19_43  and  O7_44 
ROOT
HETATM    1  C8  UNL     1      37.810  64.376  19.413  1.00  0.00     0.270 C 
HETATM    2  O3  UNL     1      36.839  64.334  20.172  1.00  0.00    -0.266 OA
HETATM    3  N1  UNL     1      37.703  63.676  18.156  1.00  0.00    -0.199 N 
ATOM      4  H1  UNL     1      38.513  63.719  17.536  1.00  0.00     0.205 HD
ENDROOT
BRANCH   3   5
HETATM    5  N2  UNL     1      36.692  63.007  17.739  1.00  0.00    -0.315 NA
BRANCH   5   6
HETATM    6  C9  UNL     1      35.741  62.408  17.347  1.00  0.00     0.222 C 
BRANCH   6   7
HETATM    7  C10 UNL     1      34.408  63.097  17.473  1.00  0.00     0.192 C 
HETATM    8  C11 UNL     1      34.271  64.472  16.976  1.00  0.00     0.100 C 
HETATM    9  O4  UNL     1      33.433  62.522  17.987  1.00  0.00    -0.290 OA
ENDBRANCH   6   7
BRANCH   6  10
HETATM   10  C12 UNL     1      35.746  61.047  16.786  1.00  0.00     0.175 A 
HETATM   11  N3  UNL     1      36.924  60.405  16.511  1.00  0.00    -0.240 N 
HETATM   12  O5  UNL     1      36.623  59.269  16.010  1.00  0.00    -0.215 OA
ATOM     13  H3  UNL     1      37.864  60.764  16.676  1.00  0.00     0.196 HD
HETATM   14  C13 UNL     1      35.326  59.109  15.929  1.00  0.00     0.204 A 
HETATM   15  N7  UNL     1      34.772  60.221  16.417  1.00  0.00    -0.315 N 
ATOM     16  H7  UNL     1      33.772  60.407  16.494  1.00  0.00     0.169 HD
BRANCH  14  17
HETATM   17  C14 UNL     1      34.666  57.938  15.401  1.00  0.00     0.155 A 
HETATM   18  N4  UNL     1      33.606  57.867  14.566  1.00  0.00    -0.234 N 
HETATM   19  O6  UNL     1      33.305  56.629  14.314  1.00  0.00    -0.155 OA
ATOM     20  H4  UNL     1      33.110  58.673  14.187  1.00  0.00     0.197 HD
HETATM   21  N5  UNL     1      34.127  55.853  14.947  1.00  0.00    -0.224 N 
HETATM   22  C15 UNL     1      35.020  56.620  15.661  1.00  0.00     0.154 A 
ATOM     23  H5  UNL     1      34.114  54.833  14.921  1.00  0.00     0.198 HD
BRANCH  22  24
HETATM   24  N6  UNL     1      35.962  56.184  16.404  1.00  0.00    -0.382 N 
ATOM     25  H62 UNL     1      36.439  56.706  17.140  1.00  0.00     0.157 HD
ATOM     26  H61 UNL     1      36.402  55.264  16.395  1.00  0.00     0.157 HD
ENDBRANCH  22  24
ENDBRANCH  14  17
ENDBRANCH   6  10
ENDBRANCH   5   6
ENDBRANCH   3   5
BRANCH   1  27
HETATM   27  C7  UNL     1      39.017  65.102  19.768  1.00  0.00     0.085 C 
HETATM   28  C6  UNL     1      39.395  66.196  19.164  1.00  0.00     0.070 C 
BRANCH  28  29
HETATM   29  C5  UNL     1      40.594  66.938  19.495  1.00  0.00    -0.071 C 
HETATM   30  C4  UNL     1      41.569  67.582  19.802  1.00  0.00    -0.036 C 
BRANCH  30  31
HETATM   31  C3  UNL     1      42.689  68.394  20.196  1.00  0.00     0.177 C 
HETATM   32  N8  UNL     1      42.567  69.215  21.222  1.00  0.00    -0.286 N 
ATOM     33  H8  UNL     1      43.343  69.814  21.502  1.00  0.00     0.188 HD
BRANCH  31  34
HETATM   34  C2  UNL     1      43.937  68.364  19.502  1.00  0.00     0.320 C 
HETATM   35  O2  UNL     1      44.610  67.283  19.570  1.00  0.00    -0.257 OA
BRANCH  34  36
HETATM   36  O1  UNL     1      44.513  69.363  18.769  1.00  0.00    -0.321 OA
HETATM   37  C1  UNL     1      43.836  70.310  17.986  1.00  0.00     0.213 C 
ENDBRANCH  34  36
ENDBRANCH  31  34
BRANCH  32  38
HETATM   38  N9  UNL     1      41.353  69.251  21.920  1.00  0.00    -0.284 N 
ATOM     39  H9  UNL     1      41.149  68.540  22.622  1.00  0.00     0.188 HD
BRANCH  38  40
HETATM   40  C16 UNL     1      40.410  70.266  21.655  1.00  0.00     0.121 A 
HETATM   41  C17 UNL     1      40.634  71.643  21.679  1.00  0.00     0.054 A 
HETATM   42  C18 UNL     1      39.452  72.288  21.363  1.00  0.00     0.059 A 
HETATM   43  C19 UNL     1      38.517  71.296  21.150  1.00  0.00     0.141 A 
HETATM   44  N10 UNL     1      39.121  70.115  21.332  1.00  0.00    -0.322 N 
ATOM     45  H10 UNL     1      38.656  69.212  21.236  1.00  0.00     0.169 HD
BRANCH  43  46
HETATM   46  O7  UNL     1      37.193  71.533  20.812  1.00  0.00    -0.346 OA
ATOM     47  H7  UNL     1      36.453  71.298  21.358  1.00  0.00     0.219 HD
ENDBRANCH  43  46
ENDBRANCH  38  40
ENDBRANCH  32  38
ENDBRANCH  30  31
ENDBRANCH  28  29
ENDBRANCH   1  27
TORSDOF 14
ENDMDL
MODEL 3
REMARK VINA RESULT: -6.830438847      2.359      3.486
REMARK  14 active torsions:
REMARK  status: ('A' for Active; 'I' for Inactive)
REMARK    1  A    between atoms: O1_2  and  C2_3 
REMARK    2  A    between atoms: C2_3  and  C3_5 
REMARK    3  A    between atoms: C3_5  and  C4_6 
REMARK    4  A    between atoms: C5_7  and  C6_8 
REMARK    5  A    between atoms: C7_9  and  C8_10 
REMARK       I    between atoms: C8_10  and  N1_12 
REMARK    6  A    between atoms: N1_12  and  N2_14 
REMARK    7  A    between atoms: N2_14  and  C9_15 
REMARK    8  A    between atoms: C9_15  and  C10_16 
REMARK    9  A    between atoms: C9_15  and  C12_19 
REMARK   10  A    between atoms: C13_23  and  C14_24 
REMARK   11  A    between atoms: C15_30  and  N6_31 
REMARK   12  A    between atoms: N8_36  and  N9_38 
REMARK   13  A    between atoms: N9_38  and  C16_40 
REMARK   14  A    between atoms: C19_43  and  O7_44 
ROOT
HETATM    1  C8  UNL     1      37.828  63.904  19.810  1.00  0.00     0.270 C 
HETATM    2  O3  UNL     1      37.738  62.774  20.293  1.00  0.00    -0.266 OA
HETATM    3  N1  UNL     1      36.701  64.397  19.054  1.00  0.00    -0.199 N 
ATOM      4  H1  UNL     1      36.788  65.335  18.660  1.00  0.00     0.205 HD
ENDROOT
BRANCH   3   5
HETATM    5  N2  UNL     1      35.603  63.775  18.829  1.00  0.00    -0.315 NA
BRANCH   5   6
HETATM    6  C9  UNL     1      34.596  63.183  18.604  1.00  0.00     0.222 C 
BRANCH   6   7
HETATM    7  C10 UNL     1      33.771  62.772  19.795  1.00  0.00     0.192 C 
HETATM    8  C11 UNL     1      32.309  62.731  19.664  1.00  0.00     0.100 C 
HETATM    9  O4  UNL     1      34.307  62.472  20.876  1.00  0.00    -0.290 OA
ENDBRANCH   6   7
BRANCH   6  10
HETATM   10  C12 UNL     1      34.105  62.786  17.274  1.00  0.00     0.175 A 
HETATM   11  N3  UNL     1      33.711  63.727  16.361  1.00  0.00    -0.240 N 
HETATM   12  O5  UNL     1      33.307  63.098  15.325  1.00  0.00    -0.215 OA
ATOM     13  H3  UNL     1      33.735  64.739  16.484  1.00  0.00     0.196 HD
HETATM   14  C13 UNL     1      33.403  61.802  15.484  1.00  0.00     0.204 A 
HETATM   15  N7  UNL     1      33.905  61.602  16.705  1.00  0.00    -0.315 N 
ATOM     16  H7  UNL     1      34.101  60.695  17.128  1.00  0.00     0.169 HD
BRANCH  14  17
HETATM   17  C14 UNL     1      33.021  60.815  14.500  1.00  0.00     0.155 A 
HETATM   18  N4  UNL     1      33.694  59.715  14.098  1.00  0.00    -0.234 N 
HETATM   19  O6  UNL     1      33.019  59.072  13.193  1.00  0.00    -0.155 OA
ATOM     20  H4  UNL     1      34.605  59.429  14.455  1.00  0.00     0.197 HD
HETATM   21  N5  UNL     1      31.907  59.697  12.967  1.00  0.00    -0.224 N 
HETATM   22  C15 UNL     1      31.843  60.817  13.764  1.00  0.00     0.154 A 
ATOM     23  H5  UNL     1      31.191  59.403  12.302  1.00  0.00     0.198 HD
BRANCH  22  24
HETATM   24  N6  UNL     1      30.890  61.667  13.794  1.00  0.00    -0.382 N 
ATOM     25  H62 UNL     1      30.961  62.640  14.090  1.00  0.00     0.157 HD
ATOM     26  H61 UNL     1      29.912  61.531  13.541  1.00  0.00     0.157 HD
ENDBRANCH  22  24
ENDBRANCH  14  17
ENDBRANCH   6  10
ENDBRANCH   5   6
ENDBRANCH   3   5
BRANCH   1  27
HETATM   27  C7  UNL     1      39.020  64.713  19.993  1.00  0.00     0.085 C 
HETATM   28  C6  UNL     1      39.229  65.831  19.353  1.00  0.00     0.070 C 
BRANCH  28  29
HETATM   29  C5  UNL     1      40.409  66.656  19.515  1.00  0.00    -0.071 C 
HETATM   30  C4  UNL     1      41.387  67.341  19.696  1.00  0.00    -0.036 C 
BRANCH  30  31
HETATM   31  C3  UNL     1      42.531  68.169  19.975  1.00  0.00     0.177 C 
HETATM   32  N8  UNL     1      42.481  69.032  20.972  1.00  0.00    -0.286 N 
ATOM     33  H8  UNL     1      43.273  69.642  21.170  1.00  0.00     0.188 HD
BRANCH  31  34
HETATM   34  C2  UNL     1      43.726  68.110  19.194  1.00  0.00     0.320 C 
HETATM   35  O2  UNL     1      44.609  67.264  19.555  1.00  0.00    -0.257 OA
BRANCH  34  36
HETATM   36  O1  UNL     1      44.050  68.859  18.099  1.00  0.00    -0.321 OA
HETATM   37  C1  UNL     1      45.000  69.890  18.053  1.00  0.00     0.213 C 
ENDBRANCH  34  36
ENDBRANCH  31  34
BRANCH  32  38
HETATM   38  N9  UNL     1      41.319  69.097  21.753  1.00  0.00    -0.284 N 
ATOM     39  H9  UNL     1      41.131  68.371  22.445  1.00  0.00     0.188 HD
BRANCH  38  40
HETATM   40  C16 UNL     1      40.410  70.162  21.587  1.00  0.00     0.121 A 
HETATM   41  C17 UNL     1      40.696  71.526  21.659  1.00  0.00     0.054 A 
HETATM   42  C18 UNL     1      39.528  72.234  21.439  1.00  0.00     0.059 A 
HETATM   43  C19 UNL     1      38.540  71.293  21.238  1.00  0.00     0.141 A 
HETATM   44  N10 UNL     1      39.099  70.081  21.333  1.00  0.00    -0.322 N 
ATOM     45  H10 UNL     1      38.589  69.204  21.224  1.00  0.00     0.169 HD
BRANCH  43  46
HETATM   46  O7  UNL     1      37.211  71.601  20.987  1.00  0.00    -0.346 OA
ATOM     47  H7  UNL     1      36.829  71.649  20.119  1.00  0.00     0.219 HD
ENDBRANCH  43  46
ENDBRANCH  38  40
ENDBRANCH  32  38
ENDBRANCH  30  31
ENDBRANCH  28  29
ENDBRANCH   1  27
TORSDOF 14
ENDMDL
MODEL 4
REMARK VINA RESULT: -6.682972528      3.370      4.880
REMARK  14 active torsions:
REMARK  status: ('A' for Active; 'I' for Inactive)
REMARK    1  A    between atoms: O1_2  and  C2_3 
REMARK    2  A    between atoms: C2_3  and  C3_5 
REMARK    3  A    between atoms: C3_5  and  C4_6 
REMARK    4  A    between atoms: C5_7  and  C6_8 
REMARK    5  A    between atoms: C7_9  and  C8_10 
REMARK       I    between atoms: C8_10  and  N1_12 
REMARK    6  A    between atoms: N1_12  and  N2_14 
REMARK    7  A    between atoms: N2_14  and  C9_15 
REMARK    8  A    between atoms: C9_15  and  C10_16 
REMARK    9  A    between atoms: C9_15  and  C12_19 
REMARK   10  A    between atoms: C13_23  and  C14_24 
REMARK   11  A    between atoms: C15_30  and  N6_31 
REMARK   12  A    between atoms: N8_36  and  N9_38 
REMARK   13  A    between atoms: N9_38  and  C16_40 
REMARK   14  A    between atoms: C19_43  and  O7_44 
ROOT
HETATM    1  C8  UNL     1      37.868  63.959  19.102  1.00  0.00     0.270 C 
HETATM    2  O3  UNL     1      37.724  63.402  20.192  1.00  0.00    -0.266 OA
HETATM    3  N1  UNL     1      36.675  64.312  18.372  1.00  0.00    -0.199 N 
ATOM      4  H1  UNL     1      36.807  64.774  17.472  1.00  0.00     0.205 HD
ENDROOT
BRANCH   3   5
HETATM    5  N2  UNL     1      35.464  64.104  18.742  1.00  0.00    -0.315 NA
BRANCH   5   6
HETATM    6  C9  UNL     1      34.350  63.897  19.106  1.00  0.00     0.222 C 
BRANCH   6   7
HETATM    7  C10 UNL     1      34.164  63.579  20.566  1.00  0.00     0.192 C 
HETATM    8  C11 UNL     1      33.422  62.367  20.938  1.00  0.00     0.100 C 
HETATM    9  O4  UNL     1      34.623  64.323  21.450  1.00  0.00    -0.290 OA
ENDBRANCH   6   7
BRANCH   6  10
HETATM   10  C12 UNL     1      33.149  63.890  18.256  1.00  0.00     0.175 A 
HETATM   11  N3  UNL     1      33.057  63.052  17.177  1.00  0.00    -0.240 N 
HETATM   12  O5  UNL     1      31.933  63.286  16.616  1.00  0.00    -0.215 OA
ATOM     13  H3  UNL     1      33.753  62.369  16.878  1.00  0.00     0.196 HD
HETATM   14  C13 UNL     1      31.270  64.224  17.244  1.00  0.00     0.204 A 
HETATM   15  N7  UNL     1      32.028  64.604  18.275  1.00  0.00    -0.315 N 
ATOM     16  H7  UNL     1      31.789  65.320  18.961  1.00  0.00     0.169 HD
BRANCH  14  17
HETATM   17  C14 UNL     1      29.971  64.723  16.856  1.00  0.00     0.155 A 
HETATM   18  N4  UNL     1      29.229  65.695  17.433  1.00  0.00    -0.234 N 
HETATM   19  O6  UNL     1      28.115  65.862  16.788  1.00  0.00    -0.155 OA
ATOM     20  H4  UNL     1      29.507  66.223  18.259  1.00  0.00     0.197 HD
HETATM   21  N5  UNL     1      28.072  65.037  15.789  1.00  0.00    -0.224 N 
HETATM   22  C15 UNL     1      29.222  64.280  15.773  1.00  0.00     0.154 A 
ATOM     23  H5  UNL     1      27.306  64.962  15.120  1.00  0.00     0.198 HD
BRANCH  22  24
HETATM   24  N6  UNL     1      29.510  63.365  14.931  1.00  0.00    -0.382 N 
ATOM     25  H62 UNL     1      29.145  63.283  13.982  1.00  0.00     0.157 HD
ATOM     26  H61 UNL     1      30.134  62.567  15.052  1.00  0.00     0.157 HD
ENDBRANCH  22  24
ENDBRANCH  14  17
ENDBRANCH   6  10
ENDBRANCH   5   6
ENDBRANCH   3   5
BRANCH   1  27
HETATM   27  C7  UNL     1      39.187  64.253  18.571  1.00  0.00     0.085 C 
HETATM   28  C6  UNL     1      39.574  63.888  17.379  1.00  0.00     0.070 C 
BRANCH  28  29
HETATM   29  C5  UNL     1      40.883  64.165  16.824  1.00  0.00    -0.071 C 
HETATM   30  C4  UNL     1      41.956  64.395  16.320  1.00  0.00    -0.036 C 
BRANCH  30  31
HETATM   31  C3  UNL     1      43.209  64.647  15.660  1.00  0.00     0.177 C 
HETATM   32  N8  UNL     1      43.762  65.843  15.749  1.00  0.00    -0.286 N 
ATOM     33  H8  UNL     1      44.638  66.046  15.269  1.00  0.00     0.188 HD
BRANCH  31  34
HETATM   34  C2  UNL     1      43.880  63.651  14.884  1.00  0.00     0.320 C 
HETATM   35  O2  UNL     1      43.994  63.875  13.634  1.00  0.00    -0.257 OA
BRANCH  34  36
HETATM   36  O1  UNL     1      44.415  62.472  15.317  1.00  0.00    -0.321 OA
HETATM   37  C1  UNL     1      43.759  61.233  15.364  1.00  0.00     0.213 C 
ENDBRANCH  34  36
ENDBRANCH  31  34
BRANCH  32  38
HETATM   38  N9  UNL     1      43.122  66.828  16.512  1.00  0.00    -0.284 N 
ATOM     39  H9  UNL     1      42.350  67.360  16.112  1.00  0.00     0.188 HD
BRANCH  38  40
HETATM   40  C16 UNL     1      43.543  67.087  17.834  1.00  0.00     0.121 A 
HETATM   41  C17 UNL     1      42.919  67.920  18.763  1.00  0.00     0.054 A 
HETATM   42  C18 UNL     1      43.651  67.898  19.936  1.00  0.00     0.059 A 
HETATM   43  C19 UNL     1      44.717  67.053  19.710  1.00  0.00     0.141 A 
HETATM   44  N10 UNL     1      44.619  66.593  18.456  1.00  0.00    -0.322 N 
ATOM     45  H10 UNL     1      45.283  65.947  18.029  1.00  0.00     0.169 HD
BRANCH  43  46
HETATM   46  O7  UNL     1      45.696  66.765  20.649  1.00  0.00    -0.346 OA
ATOM     47  H7  UNL     1      46.587  67.093  20.609  1.00  0.00     0.219 HD
ENDBRANCH  43  46
ENDBRANCH  38  40
ENDBRANCH  32  38
ENDBRANCH  30  31
ENDBRANCH  28  29
ENDBRANCH   1  27
TORSDOF 14
ENDMDL
MODEL 5
REMARK VINA RESULT: -6.669000342      3.163      6.016
REMARK  14 active torsions:
REMARK  status: ('A' for Active; 'I' for Inactive)
REMARK    1  A    between atoms: O1_2  and  C2_3 
REMARK    2  A    between atoms: C2_3  and  C3_5 
REMARK    3  A    between atoms: C3_5  and  C4_6 
REMARK    4  A    between atoms: C5_7  and  C6_8 
REMARK    5  A    between atoms: C7_9  and  C8_10 
REMARK       I    between atoms: C8_10  and  N1_12 
REMARK    6  A    between atoms: N1_12  and  N2_14 
REMARK    7  A    between atoms: N2_14  and  C9_15 
REMARK    8  A    between atoms: C9_15  and  C10_16 
REMARK    9  A    between atoms: C9_15  and  C12_19 
REMARK   10  A    between atoms: C13_23  and  C14_24 
REMARK   11  A    between atoms: C15_30  and  N6_31 
REMARK   12  A    between atoms: N8_36  and  N9_38 
REMARK   13  A    between atoms: N9_38  and  C16_40 
REMARK   14  A    between atoms: C19_43  and  O7_44 
ROOT
HETATM    1  C8  UNL     1      37.947  63.975  19.004  1.00  0.00     0.270 C 
HETATM    2  O3  UNL     1      38.478  62.982  18.502  1.00  0.00    -0.266 OA
HETATM    3  N1  UNL     1      36.514  64.096  18.885  1.00  0.00    -0.199 N 
ATOM      4  H1  UNL     1      36.086  64.921  19.304  1.00  0.00     0.205 HD
ENDROOT
BRANCH   3   5
HETATM    5  N2  UNL     1      35.725  63.268  18.304  1.00  0.00    -0.315 NA
BRANCH   5   6
HETATM    6  C9  UNL     1      34.996  62.484  17.784  1.00  0.00     0.222 C 
BRANCH   6   7
HETATM    7  C10 UNL     1      33.518  62.730  17.935  1.00  0.00     0.192 C 
HETATM    8  C11 UNL     1      32.974  62.977  19.276  1.00  0.00     0.100 C 
HETATM    9  O4  UNL     1      32.762  62.724  16.948  1.00  0.00    -0.290 OA
ENDBRANCH   6   7
BRANCH   6  10
HETATM   10  C12 UNL     1      35.407  61.281  17.042  1.00  0.00     0.175 A 
HETATM   11  N3  UNL     1      36.731  60.970  16.886  1.00  0.00    -0.240 N 
HETATM   12  O5  UNL     1      36.786  59.906  16.181  1.00  0.00    -0.215 OA
ATOM     13  H3  UNL     1      37.525  61.489  17.262  1.00  0.00     0.196 HD
HETATM   14  C13 UNL     1      35.589  59.486  15.853  1.00  0.00     0.204 A 
HETATM   15  N7  UNL     1      34.722  60.345  16.394  1.00  0.00    -0.315 N 
ATOM     16  H7  UNL     1      33.706  60.292  16.322  1.00  0.00     0.169 HD
BRANCH  14  17
HETATM   17  C14 UNL     1      35.311  58.316  15.054  1.00  0.00     0.155 A 
HETATM   18  N4  UNL     1      34.301  58.107  14.180  1.00  0.00    -0.234 N 
HETATM   19  O6  UNL     1      34.394  56.924  13.651  1.00  0.00    -0.155 OA
ATOM     20  H4  UNL     1      33.569  58.783  13.966  1.00  0.00     0.197 HD
HETATM   21  N5  UNL     1      35.433  56.320  14.134  1.00  0.00    -0.224 N 
HETATM   22  C15 UNL     1      36.064  57.148  15.035  1.00  0.00     0.154 A 
ATOM     23  H5  UNL     1      35.737  55.379  13.884  1.00  0.00     0.198 HD
BRANCH  22  24
HETATM   24  N6  UNL     1      37.116  56.872  15.704  1.00  0.00    -0.382 N 
ATOM     25  H62 UNL     1      37.156  56.652  16.699  1.00  0.00     0.157 HD
ATOM     26  H61 UNL     1      38.081  56.829  15.376  1.00  0.00     0.157 HD
ENDBRANCH  22  24
ENDBRANCH  14  17
ENDBRANCH   6  10
ENDBRANCH   5   6
ENDBRANCH   3   5
BRANCH   1  27
HETATM   27  C7  UNL     1      38.730  64.987  19.691  1.00  0.00     0.085 C 
HETATM   28  C6  UNL     1      39.472  65.861  19.067  1.00  0.00     0.070 C 
BRANCH  28  29
HETATM   29  C5  UNL     1      40.264  66.879  19.727  1.00  0.00    -0.071 C 
HETATM   30  C4  UNL     1      40.899  67.720  20.315  1.00  0.00    -0.036 C 
BRANCH  30  31
HETATM   31  C3  UNL     1      41.606  68.726  21.063  1.00  0.00     0.177 C 
HETATM   32  N8  UNL     1      42.874  68.970  20.786  1.00  0.00    -0.286 N 
ATOM     33  H8  UNL     1      43.397  69.664  21.320  1.00  0.00     0.188 HD
BRANCH  31  34
HETATM   34  C2  UNL     1      40.994  69.465  22.121  1.00  0.00     0.320 C 
HETATM   35  O2  UNL     1      40.096  68.865  22.799  1.00  0.00    -0.257 OA
BRANCH  34  36
HETATM   36  O1  UNL     1      41.247  70.753  22.500  1.00  0.00    -0.321 OA
HETATM   37  C1  UNL     1      40.562  71.895  22.059  1.00  0.00     0.213 C 
ENDBRANCH  34  36
ENDBRANCH  31  34
BRANCH  32  38
HETATM   38  N9  UNL     1      43.488  68.261  19.745  1.00  0.00    -0.284 N 
ATOM     39  H9  UNL     1      43.423  67.243  19.716  1.00  0.00     0.188 HD
BRANCH  38  40
HETATM   40  C16 UNL     1      44.196  68.949  18.737  1.00  0.00     0.121 A 
HETATM   41  C17 UNL     1      43.722  69.301  17.473  1.00  0.00     0.054 A 
HETATM   42  C18 UNL     1      44.728  69.962  16.793  1.00  0.00     0.059 A 
HETATM   43  C19 UNL     1      45.809  70.003  17.649  1.00  0.00     0.141 A 
HETATM   44  N10 UNL     1      45.456  69.395  18.788  1.00  0.00    -0.322 N 
ATOM     45  H10 UNL     1      46.071  69.285  19.595  1.00  0.00     0.169 HD
BRANCH  43  46
HETATM   46  O7  UNL     1      47.029  70.584  17.337  1.00  0.00    -0.346 OA
ATOM     47  H7  UNL     1      47.848  70.107  17.281  1.00  0.00     0.219 HD
ENDBRANCH  43  46
ENDBRANCH  38  40
ENDBRANCH  32  38
ENDBRANCH  30  31
ENDBRANCH  28  29
ENDBRANCH   1  27
TORSDOF 14
ENDMDL
