MODEL 1
REMARK VINA RESULT: -6.852583763      0.000      0.000
REMARK  11 active torsions:
REMARK  status: ('A' for Active; 'I' for Inactive)
REMARK    1  A    between atoms: C2_2  and  N1_3 
REMARK    2  A    between atoms: N1_3  and  C3_4 
REMARK    3  A    between atoms: N1_3  and  C5_10 
REMARK    4  A    between atoms: C3_4  and  C4_5 
REMARK    5  A    between atoms: C4_5  and  S1_6 
REMARK    6  A    between atoms: C6_11  and  C7_12 
REMARK    7  A    between atoms: C8_14  and  N2_15 
REMARK    8  A    between atoms: C9_20  and  N4_21 
REMARK    9  A    between atoms: C11_29  and  N7_30 
REMARK   10  A    between atoms: N7_30  and  N8_32 
REMARK   11  A    between atoms: C14_42  and  N11_43 
ROOT
HETATM    1  C5  UNL     1      37.032  61.871  16.939  1.00  0.00     0.093 A 
HETATM    2  C6  UNL     1      38.162  62.342  17.512  1.00  0.00     0.084 A 
HETATM    3  N5  UNL     1      39.246  61.500  17.573  1.00  0.00    -0.338 N 
ATOM      4  H5  UNL     1      40.097  61.856  18.007  1.00  0.00     0.167 HD
HETATM    5  C10 UNL     1      39.266  60.270  17.113  1.00  0.00     0.138 A 
HETATM    6  N6  UNL     1      40.394  59.560  17.238  1.00  0.00    -0.174 N 
ATOM      7  H6  UNL     1      41.210  59.978  17.685  1.00  0.00     0.186 HD
HETATM    8  C11 UNL     1      40.455  58.299  16.776  1.00  0.00     0.699 A 
HETATM    9  N9  UNL     1      39.366  57.798  16.200  1.00  0.00    -0.175 N 
ATOM     10  H9  UNL     1      39.408  56.842  15.845  1.00  0.00     0.186 HD
HETATM   11  C12 UNL     1      38.198  58.485  16.054  1.00  0.00     0.131 A 
HETATM   12  N10 UNL     1      37.199  57.946  15.480  1.00  0.00    -0.384 N 
ATOM     13 1H10 UNL     1      36.324  58.460  15.371  1.00  0.00     0.157 HD
ATOM     14 2H10 UNL     1      37.268  56.988  15.136  1.00  0.00     0.157 HD
HETATM   15  C13 UNL     1      38.105  59.781  16.520  1.00  0.00     0.088 A 
HETATM   16  C14 UNL     1      36.972  60.565  16.420  1.00  0.00     0.149 A 
ENDROOT
BRANCH   2  17
HETATM   17  C7  UNL     1      38.408  63.686  18.039  1.00  0.00     0.087 A 
HETATM   18  S2  UNL     1      39.208  65.017  17.352  1.00  0.00    -0.048 SA
HETATM   19  C8  UNL     1      39.000  66.132  18.620  1.00  0.00     0.144 A 
HETATM   20  N3  UNL     1      38.318  65.428  19.528  1.00  0.00    -0.317 N 
HETATM   21  C9  UNL     1      38.008  64.193  19.257  1.00  0.00     0.195 A 
ATOM     22  H3  UNL     1      38.046  65.850  20.417  1.00  0.00     0.169 HD
BRANCH  19  23
HETATM   23  N2  UNL     1      39.396  67.386  18.720  1.00  0.00    -0.380 N 
ATOM     24  H22 UNL     1      39.048  68.184  18.190  1.00  0.00     0.158 HD
ATOM     25  H21 UNL     1      40.105  67.803  19.323  1.00  0.00     0.158 HD
ENDBRANCH  19  23
BRANCH  21  26
HETATM   26  N4  UNL     1      37.226  63.357  20.162  1.00  0.00    -0.096 N 
HETATM   27  O4  UNL     1      37.548  62.211  20.458  1.00  0.00    -0.530 OA
HETATM   28  O5  UNL     1      36.058  63.831  20.723  1.00  0.00    -0.530 OA
ENDBRANCH  21  26
ENDBRANCH   2  17
BRANCH   1  29
HETATM   29  N1  UNL     1      35.821  62.625  16.941  1.00  0.00    -0.376 N 
BRANCH  29  30
HETATM   30  C2  UNL     1      35.511  63.554  15.904  1.00  0.00     0.118 C 
HETATM   31  C1  UNL     1      36.479  63.684  14.785  1.00  0.00     0.026 C 
ENDBRANCH  29  30
BRANCH  29  32
HETATM   32  C3  UNL     1      34.807  62.407  17.980  1.00  0.00     0.140 C 
BRANCH  32  33
HETATM   33  C4  UNL     1      33.477  63.010  17.689  1.00  0.00     0.185 C 
BRANCH  33  34
HETATM   34  S1  UNL     1      32.597  63.242  19.250  1.00  0.00     0.103 S 
HETATM   35  O1  UNL     1      31.155  63.003  18.962  1.00  0.00    -0.595 OA
HETATM   36  O2  UNL     1      32.874  64.610  19.796  1.00  0.00    -0.595 OA
HETATM   37  O3  UNL     1      33.209  62.118  20.330  1.00  0.00    -0.595 OA
ENDBRANCH  33  34
ENDBRANCH  32  33
ENDBRANCH  29  32
ENDBRANCH   1  29
BRANCH  16  38
HETATM   38  N11 UNL     1      35.813  60.018  15.849  1.00  0.00    -0.112 N 
HETATM   39  O6  UNL     1      34.940  59.343  16.415  1.00  0.00    -0.532 OA
HETATM   40  O7  UNL     1      35.570  60.263  14.494  1.00  0.00    -0.532 OA
ENDBRANCH  16  38
BRANCH   8  41
HETATM   41  N7  UNL     1      41.566  57.667  16.928  1.00  0.00    -0.138 N 
ATOM     42  H7  UNL     1      41.623  56.988  17.687  1.00  0.00     0.205 HD
BRANCH  41  43
HETATM   43  N8  UNL     1      42.694  57.840  16.133  1.00  0.00    -0.331 N 
ATOM     44  H82 UNL     1      43.167  56.992  15.823  1.00  0.00     0.177 HD
ATOM     45  H81 UNL     1      43.071  58.744  15.845  1.00  0.00     0.177 HD
ENDBRANCH  41  43
ENDBRANCH   8  41
TORSDOF 11
ENDMDL
MODEL 2
REMARK VINA RESULT: -6.686956980      0.998      1.447
REMARK  11 active torsions:
REMARK  status: ('A' for Active; 'I' for Inactive)
REMARK    1  A    between atoms: C2_2  and  N1_3 
REMARK    2  A    between atoms: N1_3  and  C3_4 
REMARK    3  A    between atoms: N1_3  and  C5_10 
REMARK    4  A    between atoms: C3_4  and  C4_5 
REMARK    5  A    between atoms: C4_5  and  S1_6 
REMARK    6  A    between atoms: C6_11  and  C7_12 
REMARK    7  A    between atoms: C8_14  and  N2_15 
REMARK    8  A    between atoms: C9_20  and  N4_21 
REMARK    9  A    between atoms: C11_29  and  N7_30 
REMARK   10  A    between atoms: N7_30  and  N8_32 
REMARK   11  A    between atoms: C14_42  and  N11_43 
ROOT
HETATM    1  C5  UNL     1      36.500  62.632  16.573  1.00  0.00     0.093 A 
HETATM    2  C6  UNL     1      37.634  62.739  17.300  1.00  0.00     0.084 A 
HETATM    3  N5  UNL     1      38.451  61.637  17.375  1.00  0.00    -0.338 N 
ATOM      4  H5  UNL     1      39.306  61.718  17.925  1.00  0.00     0.167 HD
HETATM    5  C10 UNL     1      38.211  60.486  16.790  1.00  0.00     0.138 A 
HETATM    6  N6  UNL     1      39.096  59.494  16.947  1.00  0.00    -0.174 N 
ATOM      7  H6  UNL     1      39.931  59.643  17.513  1.00  0.00     0.186 HD
HETATM    8  C11 UNL     1      38.888  58.302  16.360  1.00  0.00     0.699 A 
HETATM    9  N9  UNL     1      37.785  58.156  15.630  1.00  0.00    -0.175 N 
ATOM     10  H9  UNL     1      37.624  57.254  15.181  1.00  0.00     0.186 HD
HETATM   11  C12 UNL     1      36.859  59.138  15.447  1.00  0.00     0.131 A 
HETATM   12  N10 UNL     1      35.832  58.932  14.724  1.00  0.00    -0.384 N 
ATOM     13 1H10 UNL     1      35.138  59.667  14.586  1.00  0.00     0.157 HD
ATOM     14 2H10 UNL     1      35.696  58.020  14.288  1.00  0.00     0.157 HD
HETATM   15  C13 UNL     1      37.044  60.372  16.038  1.00  0.00     0.088 A 
HETATM   16  C14 UNL     1      36.171  61.435  15.914  1.00  0.00     0.149 A 
ENDROOT
BRANCH   2  17
HETATM   17  C7  UNL     1      38.150  63.923  17.991  1.00  0.00     0.087 A 
HETATM   18  S2  UNL     1      39.047  65.243  17.408  1.00  0.00    -0.048 SA
HETATM   19  C8  UNL     1      39.181  66.128  18.855  1.00  0.00     0.144 A 
HETATM   20  N3  UNL     1      38.525  65.366  19.734  1.00  0.00    -0.317 N 
HETATM   21  C9  UNL     1      37.996  64.250  19.321  1.00  0.00     0.195 A 
ATOM     22  H3  UNL     1      38.440  65.652  20.709  1.00  0.00     0.169 HD
BRANCH  19  23
HETATM   23  N2  UNL     1      39.774  67.282  19.091  1.00  0.00    -0.380 N 
ATOM     24  H22 UNL     1      40.547  67.694  18.568  1.00  0.00     0.158 HD
ATOM     25  H21 UNL     1      39.593  67.976  19.816  1.00  0.00     0.158 HD
ENDBRANCH  19  23
BRANCH  21  26
HETATM   26  N4  UNL     1      37.221  63.372  20.191  1.00  0.00    -0.096 N 
HETATM   27  O4  UNL     1      37.529  62.204  20.406  1.00  0.00    -0.530 OA
HETATM   28  O5  UNL     1      36.077  63.829  20.811  1.00  0.00    -0.530 OA
ENDBRANCH  21  26
ENDBRANCH   2  17
BRANCH   1  29
HETATM   29  N1  UNL     1      35.532  63.680  16.539  1.00  0.00    -0.376 N 
BRANCH  29  30
HETATM   30  C2  UNL     1      35.413  64.560  15.422  1.00  0.00     0.118 C 
HETATM   31  C1  UNL     1      34.049  64.828  14.900  1.00  0.00     0.026 C 
ENDBRANCH  29  30
BRANCH  29  32
HETATM   32  C3  UNL     1      34.562  63.836  17.630  1.00  0.00     0.140 C 
BRANCH  32  33
HETATM   33  C4  UNL     1      34.130  62.559  18.266  1.00  0.00     0.185 C 
BRANCH  33  34
HETATM   34  S1  UNL     1      32.971  62.944  19.597  1.00  0.00     0.103 S 
HETATM   35  O1  UNL     1      33.393  62.133  20.773  1.00  0.00    -0.595 OA
HETATM   36  O2  UNL     1      31.568  62.659  19.152  1.00  0.00    -0.595 OA
HETATM   37  O3  UNL     1      33.096  64.587  19.899  1.00  0.00    -0.595 OA
ENDBRANCH  33  34
ENDBRANCH  32  33
ENDBRANCH  29  32
ENDBRANCH   1  29
BRANCH  16  38
HETATM   38  N11 UNL     1      34.989  61.263  15.177  1.00  0.00    -0.112 N 
HETATM   39  O6  UNL     1      33.887  60.879  15.599  1.00  0.00    -0.532 OA
HETATM   40  O7  UNL     1      35.013  61.574  13.815  1.00  0.00    -0.532 OA
ENDBRANCH  16  38
BRANCH   8  41
HETATM   41  N7  UNL     1      39.772  57.387  16.550  1.00  0.00    -0.138 N 
ATOM     42  H7  UNL     1      39.466  56.415  16.496  1.00  0.00     0.205 HD
BRANCH  41  43
HETATM   43  N8  UNL     1      41.115  57.624  16.821  1.00  0.00    -0.331 N 
ATOM     44  H82 UNL     1      41.336  58.502  17.291  1.00  0.00     0.177 HD
ATOM     45  H81 UNL     1      41.878  56.989  16.586  1.00  0.00     0.177 HD
ENDBRANCH  41  43
ENDBRANCH   8  41
TORSDOF 11
ENDMDL
MODEL 3
REMARK VINA RESULT: -6.465034506      2.886      6.209
REMARK  11 active torsions:
REMARK  status: ('A' for Active; 'I' for Inactive)
REMARK    1  A    between atoms: C2_2  and  N1_3 
REMARK    2  A    between atoms: N1_3  and  C3_4 
REMARK    3  A    between atoms: N1_3  and  C5_10 
REMARK    4  A    between atoms: C3_4  and  C4_5 
REMARK    5  A    between atoms: C4_5  and  S1_6 
REMARK    6  A    between atoms: C6_11  and  C7_12 
REMARK    7  A    between atoms: C8_14  and  N2_15 
REMARK    8  A    between atoms: C9_20  and  N4_21 
REMARK    9  A    between atoms: C11_29  and  N7_30 
REMARK   10  A    between atoms: N7_30  and  N8_32 
REMARK   11  A    between atoms: C14_42  and  N11_43 
ROOT
HETATM    1  C5  UNL     1      36.416  62.892  16.621  1.00  0.00     0.093 A 
HETATM    2  C6  UNL     1      36.318  64.024  17.353  1.00  0.00     0.084 A 
HETATM    3  N5  UNL     1      35.083  64.619  17.444  1.00  0.00    -0.338 N 
ATOM      4  H5  UNL     1      35.010  65.474  17.995  1.00  0.00     0.167 HD
HETATM    5  C10 UNL     1      33.989  64.167  16.874  1.00  0.00     0.138 A 
HETATM    6  N6  UNL     1      32.850  64.849  17.049  1.00  0.00    -0.174 N 
ATOM      7  H6  UNL     1      32.849  65.699  17.612  1.00  0.00     0.186 HD
HETATM    8  C11 UNL     1      31.709  64.416  16.486  1.00  0.00     0.699 A 
HETATM    9  N9  UNL     1      31.761  63.302  15.761  1.00  0.00    -0.175 N 
ATOM     10  H9  UNL     1      30.897  62.968  15.333  1.00  0.00     0.186 HD
HETATM   11  C12 UNL     1      32.898  62.580  15.557  1.00  0.00     0.131 A 
HETATM   12  N10 UNL     1      32.871  61.514  14.861  1.00  0.00    -0.384 N 
ATOM     13 1H10 UNL     1      33.723  60.973  14.708  1.00  0.00     0.157 HD
ATOM     14 2H10 UNL     1      31.994  61.204  14.444  1.00  0.00     0.157 HD
HETATM   15  C13 UNL     1      34.086  63.000  16.122  1.00  0.00     0.088 A 
HETATM   16  C14 UNL     1      35.292  62.341  15.980  1.00  0.00     0.149 A 
ENDROOT
BRANCH   2  17
HETATM   17  C7  UNL     1      37.369  64.687  18.128  1.00  0.00     0.087 A 
HETATM   18  S2  UNL     1      38.455  65.918  17.695  1.00  0.00    -0.048 SA
HETATM   19  C8  UNL     1      39.272  66.081  19.178  1.00  0.00     0.144 A 
HETATM   20  N3  UNL     1      38.670  65.173  19.952  1.00  0.00    -0.317 N 
HETATM   21  C9  UNL     1      37.707  64.459  19.444  1.00  0.00     0.195 A 
ATOM     22  H3  UNL     1      38.960  65.043  20.922  1.00  0.00     0.169 HD
BRANCH  19  23
HETATM   23  N2  UNL     1      40.256  66.889  19.520  1.00  0.00    -0.380 N 
ATOM     24  H22 UNL     1      41.236  66.640  19.659  1.00  0.00     0.158 HD
ATOM     25  H21 UNL     1      40.247  67.891  19.709  1.00  0.00     0.158 HD
ENDBRANCH  19  23
BRANCH  21  26
HETATM   26  N4  UNL     1      36.958  63.477  20.219  1.00  0.00    -0.096 N 
HETATM   27  O4  UNL     1      37.389  62.357  20.474  1.00  0.00    -0.530 OA
HETATM   28  O5  UNL     1      35.697  63.772  20.697  1.00  0.00    -0.530 OA
ENDBRANCH  21  26
ENDBRANCH   2  17
BRANCH   1  29
HETATM   29  N1  UNL     1      37.677  62.272  16.367  1.00  0.00    -0.376 N 
BRANCH  29  30
HETATM   30  C2  UNL     1      38.523  62.698  15.300  1.00  0.00     0.118 C 
HETATM   31  C1  UNL     1      39.902  63.130  15.648  1.00  0.00     0.026 C 
ENDBRANCH  29  30
BRANCH  29  32
HETATM   32  C3  UNL     1      38.183  61.219  17.255  1.00  0.00     0.140 C 
BRANCH  32  33
HETATM   33  C4  UNL     1      38.483  59.925  16.580  1.00  0.00     0.185 C 
BRANCH  33  34
HETATM   34  S1  UNL     1      39.958  59.209  17.338  1.00  0.00     0.103 S 
HETATM   35  O1  UNL     1      41.120  59.977  16.810  1.00  0.00    -0.595 OA
HETATM   36  O2  UNL     1      40.028  57.743  17.036  1.00  0.00    -0.595 OA
HETATM   37  O3  UNL     1      39.795  59.390  18.995  1.00  0.00    -0.595 OA
ENDBRANCH  33  34
ENDBRANCH  32  33
ENDBRANCH  29  32
ENDBRANCH   1  29
BRANCH  16  38
HETATM   38  N11 UNL     1      35.350  61.189  15.181  1.00  0.00    -0.112 N 
HETATM   39  O6  UNL     1      35.612  61.125  13.971  1.00  0.00    -0.532 OA
HETATM   40  O7  UNL     1      35.116  59.954  15.792  1.00  0.00    -0.532 OA
ENDBRANCH  16  38
BRANCH   8  41
HETATM   41  N7  UNL     1      30.648  65.115  16.687  1.00  0.00    -0.138 N 
ATOM     42  H7  UNL     1      30.314  65.699  15.920  1.00  0.00     0.205 HD
BRANCH  41  43
HETATM   43  N8  UNL     1      29.922  65.133  17.873  1.00  0.00    -0.331 N 
ATOM     44  H82 UNL     1      30.462  65.094  18.738  1.00  0.00     0.177 HD
ATOM     45  H81 UNL     1      28.905  65.183  17.933  1.00  0.00     0.177 HD
ENDBRANCH  41  43
ENDBRANCH   8  41
TORSDOF 11
ENDMDL
MODEL 4
REMARK VINA RESULT: -6.406404227      2.844      3.658
REMARK  11 active torsions:
REMARK  status: ('A' for Active; 'I' for Inactive)
REMARK    1  A    between atoms: C2_2  and  N1_3 
REMARK    2  A    between atoms: N1_3  and  C3_4 
REMARK    3  A    between atoms: N1_3  and  C5_10 
REMARK    4  A    between atoms: C3_4  and  C4_5 
REMARK    5  A    between atoms: C4_5  and  S1_6 
REMARK    6  A    between atoms: C6_11  and  C7_12 
REMARK    7  A    between atoms: C8_14  and  N2_15 
REMARK    8  A    between atoms: C9_20  and  N4_21 
REMARK    9  A    between atoms: C11_29  and  N7_30 
REMARK   10  A    between atoms: N7_30  and  N8_32 
REMARK   11  A    between atoms: C14_42  and  N11_43 
ROOT
HETATM    1  C5  UNL     1      38.677  62.860  17.138  1.00  0.00     0.093 A 
HETATM    2  C6  UNL     1      39.288  64.010  16.776  1.00  0.00     0.084 A 
HETATM    3  N5  UNL     1      40.584  63.929  16.326  1.00  0.00    -0.338 N 
ATOM      4  H5  UNL     1      41.045  64.797  16.055  1.00  0.00     0.167 HD
HETATM    5  C10 UNL     1      41.272  62.816  16.219  1.00  0.00     0.138 A 
HETATM    6  N6  UNL     1      42.528  62.883  15.762  1.00  0.00    -0.174 N 
ATOM      7  H6  UNL     1      42.929  63.787  15.510  1.00  0.00     0.186 HD
HETATM    8  C11 UNL     1      43.263  61.765  15.634  1.00  0.00     0.699 A 
HETATM    9  N9  UNL     1      42.697  60.611  15.975  1.00  0.00    -0.175 N 
ATOM     10  H9  UNL     1      43.250  59.758  15.878  1.00  0.00     0.186 HD
HETATM   11  C12 UNL     1      41.423  60.497  16.445  1.00  0.00     0.131 A 
HETATM   12  N10 UNL     1      40.942  59.357  16.740  1.00  0.00    -0.384 N 
ATOM     13 1H10 UNL     1      39.988  59.272  17.092  1.00  0.00     0.157 HD
ATOM     14 2H10 UNL     1      41.517  58.522  16.633  1.00  0.00     0.157 HD
HETATM   15  C13 UNL     1      40.644  61.629  16.589  1.00  0.00     0.088 A 
HETATM   16  C14 UNL     1      39.343  61.625  17.052  1.00  0.00     0.149 A 
ENDROOT
BRANCH   2  17
HETATM   17  C7  UNL     1      38.719  65.359  16.747  1.00  0.00     0.087 A 
HETATM   18  S2  UNL     1      37.561  66.051  15.715  1.00  0.00    -0.048 SA
HETATM   19  C8  UNL     1      37.488  67.604  16.406  1.00  0.00     0.144 A 
HETATM   20  N3  UNL     1      38.366  67.525  17.411  1.00  0.00    -0.317 N 
HETATM   21  C9  UNL     1      38.998  66.403  17.602  1.00  0.00     0.195 A 
ATOM     22  H3  UNL     1      38.537  68.329  18.015  1.00  0.00     0.169 HD
BRANCH  19  23
HETATM   23  N2  UNL     1      36.761  68.650  16.066  1.00  0.00    -0.380 N 
ATOM     24  H22 UNL     1      36.433  68.892  15.131  1.00  0.00     0.158 HD
ATOM     25  H21 UNL     1      36.389  69.405  16.641  1.00  0.00     0.158 HD
ENDBRANCH  19  23
BRANCH  21  26
HETATM   26  N4  UNL     1      39.939  66.203  18.699  1.00  0.00    -0.096 N 
HETATM   27  O4  UNL     1      39.583  66.017  19.858  1.00  0.00    -0.530 OA
HETATM   28  O5  UNL     1      41.299  66.228  18.470  1.00  0.00    -0.530 OA
ENDBRANCH  21  26
ENDBRANCH   2  17
BRANCH   1  29
HETATM   29  N1  UNL     1      37.379  62.858  17.733  1.00  0.00    -0.376 N 
BRANCH  29  30
HETATM   30  C2  UNL     1      36.191  62.769  16.948  1.00  0.00     0.118 C 
HETATM   31  C1  UNL     1      35.328  61.576  17.141  1.00  0.00     0.026 C 
ENDBRANCH  29  30
BRANCH  29  32
HETATM   32  C3  UNL     1      37.228  62.865  19.193  1.00  0.00     0.140 C 
BRANCH  32  33
HETATM   33  C4  UNL     1      36.650  64.118  19.754  1.00  0.00     0.185 C 
BRANCH  33  34
HETATM   34  S1  UNL     1      34.949  63.787  20.266  1.00  0.00     0.103 S 
HETATM   35  O1  UNL     1      34.845  62.314  20.460  1.00  0.00    -0.595 OA
HETATM   36  O2  UNL     1      33.994  64.320  19.241  1.00  0.00    -0.595 OA
HETATM   37  O3  UNL     1      34.695  64.621  21.696  1.00  0.00    -0.595 OA
ENDBRANCH  33  34
ENDBRANCH  32  33
ENDBRANCH  29  32
ENDBRANCH   1  29
BRANCH  16  38
HETATM   38  N11 UNL     1      38.764  60.410  17.448  1.00  0.00    -0.112 N 
HETATM   39  O6  UNL     1      38.072  59.645  16.759  1.00  0.00    -0.532 OA
HETATM   40  O7  UNL     1      38.993  59.969  18.755  1.00  0.00    -0.532 OA
ENDBRANCH  16  38
BRANCH   8  41
HETATM   41  N7  UNL     1      44.465  61.894  15.193  1.00  0.00    -0.138 N 
ATOM     42  H7  UNL     1      45.029  61.049  15.103  1.00  0.00     0.205 HD
BRANCH  41  43
HETATM   43  N8  UNL     1      45.052  63.102  14.830  1.00  0.00    -0.331 N 
ATOM     44  H82 UNL     1      44.423  63.830  14.493  1.00  0.00     0.177 HD
ATOM     45  H81 UNL     1      46.052  63.301  14.877  1.00  0.00     0.177 HD
ENDBRANCH  41  43
ENDBRANCH   8  41
TORSDOF 11
ENDMDL
MODEL 5
REMARK VINA RESULT: -6.351088316      7.046     10.009
REMARK  11 active torsions:
REMARK  status: ('A' for Active; 'I' for Inactive)
REMARK    1  A    between atoms: C2_2  and  N1_3 
REMARK    2  A    between atoms: N1_3  and  C3_4 
REMARK    3  A    between atoms: N1_3  and  C5_10 
REMARK    4  A    between atoms: C3_4  and  C4_5 
REMARK    5  A    between atoms: C4_5  and  S1_6 
REMARK    6  A    between atoms: C6_11  and  C7_12 
REMARK    7  A    between atoms: C8_14  and  N2_15 
REMARK    8  A    between atoms: C9_20  and  N4_21 
REMARK    9  A    between atoms: C11_29  and  N7_30 
REMARK   10  A    between atoms: N7_30  and  N8_32 
REMARK   11  A    between atoms: C14_42  and  N11_43 
ROOT
HETATM    1  C5  UNL     1      28.966  61.767  14.486  1.00  0.00     0.093 A 
HETATM    2  C6  UNL     1      29.396  60.752  13.704  1.00  0.00     0.084 A 
HETATM    3  N5  UNL     1      28.823  59.517  13.889  1.00  0.00    -0.338 N 
ATOM      4  H5  UNL     1      29.148  58.751  13.300  1.00  0.00     0.167 HD
HETATM    5  C10 UNL     1      27.885  59.251  14.770  1.00  0.00     0.138 A 
HETATM    6  N6  UNL     1      27.414  58.000  14.841  1.00  0.00    -0.174 N 
ATOM      7  H6  UNL     1      27.787  57.281  14.222  1.00  0.00     0.186 HD
HETATM    8  C11 UNL     1      26.452  57.689  15.726  1.00  0.00     0.699 A 
HETATM    9  N9  UNL     1      25.997  58.660  16.513  1.00  0.00    -0.175 N 
ATOM     10  H9  UNL     1      25.264  58.430  17.185  1.00  0.00     0.186 HD
HETATM   11  C12 UNL     1      26.449  59.945  16.474  1.00  0.00     0.131 A 
HETATM   12  N10 UNL     1      25.958  60.827  17.248  1.00  0.00    -0.384 N 
ATOM     13 1H10 UNL     1      26.297  61.790  17.219  1.00  0.00     0.157 HD
ATOM     14 2H10 UNL     1      25.228  60.569  17.911  1.00  0.00     0.157 HD
HETATM   15  C13 UNL     1      27.439  60.295  15.576  1.00  0.00     0.088 A 
HETATM   16  C14 UNL     1      27.964  61.566  15.452  1.00  0.00     0.149 A 
ENDROOT
BRANCH   2  17
HETATM   17  C7  UNL     1      30.377  60.808  12.618  1.00  0.00     0.087 A 
HETATM   18  S2  UNL     1      30.245  61.410  11.035  1.00  0.00    -0.048 SA
HETATM   19  C8  UNL     1      31.831  61.098  10.504  1.00  0.00     0.144 A 
HETATM   20  N3  UNL     1      32.402  60.539  11.575  1.00  0.00    -0.317 N 
HETATM   21  C9  UNL     1      31.688  60.384  12.653  1.00  0.00     0.195 A 
ATOM     22  H3  UNL     1      33.377  60.241  11.549  1.00  0.00     0.169 HD
BRANCH  19  23
HETATM   23  N2  UNL     1      32.396  61.335   9.335  1.00  0.00    -0.380 N 
ATOM     24  H22 UNL     1      32.209  62.119   8.711  1.00  0.00     0.158 HD
ATOM     25  H21 UNL     1      33.107  60.805   8.832  1.00  0.00     0.158 HD
ENDBRANCH  19  23
BRANCH  21  26
HETATM   26  N4  UNL     1      32.231  59.828  13.887  1.00  0.00    -0.096 N 
HETATM   27  O4  UNL     1      32.656  60.525  14.803  1.00  0.00    -0.530 OA
HETATM   28  O5  UNL     1      32.301  58.462  14.072  1.00  0.00    -0.530 OA
ENDBRANCH  21  26
ENDBRANCH   2  17
BRANCH   1  29
HETATM   29  N1  UNL     1      29.587  63.052  14.453  1.00  0.00    -0.376 N 
BRANCH  29  30
HETATM   30  C2  UNL     1      29.018  64.145  13.734  1.00  0.00     0.118 C 
HETATM   31  C1  UNL     1      29.838  64.766  12.663  1.00  0.00     0.026 C 
ENDBRANCH  29  30
BRANCH  29  32
HETATM   32  C3  UNL     1      30.803  63.314  15.233  1.00  0.00     0.140 C 
BRANCH  32  33
HETATM   33  C4  UNL     1      30.651  64.346  16.296  1.00  0.00     0.185 C 
BRANCH  33  34
HETATM   34  S1  UNL     1      31.740  63.918  17.672  1.00  0.00     0.103 S 
HETATM   35  O1  UNL     1      30.865  63.379  18.751  1.00  0.00    -0.595 OA
HETATM   36  O2  UNL     1      32.529  65.121  18.094  1.00  0.00    -0.595 OA
HETATM   37  O3  UNL     1      32.814  62.764  17.108  1.00  0.00    -0.595 OA
ENDBRANCH  33  34
ENDBRANCH  32  33
ENDBRANCH  29  32
ENDBRANCH   1  29
BRANCH  16  38
HETATM   38  N11 UNL     1      27.510  62.578  16.311  1.00  0.00    -0.112 N 
HETATM   39  O6  UNL     1      26.631  63.422  16.082  1.00  0.00    -0.532 OA
HETATM   40  O7  UNL     1      28.075  62.659  17.587  1.00  0.00    -0.532 OA
ENDBRANCH  16  38
BRANCH   8  41
HETATM   41  N7  UNL     1      26.042  56.469  15.750  1.00  0.00    -0.138 N 
ATOM     42  H7  UNL     1      25.653  56.085  14.889  1.00  0.00     0.205 HD
BRANCH  41  43
HETATM   43  N8  UNL     1      26.091  55.636  16.863  1.00  0.00    -0.331 N 
ATOM     44  H82 UNL     1      26.992  55.206  17.070  1.00  0.00     0.177 HD
ATOM     45  H81 UNL     1      25.299  55.432  17.473  1.00  0.00     0.177 HD
ENDBRANCH  41  43
ENDBRANCH   8  41
TORSDOF 11
ENDMDL
