MODEL 1
REMARK VINA RESULT: -4.630823503      0.000      0.000
REMARK  7 active torsions:
REMARK  status: ('A' for Active; 'I' for Inactive)
REMARK    1  A    between atoms: C3_4  and  C4_5 
REMARK    2  A    between atoms: C7_9  and  C8_10 
REMARK    3  A    between atoms: C8_10  and  O2_11 
REMARK    4  A    between atoms: C8_10  and  C9_13 
REMARK    5  A    between atoms: C9_13  and  O3_14 
REMARK    6  A    between atoms: C10_16  and  O4_17 
REMARK    7  A    between atoms: C11_19  and  N2_20 
REMARK       I    between atoms: N2_20  and  C12_22 
ROOT
HETATM    1  C1  UNL     1       7.723 -14.333  13.957  1.00  0.00     0.221 C 
HETATM    2  N1  UNL     1       7.028 -13.457  14.278  1.00  0.00    -0.461 NA
HETATM    3  C2  UNL     1       6.184 -12.365  14.653  1.00  0.00     0.219 C 
HETATM    4  C3  UNL     1       4.754 -12.667  14.350  1.00  0.00     0.188 C 
HETATM    5  O1  UNL     1       4.584 -12.766  12.987  1.00  0.00    -0.368 OA
HETATM    6  C7  UNL     1       4.640 -11.489  12.378  1.00  0.00     0.184 C 
HETATM    7  C10 UNL     1       5.341 -10.470  13.212  1.00  0.00     0.175 C 
HETATM    8  C11 UNL     1       6.555 -11.161  13.807  1.00  0.00     0.155 C 
ENDROOT
BRANCH   4   9
HETATM    9  C4  UNL     1       4.142 -13.744  15.142  1.00  0.00    -0.061 C 
HETATM   10  C5  UNL     1       3.946 -13.742  16.437  1.00  0.00     0.016 C 
HETATM   11  C6  UNL     1       3.677 -14.981  14.402  1.00  0.00     0.045 C 
ENDBRANCH   4   9
BRANCH   8  12
HETATM   12  N2  UNL     1       7.418 -10.248  14.508  1.00  0.00    -0.340 N 
HETATM   13  C12 UNL     1       8.646  -9.810  13.940  1.00  0.00     0.296 C 
HETATM   14  O5  UNL     1       8.981 -10.240  12.791  1.00  0.00    -0.258 OA
HETATM   15  C13 UNL     1       9.531  -8.912  14.588  1.00  0.00    -0.017 C 
HETATM   16  C14 UNL     1      10.276  -8.166  15.149  1.00  0.00     0.022 C 
ATOM     17  H2  UNL     1       7.143  -9.907  15.430  1.00  0.00     0.164 HD
ENDBRANCH   8  12
BRANCH   7  18
HETATM   18  O4  UNL     1       5.895  -9.470  12.371  1.00  0.00    -0.391 OA
ATOM     19  H4  UNL     1       5.286  -9.273  11.668  1.00  0.00     0.210 HD
ENDBRANCH   7  18
BRANCH   6  20
HETATM   20  C8  UNL     1       3.273 -11.072  11.899  1.00  0.00     0.173 C 
BRANCH  20  21
HETATM   21  O2  UNL     1       2.868  -9.943  12.571  1.00  0.00    -0.391 OA
ATOM     22  H2  UNL     1       2.231 -10.175  13.236  1.00  0.00     0.210 HD
ENDBRANCH  20  21
BRANCH  20  23
HETATM   23  C9  UNL     1       3.249 -10.859  10.409  1.00  0.00     0.198 C 
BRANCH  23  24
HETATM   24  O3  UNL     1       3.970  -9.724  10.032  1.00  0.00    -0.398 OA
ATOM     25  H3  UNL     1       4.247  -9.764   9.124  1.00  0.00     0.209 HD
ENDBRANCH  23  24
ENDBRANCH  20  23
ENDBRANCH   6  20
TORSDOF 7
ENDMDL
MODEL 2
REMARK VINA RESULT: -4.422222142      1.777      5.265
REMARK  7 active torsions:
REMARK  status: ('A' for Active; 'I' for Inactive)
REMARK    1  A    between atoms: C3_4  and  C4_5 
REMARK    2  A    between atoms: C7_9  and  C8_10 
REMARK    3  A    between atoms: C8_10  and  O2_11 
REMARK    4  A    between atoms: C8_10  and  C9_13 
REMARK    5  A    between atoms: C9_13  and  O3_14 
REMARK    6  A    between atoms: C10_16  and  O4_17 
REMARK    7  A    between atoms: C11_19  and  N2_20 
REMARK       I    between atoms: N2_20  and  C12_22 
ROOT
HETATM    1  C1  UNL     1       3.862 -13.539  15.035  1.00  0.00     0.221 C 
HETATM    2  N1  UNL     1       4.718 -13.310  14.282  1.00  0.00    -0.461 NA
HETATM    3  C2  UNL     1       5.762 -13.004  13.353  1.00  0.00     0.219 C 
HETATM    4  C3  UNL     1       7.098 -13.049  14.018  1.00  0.00     0.188 C 
HETATM    5  O1  UNL     1       7.180 -12.043  14.953  1.00  0.00    -0.368 OA
HETATM    6  C7  UNL     1       7.324 -10.782  14.326  1.00  0.00     0.184 C 
HETATM    7  C10 UNL     1       6.859 -10.773  12.909  1.00  0.00     0.175 C 
HETATM    8  C11 UNL     1       5.571 -11.578  12.873  1.00  0.00     0.155 C 
ENDROOT
BRANCH   4   9
HETATM    9  C4  UNL     1       7.545 -14.374  14.474  1.00  0.00    -0.061 C 
HETATM   10  C5  UNL     1       7.815 -14.720  15.708  1.00  0.00     0.016 C 
HETATM   11  C6  UNL     1       7.704 -15.459  13.430  1.00  0.00     0.045 C 
ENDBRANCH   4   9
BRANCH   8  12
HETATM   12  N2  UNL     1       4.923 -11.517  11.590  1.00  0.00    -0.340 N 
HETATM   13  C12 UNL     1       3.556 -11.139  11.471  1.00  0.00     0.296 C 
HETATM   14  O5  UNL     1       2.903 -10.852  12.524  1.00  0.00    -0.258 OA
HETATM   15  C13 UNL     1       2.871 -11.063  10.233  1.00  0.00    -0.017 C 
HETATM   16  C14 UNL     1       2.298 -11.016   9.186  1.00  0.00     0.022 C 
ATOM     17  H2  UNL     1       5.452 -11.749  10.749  1.00  0.00     0.164 HD
ENDBRANCH   8  12
BRANCH   7  18
HETATM   18  O4  UNL     1       6.452  -9.461  12.552  1.00  0.00    -0.391 OA
ATOM     19  H4  UNL     1       5.597  -9.282  12.924  1.00  0.00     0.210 HD
ENDBRANCH   7  18
BRANCH   6  20
HETATM   20  C8  UNL     1       8.718 -10.246  14.530  1.00  0.00     0.173 C 
BRANCH  20  21
HETATM   21  O2  UNL     1       9.159  -9.642  13.377  1.00  0.00    -0.391 OA
ATOM     22  H2  UNL     1       9.778  -8.954  13.591  1.00  0.00     0.210 HD
ENDBRANCH  20  21
BRANCH  20  23
HETATM   23  C9  UNL     1       8.783  -9.302  15.701  1.00  0.00     0.198 C 
BRANCH  23  24
HETATM   24  O3  UNL     1       9.957  -9.464  16.438  1.00  0.00    -0.398 OA
ATOM     25  H3  UNL     1      10.704  -9.060  16.012  1.00  0.00     0.209 HD
ENDBRANCH  23  24
ENDBRANCH  20  23
ENDBRANCH   6  20
TORSDOF 7
ENDMDL
MODEL 3
REMARK VINA RESULT: -4.393667730      1.187      1.217
REMARK  7 active torsions:
REMARK  status: ('A' for Active; 'I' for Inactive)
REMARK    1  A    between atoms: C3_4  and  C4_5 
REMARK    2  A    between atoms: C7_9  and  C8_10 
REMARK    3  A    between atoms: C8_10  and  O2_11 
REMARK    4  A    between atoms: C8_10  and  C9_13 
REMARK    5  A    between atoms: C9_13  and  O3_14 
REMARK    6  A    between atoms: C10_16  and  O4_17 
REMARK    7  A    between atoms: C11_19  and  N2_20 
REMARK       I    between atoms: N2_20  and  C12_22 
ROOT
HETATM    1  C1  UNL     1       7.862 -14.618  12.732  1.00  0.00     0.221 C 
HETATM    2  N1  UNL     1       7.523 -13.693  13.349  1.00  0.00    -0.461 NA
HETATM    3  C2  UNL     1       7.109 -12.538  14.086  1.00  0.00     0.219 C 
HETATM    4  C3  UNL     1       5.661 -12.622  14.440  1.00  0.00     0.188 C 
HETATM    5  O1  UNL     1       4.904 -12.572  13.292  1.00  0.00    -0.368 OA
HETATM    6  C7  UNL     1       4.891 -11.264  12.753  1.00  0.00     0.184 C 
HETATM    7  C10 UNL     1       6.035 -10.426  13.214  1.00  0.00     0.175 C 
HETATM    8  C11 UNL     1       7.261 -11.321  13.193  1.00  0.00     0.155 C 
ENDROOT
BRANCH   4   9
HETATM    9  C4  UNL     1       5.293 -13.678  15.394  1.00  0.00    -0.061 C 
HETATM   10  C5  UNL     1       5.680 -13.768  16.642  1.00  0.00     0.016 C 
HETATM   11  C6  UNL     1       4.365 -14.772  14.906  1.00  0.00     0.045 C 
ENDBRANCH   4   9
BRANCH   8  12
HETATM   12  N2  UNL     1       8.475 -10.596  13.462  1.00  0.00    -0.340 N 
HETATM   13  C12 UNL     1       8.671  -9.920  14.698  1.00  0.00     0.296 C 
HETATM   14  O5  UNL     1       7.751  -9.961  15.575  1.00  0.00    -0.258 OA
HETATM   15  C13 UNL     1       9.846  -9.192  15.013  1.00  0.00    -0.017 C 
HETATM   16  C14 UNL     1      10.834  -8.570  15.263  1.00  0.00     0.022 C 
ATOM     17  H2  UNL     1       9.209 -10.567  12.754  1.00  0.00     0.164 HD
ENDBRANCH   8  12
BRANCH   7  18
HETATM   18  O4  UNL     1       6.320  -9.434  12.240  1.00  0.00    -0.391 OA
ATOM     19  H4  UNL     1       6.909  -8.786  12.610  1.00  0.00     0.210 HD
ENDBRANCH   7  18
BRANCH   6  20
HETATM   20  C8  UNL     1       3.536 -10.629  12.939  1.00  0.00     0.173 C 
BRANCH  20  21
HETATM   21  O2  UNL     1       3.649  -9.512  13.732  1.00  0.00    -0.391 OA
ATOM     22  H2  UNL     1       3.506  -8.731  13.211  1.00  0.00     0.210 HD
ENDBRANCH  20  21
BRANCH  20  23
HETATM   23  C9  UNL     1       2.894 -10.297  11.619  1.00  0.00     0.198 C 
BRANCH  23  24
HETATM   24  O3  UNL     1       3.837 -10.146  10.601  1.00  0.00    -0.398 OA
ATOM     25  H3  UNL     1       3.876  -9.253  10.281  1.00  0.00     0.209 HD
ENDBRANCH  23  24
ENDBRANCH  20  23
ENDBRANCH   6  20
TORSDOF 7
ENDMDL
MODEL 4
REMARK VINA RESULT: -4.283234915      2.522      4.148
REMARK  7 active torsions:
REMARK  status: ('A' for Active; 'I' for Inactive)
REMARK    1  A    between atoms: C3_4  and  C4_5 
REMARK    2  A    between atoms: C7_9  and  C8_10 
REMARK    3  A    between atoms: C8_10  and  O2_11 
REMARK    4  A    between atoms: C8_10  and  C9_13 
REMARK    5  A    between atoms: C9_13  and  O3_14 
REMARK    6  A    between atoms: C10_16  and  O4_17 
REMARK    7  A    between atoms: C11_19  and  N2_20 
REMARK       I    between atoms: N2_20  and  C12_22 
ROOT
HETATM    1  C1  UNL     1       8.160 -10.425  14.542  1.00  0.00     0.221 C 
HETATM    2  N1  UNL     1       7.175 -11.021  14.374  1.00  0.00    -0.461 NA
HETATM    3  C2  UNL     1       5.960 -11.742  14.144  1.00  0.00     0.219 C 
HETATM    4  C3  UNL     1       6.233 -13.194  13.936  1.00  0.00     0.188 C 
HETATM    5  O1  UNL     1       6.947 -13.365  12.771  1.00  0.00    -0.368 OA
HETATM    6  C7  UNL     1       6.120 -13.164  11.639  1.00  0.00     0.184 C 
HETATM    7  C10 UNL     1       4.900 -12.360  11.937  1.00  0.00     0.175 C 
HETATM    8  C11 UNL     1       5.340 -11.233  12.856  1.00  0.00     0.155 C 
ENDROOT
BRANCH   4   9
HETATM    9  C4  UNL     1       6.746 -13.927  15.103  1.00  0.00    -0.061 C 
HETATM   10  C5  UNL     1       7.916 -14.505  15.205  1.00  0.00     0.016 C 
HETATM   11  C6  UNL     1       5.849 -14.023  16.319  1.00  0.00     0.045 C 
ENDBRANCH   4   9
BRANCH   8  12
HETATM   12  N2  UNL     1       4.290 -10.279  13.097  1.00  0.00    -0.340 N 
HETATM   13  C12 UNL     1       4.254  -9.033  12.411  1.00  0.00     0.296 C 
HETATM   14  O5  UNL     1       5.172  -8.765  11.572  1.00  0.00    -0.258 OA
HETATM   15  C13 UNL     1       3.243  -8.060  12.611  1.00  0.00    -0.017 C 
HETATM   16  C14 UNL     1       2.395  -7.241  12.797  1.00  0.00     0.022 C 
ATOM     17  H2  UNL     1       3.557 -10.500  13.772  1.00  0.00     0.164 HD
ENDBRANCH   8  12
BRANCH   7  18
HETATM   18  O4  UNL     1       4.473 -11.692  10.760  1.00  0.00    -0.391 OA
ATOM     19  H4  UNL     1       3.524 -11.638  10.753  1.00  0.00     0.210 HD
ENDBRANCH   7  18
BRANCH   6  20
HETATM   20  C8  UNL     1       5.851 -14.473  10.942  1.00  0.00     0.173 C 
BRANCH  20  21
HETATM   21  O2  UNL     1       4.585 -14.464  10.406  1.00  0.00    -0.391 OA
ATOM     22  H2  UNL     1       3.952 -14.701  11.074  1.00  0.00     0.210 HD
ENDBRANCH  20  21
BRANCH  20  23
HETATM   23  C9  UNL     1       6.887 -14.763   9.888  1.00  0.00     0.198 C 
BRANCH  23  24
HETATM   24  O3  UNL     1       7.934 -13.839   9.916  1.00  0.00    -0.398 OA
ATOM     25  H3  UNL     1       8.781 -14.264   9.963  1.00  0.00     0.209 HD
ENDBRANCH  23  24
ENDBRANCH  20  23
ENDBRANCH   6  20
TORSDOF 7
ENDMDL
MODEL 5
REMARK VINA RESULT: -4.244451588      1.835      2.680
REMARK  7 active torsions:
REMARK  status: ('A' for Active; 'I' for Inactive)
REMARK    1  A    between atoms: C3_4  and  C4_5 
REMARK    2  A    between atoms: C7_9  and  C8_10 
REMARK    3  A    between atoms: C8_10  and  O2_11 
REMARK    4  A    between atoms: C8_10  and  C9_13 
REMARK    5  A    between atoms: C9_13  and  O3_14 
REMARK    6  A    between atoms: C10_16  and  O4_17 
REMARK    7  A    between atoms: C11_19  and  N2_20 
REMARK       I    between atoms: N2_20  and  C12_22 
ROOT
HETATM    1  C1  UNL     1       7.718 -13.588  10.841  1.00  0.00     0.221 C 
HETATM    2  N1  UNL     1       7.494 -13.086  11.866  1.00  0.00    -0.461 NA
HETATM    3  C2  UNL     1       7.208 -12.449  13.114  1.00  0.00     0.219 C 
HETATM    4  C3  UNL     1       6.179 -13.213  13.880  1.00  0.00     0.188 C 
HETATM    5  O1  UNL     1       4.981 -13.174  13.204  1.00  0.00    -0.368 OA
HETATM    6  C7  UNL     1       4.383 -11.895  13.311  1.00  0.00     0.184 C 
HETATM    7  C10 UNL     1       5.357 -10.818  13.652  1.00  0.00     0.175 C 
HETATM    8  C11 UNL     1       6.604 -11.087  12.828  1.00  0.00     0.155 C 
ENDROOT
BRANCH   4   9
HETATM    9  C4  UNL     1       6.590 -14.540  14.361  1.00  0.00    -0.061 C 
HETATM   10  C5  UNL     1       6.031 -15.685  14.056  1.00  0.00     0.016 C 
HETATM   11  C6  UNL     1       7.781 -14.611  15.294  1.00  0.00     0.045 C 
ENDBRANCH   4   9
BRANCH   8  12
HETATM   12  N2  UNL     1       7.572 -10.028  12.936  1.00  0.00    -0.340 N 
HETATM   13  C12 UNL     1       8.259  -9.779  14.156  1.00  0.00     0.296 C 
HETATM   14  O5  UNL     1       8.007 -10.511  15.166  1.00  0.00    -0.258 OA
HETATM   15  C13 UNL     1       9.221  -8.750  14.315  1.00  0.00    -0.017 C 
HETATM   16  C14 UNL     1      10.020  -7.871  14.443  1.00  0.00     0.022 C 
ATOM     17  H2  UNL     1       7.769  -9.444  12.122  1.00  0.00     0.164 HD
ENDBRANCH   8  12
BRANCH   7  18
HETATM   18  O4  UNL     1       4.882  -9.576  13.156  1.00  0.00    -0.391 OA
ATOM     19  H4  UNL     1       4.765  -8.970  13.879  1.00  0.00     0.210 HD
ENDBRANCH   7  18
BRANCH   6  20
HETATM   20  C8  UNL     1       3.172 -11.950  14.207  1.00  0.00     0.173 C 
BRANCH  20  21
HETATM   21  O2  UNL     1       2.341 -10.890  13.933  1.00  0.00    -0.391 OA
ATOM     22  H2  UNL     1       1.604 -11.184  13.411  1.00  0.00     0.210 HD
ENDBRANCH  20  21
BRANCH  20  23
HETATM   23  C9  UNL     1       2.445 -13.261  14.075  1.00  0.00     0.198 C 
BRANCH  23  24
HETATM   24  O3  UNL     1       2.888 -14.201  15.008  1.00  0.00    -0.398 OA
ATOM     25  H3  UNL     1       3.687 -14.630  14.728  1.00  0.00     0.209 HD
ENDBRANCH  23  24
ENDBRANCH  20  23
ENDBRANCH   6  20
TORSDOF 7
ENDMDL
