MODEL 1
REMARK VINA RESULT: -7.054161517      0.000      0.000
REMARK  10 active torsions:
REMARK  status: ('A' for Active; 'I' for Inactive)
REMARK    1  A    between atoms: O1_2  and  C2_3 
REMARK    2  A    between atoms: C2_3  and  C3_5 
REMARK    3  A    between atoms: C3_5  and  C4_6 
REMARK    4  A    between atoms: C3_5  and  C7_11 
REMARK    5  A    between atoms: C4_6  and  O3_7 
REMARK    6  A    between atoms: O3_7  and  C5_8 
REMARK       I    between atoms: N1_14  and  C10_15 
REMARK    7  A    between atoms: C10_15  and  C11_17 
REMARK    8  A    between atoms: C11_17  and  C12_18 
REMARK    9  A    between atoms: C16_22  and  C17_23 
REMARK   10  A    between atoms: C17_23  and  C20_26 
ROOT
HETATM    1  C7  UNL     1      62.027  31.122  41.454  1.00  0.00    -0.065 C 
HETATM    2  C8  UNL     1      60.734  31.317  41.480  1.00  0.00    -0.003 C 
HETATM    3  C9  UNL     1      59.885  30.210  42.071  1.00  0.00     0.153 C 
HETATM    4  N1  UNL     1      60.652  29.619  43.163  1.00  0.00    -0.343 N 
HETATM    5  C10 UNL     1      60.112  29.678  44.453  1.00  0.00     0.221 C 
HETATM    6  O5  UNL     1      60.786  29.193  45.389  1.00  0.00    -0.273 OA
HETATM    7  C16 UNL     1      61.916  29.035  42.860  1.00  0.00     0.104 C 
HETATM    8  C21 UNL     1      62.731  29.894  41.918  1.00  0.00     0.061 C 
ENDROOT
BRANCH   1   9
HETATM    9  C3  UNL     1      62.916  32.174  40.885  1.00  0.00     0.138 C 
BRANCH   9  10
HETATM   10  C2  UNL     1      62.295  33.508  41.231  1.00  0.00     0.268 C 
HETATM   11  O2  UNL     1      61.899  33.691  42.392  1.00  0.00    -0.264 OA
BRANCH  10  12
HETATM   12  O1  UNL     1      62.165  34.502  40.283  1.00  0.00    -0.326 OA
HETATM   13  C1  UNL     1      63.199  35.416  39.987  1.00  0.00     0.213 C 
ENDBRANCH  10  12
ENDBRANCH   9  10
BRANCH   9  14
HETATM   14  C4  UNL     1      63.003  32.152  39.381  1.00  0.00     0.197 C 
BRANCH  14  15
HETATM   15  O3  UNL     1      64.302  32.170  38.873  1.00  0.00    -0.321 OA
BRANCH  15  16
HETATM   16  C5  UNL     1      64.685  32.558  37.604  1.00  0.00     0.254 C 
HETATM   17  C6  UNL     1      64.209  33.820  36.965  1.00  0.00     0.126 C 
HETATM   18  O4  UNL     1      65.467  31.809  36.970  1.00  0.00    -0.266 OA
ENDBRANCH  15  16
ENDBRANCH  14  15
ENDBRANCH   9  14
ENDBRANCH   1   9
BRANCH   7  19
HETATM   19  C17 UNL     1      61.899  27.610  42.384  1.00  0.00     0.005 C 
HETATM   20  C18 UNL     1      63.285  26.992  42.501  1.00  0.00     0.022 C 
HETATM   21  C19 UNL     1      61.652  27.689  40.864  1.00  0.00     0.022 C 
BRANCH  19  22
HETATM   22  C20 UNL     1      60.866  26.744  42.942  1.00  0.00     0.063 C 
HETATM   23  N2  UNL     1      59.796  26.343  42.416  1.00  0.00    -0.410 N 
ATOM     24  H22 UNL     1      59.645  26.680  41.465  1.00  0.00     0.155 HD
ATOM     25  H21 UNL     1      59.074  25.738  42.806  1.00  0.00     0.155 HD
ENDBRANCH  19  22
ENDBRANCH   7  19
BRANCH   5  26
HETATM   26  C11 UNL     1      58.811  30.276  44.738  1.00  0.00     0.111 C 
BRANCH  26  27
HETATM   27  C12 UNL     1      58.649  30.832  46.110  1.00  0.00    -0.043 C 
HETATM   28  C13 UNL     1      57.264  31.496  46.152  1.00  0.00     0.015 C 
HETATM   29  C14 UNL     1      58.592  29.727  47.151  1.00  0.00     0.015 C 
HETATM   30  C15 UNL     1      59.639  31.890  46.481  1.00  0.00     0.015 C 
ENDBRANCH  26  27
ENDBRANCH   5  26
TORSDOF 10
ENDMDL
MODEL 2
REMARK VINA RESULT: -6.970896477      1.610      4.694
REMARK  10 active torsions:
REMARK  status: ('A' for Active; 'I' for Inactive)
REMARK    1  A    between atoms: O1_2  and  C2_3 
REMARK    2  A    between atoms: C2_3  and  C3_5 
REMARK    3  A    between atoms: C3_5  and  C4_6 
REMARK    4  A    between atoms: C3_5  and  C7_11 
REMARK    5  A    between atoms: C4_6  and  O3_7 
REMARK    6  A    between atoms: O3_7  and  C5_8 
REMARK       I    between atoms: N1_14  and  C10_15 
REMARK    7  A    between atoms: C10_15  and  C11_17 
REMARK    8  A    between atoms: C11_17  and  C12_18 
REMARK    9  A    between atoms: C16_22  and  C17_23 
REMARK   10  A    between atoms: C17_23  and  C20_26 
ROOT
HETATM    1  C7  UNL     1      61.765  31.576  41.864  1.00  0.00    -0.065 C 
HETATM    2  C8  UNL     1      62.760  30.779  42.157  1.00  0.00    -0.003 C 
HETATM    3  C9  UNL     1      62.573  29.855  43.344  1.00  0.00     0.153 C 
HETATM    4  N1  UNL     1      61.167  29.461  43.362  1.00  0.00    -0.343 N 
HETATM    5  C10 UNL     1      60.865  28.101  43.229  1.00  0.00     0.221 C 
HETATM    6  O5  UNL     1      59.658  27.772  43.219  1.00  0.00    -0.273 OA
HETATM    7  C16 UNL     1      60.183  30.483  43.492  1.00  0.00     0.104 C 
HETATM    8  C21 UNL     1      60.484  31.681  42.617  1.00  0.00     0.061 C 
ENDROOT
BRANCH   1   9
HETATM    9  C3  UNL     1      61.888  32.509  40.709  1.00  0.00     0.138 C 
BRANCH   9  10
HETATM   10  C2  UNL     1      62.688  31.788  39.647  1.00  0.00     0.268 C 
HETATM   11  O2  UNL     1      62.179  30.803  39.093  1.00  0.00    -0.264 OA
BRANCH  10  12
HETATM   12  O1  UNL     1      63.955  32.210  39.300  1.00  0.00    -0.326 OA
HETATM   13  C1  UNL     1      64.353  32.414  37.961  1.00  0.00     0.213 C 
ENDBRANCH  10  12
ENDBRANCH   9  10
BRANCH   9  14
HETATM   14  C4  UNL     1      62.668  33.761  41.015  1.00  0.00     0.197 C 
BRANCH  14  15
HETATM   15  O3  UNL     1      62.548  34.770  40.059  1.00  0.00    -0.321 OA
BRANCH  15  16
HETATM   16  C5  UNL     1      63.581  35.436  39.430  1.00  0.00     0.254 C 
HETATM   17  C6  UNL     1      64.937  35.584  40.037  1.00  0.00     0.126 C 
HETATM   18  O4  UNL     1      63.360  35.934  38.300  1.00  0.00    -0.266 OA
ENDBRANCH  15  16
ENDBRANCH  14  15
ENDBRANCH   9  14
ENDBRANCH   1   9
BRANCH   7  19
HETATM   19  C17 UNL     1      59.857  30.926  44.889  1.00  0.00     0.005 C 
HETATM   20  C18 UNL     1      60.289  29.871  45.898  1.00  0.00     0.022 C 
HETATM   21  C19 UNL     1      58.318  30.916  44.974  1.00  0.00     0.022 C 
BRANCH  19  22
HETATM   22  C20 UNL     1      60.300  32.263  45.273  1.00  0.00     0.063 C 
HETATM   23  N2  UNL     1      60.291  32.807  46.407  1.00  0.00    -0.410 N 
ATOM     24  H22 UNL     1      59.918  32.217  47.152  1.00  0.00     0.155 HD
ATOM     25  H21 UNL     1      60.600  33.741  46.676  1.00  0.00     0.155 HD
ENDBRANCH  19  22
ENDBRANCH   7  19
BRANCH   5  26
HETATM   26  C11 UNL     1      61.892  27.071  43.104  1.00  0.00     0.111 C 
BRANCH  26  27
HETATM   27  C12 UNL     1      61.865  26.290  41.837  1.00  0.00    -0.043 C 
HETATM   28  C13 UNL     1      63.303  25.807  41.590  1.00  0.00     0.015 C 
HETATM   29  C14 UNL     1      61.041  25.023  41.986  1.00  0.00     0.015 C 
HETATM   30  C15 UNL     1      61.465  27.070  40.625  1.00  0.00     0.015 C 
ENDBRANCH  26  27
ENDBRANCH   5  26
TORSDOF 10
ENDMDL
MODEL 3
REMARK VINA RESULT: -6.932234222      6.439     10.066
REMARK  10 active torsions:
REMARK  status: ('A' for Active; 'I' for Inactive)
REMARK    1  A    between atoms: O1_2  and  C2_3 
REMARK    2  A    between atoms: C2_3  and  C3_5 
REMARK    3  A    between atoms: C3_5  and  C4_6 
REMARK    4  A    between atoms: C3_5  and  C7_11 
REMARK    5  A    between atoms: C4_6  and  O3_7 
REMARK    6  A    between atoms: O3_7  and  C5_8 
REMARK       I    between atoms: N1_14  and  C10_15 
REMARK    7  A    between atoms: C10_15  and  C11_17 
REMARK    8  A    between atoms: C11_17  and  C12_18 
REMARK    9  A    between atoms: C16_22  and  C17_23 
REMARK   10  A    between atoms: C17_23  and  C20_26 
ROOT
HETATM    1  C7  UNL     1      61.764  22.464  41.367  1.00  0.00    -0.065 C 
HETATM    2  C8  UNL     1      63.060  22.287  41.395  1.00  0.00    -0.003 C 
HETATM    3  C9  UNL     1      63.890  23.395  42.011  1.00  0.00     0.153 C 
HETATM    4  N1  UNL     1      63.109  23.955  43.110  1.00  0.00    -0.343 N 
HETATM    5  C10 UNL     1      63.645  23.879  44.401  1.00  0.00     0.221 C 
HETATM    6  O5  UNL     1      62.960  24.337  45.343  1.00  0.00    -0.273 OA
HETATM    7  C16 UNL     1      61.839  24.526  42.812  1.00  0.00     0.104 C 
HETATM    8  C21 UNL     1      61.040  23.673  41.850  1.00  0.00     0.061 C 
ENDROOT
BRANCH   1   9
HETATM    9  C3  UNL     1      60.893  21.410  40.774  1.00  0.00     0.138 C 
BRANCH   9  10
HETATM   10  C2  UNL     1      61.534  20.079  41.095  1.00  0.00     0.268 C 
HETATM   11  O2  UNL     1      61.934  19.881  42.252  1.00  0.00    -0.264 OA
BRANCH  10  12
HETATM   12  O1  UNL     1      61.675  19.104  40.130  1.00  0.00    -0.326 OA
HETATM   13  C1  UNL     1      60.665  18.160  39.843  1.00  0.00     0.213 C 
ENDBRANCH  10  12
ENDBRANCH   9  10
BRANCH   9  14
HETATM   14  C4  UNL     1      60.810  21.461  39.271  1.00  0.00     0.197 C 
BRANCH  14  15
HETATM   15  O3  UNL     1      59.513  21.419  38.758  1.00  0.00    -0.321 OA
BRANCH  15  16
HETATM   16  C5  UNL     1      59.134  20.950  37.515  1.00  0.00     0.254 C 
HETATM   17  C6  UNL     1      59.933  19.948  36.749  1.00  0.00     0.126 C 
HETATM   18  O4  UNL     1      58.070  21.392  37.019  1.00  0.00    -0.266 OA
ENDBRANCH  15  16
ENDBRANCH  14  15
ENDBRANCH   9  14
ENDBRANCH   1   9
BRANCH   7  19
HETATM   19  C17 UNL     1      61.838  25.959  42.362  1.00  0.00     0.005 C 
HETATM   20  C18 UNL     1      60.445  26.559  42.495  1.00  0.00     0.022 C 
HETATM   21  C19 UNL     1      62.080  25.912  40.840  1.00  0.00     0.022 C 
BRANCH  19  22
HETATM   22  C20 UNL     1      62.862  26.827  42.933  1.00  0.00     0.063 C 
HETATM   23  N2  UNL     1      63.982  27.151  42.461  1.00  0.00    -0.410 N 
ATOM     24  H22 UNL     1      64.187  26.742  41.549  1.00  0.00     0.155 HD
ATOM     25  H21 UNL     1      64.698  27.758  42.860  1.00  0.00     0.155 HD
ENDBRANCH  19  22
ENDBRANCH   7  19
BRANCH   5  26
HETATM   26  C11 UNL     1      64.953  23.295  44.682  1.00  0.00     0.111 C 
BRANCH  26  27
HETATM   27  C12 UNL     1      65.123  22.733  46.050  1.00  0.00    -0.043 C 
HETATM   28  C13 UNL     1      66.528  22.112  46.097  1.00  0.00     0.015 C 
HETATM   29  C14 UNL     1      65.140  23.832  47.100  1.00  0.00     0.015 C 
HETATM   30  C15 UNL     1      64.164  21.643  46.407  1.00  0.00     0.015 C 
ENDBRANCH  26  27
ENDBRANCH   5  26
TORSDOF 10
ENDMDL
MODEL 4
REMARK VINA RESULT: -6.821699576      6.517      9.877
REMARK  10 active torsions:
REMARK  status: ('A' for Active; 'I' for Inactive)
REMARK    1  A    between atoms: O1_2  and  C2_3 
REMARK    2  A    between atoms: C2_3  and  C3_5 
REMARK    3  A    between atoms: C3_5  and  C4_6 
REMARK    4  A    between atoms: C3_5  and  C7_11 
REMARK    5  A    between atoms: C4_6  and  O3_7 
REMARK    6  A    between atoms: O3_7  and  C5_8 
REMARK       I    between atoms: N1_14  and  C10_15 
REMARK    7  A    between atoms: C10_15  and  C11_17 
REMARK    8  A    between atoms: C11_17  and  C12_18 
REMARK    9  A    between atoms: C16_22  and  C17_23 
REMARK   10  A    between atoms: C17_23  and  C20_26 
ROOT
HETATM    1  C7  UNL     1      62.060  21.984  41.820  1.00  0.00    -0.065 C 
HETATM    2  C8  UNL     1      61.059  22.769  42.122  1.00  0.00    -0.003 C 
HETATM    3  C9  UNL     1      61.239  23.679  43.321  1.00  0.00     0.153 C 
HETATM    4  N1  UNL     1      62.642  24.082  43.346  1.00  0.00    -0.343 N 
HETATM    5  C10 UNL     1      62.935  25.446  43.231  1.00  0.00     0.221 C 
HETATM    6  O5  UNL     1      64.140  25.784  43.226  1.00  0.00    -0.273 OA
HETATM    7  C16 UNL     1      63.634  23.066  43.463  1.00  0.00     0.104 C 
HETATM    8  C21 UNL     1      63.342  21.878  42.572  1.00  0.00     0.061 C 
ENDROOT
BRANCH   1   9
HETATM    9  C3  UNL     1      61.945  21.066  40.652  1.00  0.00     0.138 C 
BRANCH   9  10
HETATM   10  C2  UNL     1      61.147  21.798  39.596  1.00  0.00     0.268 C 
HETATM   11  O2  UNL     1      61.650  22.799  39.065  1.00  0.00    -0.264 OA
BRANCH  10  12
HETATM   12  O1  UNL     1      59.888  21.369  39.228  1.00  0.00    -0.326 OA
HETATM   13  C1  UNL     1      59.515  21.156  37.884  1.00  0.00     0.213 C 
ENDBRANCH  10  12
ENDBRANCH   9  10
BRANCH   9  14
HETATM   14  C4  UNL     1      61.168  19.807  40.938  1.00  0.00     0.197 C 
BRANCH  14  15
HETATM   15  O3  UNL     1      61.304  18.807  39.975  1.00  0.00    -0.321 OA
BRANCH  15  16
HETATM   16  C5  UNL     1      60.281  18.127  39.344  1.00  0.00     0.254 C 
HETATM   17  C6  UNL     1      58.928  17.955  39.950  1.00  0.00     0.126 C 
HETATM   18  O4  UNL     1      60.511  17.638  38.212  1.00  0.00    -0.266 OA
ENDBRANCH  15  16
ENDBRANCH  14  15
ENDBRANCH   9  14
ENDBRANCH   1   9
BRANCH   7  19
HETATM   19  C17 UNL     1      63.962  22.607  44.854  1.00  0.00     0.005 C 
HETATM   20  C18 UNL     1      63.518  23.643  45.877  1.00  0.00     0.022 C 
HETATM   21  C19 UNL     1      65.501  22.630  44.942  1.00  0.00     0.022 C 
BRANCH  19  22
HETATM   22  C20 UNL     1      63.531  21.261  45.219  1.00  0.00     0.063 C 
HETATM   23  N2  UNL     1      63.503  20.716  46.353  1.00  0.00    -0.410 N 
ATOM     24  H22 UNL     1      63.831  21.313  47.113  1.00  0.00     0.155 HD
ATOM     25  H21 UNL     1      63.201  19.776  46.608  1.00  0.00     0.155 HD
ENDBRANCH  19  22
ENDBRANCH   7  19
BRANCH   5  26
HETATM   26  C11 UNL     1      61.901  26.471  43.119  1.00  0.00     0.111 C 
BRANCH  26  27
HETATM   27  C12 UNL     1      61.926  27.271  41.864  1.00  0.00    -0.043 C 
HETATM   28  C13 UNL     1      60.489  27.765  41.631  1.00  0.00     0.015 C 
HETATM   29  C14 UNL     1      62.757  28.532  42.030  1.00  0.00     0.015 C 
HETATM   30  C15 UNL     1      62.317  26.509  40.639  1.00  0.00     0.015 C 
ENDBRANCH  26  27
ENDBRANCH   5  26
TORSDOF 10
ENDMDL
MODEL 5
REMARK VINA RESULT: -6.695901200      6.251      9.910
REMARK  10 active torsions:
REMARK  status: ('A' for Active; 'I' for Inactive)
REMARK    1  A    between atoms: O1_2  and  C2_3 
REMARK    2  A    between atoms: C2_3  and  C3_5 
REMARK    3  A    between atoms: C3_5  and  C4_6 
REMARK    4  A    between atoms: C3_5  and  C7_11 
REMARK    5  A    between atoms: C4_6  and  O3_7 
REMARK    6  A    between atoms: O3_7  and  C5_8 
REMARK       I    between atoms: N1_14  and  C10_15 
REMARK    7  A    between atoms: C10_15  and  C11_17 
REMARK    8  A    between atoms: C11_17  and  C12_18 
REMARK    9  A    between atoms: C16_22  and  C17_23 
REMARK   10  A    between atoms: C17_23  and  C20_26 
ROOT
HETATM    1  C7  UNL     1      61.900  22.670  41.543  1.00  0.00    -0.065 C 
HETATM    2  C8  UNL     1      63.193  22.476  41.577  1.00  0.00    -0.003 C 
HETATM    3  C9  UNL     1      64.039  23.590  42.161  1.00  0.00     0.153 C 
HETATM    4  N1  UNL     1      63.266  24.192  43.243  1.00  0.00    -0.343 N 
HETATM    5  C10 UNL     1      63.801  24.145  44.536  1.00  0.00     0.221 C 
HETATM    6  O5  UNL     1      63.122  24.640  45.464  1.00  0.00    -0.273 OA
HETATM    7  C16 UNL     1      62.004  24.772  42.928  1.00  0.00     0.104 C 
HETATM    8  C21 UNL     1      61.194  23.903  41.991  1.00  0.00     0.061 C 
ENDROOT
BRANCH   1   9
HETATM    9  C3  UNL     1      61.014  21.613  40.981  1.00  0.00     0.138 C 
BRANCH   9  10
HETATM   10  C2  UNL     1      61.642  20.283  41.331  1.00  0.00     0.268 C 
HETATM   11  O2  UNL     1      61.952  20.070  42.512  1.00  0.00    -0.264 OA
BRANCH  10  12
HETATM   12  O1  UNL     1      61.869  19.325  40.365  1.00  0.00    -0.326 OA
HETATM   13  C1  UNL     1      60.977  18.259  40.119  1.00  0.00     0.213 C 
ENDBRANCH  10  12
ENDBRANCH   9  10
BRANCH   9  14
HETATM   14  C4  UNL     1      60.924  21.628  39.477  1.00  0.00     0.197 C 
BRANCH  14  15
HETATM   15  O3  UNL     1      59.644  21.405  38.968  1.00  0.00    -0.321 OA
BRANCH  15  16
HETATM   16  C5  UNL     1      59.322  21.058  37.671  1.00  0.00     0.254 C 
HETATM   17  C6  UNL     1      59.936  19.893  36.968  1.00  0.00     0.126 C 
HETATM   18  O4  UNL     1      58.475  21.760  37.067  1.00  0.00    -0.266 OA
ENDBRANCH  15  16
ENDBRANCH  14  15
ENDBRANCH   9  14
ENDBRANCH   1   9
BRANCH   7  19
HETATM   19  C17 UNL     1      62.023  26.192  42.437  1.00  0.00     0.005 C 
HETATM   20  C18 UNL     1      61.864  26.235  40.924  1.00  0.00     0.022 C 
HETATM   21  C19 UNL     1      63.462  26.689  42.677  1.00  0.00     0.022 C 
BRANCH  19  22
HETATM   22  C20 UNL     1      61.127  27.129  43.107  1.00  0.00     0.063 C 
HETATM   23  N2  UNL     1      59.970  27.496  42.776  1.00  0.00    -0.410 N 
ATOM     24  H22 UNL     1      59.625  27.068  41.917  1.00  0.00     0.155 HD
ATOM     25  H21 UNL     1      59.343  28.150  43.245  1.00  0.00     0.155 HD
ENDBRANCH  19  22
ENDBRANCH   7  19
BRANCH   5  26
HETATM   26  C11 UNL     1      65.101  23.551  44.834  1.00  0.00     0.111 C 
BRANCH  26  27
HETATM   27  C12 UNL     1      65.172  22.769  46.099  1.00  0.00    -0.043 C 
HETATM   28  C13 UNL     1      66.534  22.057  46.096  1.00  0.00     0.015 C 
HETATM   29  C14 UNL     1      65.204  23.683  47.312  1.00  0.00     0.015 C 
HETATM   30  C15 UNL     1      64.135  21.701  46.238  1.00  0.00     0.015 C 
ENDBRANCH  26  27
ENDBRANCH   5  26
TORSDOF 10
ENDMDL
