MODEL 1
REMARK VINA RESULT: -7.794124333      0.000      0.000
REMARK  6 active torsions:
REMARK  status: ('A' for Active; 'I' for Inactive)
REMARK    1  A    between atoms: C2_2  and  C4_4 
REMARK    2  A    between atoms: C4_4  and  N1_5 
REMARK    3  A    between atoms: C5_6  and  S1_7 
REMARK    4  A    between atoms: S1_7  and  C6_8 
REMARK    5  A    between atoms: C6_8  and  C7_9 
REMARK       I    between atoms: C7_9  and  N2_11 
REMARK    6  A    between atoms: C14_22  and  C15_23 
ROOT
HETATM    1  N1  UNL     1      61.239  28.790  43.338  1.00  0.00    -0.313 N 
HETATM    2  C5  UNL     1      61.784  29.949  42.901  1.00  0.00     0.163 A 
HETATM    3  N3  UNL     1      62.998  29.676  42.305  1.00  0.00    -0.278 N 
ATOM      4  H3  UNL     1      63.641  30.348  41.884  1.00  0.00     0.189 HD
HETATM    5  N4  UNL     1      63.156  28.371  42.392  1.00  0.00    -0.285 N 
ATOM      6  H4  UNL     1      63.962  27.856  42.039  1.00  0.00     0.188 HD
HETATM    7  C14 UNL     1      62.106  27.815  43.012  1.00  0.00     0.134 A 
ENDROOT
BRANCH   2   8
HETATM    8  S1  UNL     1      61.152  31.595  42.921  1.00  0.00    -0.083 SA
BRANCH   8   9
HETATM    9  C6  UNL     1      61.674  32.699  41.664  1.00  0.00     0.185 C 
BRANCH   9  10
HETATM   10  C7  UNL     1      62.229  32.195  40.414  1.00  0.00     0.229 C 
HETATM   11  O1  UNL     1      62.250  31.040  39.978  1.00  0.00    -0.273 OA
HETATM   12  N2  UNL     1      62.843  33.211  39.567  1.00  0.00    -0.351 N 
HETATM   13  C8  UNL     1      62.864  34.586  39.948  1.00  0.00     0.126 C 
HETATM   14  C13 UNL     1      63.422  32.772  38.335  1.00  0.00     0.126 C 
HETATM   15  C9  UNL     1      64.157  35.239  39.603  1.00  0.00     0.024 C 
HETATM   16  C10 UNL     1      64.499  35.022  38.140  1.00  0.00    -0.015 C 
HETATM   17  C11 UNL     1      63.507  35.638  37.201  1.00  0.00     0.010 C 
HETATM   18  C12 UNL     1      64.632  33.531  37.907  1.00  0.00     0.024 C 
ENDBRANCH   9  10
ENDBRANCH   8   9
ENDBRANCH   2   8
BRANCH   1  19
HETATM   19  C4  UNL     1      59.984  28.694  44.022  1.00  0.00     0.136 C 
BRANCH  19  20
HETATM   20  C2  UNL     1      59.854  29.569  45.240  1.00  0.00    -0.004 C 
HETATM   21  C1  UNL     1      58.570  30.386  45.026  1.00  0.00     0.011 C 
HETATM   22  C3  UNL     1      59.790  28.876  46.545  1.00  0.00     0.011 C 
ENDBRANCH  19  20
ENDBRANCH   1  19
BRANCH   7  23
HETATM   23  C15 UNL     1      61.956  26.380  43.274  1.00  0.00     0.291 C 
HETATM   24  C16 UNL     1      63.353  25.736  43.223  1.00  0.00     0.044 C 
HETATM   25  C17 UNL     1      63.296  24.282  43.574  1.00  0.00     0.004 C 
HETATM   26  C18 UNL     1      62.320  23.600  42.647  1.00  0.00     0.030 C 
HETATM   27  C19 UNL     1      61.026  24.343  42.673  1.00  0.00     0.273 C 
HETATM   28  N5  UNL     1      61.249  25.709  42.166  1.00  0.00     0.096 N 
HETATM   29  C20 UNL     1      59.944  26.281  41.948  1.00  0.00     0.310 C 
ENDBRANCH   7  23
TORSDOF 6
ENDMDL
MODEL 2
REMARK VINA RESULT: -7.634660606      8.325     10.827
REMARK  6 active torsions:
REMARK  status: ('A' for Active; 'I' for Inactive)
REMARK    1  A    between atoms: C2_2  and  C4_4 
REMARK    2  A    between atoms: C4_4  and  N1_5 
REMARK    3  A    between atoms: C5_6  and  S1_7 
REMARK    4  A    between atoms: S1_7  and  C6_8 
REMARK    5  A    between atoms: C6_8  and  C7_9 
REMARK       I    between atoms: C7_9  and  N2_11 
REMARK    6  A    between atoms: C14_22  and  C15_23 
ROOT
HETATM    1  N1  UNL     1      60.617  21.196  39.190  1.00  0.00    -0.313 N 
HETATM    2  C5  UNL     1      61.264  22.280  39.676  1.00  0.00     0.163 A 
HETATM    3  N3  UNL     1      61.804  22.988  38.622  1.00  0.00    -0.278 N 
ATOM      4  H3  UNL     1      62.349  23.849  38.675  1.00  0.00     0.189 HD
HETATM    5  N4  UNL     1      61.472  22.322  37.534  1.00  0.00    -0.285 N 
ATOM      6  H4  UNL     1      61.725  22.594  36.584  1.00  0.00     0.188 HD
HETATM    7  C14 UNL     1      60.754  21.237  37.854  1.00  0.00     0.134 A 
ENDROOT
BRANCH   2   8
HETATM    8  S1  UNL     1      61.412  22.888  41.324  1.00  0.00    -0.083 SA
BRANCH   8   9
HETATM    9  C6  UNL     1      62.959  22.725  42.134  1.00  0.00     0.185 C 
BRANCH   9  10
HETATM   10  C7  UNL     1      63.111  21.827  43.272  1.00  0.00     0.229 C 
HETATM   11  O1  UNL     1      62.698  20.674  43.419  1.00  0.00    -0.273 OA
HETATM   12  N2  UNL     1      63.864  22.385  44.390  1.00  0.00    -0.351 N 
HETATM   13  C8  UNL     1      64.414  23.702  44.336  1.00  0.00     0.126 C 
HETATM   14  C13 UNL     1      64.030  21.557  45.544  1.00  0.00     0.126 C 
HETATM   15  C9  UNL     1      64.278  24.415  45.636  1.00  0.00     0.024 C 
HETATM   16  C10 UNL     1      64.843  23.580  46.772  1.00  0.00    -0.015 C 
HETATM   17  C11 UNL     1      66.312  23.317  46.641  1.00  0.00     0.010 C 
HETATM   18  C12 UNL     1      64.051  22.290  46.843  1.00  0.00     0.024 C 
ENDBRANCH   9  10
ENDBRANCH   8   9
ENDBRANCH   2   8
BRANCH   1  19
HETATM   19  C4  UNL     1      59.949  20.224  40.003  1.00  0.00     0.136 C 
BRANCH  19  20
HETATM   20  C2  UNL     1      60.799  19.058  40.431  1.00  0.00    -0.004 C 
HETATM   21  C1  UNL     1      60.272  17.851  39.640  1.00  0.00     0.011 C 
HETATM   22  C3  UNL     1      62.257  19.192  40.219  1.00  0.00     0.011 C 
ENDBRANCH  19  20
ENDBRANCH   1  19
BRANCH   7  23
HETATM   23  C15 UNL     1      60.222  20.275  36.884  1.00  0.00     0.291 C 
HETATM   24  C16 UNL     1      61.288  19.191  36.650  1.00  0.00     0.044 C 
HETATM   25  C17 UNL     1      60.783  18.116  35.738  1.00  0.00     0.004 C 
HETATM   26  C18 UNL     1      60.325  18.754  34.449  1.00  0.00     0.030 C 
HETATM   27  C19 UNL     1      59.375  19.861  34.765  1.00  0.00     0.273 C 
HETATM   28  N5  UNL     1      60.083  20.888  35.549  1.00  0.00     0.096 N 
HETATM   29  C20 UNL     1      59.220  22.042  35.583  1.00  0.00     0.310 C 
ENDBRANCH   7  23
TORSDOF 6
ENDMDL
MODEL 3
REMARK VINA RESULT: -7.608317398      2.885      4.772
REMARK  6 active torsions:
REMARK  status: ('A' for Active; 'I' for Inactive)
REMARK    1  A    between atoms: C2_2  and  C4_4 
REMARK    2  A    between atoms: C4_4  and  N1_5 
REMARK    3  A    between atoms: C5_6  and  S1_7 
REMARK    4  A    between atoms: S1_7  and  C6_8 
REMARK    5  A    between atoms: C6_8  and  C7_9 
REMARK       I    between atoms: C7_9  and  N2_11 
REMARK    6  A    between atoms: C14_22  and  C15_23 
ROOT
HETATM    1  N1  UNL     1      60.725  31.247  42.572  1.00  0.00    -0.313 N 
HETATM    2  C5  UNL     1      61.641  32.212  42.328  1.00  0.00     0.163 A 
HETATM    3  N3  UNL     1      61.785  32.989  43.459  1.00  0.00    -0.278 N 
ATOM      4  H3  UNL     1      62.402  33.794  43.578  1.00  0.00     0.189 HD
HETATM    5  N4  UNL     1      60.963  32.478  44.353  1.00  0.00    -0.285 N 
ATOM      6  H4  UNL     1      60.839  32.834  45.301  1.00  0.00     0.188 HD
HETATM    7  C14 UNL     1      60.313  31.425  43.839  1.00  0.00     0.134 A 
ENDROOT
BRANCH   2   8
HETATM    8  S1  UNL     1      62.640  32.515  40.907  1.00  0.00    -0.083 SA
BRANCH   8   9
HETATM    9  C6  UNL     1      62.142  33.777  39.796  1.00  0.00     0.185 C 
BRANCH   9  10
HETATM   10  C7  UNL     1      63.119  34.448  38.947  1.00  0.00     0.229 C 
HETATM   11  O1  UNL     1      63.904  35.358  39.228  1.00  0.00    -0.273 OA
HETATM   12  N2  UNL     1      63.165  33.964  37.572  1.00  0.00    -0.351 N 
HETATM   13  C8  UNL     1      62.324  32.900  37.127  1.00  0.00     0.126 C 
HETATM   14  C13 UNL     1      64.091  34.598  36.687  1.00  0.00     0.126 C 
HETATM   15  C9  UNL     1      61.803  33.140  35.753  1.00  0.00     0.024 C 
HETATM   16  C10 UNL     1      62.938  33.443  34.791  1.00  0.00    -0.015 C 
HETATM   17  C11 UNL     1      63.900  32.306  34.632  1.00  0.00     0.010 C 
HETATM   18  C12 UNL     1      63.635  34.700  35.271  1.00  0.00     0.024 C 
ENDBRANCH   9  10
ENDBRANCH   8   9
ENDBRANCH   2   8
BRANCH   1  19
HETATM   19  C4  UNL     1      60.311  30.266  41.615  1.00  0.00     0.136 C 
BRANCH  19  20
HETATM   20  C2  UNL     1      61.045  28.954  41.688  1.00  0.00    -0.004 C 
HETATM   21  C1  UNL     1      60.840  28.290  40.317  1.00  0.00     0.011 C 
HETATM   22  C3  UNL     1      62.490  29.023  41.995  1.00  0.00     0.011 C 
ENDBRANCH  19  20
ENDBRANCH   1  19
BRANCH   7  23
HETATM   23  C15 UNL     1      59.323  30.622  44.565  1.00  0.00     0.291 C 
HETATM   24  C16 UNL     1      58.482  31.572  45.435  1.00  0.00     0.044 C 
HETATM   25  C17 UNL     1      57.383  30.837  46.139  1.00  0.00     0.004 C 
HETATM   26  C18 UNL     1      57.994  29.715  46.944  1.00  0.00     0.030 C 
HETATM   27  C19 UNL     1      58.876  28.903  46.055  1.00  0.00     0.273 C 
HETATM   28  N5  UNL     1      59.974  29.755  45.566  1.00  0.00     0.096 N 
HETATM   29  C20 UNL     1      60.935  28.871  44.956  1.00  0.00     0.310 C 
ENDBRANCH   7  23
TORSDOF 6
ENDMDL
MODEL 4
REMARK VINA RESULT: -7.457129011      4.137      6.686
REMARK  6 active torsions:
REMARK  status: ('A' for Active; 'I' for Inactive)
REMARK    1  A    between atoms: C2_2  and  C4_4 
REMARK    2  A    between atoms: C4_4  and  N1_5 
REMARK    3  A    between atoms: C5_6  and  S1_7 
REMARK    4  A    between atoms: S1_7  and  C6_8 
REMARK    5  A    between atoms: C6_8  and  C7_9 
REMARK       I    between atoms: C7_9  and  N2_11 
REMARK    6  A    between atoms: C14_22  and  C15_23 
ROOT
HETATM    1  N1  UNL     1      62.001  23.717  41.643  1.00  0.00    -0.313 N 
HETATM    2  C5  UNL     1      62.339  24.896  41.072  1.00  0.00     0.163 A 
HETATM    3  N3  UNL     1      62.293  24.758  39.700  1.00  0.00    -0.278 N 
ATOM      4  H3  UNL     1      62.499  25.475  39.003  1.00  0.00     0.189 HD
HETATM    5  N4  UNL     1      61.930  23.511  39.476  1.00  0.00    -0.285 N 
ATOM      6  H4  UNL     1      61.805  23.098  38.552  1.00  0.00     0.188 HD
HETATM    7  C14 UNL     1      61.748  22.864  40.635  1.00  0.00     0.134 A 
ENDROOT
BRANCH   2   8
HETATM    8  S1  UNL     1      62.709  26.459  41.797  1.00  0.00    -0.083 SA
BRANCH   8   9
HETATM    9  C6  UNL     1      61.449  27.271  42.707  1.00  0.00     0.185 C 
BRANCH   9  10
HETATM   10  C7  UNL     1      61.180  28.689  42.503  1.00  0.00     0.229 C 
HETATM   11  O1  UNL     1      61.524  29.424  41.573  1.00  0.00    -0.273 OA
HETATM   12  N2  UNL     1      60.389  29.317  43.555  1.00  0.00    -0.351 N 
HETATM   13  C8  UNL     1      59.912  28.570  44.675  1.00  0.00     0.126 C 
HETATM   14  C13 UNL     1      60.109  30.712  43.419  1.00  0.00     0.126 C 
HETATM   15  C9  UNL     1      60.003  29.347  45.941  1.00  0.00     0.024 C 
HETATM   16  C10 UNL     1      59.326  30.699  45.795  1.00  0.00    -0.015 C 
HETATM   17  C11 UNL     1      57.857  30.601  45.522  1.00  0.00     0.010 C 
HETATM   18  C12 UNL     1      60.045  31.466  44.704  1.00  0.00     0.024 C 
ENDBRANCH   9  10
ENDBRANCH   8   9
ENDBRANCH   2   8
BRANCH   1  19
HETATM   19  C4  UNL     1      61.958  23.487  43.056  1.00  0.00     0.136 C 
BRANCH  19  20
HETATM   20  C2  UNL     1      63.301  23.339  43.719  1.00  0.00    -0.004 C 
HETATM   21  C1  UNL     1      63.323  24.387  44.843  1.00  0.00     0.011 C 
HETATM   22  C3  UNL     1      63.618  22.006  44.277  1.00  0.00     0.011 C 
ENDBRANCH  19  20
ENDBRANCH   1  19
BRANCH   7  23
HETATM   23  C15 UNL     1      61.339  21.461  40.750  1.00  0.00     0.291 C 
HETATM   24  C16 UNL     1      62.531  20.658  41.299  1.00  0.00     0.044 C 
HETATM   25  C17 UNL     1      62.163  19.226  41.535  1.00  0.00     0.004 C 
HETATM   26  C18 UNL     1      61.631  18.648  40.246  1.00  0.00     0.030 C 
HETATM   27  C19 UNL     1      60.552  19.536  39.723  1.00  0.00     0.273 C 
HETATM   28  N5  UNL     1      61.127  20.858  39.420  1.00  0.00     0.096 N 
HETATM   29  C20 UNL     1      60.128  21.574  38.667  1.00  0.00     0.310 C 
ENDBRANCH   7  23
TORSDOF 6
ENDMDL
MODEL 5
REMARK VINA RESULT: -7.434981839      6.887     10.221
REMARK  6 active torsions:
REMARK  status: ('A' for Active; 'I' for Inactive)
REMARK    1  A    between atoms: C2_2  and  C4_4 
REMARK    2  A    between atoms: C4_4  and  N1_5 
REMARK    3  A    between atoms: C5_6  and  S1_7 
REMARK    4  A    between atoms: S1_7  and  C6_8 
REMARK    5  A    between atoms: C6_8  and  C7_9 
REMARK       I    between atoms: C7_9  and  N2_11 
REMARK    6  A    between atoms: C14_22  and  C15_23 
ROOT
HETATM    1  N1  UNL     1      62.071  22.752  42.522  1.00  0.00    -0.313 N 
HETATM    2  C5  UNL     1      62.129  21.887  41.483  1.00  0.00     0.163 A 
HETATM    3  N3  UNL     1      63.173  21.010  41.688  1.00  0.00    -0.278 N 
ATOM      4  H3  UNL     1      63.465  20.247  41.076  1.00  0.00     0.189 HD
HETATM    5  N4  UNL     1      63.716  21.360  42.837  1.00  0.00    -0.285 N 
ATOM      6  H4  UNL     1      64.516  20.898  43.268  1.00  0.00     0.188 HD
HETATM    7  C14 UNL     1      63.066  22.409  43.358  1.00  0.00     0.134 A 
ENDROOT
BRANCH   2   8
HETATM    8  S1  UNL     1      61.078  21.708  40.078  1.00  0.00    -0.083 SA
BRANCH   8   9
HETATM    9  C6  UNL     1      60.014  20.316  40.010  1.00  0.00     0.185 C 
BRANCH   9  10
HETATM   10  C7  UNL     1      60.369  19.147  39.215  1.00  0.00     0.229 C 
HETATM   11  O1  UNL     1      60.705  18.020  39.589  1.00  0.00    -0.273 OA
HETATM   12  N2  UNL     1      60.312  19.352  37.772  1.00  0.00    -0.351 N 
HETATM   13  C8  UNL     1      59.916  20.604  37.212  1.00  0.00     0.126 C 
HETATM   14  C13 UNL     1      60.668  18.245  36.940  1.00  0.00     0.126 C 
HETATM   15  C9  UNL     1      60.731  20.962  36.019  1.00  0.00     0.024 C 
HETATM   16  C10 UNL     1      60.732  19.830  35.006  1.00  0.00    -0.015 C 
HETATM   17  C11 UNL     1      59.373  19.528  34.453  1.00  0.00     0.010 C 
HETATM   18  C12 UNL     1      61.348  18.613  35.665  1.00  0.00     0.024 C 
ENDBRANCH   9  10
ENDBRANCH   8   9
ENDBRANCH   2   8
BRANCH   1  19
HETATM   19  C4  UNL     1      61.117  23.814  42.637  1.00  0.00     0.136 C 
BRANCH  19  20
HETATM   20  C2  UNL     1      61.675  25.197  42.438  1.00  0.00    -0.004 C 
HETATM   21  C1  UNL     1      62.470  25.135  41.124  1.00  0.00     0.011 C 
HETATM   22  C3  UNL     1      60.693  26.302  42.372  1.00  0.00     0.011 C 
ENDBRANCH  19  20
ENDBRANCH   1  19
BRANCH   7  23
HETATM   23  C15 UNL     1      63.408  23.052  44.631  1.00  0.00     0.291 C 
HETATM   24  C16 UNL     1      64.424  24.171  44.344  1.00  0.00     0.044 C 
HETATM   25  C17 UNL     1      64.754  24.940  45.586  1.00  0.00     0.004 C 
HETATM   26  C18 UNL     1      65.250  23.973  46.634  1.00  0.00     0.030 C 
HETATM   27  C19 UNL     1      64.262  22.864  46.779  1.00  0.00     0.273 C 
HETATM   28  N5  UNL     1      64.170  22.136  45.501  1.00  0.00     0.096 N 
HETATM   29  C20 UNL     1      63.433  20.927  45.773  1.00  0.00     0.310 C 
ENDBRANCH   7  23
TORSDOF 6
ENDMDL
