MODEL 1
REMARK VINA RESULT: -8.191128127      0.000      0.000
REMARK  8 active torsions:
REMARK  status: ('A' for Active; 'I' for Inactive)
REMARK    1  A    between atoms: C2_2  and  O1_3 
REMARK    2  A    between atoms: O1_3  and  C3_4 
REMARK    3  A    between atoms: C3_4  and  C4_6 
REMARK    4  A    between atoms: C9_11  and  C10_12 
REMARK    5  A    between atoms: C10_12  and  O4_14 
REMARK    6  A    between atoms: O4_14  and  C11_15 
REMARK    7  A    between atoms: C11_15  and  C12_16 
REMARK    8  A    between atoms: C12_16  and  C13_18 
ROOT
HETATM    1  C4  UNL     1      61.087  29.730  43.733  1.00  0.00     0.098 C 
HETATM    2  C5  UNL     1      60.952  28.576  42.715  1.00  0.00     0.021 C 
HETATM    3  C6  UNL     1      62.440  28.268  42.571  1.00  0.00     0.008 C 
HETATM    4  C7  UNL     1      63.098  29.662  42.575  1.00  0.00     0.008 C 
HETATM    5  C8  UNL     1      61.990  30.639  42.974  1.00  0.00     0.032 C 
HETATM    6  C9  UNL     1      61.312  31.282  41.812  1.00  0.00     0.183 C 
HETATM    7  N1  UNL     1      60.434  30.406  41.110  1.00  0.00    -0.404 N 
ATOM      8  H1  UNL     1      59.872  30.764  40.338  1.00  0.00     0.154 HD
HETATM    9  C20 UNL     1      60.338  29.060  41.472  1.00  0.00     0.078 C 
HETATM   10  C21 UNL     1      60.818  28.235  40.255  1.00  0.00     0.032 C 
ENDROOT
BRANCH   6  11
HETATM   11  C10 UNL     1      62.287  31.749  40.800  1.00  0.00     0.286 C 
HETATM   12  O3  UNL     1      62.653  31.184  39.752  1.00  0.00    -0.263 OA
BRANCH  11  13
HETATM   13  O4  UNL     1      62.932  33.038  40.958  1.00  0.00    -0.286 OA
BRANCH  13  14
HETATM   14  C11 UNL     1      62.747  33.844  39.797  1.00  0.00     0.198 C 
BRANCH  14  15
HETATM   15  C12 UNL     1      63.930  34.504  39.282  1.00  0.00     0.200 C 
HETATM   16  O5  UNL     1      64.681  35.172  39.930  1.00  0.00    -0.288 OA
BRANCH  15  17
HETATM   17  C13 UNL     1      64.275  34.334  37.808  1.00  0.00     0.197 C 
HETATM   18  C14 UNL     1      63.551  35.216  36.892  1.00  0.00     0.040 C 
HETATM   19  C15 UNL     1      63.276  34.525  35.542  1.00  0.00     0.010 C 
HETATM   20  C16 UNL     1      62.563  33.239  35.943  1.00  0.00     0.010 C 
HETATM   21  C17 UNL     1      61.962  32.543  34.781  1.00  0.00     0.012 C 
HETATM   22  C18 UNL     1      63.580  32.408  36.653  1.00  0.00     0.122 C 
HETATM   23  C19 UNL     1      64.417  31.714  35.616  1.00  0.00     0.040 C 
HETATM   24  O6  UNL     1      64.365  33.007  37.540  1.00  0.00    -0.373 OA
ENDBRANCH  15  17
ENDBRANCH  14  15
ENDBRANCH  13  14
ENDBRANCH  11  13
ENDBRANCH   6  11
BRANCH   1  25
HETATM   25  C3  UNL     1      59.824  30.163  44.241  1.00  0.00     0.263 C 
HETATM   26  O2  UNL     1      59.601  31.443  44.238  1.00  0.00    -0.265 OA
BRANCH  25  27
HETATM   27  O1  UNL     1      58.809  29.388  44.742  1.00  0.00    -0.322 OA
BRANCH  27  28
HETATM   28  C2  UNL     1      58.883  28.891  46.093  1.00  0.00     0.174 C 
HETATM   29  C1  UNL     1      58.458  29.934  47.112  1.00  0.00     0.034 C 
ENDBRANCH  27  28
ENDBRANCH  25  27
ENDBRANCH   1  25
TORSDOF 8
ENDMDL
MODEL 2
REMARK VINA RESULT: -8.118196246      7.889     11.022
REMARK  8 active torsions:
REMARK  status: ('A' for Active; 'I' for Inactive)
REMARK    1  A    between atoms: C2_2  and  O1_3 
REMARK    2  A    between atoms: O1_3  and  C3_4 
REMARK    3  A    between atoms: C3_4  and  C4_6 
REMARK    4  A    between atoms: C9_11  and  C10_12 
REMARK    5  A    between atoms: C10_12  and  O4_14 
REMARK    6  A    between atoms: O4_14  and  C11_15 
REMARK    7  A    between atoms: C11_15  and  C12_16 
REMARK    8  A    between atoms: C12_16  and  C13_18 
ROOT
HETATM    1  C4  UNL     1      62.704  23.959  43.750  1.00  0.00     0.098 C 
HETATM    2  C5  UNL     1      62.780  25.073  42.684  1.00  0.00     0.021 C 
HETATM    3  C6  UNL     1      61.277  25.266  42.497  1.00  0.00     0.008 C 
HETATM    4  C7  UNL     1      60.720  23.831  42.552  1.00  0.00     0.008 C 
HETATM    5  C8  UNL     1      61.886  22.954  43.017  1.00  0.00     0.032 C 
HETATM    6  C9  UNL     1      62.633  22.311  41.899  1.00  0.00     0.183 C 
HETATM    7  N1  UNL     1      63.463  23.215  41.174  1.00  0.00    -0.404 N 
ATOM      8  H1  UNL     1      64.066  22.864  40.431  1.00  0.00     0.154 HD
HETATM    9  C20 UNL     1      63.454  24.580  41.476  1.00  0.00     0.078 C 
HETATM   10  C21 UNL     1      62.944  25.313  40.214  1.00  0.00     0.032 C 
ENDROOT
BRANCH   6  11
HETATM   11  C10 UNL     1      61.717  21.730  40.891  1.00  0.00     0.286 C 
HETATM   12  O3  UNL     1      61.224  22.271  39.884  1.00  0.00    -0.263 OA
BRANCH  11  13
HETATM   13  O4  UNL     1      61.306  20.344  41.002  1.00  0.00    -0.286 OA
BRANCH  13  14
HETATM   14  C11 UNL     1      61.409  19.682  39.743  1.00  0.00     0.198 C 
BRANCH  14  15
HETATM   15  C12 UNL     1      60.287  18.845  39.368  1.00  0.00     0.200 C 
HETATM   16  O5  UNL     1      59.810  17.989  40.053  1.00  0.00    -0.288 OA
BRANCH  15  17
HETATM   17  C13 UNL     1      59.636  19.064  38.008  1.00  0.00     0.197 C 
HETATM   18  C14 UNL     1      60.385  18.537  36.867  1.00  0.00     0.040 C 
HETATM   19  C15 UNL     1      60.203  19.419  35.616  1.00  0.00     0.010 C 
HETATM   20  C16 UNL     1      60.606  20.806  36.102  1.00  0.00     0.010 C 
HETATM   21  C17 UNL     1      60.768  21.768  34.987  1.00  0.00     0.012 C 
HETATM   22  C18 UNL     1      59.556  21.222  37.079  1.00  0.00     0.122 C 
HETATM   23  C19 UNL     1      58.383  21.749  36.301  1.00  0.00     0.040 C 
HETATM   24  O6  UNL     1      59.144  20.327  37.968  1.00  0.00    -0.373 OA
ENDBRANCH  15  17
ENDBRANCH  14  15
ENDBRANCH  13  14
ENDBRANCH  11  13
ENDBRANCH   6  11
BRANCH   1  25
HETATM   25  C3  UNL     1      63.984  23.640  44.302  1.00  0.00     0.263 C 
HETATM   26  O2  UNL     1      64.768  24.640  44.573  1.00  0.00    -0.265 OA
BRANCH  25  27
HETATM   27  O1  UNL     1      64.494  22.396  44.578  1.00  0.00    -0.322 OA
BRANCH  27  28
HETATM   28  C2  UNL     1      64.789  22.026  45.940  1.00  0.00     0.174 C 
HETATM   29  C1  UNL     1      63.862  20.938  46.452  1.00  0.00     0.034 C 
ENDBRANCH  27  28
ENDBRANCH  25  27
ENDBRANCH   1  25
TORSDOF 8
ENDMDL
MODEL 3
REMARK VINA RESULT: -8.083351843      0.838      1.073
REMARK  8 active torsions:
REMARK  status: ('A' for Active; 'I' for Inactive)
REMARK    1  A    between atoms: C2_2  and  O1_3 
REMARK    2  A    between atoms: O1_3  and  C3_4 
REMARK    3  A    between atoms: C3_4  and  C4_6 
REMARK    4  A    between atoms: C9_11  and  C10_12 
REMARK    5  A    between atoms: C10_12  and  O4_14 
REMARK    6  A    between atoms: O4_14  and  C11_15 
REMARK    7  A    between atoms: C11_15  and  C12_16 
REMARK    8  A    between atoms: C12_16  and  C13_18 
ROOT
HETATM    1  C4  UNL     1      61.086  29.554  43.793  1.00  0.00     0.098 C 
HETATM    2  C5  UNL     1      60.963  28.449  42.721  1.00  0.00     0.021 C 
HETATM    3  C6  UNL     1      62.455  28.187  42.538  1.00  0.00     0.008 C 
HETATM    4  C7  UNL     1      63.078  29.595  42.603  1.00  0.00     0.008 C 
HETATM    5  C8  UNL     1      61.953  30.523  43.067  1.00  0.00     0.032 C 
HETATM    6  C9  UNL     1      61.241  31.205  41.950  1.00  0.00     0.183 C 
HETATM    7  N1  UNL     1      60.373  30.343  41.218  1.00  0.00    -0.404 N 
ATOM      8  H1  UNL     1      59.789  30.725  40.474  1.00  0.00     0.154 HD
HETATM    9  C20 UNL     1      60.316  28.978  41.513  1.00  0.00     0.078 C 
HETATM   10  C21 UNL     1      60.796  28.228  40.249  1.00  0.00     0.032 C 
ENDROOT
BRANCH   6  11
HETATM   11  C10 UNL     1      62.187  31.747  40.948  1.00  0.00     0.286 C 
HETATM   12  O3  UNL     1      62.625  31.203  39.916  1.00  0.00    -0.263 OA
BRANCH  11  13
HETATM   13  O4  UNL     1      62.704  33.093  41.096  1.00  0.00    -0.286 OA
BRANCH  13  14
HETATM   14  C11 UNL     1      62.370  33.893  39.964  1.00  0.00     0.198 C 
BRANCH  14  15
HETATM   15  C12 UNL     1      63.441  34.700  39.414  1.00  0.00     0.200 C 
HETATM   16  O5  UNL     1      64.024  35.561  40.003  1.00  0.00    -0.288 OA
BRANCH  15  17
HETATM   17  C13 UNL     1      63.889  34.438  37.981  1.00  0.00     0.197 C 
HETATM   18  C14 UNL     1      63.521  35.472  37.014  1.00  0.00     0.040 C 
HETATM   19  C15 UNL     1      63.225  34.868  35.626  1.00  0.00     0.010 C 
HETATM   20  C16 UNL     1      62.165  33.813  35.921  1.00  0.00     0.010 C 
HETATM   21  C17 UNL     1      61.534  33.291  34.686  1.00  0.00     0.012 C 
HETATM   22  C18 UNL     1      62.849  32.751  36.716  1.00  0.00     0.122 C 
HETATM   23  C19 UNL     1      63.585  31.858  35.758  1.00  0.00     0.040 C 
HETATM   24  O6  UNL     1      63.661  33.132  37.695  1.00  0.00    -0.373 OA
ENDBRANCH  15  17
ENDBRANCH  14  15
ENDBRANCH  13  14
ENDBRANCH  11  13
ENDBRANCH   6  11
BRANCH   1  25
HETATM   25  C3  UNL     1      59.820  29.929  44.341  1.00  0.00     0.263 C 
HETATM   26  O2  UNL     1      58.984  28.967  44.592  1.00  0.00    -0.265 OA
BRANCH  25  27
HETATM   27  O1  UNL     1      59.373  31.193  44.633  1.00  0.00    -0.322 OA
BRANCH  27  28
HETATM   28  C2  UNL     1      59.076  31.554  45.997  1.00  0.00     0.174 C 
HETATM   29  C1  UNL     1      60.036  32.600  46.535  1.00  0.00     0.034 C 
ENDBRANCH  27  28
ENDBRANCH  25  27
ENDBRANCH   1  25
TORSDOF 8
ENDMDL
MODEL 4
REMARK VINA RESULT: -8.060713660      8.131     10.937
REMARK  8 active torsions:
REMARK  status: ('A' for Active; 'I' for Inactive)
REMARK    1  A    between atoms: C2_2  and  O1_3 
REMARK    2  A    between atoms: O1_3  and  C3_4 
REMARK    3  A    between atoms: C3_4  and  C4_6 
REMARK    4  A    between atoms: C9_11  and  C10_12 
REMARK    5  A    between atoms: C10_12  and  O4_14 
REMARK    6  A    between atoms: O4_14  and  C11_15 
REMARK    7  A    between atoms: C11_15  and  C12_16 
REMARK    8  A    between atoms: C12_16  and  C13_18 
ROOT
HETATM    1  C4  UNL     1      62.785  23.975  43.802  1.00  0.00     0.098 C 
HETATM    2  C5  UNL     1      62.732  24.972  42.623  1.00  0.00     0.021 C 
HETATM    3  C6  UNL     1      61.214  25.004  42.464  1.00  0.00     0.008 C 
HETATM    4  C7  UNL     1      60.798  23.537  42.685  1.00  0.00     0.008 C 
HETATM    5  C8  UNL     1      62.052  22.827  43.201  1.00  0.00     0.032 C 
HETATM    6  C9  UNL     1      62.833  22.141  42.134  1.00  0.00     0.183 C 
HETATM    7  N1  UNL     1      63.558  23.037  41.294  1.00  0.00    -0.404 N 
ATOM      8  H1  UNL     1      64.176  22.667  40.573  1.00  0.00     0.154 HD
HETATM    9  C20 UNL     1      63.425  24.419  41.453  1.00  0.00     0.078 C 
HETATM   10  C21 UNL     1      62.821  24.964  40.138  1.00  0.00     0.032 C 
ENDROOT
BRANCH   6  11
HETATM   11  C10 UNL     1      61.956  21.374  41.220  1.00  0.00     0.286 C 
HETATM   12  O3  UNL     1      61.382  20.288  41.421  1.00  0.00    -0.263 OA
BRANCH  11  13
HETATM   13  O4  UNL     1      61.653  21.897  39.902  1.00  0.00    -0.286 OA
BRANCH  13  14
HETATM   14  C11 UNL     1      61.304  20.844  39.006  1.00  0.00     0.198 C 
BRANCH  14  15
HETATM   15  C12 UNL     1      60.273  21.147  38.035  1.00  0.00     0.200 C 
HETATM   16  O5  UNL     1      59.204  21.618  38.291  1.00  0.00    -0.288 OA
BRANCH  15  17
HETATM   17  C13 UNL     1      60.553  20.868  36.563  1.00  0.00     0.197 C 
HETATM   18  C14 UNL     1      59.452  20.249  35.825  1.00  0.00     0.040 C 
HETATM   19  C15 UNL     1      59.971  19.287  34.737  1.00  0.00     0.010 C 
HETATM   20  C16 UNL     1      60.879  18.339  35.511  1.00  0.00     0.010 C 
HETATM   21  C17 UNL     1      61.276  17.160  34.707  1.00  0.00     0.012 C 
HETATM   22  C18 UNL     1      62.047  19.157  35.956  1.00  0.00     0.122 C 
HETATM   23  C19 UNL     1      63.005  19.261  34.803  1.00  0.00     0.040 C 
HETATM   24  O6  UNL     1      61.808  20.363  36.455  1.00  0.00    -0.373 OA
ENDBRANCH  15  17
ENDBRANCH  14  15
ENDBRANCH  13  14
ENDBRANCH  11  13
ENDBRANCH   6  11
BRANCH   1  25
HETATM   25  C3  UNL     1      64.100  23.837  44.344  1.00  0.00     0.263 C 
HETATM   26  O2  UNL     1      64.742  24.936  44.606  1.00  0.00    -0.265 OA
BRANCH  25  27
HETATM   27  O1  UNL     1      64.778  22.676  44.618  1.00  0.00    -0.322 OA
BRANCH  27  28
HETATM   28  C2  UNL     1      65.019  22.291  45.986  1.00  0.00     0.174 C 
HETATM   29  C1  UNL     1      64.084  21.185  46.444  1.00  0.00     0.034 C 
ENDBRANCH  27  28
ENDBRANCH  25  27
ENDBRANCH   1  25
TORSDOF 8
ENDMDL
MODEL 5
REMARK VINA RESULT: -7.958818682      1.293      2.040
REMARK  8 active torsions:
REMARK  status: ('A' for Active; 'I' for Inactive)
REMARK    1  A    between atoms: C2_2  and  O1_3 
REMARK    2  A    between atoms: O1_3  and  C3_4 
REMARK    3  A    between atoms: C3_4  and  C4_6 
REMARK    4  A    between atoms: C9_11  and  C10_12 
REMARK    5  A    between atoms: C10_12  and  O4_14 
REMARK    6  A    between atoms: O4_14  and  C11_15 
REMARK    7  A    between atoms: C11_15  and  C12_16 
REMARK    8  A    between atoms: C12_16  and  C13_18 
ROOT
HETATM    1  C4  UNL     1      60.997  29.518  43.804  1.00  0.00     0.098 C 
HETATM    2  C5  UNL     1      61.048  28.544  42.607  1.00  0.00     0.021 C 
HETATM    3  C6  UNL     1      62.567  28.496  42.460  1.00  0.00     0.008 C 
HETATM    4  C7  UNL     1      62.999  29.953  42.714  1.00  0.00     0.008 C 
HETATM    5  C8  UNL     1      61.750  30.669  43.233  1.00  0.00     0.032 C 
HETATM    6  C9  UNL     1      60.987  31.385  42.173  1.00  0.00     0.183 C 
HETATM    7  N1  UNL     1      60.259  30.516  41.309  1.00  0.00    -0.404 N 
ATOM      8  H1  UNL     1      59.651  30.908  40.590  1.00  0.00     0.154 HD
HETATM    9  C20 UNL     1      60.373  29.129  41.442  1.00  0.00     0.078 C 
HETATM   10  C21 UNL     1      60.981  28.603  40.122  1.00  0.00     0.032 C 
ENDROOT
BRANCH   6  11
HETATM   11  C10 UNL     1      61.882  32.159  41.282  1.00  0.00     0.286 C 
HETATM   12  O3  UNL     1      62.509  33.206  41.527  1.00  0.00    -0.263 OA
BRANCH  11  13
HETATM   13  O4  UNL     1      62.137  31.693  39.933  1.00  0.00    -0.286 OA
BRANCH  13  14
HETATM   14  C11 UNL     1      62.525  32.774  39.088  1.00  0.00     0.198 C 
BRANCH  14  15
HETATM   15  C12 UNL     1      63.602  32.501  38.157  1.00  0.00     0.200 C 
HETATM   16  O5  UNL     1      64.664  32.039  38.452  1.00  0.00    -0.288 OA
BRANCH  15  17
HETATM   17  C13 UNL     1      63.382  32.803  36.680  1.00  0.00     0.197 C 
HETATM   18  C14 UNL     1      64.419  33.618  36.048  1.00  0.00     0.040 C 
HETATM   19  C15 UNL     1      63.831  34.539  34.961  1.00  0.00     0.010 C 
HETATM   20  C16 UNL     1      62.735  35.298  35.699  1.00  0.00     0.010 C 
HETATM   21  C17 UNL     1      62.213  36.439  34.911  1.00  0.00     0.012 C 
HETATM   22  C18 UNL     1      61.683  34.290  36.025  1.00  0.00     0.122 C 
HETATM   23  C19 UNL     1      60.833  34.095  34.801  1.00  0.00     0.040 C 
HETATM   24  O6  UNL     1      62.074  33.113  36.497  1.00  0.00    -0.373 OA
ENDBRANCH  15  17
ENDBRANCH  14  15
ENDBRANCH  13  14
ENDBRANCH  11  13
ENDBRANCH   6  11
BRANCH   1  25
HETATM   25  C3  UNL     1      59.678  29.662  44.338  1.00  0.00     0.263 C 
HETATM   26  O2  UNL     1      59.071  28.571  44.694  1.00  0.00    -0.265 OA
BRANCH  25  27
HETATM   27  O1  UNL     1      58.966  30.822  44.515  1.00  0.00    -0.322 OA
BRANCH  27  28
HETATM   28  C2  UNL     1      58.599  31.243  45.844  1.00  0.00     0.174 C 
HETATM   29  C1  UNL     1      59.660  32.123  46.481  1.00  0.00     0.034 C 
ENDBRANCH  27  28
ENDBRANCH  25  27
ENDBRANCH   1  25
TORSDOF 8
ENDMDL
