MODEL 1
REMARK VINA RESULT: -5.935379068      0.000      0.000
REMARK  5 active torsions:
REMARK  status: ('A' for Active; 'I' for Inactive)
REMARK    1  A    between atoms: N2_7  and  C5_8 
REMARK    2  A    between atoms: C5_8  and  C6_9 
REMARK    3  A    between atoms: C6_9  and  C7_10 
REMARK    4  A    between atoms: C7_10  and  N3_11 
REMARK    5  A    between atoms: C12_19  and  N5_20 
ROOT
HETATM    1  C1  UNL     1     -19.113  -0.579 -15.919  1.00  0.00     0.089 C 
HETATM    2  C2  UNL     1     -19.052  -2.002 -15.457  1.00  0.00     0.074 C 
HETATM    3  N1  UNL     1     -19.990  -2.546 -14.772  1.00  0.00    -0.343 N 
ATOM      4  H1  UNL     1     -20.822  -2.018 -14.508  1.00  0.00     0.167 HD
HETATM    5  C3  UNL     1     -19.833  -3.931 -14.383  1.00  0.00     0.089 A 
HETATM    6  C4  UNL     1     -18.754  -4.693 -14.710  1.00  0.00     0.069 A 
HETATM    7  N2  UNL     1     -18.839  -5.935 -14.128  1.00  0.00    -0.340 N 
HETATM    8  C10 UNL     1     -20.004  -5.917 -13.438  1.00  0.00     0.134 A 
HETATM    9  C11 UNL     1     -20.654  -6.863 -12.653  1.00  0.00     0.289 A 
HETATM   10  O1  UNL     1     -20.200  -7.991 -12.448  1.00  0.00    -0.265 OA
HETATM   11  N4  UNL     1     -21.847  -6.544 -12.078  1.00  0.00    -0.154 N 
ATOM     12  H4  UNL     1     -22.317  -7.244 -11.504  1.00  0.00     0.187 HD
HETATM   13  C12 UNL     1     -22.429  -5.347 -12.237  1.00  0.00     0.679 A 
HETATM   14  N6  UNL     1     -21.826  -4.408 -12.992  1.00  0.00    -0.187 N 
ATOM     15  H6  UNL     1     -22.250  -3.491 -13.128  1.00  0.00     0.184 HD
HETATM   16  C13 UNL     1     -20.647  -4.717 -13.562  1.00  0.00     0.110 A 
HETATM   17  C14 UNL     1     -17.777  -4.128 -15.640  1.00  0.00     0.069 C 
HETATM   18  C15 UNL     1     -16.362  -4.607 -15.509  1.00  0.00     0.045 C 
HETATM   19  C16 UNL     1     -18.227  -4.644 -17.042  1.00  0.00     0.045 C 
HETATM   20  N7  UNL     1     -17.879  -2.717 -15.747  1.00  0.00    -0.366 N 
ATOM     21  H7  UNL     1     -17.057  -2.194 -16.050  1.00  0.00     0.162 HD
ENDROOT
BRANCH   7  22
HETATM   22  C5  UNL     1     -17.910  -7.040 -14.202  1.00  0.00     0.131 C 
BRANCH  22  23
HETATM   23  C6  UNL     1     -18.085  -7.962 -15.355  1.00  0.00     0.050 C 
BRANCH  23  24
HETATM   24  C7  UNL     1     -16.671  -8.292 -15.872  1.00  0.00     0.273 C 
BRANCH  24  25
HETATM   25  N3  UNL     1     -16.304  -9.564 -15.282  1.00  0.00     0.080 N 
HETATM   26  C8  UNL     1     -15.110  -9.516 -14.491  1.00  0.00     0.309 C 
HETATM   27  C9  UNL     1     -16.253 -10.629 -16.265  1.00  0.00     0.309 C 
ENDBRANCH  24  25
ENDBRANCH  23  24
ENDBRANCH  22  23
ENDBRANCH   7  22
BRANCH  13  28
HETATM   28  N5  UNL     1     -23.564  -5.055 -11.686  1.00  0.00    -0.234 N 
ATOM     29  H52 UNL     1     -24.317  -5.742 -11.736  1.00  0.00     0.174 HD
ATOM     30  H51 UNL     1     -23.723  -4.168 -11.208  1.00  0.00     0.174 HD
ENDBRANCH  13  28
TORSDOF 5
ENDMDL
MODEL 2
REMARK VINA RESULT: -5.779572181      0.826      1.075
REMARK  5 active torsions:
REMARK  status: ('A' for Active; 'I' for Inactive)
REMARK    1  A    between atoms: N2_7  and  C5_8 
REMARK    2  A    between atoms: C5_8  and  C6_9 
REMARK    3  A    between atoms: C6_9  and  C7_10 
REMARK    4  A    between atoms: C7_10  and  N3_11 
REMARK    5  A    between atoms: C12_19  and  N5_20 
ROOT
HETATM    1  C1  UNL     1     -20.447  -0.858 -16.965  1.00  0.00     0.089 C 
HETATM    2  C2  UNL     1     -20.015  -2.071 -16.200  1.00  0.00     0.074 C 
HETATM    3  N1  UNL     1     -20.773  -2.653 -15.345  1.00  0.00    -0.343 N 
ATOM      4  H1  UNL     1     -21.710  -2.302 -15.149  1.00  0.00     0.167 HD
HETATM    5  C3  UNL     1     -20.259  -3.824 -14.666  1.00  0.00     0.089 A 
HETATM    6  C4  UNL     1     -19.023  -4.347 -14.889  1.00  0.00     0.069 A 
HETATM    7  N2  UNL     1     -18.778  -5.398 -14.038  1.00  0.00    -0.340 N 
HETATM    8  C10 UNL     1     -19.900  -5.508 -13.289  1.00  0.00     0.134 A 
HETATM    9  C11 UNL     1     -20.275  -6.374 -12.267  1.00  0.00     0.289 A 
HETATM   10  O1  UNL     1     -19.542  -7.272 -11.846  1.00  0.00    -0.265 OA
HETATM   11  N4  UNL     1     -21.504  -6.236 -11.696  1.00  0.00    -0.154 N 
ATOM     12  H4  UNL     1     -21.770  -6.875 -10.946  1.00  0.00     0.187 HD
HETATM   13  C12 UNL     1     -22.378  -5.294 -12.078  1.00  0.00     0.679 A 
HETATM   14  N6  UNL     1     -22.045  -4.440 -13.066  1.00  0.00    -0.187 N 
ATOM     15  H6  UNL     1     -22.694  -3.716 -13.374  1.00  0.00     0.184 HD
HETATM   16  C13 UNL     1     -20.833  -4.571 -13.633  1.00  0.00     0.110 A 
HETATM   17  C14 UNL     1     -18.235  -3.793 -15.989  1.00  0.00     0.069 C 
HETATM   18  C15 UNL     1     -16.743  -3.859 -15.855  1.00  0.00     0.045 C 
HETATM   19  C16 UNL     1     -18.551  -4.720 -17.203  1.00  0.00     0.045 C 
HETATM   20  N7  UNL     1     -18.700  -2.518 -16.403  1.00  0.00    -0.366 N 
ATOM     21  H7  UNL     1     -18.044  -1.893 -16.874  1.00  0.00     0.162 HD
ENDROOT
BRANCH   7  22
HETATM   22  C5  UNL     1     -17.595  -6.222 -13.927  1.00  0.00     0.131 C 
BRANCH  22  23
HETATM   23  C6  UNL     1     -17.559  -7.429 -14.793  1.00  0.00     0.050 C 
BRANCH  23  24
HETATM   24  C7  UNL     1     -16.185  -7.428 -15.492  1.00  0.00     0.273 C 
BRANCH  24  25
HETATM   25  N3  UNL     1     -15.665  -8.775 -15.380  1.00  0.00     0.080 N 
HETATM   26  C8  UNL     1     -16.556  -9.786 -15.870  1.00  0.00     0.309 C 
HETATM   27  C9  UNL     1     -15.201  -9.075 -14.040  1.00  0.00     0.309 C 
ENDBRANCH  24  25
ENDBRANCH  23  24
ENDBRANCH  22  23
ENDBRANCH   7  22
BRANCH  13  28
HETATM   28  N5  UNL     1     -23.543  -5.173 -11.528  1.00  0.00    -0.234 N 
ATOM     29  H52 UNL     1     -24.136  -4.394 -11.817  1.00  0.00     0.174 HD
ATOM     30  H51 UNL     1     -23.881  -5.828 -10.823  1.00  0.00     0.174 HD
ENDBRANCH  13  28
TORSDOF 5
ENDMDL
MODEL 3
REMARK VINA RESULT: -5.732074483      1.273      1.403
REMARK  5 active torsions:
REMARK  status: ('A' for Active; 'I' for Inactive)
REMARK    1  A    between atoms: N2_7  and  C5_8 
REMARK    2  A    between atoms: C5_8  and  C6_9 
REMARK    3  A    between atoms: C6_9  and  C7_10 
REMARK    4  A    between atoms: C7_10  and  N3_11 
REMARK    5  A    between atoms: C12_19  and  N5_20 
ROOT
HETATM    1  C1  UNL     1     -19.993  -0.862 -17.096  1.00  0.00     0.089 C 
HETATM    2  C2  UNL     1     -19.971  -2.294 -16.657  1.00  0.00     0.074 C 
HETATM    3  N1  UNL     1     -20.593  -2.705 -15.614  1.00  0.00    -0.343 N 
ATOM      4  H1  UNL     1     -21.130  -2.060 -15.034  1.00  0.00     0.167 HD
HETATM    5  C3  UNL     1     -20.511  -4.112 -15.284  1.00  0.00     0.089 A 
HETATM    6  C4  UNL     1     -19.822  -5.025 -16.021  1.00  0.00     0.069 A 
HETATM    7  N2  UNL     1     -19.848  -6.259 -15.417  1.00  0.00    -0.340 N 
HETATM    8  C10 UNL     1     -20.577  -6.080 -14.290  1.00  0.00     0.134 A 
HETATM    9  C11 UNL     1     -20.966  -6.939 -13.269  1.00  0.00     0.289 A 
HETATM   10  O1  UNL     1     -20.659  -8.133 -13.243  1.00  0.00    -0.265 OA
HETATM   11  N4  UNL     1     -21.722  -6.454 -12.244  1.00  0.00    -0.154 N 
ATOM     12  H4  UNL     1     -22.003  -7.092 -11.499  1.00  0.00     0.187 HD
HETATM   13  C12 UNL     1     -22.111  -5.173 -12.175  1.00  0.00     0.679 A 
HETATM   14  N6  UNL     1     -21.751  -4.315 -13.150  1.00  0.00    -0.187 N 
ATOM     15  H6  UNL     1     -22.036  -3.337 -13.120  1.00  0.00     0.184 HD
HETATM   16  C13 UNL     1     -21.005  -4.788 -14.164  1.00  0.00     0.110 A 
HETATM   17  C14 UNL     1     -19.267  -4.589 -17.302  1.00  0.00     0.069 C 
HETATM   18  C15 UNL     1     -18.035  -5.295 -17.782  1.00  0.00     0.045 C 
HETATM   19  C16 UNL     1     -20.359  -4.969 -18.350  1.00  0.00     0.045 C 
HETATM   20  N7  UNL     1     -19.174  -3.177 -17.403  1.00  0.00    -0.366 N 
ATOM     21  H7  UNL     1     -18.491  -2.783 -18.051  1.00  0.00     0.162 HD
ENDROOT
BRANCH   7  22
HETATM   22  C5  UNL     1     -19.237  -7.496 -15.849  1.00  0.00     0.131 C 
BRANCH  22  23
HETATM   23  C6  UNL     1     -17.899  -7.797 -15.276  1.00  0.00     0.050 C 
BRANCH  23  24
HETATM   24  C7  UNL     1     -17.162  -8.666 -16.314  1.00  0.00     0.273 C 
BRANCH  24  25
HETATM   25  N3  UNL     1     -16.556  -9.758 -15.580  1.00  0.00     0.080 N 
HETATM   26  C8  UNL     1     -15.448  -9.364 -14.759  1.00  0.00     0.309 C 
HETATM   27  C9  UNL     1     -16.213 -10.874 -16.441  1.00  0.00     0.309 C 
ENDBRANCH  24  25
ENDBRANCH  23  24
ENDBRANCH  22  23
ENDBRANCH   7  22
BRANCH  13  28
HETATM   28  N5  UNL     1     -22.830  -4.724 -11.197  1.00  0.00    -0.234 N 
ATOM     29  H52 UNL     1     -22.530  -4.927 -10.243  1.00  0.00     0.174 HD
ATOM     30  H51 UNL     1     -23.677  -4.178 -11.353  1.00  0.00     0.174 HD
ENDBRANCH  13  28
TORSDOF 5
ENDMDL
MODEL 4
REMARK VINA RESULT: -5.623548226      1.768      2.164
REMARK  5 active torsions:
REMARK  status: ('A' for Active; 'I' for Inactive)
REMARK    1  A    between atoms: N2_7  and  C5_8 
REMARK    2  A    between atoms: C5_8  and  C6_9 
REMARK    3  A    between atoms: C6_9  and  C7_10 
REMARK    4  A    between atoms: C7_10  and  N3_11 
REMARK    5  A    between atoms: C12_19  and  N5_20 
ROOT
HETATM    1  C1  UNL     1     -18.168  -0.776 -15.521  1.00  0.00     0.089 C 
HETATM    2  C2  UNL     1     -18.478  -2.236 -15.400  1.00  0.00     0.074 C 
HETATM    3  N1  UNL     1     -19.390  -2.685 -14.617  1.00  0.00    -0.343 N 
ATOM      4  H1  UNL     1     -19.941  -2.054 -14.036  1.00  0.00     0.167 HD
HETATM    5  C3  UNL     1     -19.612  -4.115 -14.583  1.00  0.00     0.089 A 
HETATM    6  C4  UNL     1     -18.919  -5.009 -15.339  1.00  0.00     0.069 A 
HETATM    7  N2  UNL     1     -19.284  -6.297 -15.028  1.00  0.00    -0.340 N 
HETATM    8  C10 UNL     1     -20.224  -6.169 -14.063  1.00  0.00     0.134 A 
HETATM    9  C11 UNL     1     -20.978  -7.093 -13.348  1.00  0.00     0.289 A 
HETATM   10  O1  UNL     1     -20.879  -8.311 -13.513  1.00  0.00    -0.265 OA
HETATM   11  N4  UNL     1     -21.871  -6.648 -12.421  1.00  0.00    -0.154 N 
ATOM     12  H4  UNL     1     -22.420  -7.333 -11.901  1.00  0.00     0.187 HD
HETATM   13  C12 UNL     1     -22.059  -5.345 -12.164  1.00  0.00     0.679 A 
HETATM   14  N6  UNL     1     -21.344  -4.424 -12.840  1.00  0.00    -0.187 N 
ATOM     15  H6  UNL     1     -21.470  -3.428 -12.662  1.00  0.00     0.184 HD
HETATM   16  C13 UNL     1     -20.460  -4.858 -13.756  1.00  0.00     0.110 A 
HETATM   17  C14 UNL     1     -18.012  -4.482 -16.357  1.00  0.00     0.069 C 
HETATM   18  C15 UNL     1     -16.828  -5.329 -16.714  1.00  0.00     0.045 C 
HETATM   19  C16 UNL     1     -18.866  -4.450 -17.663  1.00  0.00     0.045 C 
HETATM   20  N7  UNL     1     -17.675  -3.121 -16.136  1.00  0.00    -0.366 N 
ATOM     21  H7  UNL     1     -16.803  -2.768 -16.532  1.00  0.00     0.162 HD
ENDROOT
BRANCH   7  22
HETATM   22  C5  UNL     1     -18.790  -7.540 -15.578  1.00  0.00     0.131 C 
BRANCH  22  23
HETATM   23  C6  UNL     1     -19.440  -8.000 -16.832  1.00  0.00     0.050 C 
BRANCH  23  24
HETATM   24  C7  UNL     1     -18.343  -8.688 -17.668  1.00  0.00     0.273 C 
BRANCH  24  25
HETATM   25  N3  UNL     1     -18.570  -8.301 -19.046  1.00  0.00     0.080 N 
HETATM   26  C8  UNL     1     -17.505  -7.531 -19.618  1.00  0.00     0.309 C 
HETATM   27  C9  UNL     1     -19.856  -7.656 -19.228  1.00  0.00     0.309 C 
ENDBRANCH  24  25
ENDBRANCH  23  24
ENDBRANCH  22  23
ENDBRANCH   7  22
BRANCH  13  28
HETATM   28  N5  UNL     1     -22.911  -4.934 -11.281  1.00  0.00    -0.234 N 
ATOM     29  H52 UNL     1     -23.360  -5.627 -10.682  1.00  0.00     0.174 HD
ATOM     30  H51 UNL     1     -23.141  -3.947 -11.168  1.00  0.00     0.174 HD
ENDBRANCH  13  28
TORSDOF 5
ENDMDL
MODEL 5
REMARK VINA RESULT: -5.603020525      2.088      2.512
REMARK  5 active torsions:
REMARK  status: ('A' for Active; 'I' for Inactive)
REMARK    1  A    between atoms: N2_7  and  C5_8 
REMARK    2  A    between atoms: C5_8  and  C6_9 
REMARK    3  A    between atoms: C6_9  and  C7_10 
REMARK    4  A    between atoms: C7_10  and  N3_11 
REMARK    5  A    between atoms: C12_19  and  N5_20 
ROOT
HETATM    1  C1  UNL     1     -20.043  -0.429 -16.721  1.00  0.00     0.089 C 
HETATM    2  C2  UNL     1     -19.987  -1.890 -16.396  1.00  0.00     0.074 C 
HETATM    3  N1  UNL     1     -20.621  -2.401 -15.406  1.00  0.00    -0.343 N 
ATOM      4  H1  UNL     1     -21.191  -1.821 -14.791  1.00  0.00     0.167 HD
HETATM    5  C3  UNL     1     -20.504  -3.828 -15.186  1.00  0.00     0.089 A 
HETATM    6  C4  UNL     1     -19.770  -4.658 -15.975  1.00  0.00     0.069 A 
HETATM    7  N2  UNL     1     -19.772  -5.937 -15.472  1.00  0.00    -0.340 N 
HETATM    8  C10 UNL     1     -20.533  -5.869 -14.355  1.00  0.00     0.134 A 
HETATM    9  C11 UNL     1     -20.921  -6.819 -13.415  1.00  0.00     0.289 A 
HETATM   10  O1  UNL     1     -20.578  -8.001 -13.476  1.00  0.00    -0.265 OA
HETATM   11  N4  UNL     1     -21.715  -6.439 -12.375  1.00  0.00    -0.154 N 
ATOM     12  H4  UNL     1     -21.994  -7.142 -11.690  1.00  0.00     0.187 HD
HETATM   13  C12 UNL     1     -22.145  -5.180 -12.215  1.00  0.00     0.679 A 
HETATM   14  N6  UNL     1     -21.788  -4.236 -13.109  1.00  0.00    -0.187 N 
ATOM     15  H6  UNL     1     -22.103  -3.272 -13.008  1.00  0.00     0.184 HD
HETATM   16  C13 UNL     1     -21.003  -4.604 -14.137  1.00  0.00     0.110 A 
HETATM   17  C14 UNL     1     -19.199  -4.105 -17.203  1.00  0.00     0.069 C 
HETATM   18  C15 UNL     1     -17.934  -4.735 -17.705  1.00  0.00     0.045 C 
HETATM   19  C16 UNL     1     -20.253  -4.431 -18.306  1.00  0.00     0.045 C 
HETATM   20  N7  UNL     1     -19.146  -2.687 -17.189  1.00  0.00    -0.366 N 
ATOM     21  H7  UNL     1     -18.461  -2.223 -17.785  1.00  0.00     0.162 HD
ENDROOT
BRANCH   7  22
HETATM   22  C5  UNL     1     -19.114  -7.117 -15.985  1.00  0.00     0.131 C 
BRANCH  22  23
HETATM   23  C6  UNL     1     -19.897  -7.933 -16.949  1.00  0.00     0.050 C 
BRANCH  23  24
HETATM   24  C7  UNL     1     -18.873  -8.697 -17.812  1.00  0.00     0.273 C 
BRANCH  24  25
HETATM   25  N3  UNL     1     -18.723  -7.940 -19.038  1.00  0.00     0.080 N 
HETATM   26  C8  UNL     1     -19.880  -7.965 -19.883  1.00  0.00     0.309 C 
HETATM   27  C9  UNL     1     -17.523  -8.308 -19.765  1.00  0.00     0.309 C 
ENDBRANCH  24  25
ENDBRANCH  23  24
ENDBRANCH  22  23
ENDBRANCH   7  22
BRANCH  13  28
HETATM   28  N5  UNL     1     -22.900  -4.831 -11.223  1.00  0.00    -0.234 N 
ATOM     29  H52 UNL     1     -22.880  -5.400 -10.376  1.00  0.00     0.174 HD
ATOM     30  H51 UNL     1     -23.507  -4.012 -11.265  1.00  0.00     0.174 HD
ENDBRANCH  13  28
TORSDOF 5
ENDMDL
