MODEL 1
REMARK VINA RESULT: -5.983471786      0.000      0.000
REMARK  3 active torsions:
REMARK  status: ('A' for Active; 'I' for Inactive)
REMARK    1  A    between atoms: C4_9  and  C5_10 
REMARK    2  A    between atoms: C5_10  and  N3_11 
REMARK    3  A    between atoms: C11_21  and  N5_22 
ROOT
HETATM    1  C1  UNL     1     -22.133  -1.551 -20.212  1.00  0.00     0.089 C 
HETATM    2  C2  UNL     1     -21.515  -1.796 -18.881  1.00  0.00     0.080 A 
HETATM    3  N1  UNL     1     -21.430  -0.938 -17.891  1.00  0.00    -0.332 N 
ATOM      4  H1  UNL     1     -21.759   0.012 -18.062  1.00  0.00     0.168 HD
HETATM    5  C3  UNL     1     -20.929  -1.219 -16.637  1.00  0.00     0.111 A 
HETATM    6  N2  UNL     1     -20.907  -0.286 -15.840  1.00  0.00    -0.385 N 
ATOM      7  H21 UNL     1     -20.537  -0.495 -14.913  1.00  0.00     0.157 HD
ATOM      8  H22 UNL     1     -21.228   0.675 -15.961  1.00  0.00     0.157 HD
HETATM    9  C4  UNL     1     -20.490  -2.532 -16.471  1.00  0.00     0.047 A 
HETATM   10  C11 UNL     1     -20.553  -3.439 -17.499  1.00  0.00     0.116 A 
HETATM   11  N7  UNL     1     -21.059  -3.081 -18.678  1.00  0.00    -0.332 N 
ATOM     12  H7  UNL     1     -21.110  -3.762 -19.436  1.00  0.00     0.168 HD
ENDROOT
BRANCH   9  13
HETATM   13  C5  UNL     1     -20.095  -3.025 -15.100  1.00  0.00     0.165 C 
BRANCH  13  14
HETATM   14  N3  UNL     1     -21.282  -3.622 -14.534  1.00  0.00    -0.391 N 
HETATM   15  C6  UNL     1     -21.324  -4.692 -13.688  1.00  0.00     0.008 C 
HETATM   16  C7  UNL     1     -21.995  -4.444 -12.357  1.00  0.00     0.055 C 
HETATM   17  C10 UNL     1     -20.137  -5.554 -13.458  1.00  0.00     0.284 C 
HETATM   18  C8  UNL     1     -22.432  -5.779 -11.781  1.00  0.00     0.033 C 
HETATM   19  C9  UNL     1     -21.500  -6.911 -12.013  1.00  0.00     0.233 C 
HETATM   20  N4  UNL     1     -20.685  -6.888 -13.169  1.00  0.00    -0.070 N 
ATOM     21  H42 UNL     1     -19.940  -7.581 -13.103  1.00  0.00     0.277 HD
ATOM     22  H41 UNL     1     -21.186  -7.259 -13.976  1.00  0.00     0.277 HD
ATOM     23  H3  UNL     1     -22.176  -3.204 -14.792  1.00  0.00     0.159 HD
ENDBRANCH  13  14
ENDBRANCH   9  13
BRANCH  10  24
HETATM   24  N5  UNL     1     -19.811  -4.676 -17.464  1.00  0.00    -0.365 N 
HETATM   25  C12 UNL     1     -20.826  -5.771 -17.274  1.00  0.00     0.126 C 
HETATM   26  C13 UNL     1     -20.300  -7.029 -17.826  1.00  0.00     0.050 C 
HETATM   27  C14 UNL     1     -19.443  -7.755 -16.796  1.00  0.00     0.273 C 
HETATM   28  N6  UNL     1     -18.135  -7.139 -16.815  1.00  0.00     0.085 N 
HETATM   29  C15 UNL     1     -17.182  -8.024 -16.125  1.00  0.00     0.309 C 
HETATM   30  C16 UNL     1     -18.086  -5.804 -16.346  1.00  0.00     0.291 C 
HETATM   31  C17 UNL     1     -18.420  -4.861 -17.535  1.00  0.00     0.154 C 
ENDBRANCH  10  24
TORSDOF 3
ENDMDL
MODEL 2
REMARK VINA RESULT: -5.864960675      1.670      5.526
REMARK  3 active torsions:
REMARK  status: ('A' for Active; 'I' for Inactive)
REMARK    1  A    between atoms: C4_9  and  C5_10 
REMARK    2  A    between atoms: C5_10  and  N3_11 
REMARK    3  A    between atoms: C11_21  and  N5_22 
ROOT
HETATM    1  C1  UNL     1     -19.088  -7.898 -10.479  1.00  0.00     0.089 C 
HETATM    2  C2  UNL     1     -19.894  -7.128 -11.462  1.00  0.00     0.080 A 
HETATM    3  N1  UNL     1     -21.031  -6.513 -11.229  1.00  0.00    -0.332 N 
ATOM      4  H1  UNL     1     -21.442  -6.621 -10.302  1.00  0.00     0.168 HD
HETATM    5  C3  UNL     1     -21.714  -5.733 -12.140  1.00  0.00     0.111 A 
HETATM    6  N2  UNL     1     -22.774  -5.251 -11.752  1.00  0.00    -0.385 N 
ATOM      7  H21 UNL     1     -23.279  -4.675 -12.426  1.00  0.00     0.157 HD
ATOM      8  H22 UNL     1     -23.222  -5.325 -10.839  1.00  0.00     0.157 HD
HETATM    9  C4  UNL     1     -21.102  -5.633 -13.388  1.00  0.00     0.047 A 
HETATM   10  C11 UNL     1     -19.924  -6.283 -13.659  1.00  0.00     0.116 A 
HETATM   11  N7  UNL     1     -19.329  -7.012 -12.714  1.00  0.00    -0.332 N 
ATOM     12  H7  UNL     1     -18.450  -7.486 -12.919  1.00  0.00     0.168 HD
ENDROOT
BRANCH   9  13
HETATM   13  C5  UNL     1     -21.641  -4.664 -14.414  1.00  0.00     0.165 C 
BRANCH  13  14
HETATM   14  N3  UNL     1     -20.705  -3.564 -14.452  1.00  0.00    -0.391 N 
HETATM   15  C6  UNL     1     -20.315  -2.874 -15.562  1.00  0.00     0.008 C 
HETATM   16  C7  UNL     1     -20.567  -1.384 -15.525  1.00  0.00     0.055 C 
HETATM   17  C10 UNL     1     -20.613  -3.363 -16.931  1.00  0.00     0.284 C 
HETATM   18  C8  UNL     1     -19.641  -0.713 -16.524  1.00  0.00     0.033 C 
HETATM   19  C9  UNL     1     -19.416  -1.459 -17.788  1.00  0.00     0.233 C 
HETATM   20  N4  UNL     1     -19.502  -2.871 -17.762  1.00  0.00    -0.070 N 
ATOM     21  H42 UNL     1     -19.560  -3.250 -18.708  1.00  0.00     0.277 HD
ATOM     22  H41 UNL     1     -18.618  -3.286 -17.470  1.00  0.00     0.277 HD
ATOM     23  H3  UNL     1     -20.297  -3.275 -13.563  1.00  0.00     0.159 HD
ENDBRANCH  13  14
ENDBRANCH   9  13
BRANCH  10  24
HETATM   24  N5  UNL     1     -19.456  -6.472 -15.010  1.00  0.00    -0.365 N 
HETATM   25  C12 UNL     1     -20.420  -7.428 -15.660  1.00  0.00     0.126 C 
HETATM   26  C13 UNL     1     -20.419  -7.214 -17.115  1.00  0.00     0.050 C 
HETATM   27  C14 UNL     1     -19.304  -8.014 -17.779  1.00  0.00     0.273 C 
HETATM   28  N6  UNL     1     -18.081  -7.262 -17.614  1.00  0.00     0.085 N 
HETATM   29  C15 UNL     1     -17.066  -7.794 -18.539  1.00  0.00     0.309 C 
HETATM   30  C16 UNL     1     -17.609  -7.153 -16.284  1.00  0.00     0.291 C 
HETATM   31  C17 UNL     1     -18.310  -5.936 -15.620  1.00  0.00     0.154 C 
ENDBRANCH  10  24
TORSDOF 3
ENDMDL
MODEL 3
REMARK VINA RESULT: -5.776839763      1.682      5.684
REMARK  3 active torsions:
REMARK  status: ('A' for Active; 'I' for Inactive)
REMARK    1  A    between atoms: C4_9  and  C5_10 
REMARK    2  A    between atoms: C5_10  and  N3_11 
REMARK    3  A    between atoms: C11_21  and  N5_22 
ROOT
HETATM    1  C1  UNL     1     -19.131  -7.947 -10.503  1.00  0.00     0.089 C 
HETATM    2  C2  UNL     1     -19.943  -7.171 -11.477  1.00  0.00     0.080 A 
HETATM    3  N1  UNL     1     -20.994  -6.432 -11.204  1.00  0.00    -0.332 N 
ATOM      4  H1  UNL     1     -21.332  -6.434 -10.243  1.00  0.00     0.168 HD
HETATM    5  C3  UNL     1     -21.676  -5.654 -12.117  1.00  0.00     0.111 A 
HETATM    6  N2  UNL     1     -22.650  -5.043 -11.686  1.00  0.00    -0.385 N 
ATOM      7  H21 UNL     1     -23.154  -4.468 -12.361  1.00  0.00     0.157 HD
ATOM      8  H22 UNL     1     -23.023  -5.009 -10.737  1.00  0.00     0.157 HD
HETATM    9  C4  UNL     1     -21.166  -5.701 -13.413  1.00  0.00     0.047 A 
HETATM   10  C11 UNL     1     -20.081  -6.482 -13.723  1.00  0.00     0.116 A 
HETATM   11  N7  UNL     1     -19.478  -7.199 -12.775  1.00  0.00    -0.332 N 
ATOM     12  H7  UNL     1     -18.668  -7.771 -13.011  1.00  0.00     0.168 HD
ENDROOT
BRANCH   9  13
HETATM   13  C5  UNL     1     -21.698  -4.758 -14.465  1.00  0.00     0.165 C 
BRANCH  13  14
HETATM   14  N3  UNL     1     -20.804  -3.623 -14.470  1.00  0.00    -0.391 N 
HETATM   15  C6  UNL     1     -20.396  -2.921 -15.566  1.00  0.00     0.008 C 
HETATM   16  C7  UNL     1     -20.706  -1.442 -15.546  1.00  0.00     0.055 C 
HETATM   17  C10 UNL     1     -20.619  -3.425 -16.945  1.00  0.00     0.284 C 
HETATM   18  C8  UNL     1     -19.766  -0.739 -16.509  1.00  0.00     0.033 C 
HETATM   19  C9  UNL     1     -19.461  -1.480 -17.760  1.00  0.00     0.233 C 
HETATM   20  N4  UNL     1     -19.495  -2.893 -17.732  1.00  0.00    -0.070 N 
ATOM     21  H42 UNL     1     -19.500  -3.277 -18.678  1.00  0.00     0.277 HD
ATOM     22  H41 UNL     1     -18.608  -3.273 -17.403  1.00  0.00     0.277 HD
ATOM     23  H3  UNL     1     -20.443  -3.316 -13.566  1.00  0.00     0.159 HD
ENDBRANCH  13  14
ENDBRANCH   9  13
BRANCH  10  24
HETATM   24  N5  UNL     1     -19.750  -6.810 -15.088  1.00  0.00    -0.365 N 
HETATM   25  C12 UNL     1     -18.486  -6.057 -15.408  1.00  0.00     0.126 C 
HETATM   26  C13 UNL     1     -17.753  -6.757 -16.473  1.00  0.00     0.050 C 
HETATM   27  C14 UNL     1     -18.257  -6.333 -17.847  1.00  0.00     0.273 C 
HETATM   28  N6  UNL     1     -19.463  -7.085 -18.112  1.00  0.00     0.085 N 
HETATM   29  C15 UNL     1     -19.777  -6.992 -19.547  1.00  0.00     0.309 C 
HETATM   30  C16 UNL     1     -20.568  -6.770 -17.286  1.00  0.00     0.291 C 
HETATM   31  C17 UNL     1     -20.461  -7.620 -15.990  1.00  0.00     0.154 C 
ENDBRANCH  10  24
TORSDOF 3
ENDMDL
MODEL 4
REMARK VINA RESULT: -5.696274550      0.925      1.509
REMARK  3 active torsions:
REMARK  status: ('A' for Active; 'I' for Inactive)
REMARK    1  A    between atoms: C4_9  and  C5_10 
REMARK    2  A    between atoms: C5_10  and  N3_11 
REMARK    3  A    between atoms: C11_21  and  N5_22 
ROOT
HETATM    1  C1  UNL     1     -22.378  -1.183 -20.119  1.00  0.00     0.089 C 
HETATM    2  C2  UNL     1     -21.702  -1.513 -18.837  1.00  0.00     0.080 A 
HETATM    3  N1  UNL     1     -21.510  -0.700 -17.823  1.00  0.00    -0.332 N 
ATOM      4  H1  UNL     1     -21.794   0.272 -17.941  1.00  0.00     0.168 HD
HETATM    5  C3  UNL     1     -20.956  -1.058 -16.612  1.00  0.00     0.111 A 
HETATM    6  N2  UNL     1     -20.835  -0.159 -15.785  1.00  0.00    -0.385 N 
ATOM      7  H21 UNL     1     -20.425  -0.424 -14.889  1.00  0.00     0.157 HD
ATOM      8  H22 UNL     1     -21.106   0.822 -15.853  1.00  0.00     0.157 HD
HETATM    9  C4  UNL     1     -20.585  -2.398 -16.519  1.00  0.00     0.047 A 
HETATM   10  C11 UNL     1     -20.758  -3.260 -17.573  1.00  0.00     0.116 A 
HETATM   11  N7  UNL     1     -21.310  -2.828 -18.707  1.00  0.00    -0.332 N 
ATOM     12  H7  UNL     1     -21.443  -3.476 -19.484  1.00  0.00     0.168 HD
ENDROOT
BRANCH   9  13
HETATM   13  C5  UNL     1     -20.141  -2.965 -15.192  1.00  0.00     0.165 C 
BRANCH  13  14
HETATM   14  N3  UNL     1     -21.318  -3.559 -14.599  1.00  0.00    -0.391 N 
HETATM   15  C6  UNL     1     -21.348  -4.656 -13.789  1.00  0.00     0.008 C 
HETATM   16  C7  UNL     1     -21.961  -4.441 -12.424  1.00  0.00     0.055 C 
HETATM   17  C10 UNL     1     -20.171  -5.548 -13.636  1.00  0.00     0.284 C 
HETATM   18  C8  UNL     1     -22.402  -5.787 -11.877  1.00  0.00     0.033 C 
HETATM   19  C9  UNL     1     -21.504  -6.928 -12.184  1.00  0.00     0.233 C 
HETATM   20  N4  UNL     1     -20.735  -6.881 -13.370  1.00  0.00    -0.070 N 
ATOM     21  H42 UNL     1     -20.002  -7.590 -13.358  1.00  0.00     0.277 HD
ATOM     22  H41 UNL     1     -21.275  -7.214 -14.168  1.00  0.00     0.277 HD
ATOM     23  H3  UNL     1     -22.212  -3.115 -14.807  1.00  0.00     0.159 HD
ENDBRANCH  13  14
ENDBRANCH   9  13
BRANCH  10  24
HETATM   24  N5  UNL     1     -20.088  -4.536 -17.626  1.00  0.00    -0.365 N 
HETATM   25  C12 UNL     1     -18.682  -4.255 -18.085  1.00  0.00     0.126 C 
HETATM   26  C13 UNL     1     -17.786  -5.314 -17.597  1.00  0.00     0.050 C 
HETATM   27  C14 UNL     1     -17.775  -6.499 -18.556  1.00  0.00     0.273 C 
HETATM   28  N6  UNL     1     -18.950  -7.290 -18.272  1.00  0.00     0.085 N 
HETATM   29  C15 UNL     1     -18.797  -8.614 -18.899  1.00  0.00     0.309 C 
HETATM   30  C16 UNL     1     -20.187  -6.675 -18.582  1.00  0.00     0.291 C 
HETATM   31  C17 UNL     1     -20.617  -5.811 -17.365  1.00  0.00     0.154 C 
ENDBRANCH  10  24
TORSDOF 3
ENDMDL
MODEL 5
REMARK VINA RESULT: -5.529248898      1.169      1.791
REMARK  3 active torsions:
REMARK  status: ('A' for Active; 'I' for Inactive)
REMARK    1  A    between atoms: C4_9  and  C5_10 
REMARK    2  A    between atoms: C5_10  and  N3_11 
REMARK    3  A    between atoms: C11_21  and  N5_22 
ROOT
HETATM    1  C1  UNL     1     -21.353  -3.080 -20.220  1.00  0.00     0.089 C 
HETATM    2  C2  UNL     1     -20.980  -3.003 -18.783  1.00  0.00     0.080 A 
HETATM    3  N1  UNL     1     -21.265  -2.025 -17.954  1.00  0.00    -0.332 N 
ATOM      4  H1  UNL     1     -21.732  -1.204 -18.339  1.00  0.00     0.168 HD
HETATM    5  C3  UNL     1     -20.981  -2.020 -16.604  1.00  0.00     0.111 A 
HETATM    6  N2  UNL     1     -21.304  -1.009 -15.987  1.00  0.00    -0.385 N 
ATOM      7  H21 UNL     1     -21.094  -1.006 -14.988  1.00  0.00     0.157 HD
ATOM      8  H22 UNL     1     -21.774  -0.169 -16.323  1.00  0.00     0.157 HD
HETATM    9  C4  UNL     1     -20.337  -3.167 -16.145  1.00  0.00     0.047 A 
HETATM   10  C11 UNL     1     -20.014  -4.193 -16.998  1.00  0.00     0.116 A 
HETATM   11  N7  UNL     1     -20.333  -4.115 -18.289  1.00  0.00    -0.332 N 
ATOM     12  H7  UNL     1     -20.096  -4.884 -18.917  1.00  0.00     0.168 HD
ENDROOT
BRANCH   9  13
HETATM   13  C5  UNL     1     -20.137  -3.375 -14.662  1.00  0.00     0.165 C 
BRANCH  13  14
HETATM   14  N3  UNL     1     -21.067  -4.411 -14.276  1.00  0.00    -0.391 N 
HETATM   15  C6  UNL     1     -20.828  -5.423 -13.394  1.00  0.00     0.008 C 
HETATM   16  C7  UNL     1     -21.768  -5.493 -12.212  1.00  0.00     0.055 C 
HETATM   17  C10 UNL     1     -19.458  -5.738 -12.918  1.00  0.00     0.284 C 
HETATM   18  C8  UNL     1     -21.730  -6.902 -11.648  1.00  0.00     0.033 C 
HETATM   19  C9  UNL     1     -20.398  -7.558 -11.656  1.00  0.00     0.233 C 
HETATM   20  N4  UNL     1     -19.468  -7.186 -12.655  1.00  0.00    -0.070 N 
ATOM     21  H42 UNL     1     -18.533  -7.522 -12.425  1.00  0.00     0.277 HD
ATOM     22  H41 UNL     1     -19.627  -7.711 -13.515  1.00  0.00     0.277 HD
ATOM     23  H3  UNL     1     -21.993  -4.383 -14.706  1.00  0.00     0.159 HD
ENDBRANCH  13  14
ENDBRANCH   9  13
BRANCH  10  24
HETATM   24  N5  UNL     1     -19.067  -5.216 -16.627  1.00  0.00    -0.365 N 
HETATM   25  C12 UNL     1     -17.733  -4.530 -16.502  1.00  0.00     0.126 C 
HETATM   26  C13 UNL     1     -16.878  -5.286 -15.574  1.00  0.00     0.050 C 
HETATM   27  C14 UNL     1     -16.143  -6.405 -16.303  1.00  0.00     0.273 C 
HETATM   28  N6  UNL     1     -17.066  -7.509 -16.434  1.00  0.00     0.085 N 
HETATM   29  C15 UNL     1     -16.310  -8.722 -16.790  1.00  0.00     0.309 C 
HETATM   30  C16 UNL     1     -18.170  -7.279 -17.290  1.00  0.00     0.291 C 
HETATM   31  C17 UNL     1     -19.290  -6.593 -16.460  1.00  0.00     0.154 C 
ENDBRANCH  10  24
TORSDOF 3
ENDMDL
