MODEL 1
REMARK VINA RESULT: -6.285960932      0.000      0.000
REMARK  8 active torsions:
REMARK  status: ('A' for Active; 'I' for Inactive)
REMARK    1  A    between atoms: C4_7  and  C5_8 
REMARK    2  A    between atoms: N3_11  and  C8_12 
REMARK    3  A    between atoms: C9_15  and  N5_16 
REMARK    4  A    between atoms: C10_21  and  N7_22 
REMARK    5  A    between atoms: N7_22  and  C11_24 
REMARK    6  A    between atoms: C11_24  and  C12_25 
REMARK    7  A    between atoms: C12_25  and  C13_26 
REMARK    8  A    between atoms: C13_26  and  C14_27 
ROOT
HETATM    1  C8  UNL     1      -3.263  46.392 -11.395  1.00  0.00     0.144 A 
HETATM    2  N4  UNL     1      -2.980  45.100 -11.670  1.00  0.00    -0.175 N 
ATOM      3  H4  UNL     1      -3.696  44.492 -12.065  1.00  0.00     0.186 HD
HETATM    4  C9  UNL     1      -1.746  44.617 -11.419  1.00  0.00     0.679 A 
HETATM    5  N6  UNL     1      -0.740  45.347 -10.899  1.00  0.00    -0.175 N 
ATOM      6  H6  UNL     1       0.177  44.936 -10.728  1.00  0.00     0.186 HD
HETATM    7  C10 UNL     1      -0.991  46.636 -10.614  1.00  0.00     0.146 A 
HETATM    8  C15 UNL     1      -2.273  47.153 -10.869  1.00  0.00     0.122 A 
HETATM    9 CL1  UNL     1      -2.590  48.829 -10.500  1.00  0.00    -0.076 Cl
ENDROOT
BRANCH   1  10
HETATM   10  N3  UNL     1      -4.571  46.865 -11.680  1.00  0.00    -0.365 N 
HETATM   11  C7  UNL     1      -5.557  46.759 -10.633  1.00  0.00     0.125 C 
HETATM   12  C6  UNL     1      -6.636  47.791 -10.869  1.00  0.00     0.032 C 
HETATM   13  C5  UNL     1      -7.159  47.483 -12.286  1.00  0.00     0.056 C 
HETATM   14  C17 UNL     1      -6.142  48.006 -13.227  1.00  0.00     0.032 C 
HETATM   15  C16 UNL     1      -4.802  47.410 -12.992  1.00  0.00     0.125 C 
BRANCH  13  16
HETATM   16  C4  UNL     1      -8.496  48.074 -12.377  1.00  0.00     0.088 A 
HETATM   17  N2  UNL     1      -8.593  49.420 -12.221  1.00  0.00    -0.342 N 
HETATM   18  C3  UNL     1      -9.717  50.114 -12.268  1.00  0.00     0.084 A 
ATOM     19  H2  UNL     1      -7.730  49.937 -12.054  1.00  0.00     0.167 HD
HETATM   20  C2  UNL     1     -10.116  51.426 -12.155  1.00  0.00     0.141 A 
HETATM   21  C19 UNL     1     -10.902  49.415 -12.494  1.00  0.00     0.144 A 
HETATM   22  N1  UNL     1     -11.445  51.547 -12.298  1.00  0.00    -0.305 N 
HETATM   23  C1  UNL     1     -12.262  52.757 -12.248  1.00  0.00     0.177 C 
HETATM   24  N11 UNL     1     -11.896  50.310 -12.504  1.00  0.00    -0.292 N 
ATOM     25  H11 UNL     1     -12.877  50.074 -12.650  1.00  0.00     0.187 HD
HETATM   26  C18 UNL     1     -10.798  48.029 -12.654  1.00  0.00     0.277 A 
HETATM   27  N10 UNL     1      -9.617  47.395 -12.593  1.00  0.00    -0.311 N 
HETATM   28  O1  UNL     1     -11.873  47.380 -12.861  1.00  0.00    -0.266 OA
ATOM     29  H10 UNL     1      -9.579  46.383 -12.714  1.00  0.00     0.170 HD
ENDBRANCH  13  16
ENDBRANCH   1  10
BRANCH   4  30
HETATM   30  N5  UNL     1      -1.471  43.372 -11.684  1.00  0.00    -0.234 N 
ATOM     31  H52 UNL     1      -1.451  43.118 -12.673  1.00  0.00     0.174 HD
ATOM     32  H51 UNL     1      -1.292  42.718 -10.923  1.00  0.00     0.174 HD
ENDBRANCH   4  30
BRANCH   7  33
HETATM   33  N7  UNL     1      -0.138  47.421 -10.137  1.00  0.00    -0.354 N 
ATOM     34  H7  UNL     1       0.196  48.101 -10.820  1.00  0.00     0.166 HD
BRANCH  33  35
HETATM   35  C11 UNL     1       0.462  47.578  -8.882  1.00  0.00     0.063 C 
BRANCH  35  36
HETATM   36  C12 UNL     1      -0.428  47.030  -7.780  1.00  0.00     0.051 C 
BRANCH  36  37
HETATM   37  C13 UNL     1      -1.262  48.104  -7.166  1.00  0.00     0.077 C 
BRANCH  37  38
HETATM   38  C14 UNL     1      -2.680  47.735  -7.140  1.00  0.00     0.086 C 
HETATM   39  N8  UNL     1      -3.569  48.614  -6.823  1.00  0.00    -0.391 N 
ATOM     40  H82 UNL     1      -3.284  49.573  -6.621  1.00  0.00     0.157 HD
ATOM     41  H81 UNL     1      -4.556  48.358  -6.806  1.00  0.00     0.157 HD
HETATM   42  N9  UNL     1      -3.074  46.411  -7.420  1.00  0.00    -0.088 NA
ENDBRANCH  37  38
ENDBRANCH  36  37
ENDBRANCH  35  36
ENDBRANCH  33  35
ENDBRANCH   7  33
TORSDOF 8
ENDMDL
MODEL 2
REMARK VINA RESULT: -6.119364478      2.094      2.418
REMARK  8 active torsions:
REMARK  status: ('A' for Active; 'I' for Inactive)
REMARK    1  A    between atoms: C4_7  and  C5_8 
REMARK    2  A    between atoms: N3_11  and  C8_12 
REMARK    3  A    between atoms: C9_15  and  N5_16 
REMARK    4  A    between atoms: C10_21  and  N7_22 
REMARK    5  A    between atoms: N7_22  and  C11_24 
REMARK    6  A    between atoms: C11_24  and  C12_25 
REMARK    7  A    between atoms: C12_25  and  C13_26 
REMARK    8  A    between atoms: C13_26  and  C14_27 
ROOT
HETATM    1  C8  UNL     1      -3.562  45.338 -11.314  1.00  0.00     0.144 A 
HETATM    2  N4  UNL     1      -2.940  44.160 -11.535  1.00  0.00    -0.175 N 
ATOM      3  H4  UNL     1      -3.480  43.338 -11.805  1.00  0.00     0.186 HD
HETATM    4  C9  UNL     1      -1.601  44.074 -11.396  1.00  0.00     0.679 A 
HETATM    5  N6  UNL     1      -0.810  45.105 -11.043  1.00  0.00    -0.175 N 
ATOM      6  H6  UNL     1       0.199  44.990 -10.952  1.00  0.00     0.186 HD
HETATM    7  C10 UNL     1      -1.400  46.291 -10.816  1.00  0.00     0.146 A 
HETATM    8  C15 UNL     1      -2.795  46.396 -10.956  1.00  0.00     0.122 A 
HETATM    9 CL1  UNL     1      -3.553  47.940 -10.662  1.00  0.00    -0.076 Cl
ENDROOT
BRANCH   1  10
HETATM   10  N3  UNL     1      -4.972  45.391 -11.477  1.00  0.00    -0.365 N 
HETATM   11  C7  UNL     1      -5.784  45.097 -10.323  1.00  0.00     0.125 C 
HETATM   12  C6  UNL     1      -7.136  45.753 -10.493  1.00  0.00     0.032 C 
HETATM   13  C5  UNL     1      -7.671  45.188 -11.824  1.00  0.00     0.056 C 
HETATM   14  C17 UNL     1      -6.942  45.898 -12.900  1.00  0.00     0.032 C 
HETATM   15  C16 UNL     1      -5.470  45.734 -12.783  1.00  0.00     0.125 C 
BRANCH  13  16
HETATM   16  C4  UNL     1      -9.125  45.361 -11.798  1.00  0.00     0.088 A 
HETATM   17  N2  UNL     1      -9.627  46.494 -12.355  1.00  0.00    -0.342 N 
HETATM   18  C3  UNL     1     -10.908  46.812 -12.414  1.00  0.00     0.084 A 
ATOM     19  H2  UNL     1      -8.961  47.153 -12.760  1.00  0.00     0.167 HD
HETATM   20  C2  UNL     1     -11.687  47.840 -12.894  1.00  0.00     0.141 A 
HETATM   21  C19 UNL     1     -11.824  45.919 -11.861  1.00  0.00     0.144 A 
HETATM   22  N1  UNL     1     -12.991  47.614 -12.664  1.00  0.00    -0.305 N 
HETATM   23  C1  UNL     1     -14.137  48.450 -13.012  1.00  0.00     0.177 C 
HETATM   24  N11 UNL     1     -13.043  46.440 -12.036  1.00  0.00    -0.292 N 
ATOM     25  H11 UNL     1     -13.907  45.994 -11.726  1.00  0.00     0.187 HD
HETATM   26  C18 UNL     1     -11.304  44.754 -11.288  1.00  0.00     0.277 A 
HETATM   27  N10 UNL     1      -9.986  44.500 -11.268  1.00  0.00    -0.311 N 
HETATM   28  O1  UNL     1     -12.131  43.929 -10.780  1.00  0.00    -0.266 OA
ATOM     29  H10 UNL     1      -9.643  43.640 -10.841  1.00  0.00     0.170 HD
ENDBRANCH  13  16
ENDBRANCH   1  10
BRANCH   4  30
HETATM   30  N5  UNL     1      -0.999  42.939 -11.610  1.00  0.00    -0.234 N 
ATOM     31  H52 UNL     1      -1.012  42.599 -12.572  1.00  0.00     0.174 HD
ATOM     32  H51 UNL     1      -0.553  42.447 -10.836  1.00  0.00     0.174 HD
ENDBRANCH   4  30
BRANCH   7  33
HETATM   33  N7  UNL     1      -0.774  47.328 -10.492  1.00  0.00    -0.354 N 
ATOM     34  H7  UNL     1      -0.899  48.088 -11.161  1.00  0.00     0.166 HD
BRANCH  33  35
HETATM   35  C11 UNL     1       0.058  47.681  -9.423  1.00  0.00     0.063 C 
BRANCH  35  36
HETATM   36  C12 UNL     1      -0.444  47.084  -8.121  1.00  0.00     0.051 C 
BRANCH  36  37
HETATM   37  C13 UNL     1      -1.195  48.088  -7.312  1.00  0.00     0.077 C 
BRANCH  37  38
HETATM   38  C14 UNL     1      -2.608  47.721  -7.177  1.00  0.00     0.086 C 
HETATM   39  N8  UNL     1      -3.475  48.612  -6.832  1.00  0.00    -0.391 N 
ATOM     40  H82 UNL     1      -3.179  49.577  -6.685  1.00  0.00     0.157 HD
ATOM     41  H81 UNL     1      -4.458  48.357  -6.738  1.00  0.00     0.157 HD
HETATM   42  N9  UNL     1      -3.017  46.388  -7.380  1.00  0.00    -0.088 NA
ENDBRANCH  37  38
ENDBRANCH  36  37
ENDBRANCH  35  36
ENDBRANCH  33  35
ENDBRANCH   7  33
TORSDOF 8
ENDMDL
MODEL 3
REMARK VINA RESULT: -6.076403496      1.359      1.736
REMARK  8 active torsions:
REMARK  status: ('A' for Active; 'I' for Inactive)
REMARK    1  A    between atoms: C4_7  and  C5_8 
REMARK    2  A    between atoms: N3_11  and  C8_12 
REMARK    3  A    between atoms: C9_15  and  N5_16 
REMARK    4  A    between atoms: C10_21  and  N7_22 
REMARK    5  A    between atoms: N7_22  and  C11_24 
REMARK    6  A    between atoms: C11_24  and  C12_25 
REMARK    7  A    between atoms: C12_25  and  C13_26 
REMARK    8  A    between atoms: C13_26  and  C14_27 
ROOT
HETATM    1  C8  UNL     1      -3.352  46.784 -11.348  1.00  0.00     0.144 A 
HETATM    2  N4  UNL     1      -3.273  45.466 -11.629  1.00  0.00    -0.175 N 
ATOM      3  H4  UNL     1      -4.077  44.976 -12.020  1.00  0.00     0.186 HD
HETATM    4  C9  UNL     1      -2.125  44.799 -11.391  1.00  0.00     0.679 A 
HETATM    5  N6  UNL     1      -1.016  45.364 -10.878  1.00  0.00    -0.175 N 
ATOM      6  H6  UNL     1      -0.170  44.817 -10.716  1.00  0.00     0.186 HD
HETATM    7  C10 UNL     1      -1.064  46.675 -10.587  1.00  0.00     0.146 A 
HETATM    8  C15 UNL     1      -2.253  47.383 -10.829  1.00  0.00     0.122 A 
HETATM    9 CL1  UNL     1      -2.307  49.086 -10.452  1.00  0.00    -0.076 Cl
ENDROOT
BRANCH   1  10
HETATM   10  N3  UNL     1      -4.576  47.453 -11.621  1.00  0.00    -0.365 N 
HETATM   11  C7  UNL     1      -5.397  47.818 -10.493  1.00  0.00     0.125 C 
HETATM   12  C6  UNL     1      -6.284  48.977 -10.886  1.00  0.00     0.032 C 
HETATM   13  C5  UNL     1      -7.060  48.465 -12.116  1.00  0.00     0.056 C 
HETATM   14  C17 UNL     1      -6.114  48.515 -13.254  1.00  0.00     0.032 C 
HETATM   15  C16 UNL     1      -4.891  47.711 -13.001  1.00  0.00     0.125 C 
BRANCH  13  16
HETATM   16  C4  UNL     1      -8.260  49.298 -12.230  1.00  0.00     0.088 A 
HETATM   17  N2  UNL     1      -9.453  48.660 -12.348  1.00  0.00    -0.342 N 
HETATM   18  C3  UNL     1     -10.628  49.253 -12.465  1.00  0.00     0.084 A 
ATOM     19  H2  UNL     1      -9.441  47.639 -12.347  1.00  0.00     0.167 HD
HETATM   20  C2  UNL     1     -11.949  48.892 -12.594  1.00  0.00     0.141 A 
HETATM   21  C19 UNL     1     -10.653  50.647 -12.469  1.00  0.00     0.144 A 
HETATM   22  N1  UNL     1     -12.745  49.970 -12.672  1.00  0.00    -0.305 N 
HETATM   23  C1  UNL     1     -14.198  50.023 -12.814  1.00  0.00     0.177 C 
HETATM   24  N11 UNL     1     -11.931  51.021 -12.593  1.00  0.00    -0.292 N 
ATOM     25  H11 UNL     1     -12.242  51.992 -12.624  1.00  0.00     0.187 HD
HETATM   26  C18 UNL     1      -9.423  51.302 -12.348  1.00  0.00     0.277 A 
HETATM   27  N10 UNL     1      -8.268  50.627 -12.232  1.00  0.00    -0.311 N 
HETATM   28  O1  UNL     1      -9.432  52.575 -12.349  1.00  0.00    -0.266 OA
ATOM     29  H10 UNL     1      -7.390  51.138 -12.145  1.00  0.00     0.170 HD
ENDBRANCH  13  16
ENDBRANCH   1  10
BRANCH   4  30
HETATM   30  N5  UNL     1      -2.046  43.527 -11.663  1.00  0.00    -0.234 N 
ATOM     31  H52 UNL     1      -2.129  43.273 -12.648  1.00  0.00     0.174 HD
ATOM     32  H51 UNL     1      -1.910  42.855 -10.908  1.00  0.00     0.174 HD
ENDBRANCH   4  30
BRANCH   7  33
HETATM   33  N7  UNL     1      -0.096  47.319 -10.116  1.00  0.00    -0.354 N 
ATOM     34  H7  UNL     1       0.406  47.850 -10.826  1.00  0.00     0.166 HD
BRANCH  33  35
HETATM   35  C11 UNL     1       0.452  47.473  -8.837  1.00  0.00     0.063 C 
BRANCH  35  36
HETATM   36  C12 UNL     1      -0.508  46.982  -7.768  1.00  0.00     0.051 C 
BRANCH  36  37
HETATM   37  C13 UNL     1      -1.307  48.103  -7.192  1.00  0.00     0.077 C 
BRANCH  37  38
HETATM   38  C14 UNL     1      -2.734  47.771  -7.132  1.00  0.00     0.086 C 
HETATM   39  N8  UNL     1      -3.590  48.668  -6.777  1.00  0.00    -0.391 N 
ATOM     40  H82 UNL     1      -3.274  49.616  -6.569  1.00  0.00     0.157 HD
ATOM     41  H81 UNL     1      -4.582  48.438  -6.735  1.00  0.00     0.157 HD
HETATM   42  N9  UNL     1      -3.170  46.462  -7.419  1.00  0.00    -0.088 NA
ENDBRANCH  37  38
ENDBRANCH  36  37
ENDBRANCH  35  36
ENDBRANCH  33  35
ENDBRANCH   7  33
TORSDOF 8
ENDMDL
MODEL 4
REMARK VINA RESULT: -6.058184971      1.165      1.891
REMARK  8 active torsions:
REMARK  status: ('A' for Active; 'I' for Inactive)
REMARK    1  A    between atoms: C4_7  and  C5_8 
REMARK    2  A    between atoms: N3_11  and  C8_12 
REMARK    3  A    between atoms: C9_15  and  N5_16 
REMARK    4  A    between atoms: C10_21  and  N7_22 
REMARK    5  A    between atoms: N7_22  and  C11_24 
REMARK    6  A    between atoms: C11_24  and  C12_25 
REMARK    7  A    between atoms: C12_25  and  C13_26 
REMARK    8  A    between atoms: C13_26  and  C14_27 
ROOT
HETATM    1  C8  UNL     1      -3.271  46.377 -11.391  1.00  0.00     0.144 A 
HETATM    2  N4  UNL     1      -2.974  45.091 -11.673  1.00  0.00    -0.175 N 
ATOM      3  H4  UNL     1      -3.685  44.476 -12.070  1.00  0.00     0.186 HD
HETATM    4  C9  UNL     1      -1.734  44.621 -11.428  1.00  0.00     0.679 A 
HETATM    5  N6  UNL     1      -0.735  45.359 -10.907  1.00  0.00    -0.175 N 
ATOM      6  H6  UNL     1       0.187  44.958 -10.740  1.00  0.00     0.186 HD
HETATM    7  C10 UNL     1      -1.001  46.644 -10.614  1.00  0.00     0.146 A 
HETATM    8  C15 UNL     1      -2.289  47.148 -10.863  1.00  0.00     0.122 A 
HETATM    9 CL1  UNL     1      -2.625  48.817 -10.484  1.00  0.00    -0.076 Cl
ENDROOT
BRANCH   1  10
HETATM   10  N3  UNL     1      -4.586  46.837 -11.670  1.00  0.00    -0.365 N 
HETATM   11  C7  UNL     1      -5.553  46.766 -10.603  1.00  0.00     0.125 C 
HETATM   12  C6  UNL     1      -6.639  47.786 -10.856  1.00  0.00     0.032 C 
HETATM   13  C5  UNL     1      -7.186  47.426 -12.252  1.00  0.00     0.056 C 
HETATM   14  C17 UNL     1      -6.187  47.918 -13.229  1.00  0.00     0.032 C 
HETATM   15  C16 UNL     1      -4.841  47.335 -12.996  1.00  0.00     0.125 C 
BRANCH  13  16
HETATM   16  C4  UNL     1      -8.526  48.010 -12.341  1.00  0.00     0.088 A 
HETATM   17  N2  UNL     1      -9.567  47.156 -12.517  1.00  0.00    -0.342 N 
HETATM   18  C3  UNL     1     -10.836  47.511 -12.622  1.00  0.00     0.084 A 
ATOM     19  H2  UNL     1      -9.353  46.160 -12.574  1.00  0.00     0.167 HD
HETATM   20  C2  UNL     1     -12.058  46.904 -12.795  1.00  0.00     0.141 A 
HETATM   21  C19 UNL     1     -11.137  48.870 -12.547  1.00  0.00     0.144 A 
HETATM   22  N1  UNL     1     -13.052  47.806 -12.827  1.00  0.00    -0.305 N 
HETATM   23  C1  UNL     1     -14.486  47.578 -12.992  1.00  0.00     0.177 C 
HETATM   24  N11 UNL     1     -12.463  48.991 -12.674  1.00  0.00    -0.292 N 
ATOM     25  H11 UNL     1     -12.961  49.881 -12.656  1.00  0.00     0.187 HD
HETATM   26  C18 UNL     1     -10.063  49.747 -12.367  1.00  0.00     0.277 A 
HETATM   27  N10 UNL     1      -8.798  49.308 -12.268  1.00  0.00    -0.311 N 
HETATM   28  O1  UNL     1     -10.325  50.991 -12.296  1.00  0.00    -0.266 OA
ATOM     29  H10 UNL     1      -8.039  49.977 -12.136  1.00  0.00     0.170 HD
ENDBRANCH  13  16
ENDBRANCH   1  10
BRANCH   4  30
HETATM   30  N5  UNL     1      -1.445  43.380 -11.701  1.00  0.00    -0.234 N 
ATOM     31  H52 UNL     1      -1.788  43.027 -12.595  1.00  0.00     0.174 HD
ATOM     32  H51 UNL     1      -0.907  42.826 -11.036  1.00  0.00     0.174 HD
ENDBRANCH   4  30
BRANCH   7  33
HETATM   33  N7  UNL     1      -0.155  47.437 -10.136  1.00  0.00    -0.354 N 
ATOM     34  H7  UNL     1       0.151  48.139 -10.809  1.00  0.00     0.166 HD
BRANCH  33  35
HETATM   35  C11 UNL     1       0.465  47.577  -8.889  1.00  0.00     0.063 C 
BRANCH  35  36
HETATM   36  C12 UNL     1      -0.412  47.027  -7.778  1.00  0.00     0.051 C 
BRANCH  36  37
HETATM   37  C13 UNL     1      -1.245  48.099  -7.157  1.00  0.00     0.077 C 
BRANCH  37  38
HETATM   38  C14 UNL     1      -2.665  47.732  -7.138  1.00  0.00     0.086 C 
HETATM   39  N8  UNL     1      -3.554  48.614  -6.829  1.00  0.00    -0.391 N 
ATOM     40  H82 UNL     1      -3.268  49.573  -6.629  1.00  0.00     0.157 HD
ATOM     41  H81 UNL     1      -4.541  48.359  -6.816  1.00  0.00     0.157 HD
HETATM   42  N9  UNL     1      -3.059  46.407  -7.414  1.00  0.00    -0.088 NA
ENDBRANCH  37  38
ENDBRANCH  36  37
ENDBRANCH  35  36
ENDBRANCH  33  35
ENDBRANCH   7  33
TORSDOF 8
ENDMDL
MODEL 5
REMARK VINA RESULT: -5.953247876      2.280      3.222
REMARK  8 active torsions:
REMARK  status: ('A' for Active; 'I' for Inactive)
REMARK    1  A    between atoms: C4_7  and  C5_8 
REMARK    2  A    between atoms: N3_11  and  C8_12 
REMARK    3  A    between atoms: C9_15  and  N5_16 
REMARK    4  A    between atoms: C10_21  and  N7_22 
REMARK    5  A    between atoms: N7_22  and  C11_24 
REMARK    6  A    between atoms: C11_24  and  C12_25 
REMARK    7  A    between atoms: C12_25  and  C13_26 
REMARK    8  A    between atoms: C13_26  and  C14_27 
ROOT
HETATM    1  C8  UNL     1      -3.790  45.439 -11.362  1.00  0.00     0.144 A 
HETATM    2  N4  UNL     1      -3.214  44.242 -11.605  1.00  0.00    -0.175 N 
ATOM      3  H4  UNL     1      -3.783  43.452 -11.909  1.00  0.00     0.186 HD
HETATM    4  C9  UNL     1      -1.883  44.095 -11.444  1.00  0.00     0.679 A 
HETATM    5  N6  UNL     1      -1.057  45.081 -11.047  1.00  0.00    -0.175 N 
ATOM      6  H6  UNL     1      -0.055  44.920 -10.940  1.00  0.00     0.186 HD
HETATM    7  C10 UNL     1      -1.601  46.285 -10.796  1.00  0.00     0.146 A 
HETATM    8  C15 UNL     1      -2.986  46.453 -10.959  1.00  0.00     0.122 A 
HETATM    9 CL1  UNL     1      -3.685  48.019 -10.635  1.00  0.00    -0.076 Cl
ENDROOT
BRANCH   1  10
HETATM   10  N3  UNL     1      -5.193  45.557 -11.550  1.00  0.00    -0.365 N 
HETATM   11  C7  UNL     1      -6.044  45.167 -10.453  1.00  0.00     0.125 C 
HETATM   12  C6  UNL     1      -7.369  45.883 -10.581  1.00  0.00     0.032 C 
HETATM   13  C5  UNL     1      -7.887  45.483 -11.977  1.00  0.00     0.056 C 
HETATM   14  C17 UNL     1      -7.109  46.281 -12.952  1.00  0.00     0.032 C 
HETATM   15  C16 UNL     1      -5.647  46.056 -12.822  1.00  0.00     0.125 C 
BRANCH  13  16
HETATM   16  C4  UNL     1      -9.335  45.702 -11.965  1.00  0.00     0.088 A 
HETATM   17  N2  UNL     1     -10.097  44.789 -11.309  1.00  0.00    -0.342 N 
HETATM   18  C3  UNL     1     -11.414  44.829 -11.202  1.00  0.00     0.084 A 
ATOM     19  H2  UNL     1      -9.615  44.009 -10.862  1.00  0.00     0.167 HD
HETATM   20  C2  UNL     1     -12.419  44.086 -10.626  1.00  0.00     0.141 A 
HETATM   21  C19 UNL     1     -12.082  45.891 -11.811  1.00  0.00     0.144 A 
HETATM   22  N1  UNL     1     -13.624  44.633 -10.853  1.00  0.00    -0.305 N 
HETATM   23  C1  UNL     1     -14.936  44.161 -10.418  1.00  0.00     0.177 C 
HETATM   24  N11 UNL     1     -13.388  45.728 -11.574  1.00  0.00    -0.292 N 
ATOM     25  H11 UNL     1     -14.113  46.364 -11.905  1.00  0.00     0.187 HD
HETATM   26  C18 UNL     1     -11.295  46.829 -12.486  1.00  0.00     0.277 A 
HETATM   27  N10 UNL     1      -9.958  46.720 -12.549  1.00  0.00    -0.311 N 
HETATM   28  O1  UNL     1     -11.892  47.804 -13.046  1.00  0.00    -0.266 OA
ATOM     29  H10 UNL     1      -9.416  47.423 -13.051  1.00  0.00     0.170 HD
ENDBRANCH  13  16
ENDBRANCH   1  10
BRANCH   4  30
HETATM   30  N5  UNL     1      -1.326  42.941 -11.679  1.00  0.00    -0.234 N 
ATOM     31  H52 UNL     1      -1.860  42.119 -11.395  1.00  0.00     0.174 HD
ATOM     32  H51 UNL     1      -0.409  42.902 -12.122  1.00  0.00     0.174 HD
ENDBRANCH   4  30
BRANCH   7  33
HETATM   33  N7  UNL     1      -0.938  47.284 -10.431  1.00  0.00    -0.354 N 
ATOM     34  H7  UNL     1      -1.142  48.115 -10.986  1.00  0.00     0.166 HD
BRANCH  33  35
HETATM   35  C11 UNL     1       0.019  47.520  -9.437  1.00  0.00     0.063 C 
BRANCH  35  36
HETATM   36  C12 UNL     1      -0.454  46.999  -8.091  1.00  0.00     0.051 C 
BRANCH  36  37
HETATM   37  C13 UNL     1      -1.186  48.050  -7.324  1.00  0.00     0.077 C 
BRANCH  37  38
HETATM   38  C14 UNL     1      -2.610  47.727  -7.194  1.00  0.00     0.086 C 
HETATM   39  N8  UNL     1      -3.448  48.640  -6.837  1.00  0.00    -0.391 N 
ATOM     40  H82 UNL     1      -3.121  49.593  -6.675  1.00  0.00     0.157 HD
ATOM     41  H81 UNL     1      -4.439  48.416  -6.747  1.00  0.00     0.157 HD
HETATM   42  N9  UNL     1      -3.062  46.411  -7.418  1.00  0.00    -0.088 NA
ENDBRANCH  37  38
ENDBRANCH  36  37
ENDBRANCH  35  36
ENDBRANCH  33  35
ENDBRANCH   7  33
TORSDOF 8
ENDMDL
