MODEL 1
REMARK VINA RESULT: -6.324736874      0.000      0.000
REMARK  11 active torsions:
REMARK  status: ('A' for Active; 'I' for Inactive)
REMARK    1  A    between atoms: N1_1  and  C1_5 
REMARK    2  A    between atoms: C1_5  and  C2_6 
REMARK    3  A    between atoms: C3_7  and  S1_8 
REMARK    4  A    between atoms: S1_8  and  C4_9 
REMARK    5  A    between atoms: C12_17  and  N2_18 
REMARK    6  A    between atoms: C16_27  and  N5_28 
REMARK    7  A    between atoms: N5_28  and  C17_30 
REMARK    8  A    between atoms: C17_30  and  C18_31 
REMARK    9  A    between atoms: C17_30  and  C19_34 
REMARK   10  A    between atoms: C18_31  and  O2_32 
REMARK   11  A    between atoms: C19_34  and  O3_35 
ROOT
HETATM    1  N2  UNL     1      -6.497  45.826 -11.675  1.00  0.00    -0.322 N 
HETATM    2  C13 UNL     1      -6.379  44.678 -12.355  1.00  0.00     0.185 A 
HETATM    3  N3  UNL     1      -5.193  44.096 -12.123  1.00  0.00    -0.345 N 
ATOM      4  H3  UNL     1      -4.868  43.216 -12.523  1.00  0.00     0.167 HD
HETATM    5  C14 UNL     1      -4.513  44.873 -11.276  1.00  0.00     0.147 A 
HETATM    6  C15 UNL     1      -3.270  44.811 -10.680  1.00  0.00     0.290 A 
HETATM    7  O1  UNL     1      -2.508  43.817 -10.931  1.00  0.00    -0.265 OA
HETATM    8  N4  UNL     1      -2.807  45.759  -9.832  1.00  0.00    -0.154 N 
ATOM      9  H4  UNL     1      -1.882  45.681  -9.410  1.00  0.00     0.187 HD
HETATM   10  C16 UNL     1      -3.603  46.804  -9.564  1.00  0.00     0.683 A 
HETATM   11  N6  UNL     1      -4.841  46.872 -10.155  1.00  0.00    -0.174 N 
ATOM     12  H6  UNL     1      -5.430  47.676  -9.940  1.00  0.00     0.186 HD
HETATM   13  C20 UNL     1      -5.322  45.954 -10.992  1.00  0.00     0.157 A 
ENDROOT
BRANCH   1  14
HETATM   14  C12 UNL     1      -7.562  46.773 -11.607  1.00  0.00     0.099 C 
HETATM   15  C2  UNL     1      -7.333  48.067 -12.312  1.00  0.00     0.048 C 
HETATM   16  C3  UNL     1      -8.746  48.572 -12.506  1.00  0.00     0.055 C 
HETATM   17  C10 UNL     1      -9.641  47.406 -12.676  1.00  0.00     0.017 C 
HETATM   18  C11 UNL     1      -8.874  46.239 -12.127  1.00  0.00     0.027 C 
BRANCH  15  19
HETATM   19  C1  UNL     1      -6.588  47.940 -13.613  1.00  0.00     0.237 C 
BRANCH  19  20
HETATM   20  N1  UNL     1      -5.305  48.578 -13.611  1.00  0.00    -0.079 N 
ATOM     21  H13 UNL     1      -5.203  49.177 -12.792  1.00  0.00     0.274 HD
ATOM     22  H12 UNL     1      -4.567  47.899 -13.421  1.00  0.00     0.274 HD
ATOM     23  H11 UNL     1      -5.102  49.099 -14.464  1.00  0.00     0.274 HD
ENDBRANCH  19  20
ENDBRANCH  15  19
BRANCH  16  24
HETATM   24  S1  UNL     1      -8.891  49.709 -13.875  1.00  0.00    -0.159 SA
BRANCH  24  25
HETATM   25  C4  UNL     1     -10.051  51.026 -13.480  1.00  0.00     0.047 C 
HETATM   26  C5  UNL     1     -10.084  51.432 -12.047  1.00  0.00     0.015 C 
HETATM   27  C6  UNL     1     -11.423  52.159 -11.828  1.00  0.00     0.001 C 
HETATM   28  C7  UNL     1     -12.585  51.219 -11.806  1.00  0.00     0.000 C 
HETATM   29  C8  UNL     1     -12.193  50.032 -12.696  1.00  0.00     0.001 C 
HETATM   30  C9  UNL     1     -11.473  50.662 -13.885  1.00  0.00     0.015 C 
ENDBRANCH  24  25
ENDBRANCH  16  24
ENDBRANCH   1  14
BRANCH  10  31
HETATM   31  N5  UNL     1      -3.319  47.738  -8.818  1.00  0.00    -0.217 N 
ATOM     32  H5  UNL     1      -2.996  48.512  -9.398  1.00  0.00     0.178 HD
BRANCH  31  33
HETATM   33  C17 UNL     1      -3.267  48.146  -7.503  1.00  0.00     0.146 C 
BRANCH  33  34
HETATM   34  C18 UNL     1      -3.955  49.401  -7.094  1.00  0.00     0.192 C 
BRANCH  34  35
HETATM   35  O2  UNL     1      -3.023  50.439  -7.059  1.00  0.00    -0.399 OA
ATOM     36  H2  UNL     1      -2.921  50.731  -6.161  1.00  0.00     0.209 HD
ENDBRANCH  34  35
ENDBRANCH  33  34
BRANCH  33  37
HETATM   37  C19 UNL     1      -1.788  48.260  -7.103  1.00  0.00     0.192 C 
BRANCH  37  38
HETATM   38  O3  UNL     1      -1.388  47.173  -6.347  1.00  0.00    -0.399 OA
ATOM     39  H3  UNL     1      -0.493  46.924  -6.547  1.00  0.00     0.209 HD
ENDBRANCH  37  38
ENDBRANCH  33  37
ENDBRANCH  31  33
ENDBRANCH  10  31
TORSDOF 11
ENDMDL
MODEL 2
REMARK VINA RESULT: -6.316535359      0.946      1.119
REMARK  11 active torsions:
REMARK  status: ('A' for Active; 'I' for Inactive)
REMARK    1  A    between atoms: N1_1  and  C1_5 
REMARK    2  A    between atoms: C1_5  and  C2_6 
REMARK    3  A    between atoms: C3_7  and  S1_8 
REMARK    4  A    between atoms: S1_8  and  C4_9 
REMARK    5  A    between atoms: C12_17  and  N2_18 
REMARK    6  A    between atoms: C16_27  and  N5_28 
REMARK    7  A    between atoms: N5_28  and  C17_30 
REMARK    8  A    between atoms: C17_30  and  C18_31 
REMARK    9  A    between atoms: C17_30  and  C19_34 
REMARK   10  A    between atoms: C18_31  and  O2_32 
REMARK   11  A    between atoms: C19_34  and  O3_35 
ROOT
HETATM    1  N2  UNL     1      -6.408  44.877 -11.478  1.00  0.00    -0.322 N 
HETATM    2  C13 UNL     1      -6.178  43.691 -12.057  1.00  0.00     0.185 A 
HETATM    3  N3  UNL     1      -4.897  43.321 -11.913  1.00  0.00    -0.345 N 
ATOM      4  H3  UNL     1      -4.478  42.460 -12.265  1.00  0.00     0.167 HD
HETATM    5  C14 UNL     1      -4.267  44.279 -11.229  1.00  0.00     0.147 A 
HETATM    6  C15 UNL     1      -2.975  44.468 -10.782  1.00  0.00     0.290 A 
HETATM    7  O1  UNL     1      -2.094  43.576 -11.027  1.00  0.00    -0.265 OA
HETATM    8  N4  UNL     1      -2.585  45.563 -10.087  1.00  0.00    -0.154 N 
ATOM      9  H4  UNL     1      -1.621  45.670  -9.772  1.00  0.00     0.187 HD
HETATM   10  C16 UNL     1      -3.506  46.502  -9.826  1.00  0.00     0.683 A 
HETATM   11  N6  UNL     1      -4.793  46.319 -10.270  1.00  0.00    -0.174 N 
ATOM     12  H6  UNL     1      -5.477  47.045 -10.062  1.00  0.00     0.186 HD
HETATM   13  C20 UNL     1      -5.204  45.253 -10.954  1.00  0.00     0.157 A 
ENDROOT
BRANCH   1  14
HETATM   14  C12 UNL     1      -7.598  45.657 -11.373  1.00  0.00     0.099 C 
HETATM   15  C2  UNL     1      -7.713  46.806 -12.317  1.00  0.00     0.048 C 
HETATM   16  C3  UNL     1      -9.205  47.055 -12.326  1.00  0.00     0.055 C 
HETATM   17  C10 UNL     1      -9.898  45.763 -12.125  1.00  0.00     0.017 C 
HETATM   18  C11 UNL     1      -8.862  44.849 -11.540  1.00  0.00     0.027 C 
BRANCH  15  19
HETATM   19  C1  UNL     1      -7.171  46.531 -13.694  1.00  0.00     0.237 C 
BRANCH  19  20
HETATM   20  N1  UNL     1      -5.988  47.275 -14.011  1.00  0.00    -0.079 N 
ATOM     21  H13 UNL     1      -5.153  46.726 -13.808  1.00  0.00     0.274 HD
ATOM     22  H12 UNL     1      -5.887  47.374 -15.021  1.00  0.00     0.274 HD
ATOM     23  H11 UNL     1      -5.939  48.186 -13.555  1.00  0.00     0.274 HD
ENDBRANCH  19  20
ENDBRANCH  15  19
BRANCH  16  24
HETATM   24  S1  UNL     1      -9.760  47.867 -13.816  1.00  0.00    -0.159 SA
BRANCH  24  25
HETATM   25  C4  UNL     1      -9.675  49.654 -13.629  1.00  0.00     0.047 C 
HETATM   26  C5  UNL     1      -9.158  50.130 -12.316  1.00  0.00     0.015 C 
HETATM   27  C6  UNL     1      -9.623  51.589 -12.164  1.00  0.00     0.001 C 
HETATM   28  C7  UNL     1     -11.083  51.693 -11.863  1.00  0.00     0.000 C 
HETATM   29  C8  UNL     1     -11.743  50.466 -12.507  1.00  0.00     0.001 C 
HETATM   30  C9  UNL     1     -11.034  50.307 -13.850  1.00  0.00     0.015 C 
ENDBRANCH  24  25
ENDBRANCH  16  24
ENDBRANCH   1  14
BRANCH  10  31
HETATM   31  N5  UNL     1      -3.300  47.544  -9.210  1.00  0.00    -0.217 N 
ATOM     32  H5  UNL     1      -2.966  48.239  -9.877  1.00  0.00     0.178 HD
BRANCH  31  33
HETATM   33  C17 UNL     1      -3.344  48.140  -7.968  1.00  0.00     0.146 C 
BRANCH  33  34
HETATM   34  C18 UNL     1      -3.881  49.521  -7.832  1.00  0.00     0.192 C 
BRANCH  34  35
HETATM   35  O2  UNL     1      -3.049  50.250  -6.981  1.00  0.00    -0.399 OA
ATOM     36  H2  UNL     1      -2.371  49.674  -6.647  1.00  0.00     0.209 HD
ENDBRANCH  34  35
ENDBRANCH  33  34
BRANCH  33  37
HETATM   37  C19 UNL     1      -1.922  48.120  -7.385  1.00  0.00     0.192 C 
BRANCH  37  38
HETATM   38  O3  UNL     1      -1.867  47.374  -6.222  1.00  0.00    -0.399 OA
ATOM     39  H3  UNL     1      -1.811  47.932  -5.456  1.00  0.00     0.209 HD
ENDBRANCH  37  38
ENDBRANCH  33  37
ENDBRANCH  31  33
ENDBRANCH  10  31
TORSDOF 11
ENDMDL
MODEL 3
REMARK VINA RESULT: -6.270737539      0.455      1.191
REMARK  11 active torsions:
REMARK  status: ('A' for Active; 'I' for Inactive)
REMARK    1  A    between atoms: N1_1  and  C1_5 
REMARK    2  A    between atoms: C1_5  and  C2_6 
REMARK    3  A    between atoms: C3_7  and  S1_8 
REMARK    4  A    between atoms: S1_8  and  C4_9 
REMARK    5  A    between atoms: C12_17  and  N2_18 
REMARK    6  A    between atoms: C16_27  and  N5_28 
REMARK    7  A    between atoms: N5_28  and  C17_30 
REMARK    8  A    between atoms: C17_30  and  C18_31 
REMARK    9  A    between atoms: C17_30  and  C19_34 
REMARK   10  A    between atoms: C18_31  and  O2_32 
REMARK   11  A    between atoms: C19_34  and  O3_35 
ROOT
HETATM    1  N2  UNL     1      -6.355  45.621 -11.599  1.00  0.00    -0.322 N 
HETATM    2  C13 UNL     1      -6.324  44.402 -12.153  1.00  0.00     0.185 A 
HETATM    3  N3  UNL     1      -5.129  43.818 -11.975  1.00  0.00    -0.345 N 
ATOM      4  H3  UNL     1      -4.859  42.891 -12.303  1.00  0.00     0.167 HD
HETATM    5  C14 UNL     1      -4.356  44.665 -11.291  1.00  0.00     0.147 A 
HETATM    6  C15 UNL     1      -3.061  44.636 -10.816  1.00  0.00     0.290 A 
HETATM    7  O1  UNL     1      -2.343  43.600 -11.027  1.00  0.00    -0.265 OA
HETATM    8  N4  UNL     1      -2.500  45.660 -10.130  1.00  0.00    -0.154 N 
ATOM      9  H4  UNL     1      -1.539  45.604  -9.795  1.00  0.00     0.187 HD
HETATM   10  C16 UNL     1      -3.248  46.749  -9.905  1.00  0.00     0.683 A 
HETATM   11  N6  UNL     1      -4.539  46.783 -10.376  1.00  0.00    -0.174 N 
ATOM     12  H6  UNL     1      -5.090  47.622 -10.195  1.00  0.00     0.186 HD
HETATM   13  C20 UNL     1      -5.115  45.792 -11.052  1.00  0.00     0.157 A 
ENDROOT
BRANCH   1  14
HETATM   14  C12 UNL     1      -7.393  46.598 -11.533  1.00  0.00     0.099 C 
HETATM   15  C2  UNL     1      -7.196  47.819 -12.366  1.00  0.00     0.048 C 
HETATM   16  C3  UNL     1      -8.609  48.341 -12.495  1.00  0.00     0.055 C 
HETATM   17  C10 UNL     1      -9.537  47.188 -12.492  1.00  0.00     0.017 C 
HETATM   18  C11 UNL     1      -8.752  46.054 -11.901  1.00  0.00     0.027 C 
BRANCH  15  19
HETATM   19  C1  UNL     1      -6.557  47.559 -13.704  1.00  0.00     0.237 C 
BRANCH  19  20
HETATM   20  N1  UNL     1      -5.266  48.161 -13.858  1.00  0.00    -0.079 N 
ATOM     21  H13 UNL     1      -5.030  48.256 -14.845  1.00  0.00     0.274 HD
ATOM     22  H12 UNL     1      -5.296  49.145 -13.592  1.00  0.00     0.274 HD
ATOM     23  H11 UNL     1      -4.523  47.676 -13.356  1.00  0.00     0.274 HD
ENDBRANCH  19  20
ENDBRANCH  15  19
BRANCH  16  24
HETATM   24  S1  UNL     1      -8.840  49.358 -13.945  1.00  0.00    -0.159 SA
BRANCH  24  25
HETATM   25  C4  UNL     1      -9.925  50.744 -13.576  1.00  0.00     0.047 C 
HETATM   26  C5  UNL     1      -9.903  51.206 -12.160  1.00  0.00     0.015 C 
HETATM   27  C6  UNL     1     -11.200  52.006 -11.939  1.00  0.00     0.001 C 
HETATM   28  C7  UNL     1     -12.405  51.125 -11.853  1.00  0.00     0.000 C 
HETATM   29  C8  UNL     1     -12.093  49.887 -12.704  1.00  0.00     0.001 C 
HETATM   30  C9  UNL     1     -11.373  50.434 -13.934  1.00  0.00     0.015 C 
ENDBRANCH  24  25
ENDBRANCH  16  24
ENDBRANCH   1  14
BRANCH  10  31
HETATM   31  N5  UNL     1      -2.877  47.751  -9.300  1.00  0.00    -0.217 N 
ATOM     32  H5  UNL     1      -2.562  48.432  -9.990  1.00  0.00     0.178 HD
BRANCH  31  33
HETATM   33  C17 UNL     1      -2.719  48.314  -8.052  1.00  0.00     0.146 C 
BRANCH  33  34
HETATM   34  C18 UNL     1      -2.841  47.460  -6.838  1.00  0.00     0.192 C 
BRANCH  34  35
HETATM   35  O2  UNL     1      -1.564  47.185  -6.348  1.00  0.00    -0.399 OA
ATOM     36  H2  UNL     1      -0.972  47.873  -6.627  1.00  0.00     0.209 HD
ENDBRANCH  34  35
ENDBRANCH  33  34
BRANCH  33  37
HETATM   37  C19 UNL     1      -3.722  49.471  -7.926  1.00  0.00     0.192 C 
BRANCH  37  38
HETATM   38  O3  UNL     1      -3.252  50.451  -7.071  1.00  0.00    -0.399 OA
ATOM     39  H3  UNL     1      -3.196  51.292  -7.508  1.00  0.00     0.209 HD
ENDBRANCH  37  38
ENDBRANCH  33  37
ENDBRANCH  31  33
ENDBRANCH  10  31
TORSDOF 11
ENDMDL
MODEL 4
REMARK VINA RESULT: -6.259848231      1.036      1.589
REMARK  11 active torsions:
REMARK  status: ('A' for Active; 'I' for Inactive)
REMARK    1  A    between atoms: N1_1  and  C1_5 
REMARK    2  A    between atoms: C1_5  and  C2_6 
REMARK    3  A    between atoms: C3_7  and  S1_8 
REMARK    4  A    between atoms: S1_8  and  C4_9 
REMARK    5  A    between atoms: C12_17  and  N2_18 
REMARK    6  A    between atoms: C16_27  and  N5_28 
REMARK    7  A    between atoms: N5_28  and  C17_30 
REMARK    8  A    between atoms: C17_30  and  C18_31 
REMARK    9  A    between atoms: C17_30  and  C19_34 
REMARK   10  A    between atoms: C18_31  and  O2_32 
REMARK   11  A    between atoms: C19_34  and  O3_35 
ROOT
HETATM    1  N2  UNL     1      -6.802  44.822 -11.389  1.00  0.00    -0.322 N 
HETATM    2  C13 UNL     1      -6.552  43.603 -11.886  1.00  0.00     0.185 A 
HETATM    3  N3  UNL     1      -5.260  43.273 -11.735  1.00  0.00    -0.345 N 
ATOM      4  H3  UNL     1      -4.826  42.400 -12.031  1.00  0.00     0.167 HD
HETATM    5  C14 UNL     1      -4.645  44.291 -11.128  1.00  0.00     0.147 A 
HETATM    6  C15 UNL     1      -3.353  44.541 -10.712  1.00  0.00     0.290 A 
HETATM    7  O1  UNL     1      -2.454  43.654 -10.907  1.00  0.00    -0.265 OA
HETATM    8  N4  UNL     1      -2.980  45.690 -10.101  1.00  0.00    -0.154 N 
ATOM      9  H4  UNL     1      -2.015  45.841  -9.808  1.00  0.00     0.187 HD
HETATM   10  C16 UNL     1      -3.919  46.624  -9.894  1.00  0.00     0.683 A 
HETATM   11  N6  UNL     1      -5.207  46.381 -10.306  1.00  0.00    -0.174 N 
ATOM     12  H6  UNL     1      -5.906  47.105 -10.141  1.00  0.00     0.186 HD
HETATM   13  C20 UNL     1      -5.601  45.261 -10.908  1.00  0.00     0.157 A 
ENDROOT
BRANCH   1  14
HETATM   14  C12 UNL     1      -8.009  45.581 -11.322  1.00  0.00     0.099 C 
HETATM   15  C2  UNL     1      -8.090  46.762 -12.228  1.00  0.00     0.048 C 
HETATM   16  C3  UNL     1      -9.582  46.991 -12.312  1.00  0.00     0.055 C 
HETATM   17  C10 UNL     1     -10.264  45.682 -12.199  1.00  0.00     0.017 C 
HETATM   18  C11 UNL     1      -9.248  44.761 -11.591  1.00  0.00     0.027 C 
BRANCH  15  19
HETATM   19  C1  UNL     1      -7.467  46.548 -13.581  1.00  0.00     0.237 C 
BRANCH  19  20
HETATM   20  N1  UNL     1      -6.320  47.371 -13.829  1.00  0.00    -0.079 N 
ATOM     21  H13 UNL     1      -6.473  48.315 -13.476  1.00  0.00     0.274 HD
ATOM     22  H12 UNL     1      -5.541  47.089 -13.233  1.00  0.00     0.274 HD
ATOM     23  H11 UNL     1      -6.033  47.395 -14.807  1.00  0.00     0.274 HD
ENDBRANCH  19  20
ENDBRANCH  15  19
BRANCH  16  24
HETATM   24  S1  UNL     1     -10.066  47.851 -13.800  1.00  0.00    -0.159 SA
BRANCH  24  25
HETATM   25  C4  UNL     1      -9.848  49.625 -13.601  1.00  0.00     0.047 C 
HETATM   26  C5  UNL     1      -9.320  50.054 -12.276  1.00  0.00     0.015 C 
HETATM   27  C6  UNL     1      -9.675  51.544 -12.123  1.00  0.00     0.001 C 
HETATM   28  C7  UNL     1     -11.128  51.758 -11.849  1.00  0.00     0.000 C 
HETATM   29  C8  UNL     1     -11.868  50.589 -12.511  1.00  0.00     0.001 C 
HETATM   30  C9  UNL     1     -11.149  50.381 -13.842  1.00  0.00     0.015 C 
ENDBRANCH  24  25
ENDBRANCH  16  24
ENDBRANCH   1  14
BRANCH  10  31
HETATM   31  N5  UNL     1      -3.731  47.711  -9.355  1.00  0.00    -0.217 N 
ATOM     32  H5  UNL     1      -4.279  48.407  -9.858  1.00  0.00     0.178 HD
BRANCH  31  33
HETATM   33  C17 UNL     1      -3.066  48.357  -8.335  1.00  0.00     0.146 C 
BRANCH  33  34
HETATM   34  C18 UNL     1      -2.593  47.580  -7.156  1.00  0.00     0.192 C 
BRANCH  34  35
HETATM   35  O2  UNL     1      -1.382  48.116  -6.717  1.00  0.00    -0.399 OA
ATOM     36  H2  UNL     1      -0.801  47.405  -6.473  1.00  0.00     0.209 HD
ENDBRANCH  34  35
ENDBRANCH  33  34
BRANCH  33  37
HETATM   37  C19 UNL     1      -3.968  49.493  -7.829  1.00  0.00     0.192 C 
BRANCH  37  38
HETATM   38  O3  UNL     1      -3.250  50.408  -7.081  1.00  0.00    -0.399 OA
ATOM     39  H3  UNL     1      -3.315  51.281  -7.449  1.00  0.00     0.209 HD
ENDBRANCH  37  38
ENDBRANCH  33  37
ENDBRANCH  31  33
ENDBRANCH  10  31
TORSDOF 11
ENDMDL
MODEL 5
REMARK VINA RESULT: -6.211492583      3.212      4.449
REMARK  11 active torsions:
REMARK  status: ('A' for Active; 'I' for Inactive)
REMARK    1  A    between atoms: N1_1  and  C1_5 
REMARK    2  A    between atoms: C1_5  and  C2_6 
REMARK    3  A    between atoms: C3_7  and  S1_8 
REMARK    4  A    between atoms: S1_8  and  C4_9 
REMARK    5  A    between atoms: C12_17  and  N2_18 
REMARK    6  A    between atoms: C16_27  and  N5_28 
REMARK    7  A    between atoms: N5_28  and  C17_30 
REMARK    8  A    between atoms: C17_30  and  C18_31 
REMARK    9  A    between atoms: C17_30  and  C19_34 
REMARK   10  A    between atoms: C18_31  and  O2_32 
REMARK   11  A    between atoms: C19_34  and  O3_35 
ROOT
HETATM    1  N2  UNL     1      -7.388  48.516 -11.897  1.00  0.00    -0.322 N 
HETATM    2  C13 UNL     1      -8.135  47.515 -12.383  1.00  0.00     0.185 A 
HETATM    3  N3  UNL     1      -7.635  46.321 -12.028  1.00  0.00    -0.345 N 
ATOM      4  H3  UNL     1      -8.024  45.411 -12.274  1.00  0.00     0.167 HD
HETATM    5  C14 UNL     1      -6.539  46.536 -11.295  1.00  0.00     0.147 A 
HETATM    6  C15 UNL     1      -5.617  45.729 -10.662  1.00  0.00     0.290 A 
HETATM    7  O1  UNL     1      -5.749  44.460 -10.731  1.00  0.00    -0.265 OA
HETATM    8  N4  UNL     1      -4.564  46.214  -9.963  1.00  0.00    -0.154 N 
ATOM      9  H4  UNL     1      -3.901  45.587  -9.508  1.00  0.00     0.187 HD
HETATM   10  C16 UNL     1      -4.421  47.544  -9.887  1.00  0.00     0.683 A 
HETATM   11  N6  UNL     1      -5.336  48.354 -10.516  1.00  0.00    -0.174 N 
ATOM     12  H6  UNL     1      -5.208  49.362 -10.447  1.00  0.00     0.186 HD
HETATM   13  C20 UNL     1      -6.380  47.904 -11.209  1.00  0.00     0.157 A 
ENDROOT
BRANCH   1  14
HETATM   14  C12 UNL     1      -7.527  49.932 -12.010  1.00  0.00     0.099 C 
HETATM   15  C2  UNL     1      -6.659  50.595 -13.025  1.00  0.00     0.048 C 
HETATM   16  C3  UNL     1      -7.394  51.895 -13.263  1.00  0.00     0.055 C 
HETATM   17  C10 UNL     1      -8.844  51.653 -13.091  1.00  0.00     0.017 C 
HETATM   18  C11 UNL     1      -8.938  50.375 -12.311  1.00  0.00     0.027 C 
BRANCH  15  19
HETATM   19  C1  UNL     1      -6.472  49.803 -14.291  1.00  0.00     0.237 C 
BRANCH  19  20
HETATM   20  N1  UNL     1      -5.152  49.270 -14.452  1.00  0.00    -0.079 N 
ATOM     21  H13 UNL     1      -4.969  49.055 -15.432  1.00  0.00     0.274 HD
ATOM     22  H12 UNL     1      -4.451  49.996 -14.301  1.00  0.00     0.274 HD
ATOM     23  H11 UNL     1      -4.960  48.458 -13.865  1.00  0.00     0.274 HD
ENDBRANCH  19  20
ENDBRANCH  15  19
BRANCH  16  24
HETATM   24  S1  UNL     1      -7.039  52.606 -14.862  1.00  0.00    -0.159 SA
BRANCH  24  25
HETATM   25  C4  UNL     1      -5.676  53.775 -14.743  1.00  0.00     0.047 C 
HETATM   26  C5  UNL     1      -4.761  53.803 -15.918  1.00  0.00     0.015 C 
HETATM   27  C6  UNL     1      -3.448  54.445 -15.436  1.00  0.00     0.001 C 
HETATM   28  C7  UNL     1      -2.648  53.526 -14.570  1.00  0.00     0.000 C 
HETATM   29  C8  UNL     1      -3.659  52.606 -13.872  1.00  0.00     0.001 C 
HETATM   30  C9  UNL     1      -4.825  53.521 -13.506  1.00  0.00     0.015 C 
ENDBRANCH  24  25
ENDBRANCH  16  24
ENDBRANCH   1  14
BRANCH  10  31
HETATM   31  N5  UNL     1      -3.519  48.127  -9.290  1.00  0.00    -0.217 N 
ATOM     32  H5  UNL     1      -2.942  48.600  -9.985  1.00  0.00     0.178 HD
BRANCH  31  33
HETATM   33  C17 UNL     1      -2.983  48.391  -8.048  1.00  0.00     0.146 C 
BRANCH  33  34
HETATM   34  C18 UNL     1      -2.788  47.278  -7.079  1.00  0.00     0.192 C 
BRANCH  34  35
HETATM   35  O2  UNL     1      -1.614  47.505  -6.360  1.00  0.00    -0.399 OA
ATOM     36  H2  UNL     1      -1.739  47.210  -5.465  1.00  0.00     0.209 HD
ENDBRANCH  34  35
ENDBRANCH  33  34
BRANCH  33  37
HETATM   37  C19 UNL     1      -3.855  49.462  -7.376  1.00  0.00     0.192 C 
BRANCH  37  38
HETATM   38  O3  UNL     1      -3.093  50.538  -6.957  1.00  0.00    -0.399 OA
ATOM     39  H3  UNL     1      -3.621  51.323  -6.875  1.00  0.00     0.209 HD
ENDBRANCH  37  38
ENDBRANCH  33  37
ENDBRANCH  31  33
ENDBRANCH  10  31
TORSDOF 11
ENDMDL
