MODEL 1
REMARK VINA RESULT: -6.712665749      0.000      0.000
REMARK  9 active torsions:
REMARK  status: ('A' for Active; 'I' for Inactive)
REMARK    1  A    between atoms: C4_6  and  N2_7 
REMARK    2  A    between atoms: C7_13  and  N4_14 
REMARK    3  A    between atoms: N5_17  and  C10_18 
REMARK    4  A    between atoms: C10_18  and  C11_19 
REMARK    5  A    between atoms: C11_19  and  N6_20 
REMARK    6  A    between atoms: N6_20  and  C12_22 
REMARK    7  A    between atoms: C12_22  and  O1_23 
REMARK    8  A    between atoms: C12_22  and  C13_25 
REMARK    9  A    between atoms: C14_28  and  C15_29 
ROOT
HETATM    1  C1  UNL     1      -2.246  46.886 -12.202  1.00  0.00     0.052 C 
HETATM    2  C2  UNL     1      -2.104  47.188 -10.774  1.00  0.00    -0.018 A 
HETATM    3  C3  UNL     1      -1.071  46.610 -10.085  1.00  0.00     0.099 A 
HETATM    4  N1  UNL     1      -0.910  46.870  -8.779  1.00  0.00    -0.351 N 
ATOM      5  H1  UNL     1      -0.142  46.443  -8.261  1.00  0.00     0.166 HD
HETATM    6  C4  UNL     1      -1.772  47.701  -8.156  1.00  0.00     0.122 A 
HETATM    7  C5  UNL     1      -2.819  48.298  -8.813  1.00  0.00     0.115 A 
HETATM    8  C6  UNL     1      -3.706  49.171  -8.118  1.00  0.00     0.105 C 
HETATM    9  N3  UNL     1      -4.437  49.893  -7.565  1.00  0.00    -0.191 NA
HETATM   10  C7  UNL     1      -3.001  48.045 -10.158  1.00  0.00     0.062 A 
ENDROOT
BRANCH   6  11
HETATM   11  N2  UNL     1      -1.635  47.962  -6.901  1.00  0.00    -0.384 N 
ATOM     12  H22 UNL     1      -1.467  47.174  -6.275  1.00  0.00     0.157 HD
ATOM     13  H21 UNL     1      -1.694  48.923  -6.565  1.00  0.00     0.157 HD
ENDBRANCH   6  11
BRANCH  10  14
HETATM   14  N4  UNL     1      -4.089  48.661 -10.816  1.00  0.00    -0.376 N 
HETATM   15  C8  UNL     1      -5.380  48.041 -10.697  1.00  0.00     0.153 C 
HETATM   16  C9  UNL     1      -6.455  48.601 -11.541  1.00  0.00     0.292 C 
HETATM   17  N5  UNL     1      -6.106  49.419 -12.641  1.00  0.00     0.096 N 
HETATM   18  C21 UNL     1      -4.725  49.646 -12.888  1.00  0.00     0.292 C 
HETATM   19  C22 UNL     1      -3.997  49.866 -11.593  1.00  0.00     0.153 C 
BRANCH  17  20
HETATM   20  C10 UNL     1      -6.897  50.643 -12.704  1.00  0.00     0.316 C 
BRANCH  20  21
HETATM   21  C11 UNL     1      -6.602  51.385 -14.009  1.00  0.00     0.088 C 
BRANCH  21  22
HETATM   22  N6  UNL     1      -6.950  52.748 -13.933  1.00  0.00    -0.369 N 
ATOM     23  H6  UNL     1      -7.750  53.113 -14.450  1.00  0.00     0.161 HD
BRANCH  22  24
HETATM   24  C12 UNL     1      -6.158  53.603 -13.118  1.00  0.00     0.286 C 
BRANCH  24  25
HETATM   25  O1  UNL     1      -7.024  54.474 -12.374  1.00  0.00    -0.370 OA
ATOM     26  H1  UNL     1      -7.879  54.487 -12.788  1.00  0.00     0.212 HD
ENDBRANCH  24  25
BRANCH  24  27
HETATM   27  C13 UNL     1      -5.248  54.515 -13.864  1.00  0.00     0.131 A 
HETATM   28  N7  UNL     1      -3.868  54.437 -13.794  1.00  0.00    -0.342 N 
HETATM   29  C14 UNL     1      -3.308  55.362 -14.580  1.00  0.00     0.066 A 
ATOM     30  H7  UNL     1      -3.351  53.768 -13.224  1.00  0.00     0.167 HD
HETATM   31  C20 UNL     1      -4.315  56.057 -15.169  1.00  0.00     0.118 A 
HETATM   32  N9  UNL     1      -5.483  55.508 -14.707  1.00  0.00    -0.350 N 
ATOM     33  H9  UNL     1      -6.414  55.825 -14.978  1.00  0.00     0.166 HD
BRANCH  29  34
HETATM   34  C15 UNL     1      -1.823  55.543 -14.752  1.00  0.00     0.149 C 
HETATM   35  F1  UNL     1      -1.658  56.350 -15.868  1.00  0.00    -0.236 F 
HETATM   36  C16 UNL     1      -1.292  56.328 -13.574  1.00  0.00     0.069 C 
HETATM   37  C17 UNL     1       0.090  55.907 -13.206  1.00  0.00     0.117 C 
HETATM   38  N8  UNL     1       0.076  54.514 -12.849  1.00  0.00    -0.421 N 
HETATM   39  C18 UNL     1      -0.421  53.641 -13.856  1.00  0.00     0.117 C 
ATOM     40  H8  UNL     1       0.398  54.178 -11.941  1.00  0.00     0.153 HD
HETATM   41  C19 UNL     1      -1.102  54.269 -15.015  1.00  0.00     0.069 C 
ENDBRANCH  29  34
ENDBRANCH  24  27
ENDBRANCH  22  24
ENDBRANCH  21  22
ENDBRANCH  20  21
ENDBRANCH  17  20
ENDBRANCH  10  14
TORSDOF 9
ENDMDL
MODEL 2
REMARK VINA RESULT: -6.701693592      5.327      8.524
REMARK  9 active torsions:
REMARK  status: ('A' for Active; 'I' for Inactive)
REMARK    1  A    between atoms: C4_6  and  N2_7 
REMARK    2  A    between atoms: C7_13  and  N4_14 
REMARK    3  A    between atoms: N5_17  and  C10_18 
REMARK    4  A    between atoms: C10_18  and  C11_19 
REMARK    5  A    between atoms: C11_19  and  N6_20 
REMARK    6  A    between atoms: N6_20  and  C12_22 
REMARK    7  A    between atoms: C12_22  and  O1_23 
REMARK    8  A    between atoms: C12_22  and  C13_25 
REMARK    9  A    between atoms: C14_28  and  C15_29 
ROOT
HETATM    1  C1  UNL     1     -10.547  46.821 -12.663  1.00  0.00     0.052 C 
HETATM    2  C2  UNL     1      -9.792  48.068 -12.511  1.00  0.00    -0.018 A 
HETATM    3  C3  UNL     1     -10.475  49.254 -12.564  1.00  0.00     0.099 A 
HETATM    4  N1  UNL     1      -9.815  50.413 -12.423  1.00  0.00    -0.351 N 
ATOM      5  H1  UNL     1     -10.318  51.299 -12.461  1.00  0.00     0.166 HD
HETATM    6  C4  UNL     1      -8.479  50.397 -12.232  1.00  0.00     0.122 A 
HETATM    7  C5  UNL     1      -7.760  49.229 -12.173  1.00  0.00     0.115 A 
HETATM    8  C6  UNL     1      -6.349  49.256 -11.968  1.00  0.00     0.105 C 
HETATM    9  N3  UNL     1      -5.196  49.261 -11.794  1.00  0.00    -0.191 NA
HETATM   10  C7  UNL     1      -8.422  48.025 -12.315  1.00  0.00     0.062 A 
ENDROOT
BRANCH   6  11
HETATM   11  N2  UNL     1      -7.826  51.500 -12.096  1.00  0.00    -0.384 N 
ATOM     12  H22 UNL     1      -7.844  51.946 -11.178  1.00  0.00     0.157 HD
ATOM     13  H21 UNL     1      -7.316  51.898 -12.885  1.00  0.00     0.157 HD
ENDBRANCH   6  11
BRANCH  10  14
HETATM   14  N4  UNL     1      -7.664  46.833 -12.262  1.00  0.00    -0.376 N 
HETATM   15  C8  UNL     1      -7.381  46.279 -10.967  1.00  0.00     0.153 C 
HETATM   16  C9  UNL     1      -6.438  45.143 -10.934  1.00  0.00     0.292 C 
HETATM   17  N5  UNL     1      -5.609  44.908 -12.056  1.00  0.00     0.096 N 
HETATM   18  C21 UNL     1      -5.718  45.797 -13.160  1.00  0.00     0.292 C 
HETATM   19  C22 UNL     1      -7.160  46.135 -13.411  1.00  0.00     0.153 C 
BRANCH  17  20
HETATM   20  C10 UNL     1      -5.597  43.507 -12.462  1.00  0.00     0.316 C 
BRANCH  20  21
HETATM   21  C11 UNL     1      -4.492  42.759 -11.713  1.00  0.00     0.088 C 
BRANCH  21  22
HETATM   22  N6  UNL     1      -3.397  42.459 -12.547  1.00  0.00    -0.369 N 
ATOM     23  H6  UNL     1      -3.513  41.868 -13.370  1.00  0.00     0.161 HD
BRANCH  22  24
HETATM   24  C12 UNL     1      -2.126  43.003 -12.213  1.00  0.00     0.286 C 
BRANCH  24  25
HETATM   25  O1  UNL     1      -1.747  42.540 -10.908  1.00  0.00    -0.370 OA
ATOM     26  H1  UNL     1      -0.838  42.269 -10.928  1.00  0.00     0.212 HD
ENDBRANCH  24  25
BRANCH  24  27
HETATM   27  C13 UNL     1      -2.084  44.489 -12.119  1.00  0.00     0.131 A 
HETATM   28  N7  UNL     1      -1.964  45.171 -10.921  1.00  0.00    -0.342 N 
HETATM   29  C14 UNL     1      -1.932  46.490 -11.137  1.00  0.00     0.066 A 
ATOM     30  H7  UNL     1      -1.908  44.731 -10.002  1.00  0.00     0.167 HD
HETATM   31  C20 UNL     1      -2.033  46.684 -12.477  1.00  0.00     0.118 A 
HETATM   32  N9  UNL     1      -2.123  45.438 -13.041  1.00  0.00    -0.350 N 
ATOM     33  H9  UNL     1      -2.209  45.264 -14.042  1.00  0.00     0.166 HD
BRANCH  29  34
HETATM   34  C15 UNL     1      -1.790  47.524 -10.051  1.00  0.00     0.149 C 
HETATM   35  F1  UNL     1      -2.300  48.704 -10.573  1.00  0.00    -0.236 F 
HETATM   36  C16 UNL     1      -2.691  47.141  -8.900  1.00  0.00     0.069 C 
HETATM   37  C17 UNL     1      -2.106  47.532  -7.585  1.00  0.00     0.117 C 
HETATM   38  N8  UNL     1      -0.847  46.858  -7.415  1.00  0.00    -0.421 N 
HETATM   39  C18 UNL     1       0.109  47.104  -8.439  1.00  0.00     0.117 C 
ATOM     40  H8  UNL     1      -0.654  46.250  -6.619  1.00  0.00     0.153 HD
HETATM   41  C19 UNL     1      -0.378  47.783  -9.666  1.00  0.00     0.069 C 
ENDBRANCH  29  34
ENDBRANCH  24  27
ENDBRANCH  22  24
ENDBRANCH  21  22
ENDBRANCH  20  21
ENDBRANCH  17  20
ENDBRANCH  10  14
TORSDOF 9
ENDMDL
MODEL 3
REMARK VINA RESULT: -6.611371543      1.479      1.670
REMARK  9 active torsions:
REMARK  status: ('A' for Active; 'I' for Inactive)
REMARK    1  A    between atoms: C4_6  and  N2_7 
REMARK    2  A    between atoms: C7_13  and  N4_14 
REMARK    3  A    between atoms: N5_17  and  C10_18 
REMARK    4  A    between atoms: C10_18  and  C11_19 
REMARK    5  A    between atoms: C11_19  and  N6_20 
REMARK    6  A    between atoms: N6_20  and  C12_22 
REMARK    7  A    between atoms: C12_22  and  O1_23 
REMARK    8  A    between atoms: C12_22  and  C13_25 
REMARK    9  A    between atoms: C14_28  and  C15_29 
ROOT
HETATM    1  C1  UNL     1      -2.129  46.711 -11.950  1.00  0.00     0.052 C 
HETATM    2  C2  UNL     1      -2.001  47.088 -10.539  1.00  0.00    -0.018 A 
HETATM    3  C3  UNL     1      -0.957  46.571  -9.819  1.00  0.00     0.099 A 
HETATM    4  N1  UNL     1      -0.808  46.900  -8.527  1.00  0.00    -0.351 N 
ATOM      5  H1  UNL     1      -0.031  46.520  -7.986  1.00  0.00     0.166 HD
HETATM    6  C4  UNL     1      -1.694  47.739  -7.949  1.00  0.00     0.122 A 
HETATM    7  C5  UNL     1      -2.753  48.275  -8.638  1.00  0.00     0.115 A 
HETATM    8  C6  UNL     1      -3.666  49.158  -7.990  1.00  0.00     0.105 C 
HETATM    9  N3  UNL     1      -4.418  49.887  -7.476  1.00  0.00    -0.191 NA
HETATM   10  C7  UNL     1      -2.923  47.950  -9.969  1.00  0.00     0.062 A 
ENDROOT
BRANCH   6  11
HETATM   11  N2  UNL     1      -1.569  48.065  -6.708  1.00  0.00    -0.384 N 
ATOM     12  H22 UNL     1      -0.621  48.179  -6.347  1.00  0.00     0.157 HD
ATOM     13  H21 UNL     1      -2.395  48.201  -6.125  1.00  0.00     0.157 HD
ENDBRANCH   6  11
BRANCH  10  14
HETATM   14  N4  UNL     1      -4.024  48.504 -10.659  1.00  0.00    -0.376 N 
HETATM   15  C8  UNL     1      -5.307  47.881 -10.483  1.00  0.00     0.153 C 
HETATM   16  C9  UNL     1      -6.395  48.366 -11.355  1.00  0.00     0.292 C 
HETATM   17  N5  UNL     1      -6.066  49.103 -12.516  1.00  0.00     0.096 N 
HETATM   18  C21 UNL     1      -4.689  49.327 -12.793  1.00  0.00     0.292 C 
HETATM   19  C22 UNL     1      -3.953  49.649 -11.524  1.00  0.00     0.153 C 
BRANCH  17  20
HETATM   20  C10 UNL     1      -6.872  50.311 -12.662  1.00  0.00     0.316 C 
BRANCH  20  21
HETATM   21  C11 UNL     1      -6.520  51.014 -13.974  1.00  0.00     0.088 C 
BRANCH  21  22
HETATM   22  N6  UNL     1      -6.334  52.399 -13.799  1.00  0.00    -0.369 N 
ATOM     23  H6  UNL     1      -7.059  53.063 -14.070  1.00  0.00     0.161 HD
BRANCH  22  24
HETATM   24  C12 UNL     1      -5.109  52.849 -13.233  1.00  0.00     0.286 C 
BRANCH  24  25
HETATM   25  O1  UNL     1      -5.309  54.148 -12.656  1.00  0.00    -0.370 OA
ATOM     26  H1  UNL     1      -4.929  54.803 -13.229  1.00  0.00     0.212 HD
ENDBRANCH  24  25
BRANCH  24  27
HETATM   27  C13 UNL     1      -3.997  53.031 -14.208  1.00  0.00     0.131 A 
HETATM   28  N7  UNL     1      -2.688  53.274 -13.832  1.00  0.00    -0.342 N 
HETATM   29  C14 UNL     1      -1.904  53.374 -14.911  1.00  0.00     0.066 A 
ATOM     30  H7  UNL     1      -2.366  53.364 -12.869  1.00  0.00     0.167 HD
HETATM   31  C20 UNL     1      -2.693  53.200 -16.003  1.00  0.00     0.118 A 
HETATM   32  N9  UNL     1      -3.963  52.992 -15.531  1.00  0.00    -0.350 N 
ATOM     33  H9  UNL     1      -4.776  52.829 -16.123  1.00  0.00     0.166 HD
BRANCH  29  34
HETATM   34  C15 UNL     1      -0.419  53.619 -14.860  1.00  0.00     0.149 C 
HETATM   35  F1  UNL     1       0.180  52.461 -15.332  1.00  0.00    -0.236 F 
HETATM   36  C16 UNL     1      -0.076  54.712 -15.846  1.00  0.00     0.069 C 
HETATM   37  C17 UNL     1       1.057  55.554 -15.368  1.00  0.00     0.117 C 
HETATM   38  N8  UNL     1       0.688  56.171 -14.122  1.00  0.00    -0.421 N 
HETATM   39  C18 UNL     1       0.315  55.266 -13.090  1.00  0.00     0.117 C 
ATOM     40  H8  UNL     1       0.693  57.183 -13.989  1.00  0.00     0.153 HD
HETATM   41  C19 UNL     1       0.092  53.852 -13.483  1.00  0.00     0.069 C 
ENDBRANCH  29  34
ENDBRANCH  24  27
ENDBRANCH  22  24
ENDBRANCH  21  22
ENDBRANCH  20  21
ENDBRANCH  17  20
ENDBRANCH  10  14
TORSDOF 9
ENDMDL
MODEL 4
REMARK VINA RESULT: -6.568316608      1.056      1.276
REMARK  9 active torsions:
REMARK  status: ('A' for Active; 'I' for Inactive)
REMARK    1  A    between atoms: C4_6  and  N2_7 
REMARK    2  A    between atoms: C7_13  and  N4_14 
REMARK    3  A    between atoms: N5_17  and  C10_18 
REMARK    4  A    between atoms: C10_18  and  C11_19 
REMARK    5  A    between atoms: C11_19  and  N6_20 
REMARK    6  A    between atoms: N6_20  and  C12_22 
REMARK    7  A    between atoms: C12_22  and  O1_23 
REMARK    8  A    between atoms: C12_22  and  C13_25 
REMARK    9  A    between atoms: C14_28  and  C15_29 
ROOT
HETATM    1  C1  UNL     1      -2.151  46.695 -12.076  1.00  0.00     0.052 C 
HETATM    2  C2  UNL     1      -1.998  47.084 -10.670  1.00  0.00    -0.018 A 
HETATM    3  C3  UNL     1      -0.885  46.659  -9.994  1.00  0.00     0.099 A 
HETATM    4  N1  UNL     1      -0.712  47.002  -8.709  1.00  0.00    -0.351 N 
ATOM      5  H1  UNL     1       0.115  46.689  -8.201  1.00  0.00     0.166 HD
HETATM    6  C4  UNL     1      -1.642  47.763  -8.093  1.00  0.00     0.122 A 
HETATM    7  C5  UNL     1      -2.770  48.206  -8.738  1.00  0.00     0.115 A 
HETATM    8  C6  UNL     1      -3.727  49.010  -8.051  1.00  0.00     0.105 C 
HETATM    9  N3  UNL     1      -4.516  49.673  -7.506  1.00  0.00    -0.191 NA
HETATM   10  C7  UNL     1      -2.966  47.866 -10.062  1.00  0.00     0.062 A 
ENDROOT
BRANCH   6  11
HETATM   11  N2  UNL     1      -1.494  48.101  -6.859  1.00  0.00    -0.384 N 
ATOM     12  H22 UNL     1      -0.686  48.677  -6.623  1.00  0.00     0.157 HD
ATOM     13  H21 UNL     1      -2.169  47.796  -6.156  1.00  0.00     0.157 HD
ENDBRANCH   6  11
BRANCH  10  14
HETATM   14  N4  UNL     1      -4.137  48.323 -10.706  1.00  0.00    -0.376 N 
HETATM   15  C8  UNL     1      -5.347  47.574 -10.505  1.00  0.00     0.153 C 
HETATM   16  C9  UNL     1      -6.505  47.968 -11.333  1.00  0.00     0.292 C 
HETATM   17  N5  UNL     1      -6.286  48.757 -12.485  1.00  0.00     0.096 N 
HETATM   18  C21 UNL     1      -4.948  49.120 -12.798  1.00  0.00     0.292 C 
HETATM   19  C22 UNL     1      -4.205  49.487 -11.545  1.00  0.00     0.153 C 
BRANCH  17  20
HETATM   20  C10 UNL     1      -7.210  49.882 -12.579  1.00  0.00     0.316 C 
BRANCH  20  21
HETATM   21  C11 UNL     1      -7.109  50.522 -13.965  1.00  0.00     0.088 C 
BRANCH  21  22
HETATM   22  N6  UNL     1      -6.978  51.923 -13.893  1.00  0.00    -0.369 N 
ATOM     23  H6  UNL     1      -7.688  52.536 -14.292  1.00  0.00     0.161 HD
BRANCH  22  24
HETATM   24  C12 UNL     1      -5.830  52.461 -13.249  1.00  0.00     0.286 C 
BRANCH  24  25
HETATM   25  O1  UNL     1      -6.125  53.792 -12.800  1.00  0.00    -0.370 OA
ATOM     26  H1  UNL     1      -6.045  53.825 -11.854  1.00  0.00     0.212 HD
ENDBRANCH  24  25
BRANCH  24  27
HETATM   27  C13 UNL     1      -4.632  52.610 -14.123  1.00  0.00     0.131 A 
HETATM   28  N7  UNL     1      -3.680  53.598 -13.946  1.00  0.00    -0.342 N 
HETATM   29  C14 UNL     1      -2.711  53.480 -14.859  1.00  0.00     0.066 A 
ATOM     30  H7  UNL     1      -3.713  54.316 -13.223  1.00  0.00     0.167 HD
HETATM   31  C20 UNL     1      -3.020  52.415 -15.643  1.00  0.00     0.118 A 
HETATM   32  N9  UNL     1      -4.199  51.911 -15.161  1.00  0.00    -0.350 N 
ATOM     33  H9  UNL     1      -4.681  51.102 -15.550  1.00  0.00     0.166 HD
BRANCH  29  34
HETATM   34  C15 UNL     1      -1.509  54.384 -14.942  1.00  0.00     0.149 C 
HETATM   35  F1  UNL     1      -1.496  54.891 -16.233  1.00  0.00    -0.236 F 
HETATM   36  C16 UNL     1      -1.728  55.563 -14.022  1.00  0.00     0.069 C 
HETATM   37  C17 UNL     1      -0.451  56.038 -13.417  1.00  0.00     0.117 C 
HETATM   38  N8  UNL     1       0.129  54.969 -12.650  1.00  0.00    -0.421 N 
HETATM   39  C18 UNL     1       0.379  53.773 -13.378  1.00  0.00     0.117 C 
ATOM     40  H8  UNL     1       0.346  55.062 -11.657  1.00  0.00     0.153 HD
HETATM   41  C19 UNL     1      -0.221  53.672 -14.732  1.00  0.00     0.069 C 
ENDBRANCH  29  34
ENDBRANCH  24  27
ENDBRANCH  22  24
ENDBRANCH  21  22
ENDBRANCH  20  21
ENDBRANCH  17  20
ENDBRANCH  10  14
TORSDOF 9
ENDMDL
MODEL 5
REMARK VINA RESULT: -6.518069903      1.495      1.781
REMARK  9 active torsions:
REMARK  status: ('A' for Active; 'I' for Inactive)
REMARK    1  A    between atoms: C4_6  and  N2_7 
REMARK    2  A    between atoms: C7_13  and  N4_14 
REMARK    3  A    between atoms: N5_17  and  C10_18 
REMARK    4  A    between atoms: C10_18  and  C11_19 
REMARK    5  A    between atoms: C11_19  and  N6_20 
REMARK    6  A    between atoms: N6_20  and  C12_22 
REMARK    7  A    between atoms: C12_22  and  O1_23 
REMARK    8  A    between atoms: C12_22  and  C13_25 
REMARK    9  A    between atoms: C14_28  and  C15_29 
ROOT
HETATM    1  C1  UNL     1      -2.133  46.727 -12.020  1.00  0.00     0.052 C 
HETATM    2  C2  UNL     1      -2.001  47.093 -10.606  1.00  0.00    -0.018 A 
HETATM    3  C3  UNL     1      -0.948  46.579  -9.896  1.00  0.00     0.099 A 
HETATM    4  N1  UNL     1      -0.796  46.899  -8.602  1.00  0.00    -0.351 N 
ATOM      5  H1  UNL     1      -0.013  46.521  -8.068  1.00  0.00     0.166 HD
HETATM    6  C4  UNL     1      -1.687  47.724  -8.012  1.00  0.00     0.122 A 
HETATM    7  C5  UNL     1      -2.754  48.256  -8.691  1.00  0.00     0.115 A 
HETATM    8  C6  UNL     1      -3.672  49.125  -8.031  1.00  0.00     0.105 C 
HETATM    9  N3  UNL     1      -4.428  49.843  -7.507  1.00  0.00    -0.191 NA
HETATM   10  C7  UNL     1      -2.928  47.941 -10.024  1.00  0.00     0.062 A 
ENDROOT
BRANCH   6  11
HETATM   11  N2  UNL     1      -1.558  48.041  -6.769  1.00  0.00    -0.384 N 
ATOM     12  H22 UNL     1      -1.748  47.314  -6.078  1.00  0.00     0.157 HD
ATOM     13  H21 UNL     1      -1.277  48.985  -6.504  1.00  0.00     0.157 HD
ENDBRANCH   6  11
BRANCH  10  14
HETATM   14  N4  UNL     1      -4.038  48.491 -10.704  1.00  0.00    -0.376 N 
HETATM   15  C8  UNL     1      -5.318  47.867 -10.509  1.00  0.00     0.153 C 
HETATM   16  C9  UNL     1      -6.417  48.347 -11.371  1.00  0.00     0.292 C 
HETATM   17  N5  UNL     1      -6.102  49.079 -12.539  1.00  0.00     0.096 N 
HETATM   18  C21 UNL     1      -4.729  49.303 -12.834  1.00  0.00     0.292 C 
HETATM   19  C22 UNL     1      -3.978  49.632 -11.575  1.00  0.00     0.153 C 
BRANCH  17  20
HETATM   20  C10 UNL     1      -6.910  50.285 -12.682  1.00  0.00     0.316 C 
BRANCH  20  21
HETATM   21  C11 UNL     1      -6.551  51.000 -13.985  1.00  0.00     0.088 C 
BRANCH  21  22
HETATM   22  N6  UNL     1      -6.314  52.375 -13.787  1.00  0.00    -0.369 N 
ATOM     23  H6  UNL     1      -7.000  53.071 -14.078  1.00  0.00     0.161 HD
BRANCH  22  24
HETATM   24  C12 UNL     1      -5.094  52.768 -13.170  1.00  0.00     0.286 C 
BRANCH  24  25
HETATM   25  O1  UNL     1      -5.200  54.138 -12.756  1.00  0.00    -0.370 OA
ATOM     26  H1  UNL     1      -4.576  54.659 -13.247  1.00  0.00     0.212 HD
ENDBRANCH  24  25
BRANCH  24  27
HETATM   27  C13 UNL     1      -3.900  52.728 -14.059  1.00  0.00     0.131 A 
HETATM   28  N7  UNL     1      -2.812  53.571 -13.910  1.00  0.00    -0.342 N 
HETATM   29  C14 UNL     1      -1.883  53.299 -14.831  1.00  0.00     0.066 A 
ATOM     30  H7  UNL     1      -2.731  54.296 -13.198  1.00  0.00     0.167 HD
HETATM   31  C20 UNL     1      -2.353  52.278 -15.593  1.00  0.00     0.118 A 
HETATM   32  N9  UNL     1      -3.586  51.958 -15.089  1.00  0.00    -0.350 N 
ATOM     33  H9  UNL     1      -4.186  51.221 -15.460  1.00  0.00     0.166 HD
BRANCH  29  34
HETATM   34  C15 UNL     1      -0.564  54.018 -14.942  1.00  0.00     0.149 C 
HETATM   35  F1  UNL     1      -0.851  55.370 -14.832  1.00  0.00    -0.236 F 
HETATM   36  C16 UNL     1       0.284  53.661 -13.743  1.00  0.00     0.069 C 
HETATM   37  C17 UNL     1       1.734  53.610 -14.084  1.00  0.00     0.117 C 
HETATM   38  N8  UNL     1       1.941  52.609 -15.096  1.00  0.00    -0.421 N 
HETATM   39  C18 UNL     1       1.190  52.797 -16.290  1.00  0.00     0.117 C 
ATOM     40  H8  UNL     1       2.579  51.823 -14.967  1.00  0.00     0.153 HD
HETATM   41  C19 UNL     1       0.110  53.813 -16.252  1.00  0.00     0.069 C 
ENDBRANCH  29  34
ENDBRANCH  24  27
ENDBRANCH  22  24
ENDBRANCH  21  22
ENDBRANCH  20  21
ENDBRANCH  17  20
ENDBRANCH  10  14
TORSDOF 9
ENDMDL
