MODEL 1
REMARK VINA RESULT: -6.694146956      0.000      0.000
REMARK  8 active torsions:
REMARK  status: ('A' for Active; 'I' for Inactive)
REMARK    1  A    between atoms: C3_3  and  C4_4 
REMARK    2  A    between atoms: N3_10  and  N4_11 
REMARK    3  A    between atoms: N4_11  and  C7_13 
REMARK    4  A    between atoms: C10_17  and  C11_18 
REMARK    5  A    between atoms: C11_18  and  C12_19 
REMARK    6  A    between atoms: C14_23  and  N6_24 
REMARK    7  A    between atoms: C15_29  and  N8_30 
REMARK    8  A    between atoms: C17_34  and  O1_35 
ROOT
HETATM    1  C1  UNL     1      -5.127  53.942 -13.348  1.00  0.00     0.012 C 
HETATM    2  C2  UNL     1      -5.583  52.829 -13.433  1.00  0.00    -0.113 C 
HETATM    3  C3  UNL     1      -6.149  51.453 -13.544  1.00  0.00     0.137 C 
ENDROOT
BRANCH   3   4
HETATM    4  C4  UNL     1      -7.571  51.520 -13.309  1.00  0.00     0.018 A 
HETATM    5  C5  UNL     1      -8.345  52.658 -13.338  1.00  0.00     0.119 A 
HETATM    6  N1  UNL     1      -9.616  52.344 -13.074  1.00  0.00    -0.306 N 
HETATM    7  N2  UNL     1      -9.700  51.016 -12.870  1.00  0.00    -0.256 N 
ATOM      8  H1  UNL     1     -10.394  53.002 -13.033  1.00  0.00     0.186 HD
HETATM    9  C6  UNL     1      -8.462  50.496 -13.010  1.00  0.00     0.172 A 
HETATM   10  C21 UNL     1     -10.887  50.253 -12.550  1.00  0.00     0.290 A 
HETATM   11  N3  UNL     1      -8.277  49.077 -12.864  1.00  0.00    -0.068 N 
HETATM   12  C19 UNL     1      -9.391  48.240 -12.575  1.00  0.00     0.698 A 
HETATM   13  N9  UNL     1      -9.231  46.945 -12.449  1.00  0.00    -0.229 N 
HETATM   14  N10 UNL     1     -10.660  48.841 -12.441  1.00  0.00    -0.207 N 
HETATM   15  C20 UNL     1     -10.385  46.109 -12.157  1.00  0.00     0.165 C 
ATOM     16  H9  UNL     1      -8.306  46.527 -12.555  1.00  0.00     0.177 HD
ATOM     17  H10 UNL     1     -11.461  48.238 -12.255  1.00  0.00     0.179 HD
BRANCH  11  18
HETATM   18  N4  UNL     1      -6.998  48.608 -13.035  1.00  0.00    -0.272 N 
ATOM     19  H4  UNL     1      -6.613  48.723 -13.973  1.00  0.00     0.188 HD
BRANCH  18  20
HETATM   20  C7  UNL     1      -6.143  47.994 -12.109  1.00  0.00     0.121 A 
HETATM   21  C8  UNL     1      -5.606  48.736 -11.068  1.00  0.00     0.147 A 
HETATM   22  F1  UNL     1      -5.877  50.034 -10.954  1.00  0.00    -0.204 F 
HETATM   23  C9  UNL     1      -4.761  48.169 -10.102  1.00  0.00     0.052 A 
HETATM   24  C10 UNL     1      -4.432  46.858 -10.150  1.00  0.00    -0.048 A 
HETATM   25  C16 UNL     1      -4.982  46.108 -11.214  1.00  0.00     0.046 A 
HETATM   26  C17 UNL     1      -5.812  46.667 -12.162  1.00  0.00     0.099 A 
BRANCH  24  27
HETATM   27  C11 UNL     1      -3.584  46.160  -9.161  1.00  0.00     0.082 C 
BRANCH  27  28
HETATM   28  C12 UNL     1      -2.236  46.676  -8.965  1.00  0.00     0.006 A 
HETATM   29  C13 UNL     1      -1.325  46.550 -10.013  1.00  0.00     0.117 A 
HETATM   30  N5  UNL     1      -0.081  47.049  -9.946  1.00  0.00    -0.202 N 
HETATM   31  C14 UNL     1       0.297  47.699  -8.815  1.00  0.00     0.677 A 
ATOM     32  H5  UNL     1       0.565  46.942 -10.728  1.00  0.00     0.183 HD
HETATM   33  N7  UNL     1      -0.518  47.857  -7.777  1.00  0.00    -0.177 N 
HETATM   34  C15 UNL     1      -1.776  47.345  -7.859  1.00  0.00     0.122 A 
ATOM     35  H7  UNL     1      -0.208  48.349  -6.939  1.00  0.00     0.185 HD
BRANCH  31  36
HETATM   36  N6  UNL     1       1.496  48.165  -8.786  1.00  0.00    -0.234 N 
ATOM     37  H62 UNL     1       2.284  47.565  -8.541  1.00  0.00     0.174 HD
ATOM     38  H61 UNL     1       1.613  49.152  -9.016  1.00  0.00     0.174 HD
ENDBRANCH  31  36
BRANCH  34  39
HETATM   39  N8  UNL     1      -2.495  47.479  -6.801  1.00  0.00    -0.385 N 
ATOM     40  H82 UNL     1      -2.831  46.608  -6.388  1.00  0.00     0.157 HD
ATOM     41  H81 UNL     1      -2.746  48.398  -6.435  1.00  0.00     0.157 HD
ENDBRANCH  34  39
ENDBRANCH  27  28
ENDBRANCH  24  27
BRANCH  26  42
HETATM   42  O1  UNL     1      -6.350  45.918 -13.205  1.00  0.00    -0.353 OA
HETATM   43  C18 UNL     1      -6.595  44.533 -13.112  1.00  0.00     0.210 C 
ENDBRANCH  26  42
ENDBRANCH  18  20
ENDBRANCH  11  18
ENDBRANCH   3   4
TORSDOF 8
ENDMDL
MODEL 2
REMARK VINA RESULT: -6.669380157      1.590      3.034
REMARK  8 active torsions:
REMARK  status: ('A' for Active; 'I' for Inactive)
REMARK    1  A    between atoms: C3_3  and  C4_4 
REMARK    2  A    between atoms: N3_10  and  N4_11 
REMARK    3  A    between atoms: N4_11  and  C7_13 
REMARK    4  A    between atoms: C10_17  and  C11_18 
REMARK    5  A    between atoms: C11_18  and  C12_19 
REMARK    6  A    between atoms: C14_23  and  N6_24 
REMARK    7  A    between atoms: C15_29  and  N8_30 
REMARK    8  A    between atoms: C17_34  and  O1_35 
ROOT
HETATM    1  C1  UNL     1     -11.099  49.444 -12.644  1.00  0.00     0.012 C 
HETATM    2  C2  UNL     1     -10.063  49.985 -12.348  1.00  0.00    -0.113 C 
HETATM    3  C3  UNL     1      -8.783  50.659 -11.983  1.00  0.00     0.137 C 
ENDROOT
BRANCH   3   4
HETATM    4  C4  UNL     1      -8.205  51.227 -13.176  1.00  0.00     0.018 A 
HETATM    5  C5  UNL     1      -8.441  52.491 -13.669  1.00  0.00     0.119 A 
HETATM    6  N1  UNL     1      -7.739  52.674 -14.790  1.00  0.00    -0.306 N 
HETATM    7  N2  UNL     1      -7.039  51.554 -15.051  1.00  0.00    -0.256 N 
ATOM      8  H1  UNL     1      -7.734  53.523 -15.356  1.00  0.00     0.186 HD
HETATM    9  C6  UNL     1      -7.310  50.660 -14.076  1.00  0.00     0.172 A 
HETATM   10  C21 UNL     1      -6.151  51.316 -16.168  1.00  0.00     0.290 A 
HETATM   11  N3  UNL     1      -6.666  49.374 -14.105  1.00  0.00    -0.068 N 
HETATM   12  C19 UNL     1      -5.755  49.058 -15.151  1.00  0.00     0.698 A 
HETATM   13  N9  UNL     1      -5.158  47.891 -15.178  1.00  0.00    -0.229 N 
HETATM   14  N10 UNL     1      -5.511  50.033 -16.141  1.00  0.00    -0.207 N 
HETATM   15  C20 UNL     1      -4.229  47.590 -16.257  1.00  0.00     0.165 C 
ATOM     16  H9  UNL     1      -5.343  47.200 -14.451  1.00  0.00     0.177 HD
ATOM     17  H10 UNL     1      -4.842  49.813 -16.879  1.00  0.00     0.179 HD
BRANCH  11  18
HETATM   18  N4  UNL     1      -6.971  48.516 -13.076  1.00  0.00    -0.272 N 
ATOM     19  H4  UNL     1      -7.952  48.245 -13.011  1.00  0.00     0.188 HD
BRANCH  18  20
HETATM   20  C7  UNL     1      -6.130  47.958 -12.103  1.00  0.00     0.121 A 
HETATM   21  C8  UNL     1      -5.581  48.767 -11.120  1.00  0.00     0.147 A 
HETATM   22  F1  UNL     1      -5.827  50.074 -11.106  1.00  0.00    -0.204 F 
HETATM   23  C9  UNL     1      -4.750  48.258 -10.110  1.00  0.00     0.052 A 
HETATM   24  C10 UNL     1      -4.447  46.941 -10.056  1.00  0.00    -0.048 A 
HETATM   25  C16 UNL     1      -5.009  46.123 -11.062  1.00  0.00     0.046 A 
HETATM   26  C17 UNL     1      -5.826  46.625 -12.053  1.00  0.00     0.099 A 
BRANCH  24  27
HETATM   27  C11 UNL     1      -3.616  46.304  -9.015  1.00  0.00     0.082 C 
BRANCH  27  28
HETATM   28  C12 UNL     1      -2.245  46.778  -8.881  1.00  0.00     0.006 A 
HETATM   29  C13 UNL     1      -1.401  46.664  -9.985  1.00  0.00     0.117 A 
HETATM   30  N5  UNL     1      -0.141  47.128  -9.976  1.00  0.00    -0.202 N 
HETATM   31  C14 UNL     1       0.321  47.729  -8.848  1.00  0.00     0.677 A 
ATOM     32  H5  UNL     1       0.455  47.032 -10.797  1.00  0.00     0.183 HD
HETATM   33  N7  UNL     1      -0.428  47.871  -7.759  1.00  0.00    -0.177 N 
HETATM   34  C15 UNL     1      -1.702  47.396  -7.783  1.00  0.00     0.122 A 
ATOM     35  H7  UNL     1      -0.056  48.326  -6.925  1.00  0.00     0.185 HD
BRANCH  31  36
HETATM   36  N6  UNL     1       1.532  48.163  -8.874  1.00  0.00    -0.234 N 
ATOM     37  H62 UNL     1       2.301  47.548  -9.142  1.00  0.00     0.174 HD
ATOM     38  H61 UNL     1       1.678  49.139  -8.617  1.00  0.00     0.174 HD
ENDBRANCH  31  36
BRANCH  34  39
HETATM   39  N8  UNL     1      -2.355  47.511  -6.680  1.00  0.00    -0.385 N 
ATOM     40  H82 UNL     1      -3.121  46.849  -6.554  1.00  0.00     0.157 HD
ATOM     41  H81 UNL     1      -2.142  48.247  -6.006  1.00  0.00     0.157 HD
ENDBRANCH  34  39
ENDBRANCH  27  28
ENDBRANCH  24  27
BRANCH  26  42
HETATM   42  O1  UNL     1      -6.377  45.808 -13.039  1.00  0.00    -0.353 OA
HETATM   43  C18 UNL     1      -5.728  44.662 -13.539  1.00  0.00     0.210 C 
ENDBRANCH  26  42
ENDBRANCH  18  20
ENDBRANCH  11  18
ENDBRANCH   3   4
TORSDOF 8
ENDMDL
MODEL 3
REMARK VINA RESULT: -6.564872450      4.747      7.606
REMARK  8 active torsions:
REMARK  status: ('A' for Active; 'I' for Inactive)
REMARK    1  A    between atoms: C3_3  and  C4_4 
REMARK    2  A    between atoms: N3_10  and  N4_11 
REMARK    3  A    between atoms: N4_11  and  C7_13 
REMARK    4  A    between atoms: C10_17  and  C11_18 
REMARK    5  A    between atoms: C11_18  and  C12_19 
REMARK    6  A    between atoms: C14_23  and  N6_24 
REMARK    7  A    between atoms: C15_29  and  N8_30 
REMARK    8  A    between atoms: C17_34  and  O1_35 
ROOT
HETATM    1  C1  UNL     1      -8.184  44.948 -11.254  1.00  0.00     0.012 C 
HETATM    2  C2  UNL     1      -7.738  44.065 -11.943  1.00  0.00    -0.113 C 
HETATM    3  C3  UNL     1      -7.189  42.971 -12.796  1.00  0.00     0.137 C 
ENDROOT
BRANCH   3   4
HETATM    4  C4  UNL     1      -7.154  41.756 -12.020  1.00  0.00     0.018 A 
HETATM    5  C5  UNL     1      -8.247  41.045 -11.576  1.00  0.00     0.119 A 
HETATM    6  N1  UNL     1      -7.838  39.976 -10.888  1.00  0.00    -0.306 N 
HETATM    7  N2  UNL     1      -6.492  39.963 -10.866  1.00  0.00    -0.256 N 
ATOM      8  H1  UNL     1      -8.446  39.284 -10.450  1.00  0.00     0.186 HD
HETATM    9  C6  UNL     1      -6.058  41.041 -11.553  1.00  0.00     0.172 A 
HETATM   10  C21 UNL     1      -5.636  38.988 -10.226  1.00  0.00     0.290 A 
HETATM   11  N3  UNL     1      -4.642  41.253 -11.702  1.00  0.00    -0.068 N 
HETATM   12  C19 UNL     1      -3.721  40.332 -11.130  1.00  0.00     0.698 A 
HETATM   13  N9  UNL     1      -2.430  40.514 -11.270  1.00  0.00    -0.229 N 
HETATM   14  N10 UNL     1      -4.235  39.224 -10.425  1.00  0.00    -0.207 N 
HETATM   15  C20 UNL     1      -1.506  39.558 -10.678  1.00  0.00     0.165 C 
ATOM     16  H9  UNL     1      -2.076  41.319 -11.788  1.00  0.00     0.177 HD
ATOM     17  H10 UNL     1      -3.574  38.553 -10.033  1.00  0.00     0.179 HD
BRANCH  11  18
HETATM   18  N4  UNL     1      -4.263  42.358 -12.425  1.00  0.00    -0.272 N 
ATOM     19  H4  UNL     1      -4.490  42.326 -13.419  1.00  0.00     0.188 HD
BRANCH  18  20
HETATM   20  C7  UNL     1      -3.611  43.522 -11.997  1.00  0.00     0.121 A 
HETATM   21  C8  UNL     1      -4.085  44.212 -10.891  1.00  0.00     0.147 A 
HETATM   22  F1  UNL     1      -5.170  43.791 -10.247  1.00  0.00    -0.204 F 
HETATM   23  C9  UNL     1      -3.460  45.370 -10.407  1.00  0.00     0.052 A 
HETATM   24  C10 UNL     1      -2.355  45.868 -11.009  1.00  0.00    -0.048 A 
HETATM   25  C16 UNL     1      -1.878  45.160 -12.135  1.00  0.00     0.046 A 
HETATM   26  C17 UNL     1      -2.493  44.021 -12.609  1.00  0.00     0.099 A 
BRANCH  24  27
HETATM   27  C11 UNL     1      -1.603  47.055 -10.554  1.00  0.00     0.082 C 
BRANCH  27  28
HETATM   28  C12 UNL     1      -2.126  47.763  -9.392  1.00  0.00     0.006 A 
HETATM   29  C13 UNL     1      -3.100  48.738  -9.601  1.00  0.00     0.117 A 
HETATM   30  N5  UNL     1      -3.683  49.398  -8.588  1.00  0.00    -0.202 N 
HETATM   31  C14 UNL     1      -3.306  49.101  -7.317  1.00  0.00     0.677 A 
ATOM     32  H5  UNL     1      -4.394  50.106  -8.769  1.00  0.00     0.183 HD
HETATM   33  N7  UNL     1      -2.383  48.184  -7.044  1.00  0.00    -0.177 N 
HETATM   34  C15 UNL     1      -1.800  47.523  -8.081  1.00  0.00     0.122 A 
ATOM     35  H7  UNL     1      -2.117  47.981  -6.081  1.00  0.00     0.185 HD
BRANCH  31  36
HETATM   36  N6  UNL     1      -3.885  49.752  -6.371  1.00  0.00    -0.234 N 
ATOM     37  H62 UNL     1      -3.553  50.677  -6.095  1.00  0.00     0.174 HD
ATOM     38  H61 UNL     1      -4.681  49.301  -5.920  1.00  0.00     0.174 HD
ENDBRANCH  31  36
BRANCH  34  39
HETATM   39  N8  UNL     1      -0.875  46.692  -7.755  1.00  0.00    -0.385 N 
ATOM     40  H82 UNL     1      -1.134  45.706  -7.807  1.00  0.00     0.157 HD
ATOM     41  H81 UNL     1       0.037  47.008  -7.424  1.00  0.00     0.157 HD
ENDBRANCH  34  39
ENDBRANCH  27  28
ENDBRANCH  24  27
BRANCH  26  42
HETATM   42  O1  UNL     1      -2.013  43.331 -13.719  1.00  0.00    -0.353 OA
HETATM   43  C18 UNL     1      -0.770  42.667 -13.734  1.00  0.00     0.210 C 
ENDBRANCH  26  42
ENDBRANCH  18  20
ENDBRANCH  11  18
ENDBRANCH   3   4
TORSDOF 8
ENDMDL
MODEL 4
REMARK VINA RESULT: -6.428157908      4.144      6.683
REMARK  8 active torsions:
REMARK  status: ('A' for Active; 'I' for Inactive)
REMARK    1  A    between atoms: C3_3  and  C4_4 
REMARK    2  A    between atoms: N3_10  and  N4_11 
REMARK    3  A    between atoms: N4_11  and  C7_13 
REMARK    4  A    between atoms: C10_17  and  C11_18 
REMARK    5  A    between atoms: C11_18  and  C12_19 
REMARK    6  A    between atoms: C14_23  and  N6_24 
REMARK    7  A    between atoms: C15_29  and  N8_30 
REMARK    8  A    between atoms: C17_34  and  O1_35 
ROOT
HETATM    1  C1  UNL     1       0.497  47.432  -8.595  1.00  0.00     0.012 C 
HETATM    2  C2  UNL     1      -0.605  47.119  -8.221  1.00  0.00    -0.113 C 
HETATM    3  C3  UNL     1      -1.970  46.730  -7.762  1.00  0.00     0.137 C 
ENDROOT
BRANCH   3   4
HETATM    4  C4  UNL     1      -2.907  47.737  -8.198  1.00  0.00     0.018 A 
HETATM    5  C5  UNL     1      -3.109  48.966  -7.610  1.00  0.00     0.119 A 
HETATM    6  N1  UNL     1      -4.051  49.635  -8.279  1.00  0.00    -0.306 N 
HETATM    7  N2  UNL     1      -4.480  48.872  -9.302  1.00  0.00    -0.256 N 
ATOM      8  H1  UNL     1      -4.391  50.569  -8.051  1.00  0.00     0.186 HD
HETATM    9  C6  UNL     1      -3.792  47.711  -9.269  1.00  0.00     0.172 A 
HETATM   10  C21 UNL     1      -5.496  49.205 -10.277  1.00  0.00     0.290 A 
HETATM   11  N3  UNL     1      -4.044  46.718 -10.279  1.00  0.00    -0.068 N 
HETATM   12  C19 UNL     1      -5.008  46.966 -11.296  1.00  0.00     0.698 A 
HETATM   13  N9  UNL     1      -5.236  46.069 -12.224  1.00  0.00    -0.229 N 
HETATM   14  N10 UNL     1      -5.694  48.198 -11.279  1.00  0.00    -0.207 N 
HETATM   15  C20 UNL     1      -6.225  46.345 -13.256  1.00  0.00     0.165 C 
ATOM     16  H9  UNL     1      -4.726  45.185 -12.224  1.00  0.00     0.177 HD
ATOM     17  H10 UNL     1      -6.370  48.384 -12.020  1.00  0.00     0.179 HD
BRANCH  11  18
HETATM   18  N4  UNL     1      -3.300  45.565 -10.201  1.00  0.00    -0.272 N 
ATOM     19  H4  UNL     1      -3.412  45.033  -9.338  1.00  0.00     0.188 HD
BRANCH  18  20
HETATM   20  C7  UNL     1      -2.410  45.015 -11.133  1.00  0.00     0.121 A 
HETATM   21  C8  UNL     1      -1.424  45.809 -11.697  1.00  0.00     0.147 A 
HETATM   22  F1  UNL     1      -1.330  47.098 -11.379  1.00  0.00    -0.204 F 
HETATM   23  C9  UNL     1      -0.494  45.306 -12.620  1.00  0.00     0.052 A 
HETATM   24  C10 UNL     1      -0.525  44.008 -13.001  1.00  0.00    -0.048 A 
HETATM   25  C16 UNL     1      -1.533  43.205 -12.422  1.00  0.00     0.046 A 
HETATM   26  C17 UNL     1      -2.446  43.702 -11.515  1.00  0.00     0.099 A 
BRANCH  24  27
HETATM   27  C11 UNL     1       0.431  43.375 -13.932  1.00  0.00     0.082 C 
BRANCH  27  28
HETATM   28  C12 UNL     1       1.655  44.109 -14.224  1.00  0.00     0.006 A 
HETATM   29  C13 UNL     1       2.753  43.914 -13.387  1.00  0.00     0.117 A 
HETATM   30  N5  UNL     1       3.939  44.499 -13.612  1.00  0.00    -0.202 N 
HETATM   31  C14 UNL     1       4.068  45.310 -14.695  1.00  0.00     0.677 A 
ATOM     32  H5  UNL     1       4.726  44.339 -12.984  1.00  0.00     0.183 HD
HETATM   33  N7  UNL     1       3.064  45.541 -15.535  1.00  0.00    -0.177 N 
HETATM   34  C15 UNL     1       1.867  44.942 -15.294  1.00  0.00     0.122 A 
ATOM     35  H7  UNL     1       3.188  46.155 -16.340  1.00  0.00     0.185 HD
BRANCH  31  36
HETATM   36  N6  UNL     1       5.219  45.854 -14.881  1.00  0.00    -0.234 N 
ATOM     37  H62 UNL     1       6.021  45.587 -14.309  1.00  0.00     0.174 HD
ATOM     38  H61 UNL     1       5.285  46.554 -15.620  1.00  0.00     0.174 HD
ENDBRANCH  31  36
BRANCH  34  39
HETATM   39  N8  UNL     1       0.921  45.252 -16.108  1.00  0.00    -0.385 N 
ATOM     40  H82 UNL     1       0.433  46.124 -15.899  1.00  0.00     0.157 HD
ATOM     41  H81 UNL     1       0.654  44.639 -16.878  1.00  0.00     0.157 HD
ENDBRANCH  34  39
ENDBRANCH  27  28
ENDBRANCH  24  27
BRANCH  26  42
HETATM   42  O1  UNL     1      -3.435  42.900 -10.950  1.00  0.00    -0.353 OA
HETATM   43  C18 UNL     1      -4.580  42.479 -11.655  1.00  0.00     0.210 C 
ENDBRANCH  26  42
ENDBRANCH  18  20
ENDBRANCH  11  18
ENDBRANCH   3   4
TORSDOF 8
ENDMDL
MODEL 5
REMARK VINA RESULT: -6.386780537      4.121      6.673
REMARK  8 active torsions:
REMARK  status: ('A' for Active; 'I' for Inactive)
REMARK    1  A    between atoms: C3_3  and  C4_4 
REMARK    2  A    between atoms: N3_10  and  N4_11 
REMARK    3  A    between atoms: N4_11  and  C7_13 
REMARK    4  A    between atoms: C10_17  and  C11_18 
REMARK    5  A    between atoms: C11_18  and  C12_19 
REMARK    6  A    between atoms: C14_23  and  N6_24 
REMARK    7  A    between atoms: C15_29  and  N8_30 
REMARK    8  A    between atoms: C17_34  and  O1_35 
ROOT
HETATM    1  C1  UNL     1       0.796  47.800  -8.951  1.00  0.00     0.012 C 
HETATM    2  C2  UNL     1      -0.228  47.364  -8.489  1.00  0.00    -0.113 C 
HETATM    3  C3  UNL     1      -1.497  46.823  -7.920  1.00  0.00     0.137 C 
ENDROOT
BRANCH   3   4
HETATM    4  C4  UNL     1      -2.559  47.760  -8.191  1.00  0.00     0.018 A 
HETATM    5  C5  UNL     1      -2.752  48.971  -7.565  1.00  0.00     0.119 A 
HETATM    6  N1  UNL     1      -3.833  49.570  -8.069  1.00  0.00    -0.306 N 
HETATM    7  N2  UNL     1      -4.364  48.778  -9.020  1.00  0.00    -0.256 N 
ATOM      8  H1  UNL     1      -4.198  50.478  -7.780  1.00  0.00     0.186 HD
HETATM    9  C6  UNL     1      -3.599  47.670  -9.108  1.00  0.00     0.172 A 
HETATM   10  C21 UNL     1      -5.544  49.037  -9.817  1.00  0.00     0.290 A 
HETATM   11  N3  UNL     1      -3.939  46.660 -10.076  1.00  0.00    -0.068 N 
HETATM   12  C19 UNL     1      -5.067  46.838 -10.924  1.00  0.00     0.698 A 
HETATM   13  N9  UNL     1      -5.376  45.926 -11.814  1.00  0.00    -0.229 N 
HETATM   14  N10 UNL     1      -5.827  48.018 -10.785  1.00  0.00    -0.207 N 
HETATM   15  C20 UNL     1      -6.533  46.130 -12.673  1.00  0.00     0.165 C 
ATOM     16  H9  UNL     1      -4.811  45.081 -11.904  1.00  0.00     0.177 HD
ATOM     17  H10 UNL     1      -6.623  48.154 -11.408  1.00  0.00     0.179 HD
BRANCH  11  18
HETATM   18  N4  UNL     1      -3.112  45.564 -10.129  1.00  0.00    -0.272 N 
ATOM     19  H4  UNL     1      -3.057  45.018  -9.269  1.00  0.00     0.188 HD
BRANCH  18  20
HETATM   20  C7  UNL     1      -2.334  45.086 -11.192  1.00  0.00     0.121 A 
HETATM   21  C8  UNL     1      -1.459  45.940 -11.846  1.00  0.00     0.147 A 
HETATM   22  F1  UNL     1      -1.370  47.219 -11.488  1.00  0.00    -0.204 F 
HETATM   23  C9  UNL     1      -0.642  45.511 -12.902  1.00  0.00     0.052 A 
HETATM   24  C10 UNL     1      -0.677  44.228 -13.331  1.00  0.00    -0.048 A 
HETATM   25  C16 UNL     1      -1.571  43.364 -12.661  1.00  0.00     0.046 A 
HETATM   26  C17 UNL     1      -2.373  43.788 -11.623  1.00  0.00     0.099 A 
BRANCH  24  27
HETATM   27  C11 UNL     1       0.169  43.670 -14.406  1.00  0.00     0.082 C 
BRANCH  27  28
HETATM   28  C12 UNL     1       1.539  44.158 -14.489  1.00  0.00     0.006 A 
HETATM   29  C13 UNL     1       1.802  45.237 -15.332  1.00  0.00     0.117 A 
HETATM   30  N5  UNL     1       3.020  45.793 -15.428  1.00  0.00    -0.202 N 
HETATM   31  C14 UNL     1       4.028  45.282 -14.673  1.00  0.00     0.677 A 
ATOM     32  H5  UNL     1       3.185  46.582 -16.053  1.00  0.00     0.183 HD
HETATM   33  N7  UNL     1       3.849  44.254 -13.848  1.00  0.00    -0.177 N 
HETATM   34  C15 UNL     1       2.610  43.701 -13.763  1.00  0.00     0.122 A 
ATOM     35  H7  UNL     1       4.623  43.890 -13.294  1.00  0.00     0.185 HD
BRANCH  31  36
HETATM   36  N6  UNL     1       5.181  45.839 -14.789  1.00  0.00    -0.234 N 
ATOM     37  H62 UNL     1       5.298  46.688 -15.343  1.00  0.00     0.174 HD
ATOM     38  H61 UNL     1       5.960  45.393 -14.303  1.00  0.00     0.174 HD
ENDBRANCH  31  36
BRANCH  34  39
HETATM   39  N8  UNL     1       2.516  42.675 -12.993  1.00  0.00    -0.385 N 
ATOM     40  H82 UNL     1       1.686  42.098 -13.133  1.00  0.00     0.157 HD
ATOM     41  H81 UNL     1       3.206  42.486 -12.266  1.00  0.00     0.157 HD
ENDBRANCH  34  39
ENDBRANCH  27  28
ENDBRANCH  24  27
BRANCH  26  42
HETATM   42  O1  UNL     1      -3.249  42.925 -10.968  1.00  0.00    -0.353 OA
HETATM   43  C18 UNL     1      -4.363  42.335 -11.599  1.00  0.00     0.210 C 
ENDBRANCH  26  42
ENDBRANCH  18  20
ENDBRANCH  11  18
ENDBRANCH   3   4
TORSDOF 8
ENDMDL
