MODEL 1
REMARK VINA RESULT: -6.136846585      0.000      0.000
REMARK  8 active torsions:
REMARK  status: ('A' for Active; 'I' for Inactive)
REMARK    1  A    between atoms: N1_2  and  C2_4 
REMARK    2  A    between atoms: C7_12  and  C8_13 
REMARK    3  A    between atoms: C9_16  and  N4_17 
REMARK    4  A    between atoms: N4_17  and  C10_19 
REMARK    5  A    between atoms: C10_19  and  C11_20 
REMARK    6  A    between atoms: C11_20  and  N5_21 
REMARK    7  A    between atoms: C14_24  and  O1_25 
REMARK    8  A    between atoms: C18_29  and  N6_30 
ROOT
HETATM    1  C8  UNL     1      -5.314  48.807 -11.191  1.00  0.00     0.123 A 
HETATM    2  N3  UNL     1      -6.253  47.815 -11.310  1.00  0.00    -0.327 N 
ATOM      3  H3  UNL     1      -5.996  46.869 -11.027  1.00  0.00     0.169 HD
HETATM    4  C9  UNL     1      -7.481  48.021 -11.776  1.00  0.00     0.120 A 
HETATM    5  C17 UNL     1      -7.894  49.275 -12.177  1.00  0.00     0.096 A 
HETATM    6  C18 UNL     1      -9.158  49.515 -12.663  1.00  0.00     0.132 A 
HETATM    7  N7  UNL     1      -9.457  50.791 -13.029  1.00  0.00    -0.176 N 
ATOM      8  H7  UNL     1     -10.388  50.993 -13.393  1.00  0.00     0.186 HD
HETATM    9  C19 UNL     1      -8.570  51.795 -12.930  1.00  0.00     0.679 A 
HETATM   10  N8  UNL     1      -8.924  52.981 -13.297  1.00  0.00    -0.234 N 
ATOM     11  H81 UNL     1      -8.251  53.743 -13.220  1.00  0.00     0.174 HD
ATOM     12  H82 UNL     1      -9.854  53.185 -13.660  1.00  0.00     0.174 HD
HETATM   13  N9  UNL     1      -7.338  51.525 -12.448  1.00  0.00    -0.176 N 
ATOM     14  H9  UNL     1      -6.661  52.284 -12.371  1.00  0.00     0.186 HD
HETATM   15  C20 UNL     1      -6.972  50.286 -12.067  1.00  0.00     0.140 A 
HETATM   16  N10 UNL     1      -5.741  50.010 -11.584  1.00  0.00    -0.326 N 
ATOM     17  H10 UNL     1      -5.082  50.785 -11.513  1.00  0.00     0.169 HD
ENDROOT
BRANCH   1  18
HETATM   18  C7  UNL     1      -3.951  48.466 -10.793  1.00  0.00     0.058 A 
HETATM   19  C2  UNL     1      -3.563  48.620  -9.483  1.00  0.00     0.116 A 
HETATM   20  N2  UNL     1      -2.329  48.189  -9.028  1.00  0.00    -0.332 N 
HETATM   21  C3  UNL     1      -1.428  47.601  -9.810  1.00  0.00     0.105 A 
ATOM     22  H2  UNL     1      -2.099  48.329  -8.044  1.00  0.00     0.168 HD
HETATM   23 CL1  UNL     1       0.134  47.065  -9.191  1.00  0.00    -0.064 Cl
HETATM   24  C4  UNL     1      -1.780  47.434 -11.122  1.00  0.00     0.050 A 
HETATM   25  C5  UNL     1      -3.028  47.859 -11.620  1.00  0.00    -0.041 A 
HETATM   26  C6  UNL     1      -3.328  47.579 -13.047  1.00  0.00     0.049 C 
BRANCH  19  27
HETATM   27  N1  UNL     1      -4.381  49.322  -8.562  1.00  0.00    -0.380 N 
HETATM   28  C1  UNL     1      -3.972  49.473  -7.161  1.00  0.00     0.147 C 
ATOM     29  H1  UNL     1      -5.263  49.726  -8.877  1.00  0.00     0.160 HD
ENDBRANCH  19  27
ENDBRANCH   1  18
BRANCH   4  30
HETATM   30  N4  UNL     1      -8.369  47.082 -11.887  1.00  0.00    -0.374 N 
ATOM     31  H4  UNL     1      -9.314  47.328 -12.181  1.00  0.00     0.161 HD
BRANCH  30  32
HETATM   32  C10 UNL     1      -8.059  45.696 -11.608  1.00  0.00     0.151 C 
BRANCH  32  33
HETATM   33  C11 UNL     1      -7.956  44.881 -12.877  1.00  0.00     0.292 C 
BRANCH  33  34
HETATM   34  N5  UNL     1      -6.970  43.825 -12.759  1.00  0.00     0.092 N 
HETATM   35  C12 UNL     1      -7.392  42.762 -11.905  1.00  0.00     0.275 C 
HETATM   36  C13 UNL     1      -6.086  42.046 -11.559  1.00  0.00     0.064 C 
HETATM   37  C14 UNL     1      -5.085  43.178 -11.490  1.00  0.00     0.150 C 
HETATM   38  C16 UNL     1      -5.702  44.299 -12.296  1.00  0.00     0.304 C 
BRANCH  37  39
HETATM   39  O1  UNL     1      -4.832  43.573 -10.184  1.00  0.00    -0.389 OA
HETATM   40  C15 UNL     1      -4.723  44.946 -10.044  1.00  0.00     0.202 C 
ENDBRANCH  37  39
ENDBRANCH  33  34
ENDBRANCH  32  33
ENDBRANCH  30  32
ENDBRANCH   4  30
BRANCH   6  41
HETATM   41  N6  UNL     1      -9.987  48.553 -12.750  1.00  0.00    -0.384 N 
ATOM     42  H62 UNL     1     -10.641  48.448 -13.526  1.00  0.00     0.157 HD
ATOM     43  H61 UNL     1     -10.010  47.844 -12.018  1.00  0.00     0.157 HD
ENDBRANCH   6  41
TORSDOF 8
ENDMDL
MODEL 2
REMARK VINA RESULT: -6.105756962      1.021      1.275
REMARK  8 active torsions:
REMARK  status: ('A' for Active; 'I' for Inactive)
REMARK    1  A    between atoms: N1_2  and  C2_4 
REMARK    2  A    between atoms: C7_12  and  C8_13 
REMARK    3  A    between atoms: C9_16  and  N4_17 
REMARK    4  A    between atoms: N4_17  and  C10_19 
REMARK    5  A    between atoms: C10_19  and  C11_20 
REMARK    6  A    between atoms: C11_20  and  N5_21 
REMARK    7  A    between atoms: C14_24  and  O1_25 
REMARK    8  A    between atoms: C18_29  and  N6_30 
ROOT
HETATM    1  C8  UNL     1      -4.949  48.539 -10.924  1.00  0.00     0.123 A 
HETATM    2  N3  UNL     1      -5.844  47.505 -11.014  1.00  0.00    -0.327 N 
ATOM      3  H3  UNL     1      -5.564  46.590 -10.659  1.00  0.00     0.169 HD
HETATM    4  C9  UNL     1      -7.059  47.631 -11.539  1.00  0.00     0.120 A 
HETATM    5  C17 UNL     1      -7.501  48.839 -12.038  1.00  0.00     0.096 A 
HETATM    6  C18 UNL     1      -8.753  48.996 -12.587  1.00  0.00     0.132 A 
HETATM    7  N7  UNL     1      -9.083  50.234 -13.048  1.00  0.00    -0.176 N 
ATOM      8  H7  UNL     1     -10.006  50.374 -13.460  1.00  0.00     0.186 HD
HETATM    9  C19 UNL     1      -8.239  51.277 -12.981  1.00  0.00     0.679 A 
HETATM   10  N8  UNL     1      -8.622  52.421 -13.438  1.00  0.00    -0.234 N 
ATOM     11  H81 UNL     1      -7.981  53.213 -13.387  1.00  0.00     0.174 HD
ATOM     12  H82 UNL     1      -9.543  52.564 -13.850  1.00  0.00     0.174 HD
HETATM   13  N9  UNL     1      -7.019  51.087 -12.435  1.00  0.00    -0.176 N 
ATOM     14  H9  UNL     1      -6.375  51.877 -12.382  1.00  0.00     0.186 HD
HETATM   15  C20 UNL     1      -6.623  49.891 -11.959  1.00  0.00     0.140 A 
HETATM   16  N10 UNL     1      -5.404  49.696 -11.412  1.00  0.00    -0.326 N 
ATOM     17  H10 UNL     1      -4.777  50.500 -11.367  1.00  0.00     0.169 HD
ENDROOT
BRANCH   1  18
HETATM   18  C7  UNL     1      -3.591  48.279 -10.453  1.00  0.00     0.058 A 
HETATM   19  C2  UNL     1      -3.246  48.593  -9.159  1.00  0.00     0.116 A 
HETATM   20  N2  UNL     1      -2.018  48.247  -8.624  1.00  0.00    -0.332 N 
HETATM   21  C3  UNL     1      -1.082  47.594  -9.306  1.00  0.00     0.105 A 
ATOM     22  H2  UNL     1      -1.820  48.506  -7.657  1.00  0.00     0.168 HD
HETATM   23 CL1  UNL     1       0.472  47.171  -8.587  1.00  0.00    -0.064 Cl
HETATM   24  C4  UNL     1      -1.390  47.268 -10.600  1.00  0.00     0.050 A 
HETATM   25  C5  UNL     1      -2.632  47.602 -11.178  1.00  0.00    -0.041 A 
HETATM   26  C6  UNL     1      -2.883  47.152 -12.570  1.00  0.00     0.049 C 
BRANCH  19  27
HETATM   27  N1  UNL     1      -4.105  49.377  -8.349  1.00  0.00    -0.380 N 
HETATM   28  C1  UNL     1      -3.921  49.431  -6.894  1.00  0.00     0.147 C 
ATOM     29  H1  UNL     1      -4.860  49.909  -8.781  1.00  0.00     0.160 HD
ENDBRANCH  19  27
ENDBRANCH   1  18
BRANCH   4  30
HETATM   30  N4  UNL     1      -7.905  46.653 -11.623  1.00  0.00    -0.374 N 
ATOM     31  H4  UNL     1      -8.689  46.731 -12.271  1.00  0.00     0.161 HD
BRANCH  30  32
HETATM   32  C10 UNL     1      -7.773  45.453 -10.824  1.00  0.00     0.151 C 
BRANCH  32  33
HETATM   33  C11 UNL     1      -7.436  44.250 -11.676  1.00  0.00     0.292 C 
BRANCH  33  34
HETATM   34  N5  UNL     1      -6.048  44.258 -12.093  1.00  0.00     0.092 N 
HETATM   35  C12 UNL     1      -5.788  43.371 -13.182  1.00  0.00     0.275 C 
HETATM   36  C13 UNL     1      -4.271  43.186 -13.134  1.00  0.00     0.064 C 
HETATM   37  C14 UNL     1      -3.971  43.222 -11.651  1.00  0.00     0.150 C 
HETATM   38  C16 UNL     1      -5.147  43.940 -11.028  1.00  0.00     0.304 C 
BRANCH  37  39
HETATM   39  O1  UNL     1      -3.814  41.950 -11.119  1.00  0.00    -0.389 OA
HETATM   40  C15 UNL     1      -2.713  41.282 -11.626  1.00  0.00     0.202 C 
ENDBRANCH  37  39
ENDBRANCH  33  34
ENDBRANCH  32  33
ENDBRANCH  30  32
ENDBRANCH   4  30
BRANCH   6  41
HETATM   41  N6  UNL     1      -9.540  47.999 -12.643  1.00  0.00    -0.384 N 
ATOM     42  H62 UNL     1      -9.882  47.510 -11.816  1.00  0.00     0.157 HD
ATOM     43  H61 UNL     1      -9.856  47.660 -13.552  1.00  0.00     0.157 HD
ENDBRANCH   6  41
TORSDOF 8
ENDMDL
MODEL 3
REMARK VINA RESULT: -6.002621792      3.428      6.405
REMARK  8 active torsions:
REMARK  status: ('A' for Active; 'I' for Inactive)
REMARK    1  A    between atoms: N1_2  and  C2_4 
REMARK    2  A    between atoms: C7_12  and  C8_13 
REMARK    3  A    between atoms: C9_16  and  N4_17 
REMARK    4  A    between atoms: N4_17  and  C10_19 
REMARK    5  A    between atoms: C10_19  and  C11_20 
REMARK    6  A    between atoms: C11_20  and  N5_21 
REMARK    7  A    between atoms: C14_24  and  O1_25 
REMARK    8  A    between atoms: C18_29  and  N6_30 
ROOT
HETATM    1  C8  UNL     1      -5.424  47.162 -11.298  1.00  0.00     0.123 A 
HETATM    2  N3  UNL     1      -4.455  46.197 -11.201  1.00  0.00    -0.327 N 
ATOM      3  H3  UNL     1      -4.453  45.444 -11.888  1.00  0.00     0.169 HD
HETATM    4  C9  UNL     1      -3.519  46.193 -10.258  1.00  0.00     0.120 A 
HETATM    5  C17 UNL     1      -3.465  47.182  -9.297  1.00  0.00     0.096 A 
HETATM    6  C18 UNL     1      -2.507  47.200  -8.310  1.00  0.00     0.132 A 
HETATM    7  N7  UNL     1      -2.549  48.225  -7.414  1.00  0.00    -0.176 N 
ATOM      8  H7  UNL     1      -1.849  48.259  -6.674  1.00  0.00     0.186 HD
HETATM    9  C19 UNL     1      -3.479  49.193  -7.471  1.00  0.00     0.679 A 
HETATM   10  N8  UNL     1      -3.458  50.133  -6.587  1.00  0.00    -0.234 N 
ATOM     11  H81 UNL     1      -4.163  50.868  -6.631  1.00  0.00     0.174 HD
ATOM     12  H82 UNL     1      -2.759  50.169  -5.846  1.00  0.00     0.174 HD
HETATM   13  N9  UNL     1      -4.405  49.144  -8.453  1.00  0.00    -0.176 N 
ATOM     14  H9  UNL     1      -5.113  49.877  -8.499  1.00  0.00     0.186 HD
HETATM   15  C20 UNL     1      -4.425  48.161  -9.373  1.00  0.00     0.140 A 
HETATM   16  N10 UNL     1      -5.347  48.107 -10.358  1.00  0.00    -0.326 N 
ATOM     17  H10 UNL     1      -6.044  48.852 -10.386  1.00  0.00     0.169 HD
ENDROOT
BRANCH   1  18
HETATM   18  C7  UNL     1      -6.491  47.017 -12.286  1.00  0.00     0.058 A 
HETATM   19  C2  UNL     1      -6.338  47.558 -13.540  1.00  0.00     0.116 A 
HETATM   20  N2  UNL     1      -7.256  47.336 -14.551  1.00  0.00    -0.332 N 
HETATM   21  C3  UNL     1      -8.348  46.595 -14.395  1.00  0.00     0.105 A 
ATOM     22  H2  UNL     1      -7.086  47.763 -15.462  1.00  0.00     0.168 HD
HETATM   23 CL1  UNL     1      -9.495  46.335 -15.710  1.00  0.00    -0.064 Cl
HETATM   24  C4  UNL     1      -8.535  46.042 -13.157  1.00  0.00     0.050 A 
HETATM   25  C5  UNL     1      -7.620  46.244 -12.104  1.00  0.00    -0.041 A 
HETATM   26  C6  UNL     1      -7.891  45.554 -10.818  1.00  0.00     0.049 C 
BRANCH  19  27
HETATM   27  N1  UNL     1      -5.274  48.453 -13.820  1.00  0.00    -0.380 N 
HETATM   28  C1  UNL     1      -5.504  49.902 -13.856  1.00  0.00     0.147 C 
ATOM     29  H1  UNL     1      -4.339  48.086 -13.998  1.00  0.00     0.160 HD
ENDBRANCH  19  27
ENDBRANCH   1  18
BRANCH   4  30
HETATM   30  N4  UNL     1      -2.602  45.281 -10.167  1.00  0.00    -0.374 N 
ATOM     31  H4  UNL     1      -2.075  45.193  -9.297  1.00  0.00     0.161 HD
BRANCH  30  32
HETATM   32  C10 UNL     1      -2.302  44.382 -11.261  1.00  0.00     0.151 C 
BRANCH  32  33
HETATM   33  C11 UNL     1      -1.080  44.828 -12.030  1.00  0.00     0.292 C 
BRANCH  33  34
HETATM   34  N5  UNL     1      -1.399  45.158 -13.405  1.00  0.00     0.092 N 
HETATM   35  C12 UNL     1      -1.745  46.532 -13.582  1.00  0.00     0.275 C 
HETATM   36  C13 UNL     1      -2.474  46.543 -14.926  1.00  0.00     0.064 C 
HETATM   37  C14 UNL     1      -3.205  45.218 -14.928  1.00  0.00     0.150 C 
HETATM   38  C16 UNL     1      -2.458  44.355 -13.936  1.00  0.00     0.304 C 
BRANCH  37  39
HETATM   39  O1  UNL     1      -4.539  45.357 -14.573  1.00  0.00    -0.389 OA
HETATM   40  C15 UNL     1      -5.129  44.161 -14.200  1.00  0.00     0.202 C 
ENDBRANCH  37  39
ENDBRANCH  33  34
ENDBRANCH  32  33
ENDBRANCH  30  32
ENDBRANCH   4  30
BRANCH   6  41
HETATM   41  N6  UNL     1      -1.632  46.277  -8.271  1.00  0.00    -0.384 N 
ATOM     42  H62 UNL     1      -1.799  45.368  -7.840  1.00  0.00     0.157 HD
ATOM     43  H61 UNL     1      -0.715  46.437  -8.687  1.00  0.00     0.157 HD
ENDBRANCH   6  41
TORSDOF 8
ENDMDL
MODEL 4
REMARK VINA RESULT: -5.877102344      2.890      6.228
REMARK  8 active torsions:
REMARK  status: ('A' for Active; 'I' for Inactive)
REMARK    1  A    between atoms: N1_2  and  C2_4 
REMARK    2  A    between atoms: C7_12  and  C8_13 
REMARK    3  A    between atoms: C9_16  and  N4_17 
REMARK    4  A    between atoms: N4_17  and  C10_19 
REMARK    5  A    between atoms: C10_19  and  C11_20 
REMARK    6  A    between atoms: C11_20  and  N5_21 
REMARK    7  A    between atoms: C14_24  and  O1_25 
REMARK    8  A    between atoms: C18_29  and  N6_30 
ROOT
HETATM    1  C8  UNL     1      -5.285  47.967 -11.159  1.00  0.00     0.123 A 
HETATM    2  N3  UNL     1      -4.395  47.339 -11.992  1.00  0.00    -0.327 N 
ATOM      3  H3  UNL     1      -4.668  47.183 -12.962  1.00  0.00     0.169 HD
HETATM    4  C9  UNL     1      -3.194  46.923 -11.602  1.00  0.00     0.120 A 
HETATM    5  C17 UNL     1      -2.762  47.102 -10.304  1.00  0.00     0.096 A 
HETATM    6  C18 UNL     1      -1.525  46.680  -9.874  1.00  0.00     0.132 A 
HETATM    7  N7  UNL     1      -1.203  46.909  -8.571  1.00  0.00    -0.176 N 
ATOM      8  H7  UNL     1      -0.291  46.605  -8.229  1.00  0.00     0.186 HD
HETATM    9  C19 UNL     1      -2.042  47.521  -7.718  1.00  0.00     0.679 A 
HETATM   10  N8  UNL     1      -1.669  47.703  -6.497  1.00  0.00    -0.234 N 
ATOM     11  H81 UNL     1      -2.305  48.168  -5.850  1.00  0.00     0.174 HD
ATOM     12  H82 UNL     1      -0.758  47.400  -6.153  1.00  0.00     0.174 HD
HETATM   13  N9  UNL     1      -3.248  47.922  -8.173  1.00  0.00    -0.176 N 
ATOM     14  H9  UNL     1      -3.888  48.386  -7.529  1.00  0.00     0.186 HD
HETATM   15  C20 UNL     1      -3.635  47.729  -9.449  1.00  0.00     0.140 A 
HETATM   16  N10 UNL     1      -4.839  48.128  -9.910  1.00  0.00    -0.326 N 
ATOM     17  H10 UNL     1      -5.462  48.593  -9.249  1.00  0.00     0.169 HD
ENDROOT
BRANCH   1  18
HETATM   18  C7  UNL     1      -6.630  48.272 -11.638  1.00  0.00     0.058 A 
HETATM   19  C2  UNL     1      -6.910  49.522 -12.138  1.00  0.00     0.116 A 
HETATM   20  N2  UNL     1      -8.127  49.821 -12.725  1.00  0.00    -0.332 N 
HETATM   21  C3  UNL     1      -9.113  48.939 -12.851  1.00  0.00     0.105 A 
ATOM     22  H2  UNL     1      -8.274  50.767 -13.080  1.00  0.00     0.168 HD
HETATM   23 CL1  UNL     1     -10.650  49.360 -13.607  1.00  0.00    -0.064 Cl
HETATM   24  C4  UNL     1      -8.870  47.683 -12.362  1.00  0.00     0.050 A 
HETATM   25  C5  UNL     1      -7.643  47.342 -11.759  1.00  0.00    -0.041 A 
HETATM   26  C6  UNL     1      -7.466  45.937 -11.311  1.00  0.00     0.049 C 
BRANCH  19  27
HETATM   27  N1  UNL     1      -5.990  50.589 -11.980  1.00  0.00    -0.380 N 
HETATM   28  C1  UNL     1      -5.327  51.187 -13.145  1.00  0.00     0.147 C 
ATOM     29  H1  UNL     1      -5.786  50.945 -11.046  1.00  0.00     0.160 HD
ENDBRANCH  19  27
ENDBRANCH   1  18
BRANCH   4  30
HETATM   30  N4  UNL     1      -2.353  46.331 -12.390  1.00  0.00    -0.374 N 
ATOM     31  H4  UNL     1      -1.373  46.615 -12.372  1.00  0.00     0.161 HD
BRANCH  30  32
HETATM   32  C10 UNL     1      -2.761  45.277 -13.295  1.00  0.00     0.151 C 
BRANCH  32  33
HETATM   33  C11 UNL     1      -2.527  43.908 -12.699  1.00  0.00     0.292 C 
BRANCH  33  34
HETATM   34  N5  UNL     1      -3.767  43.178 -12.527  1.00  0.00     0.092 N 
HETATM   35  C12 UNL     1      -4.495  43.579 -11.366  1.00  0.00     0.275 C 
HETATM   36  C13 UNL     1      -5.457  42.415 -11.129  1.00  0.00     0.064 C 
HETATM   37  C14 UNL     1      -4.645  41.211 -11.554  1.00  0.00     0.150 C 
HETATM   38  C16 UNL     1      -3.573  41.761 -12.469  1.00  0.00     0.304 C 
BRANCH  37  39
HETATM   39  O1  UNL     1      -4.091  40.546 -10.469  1.00  0.00    -0.389 OA
HETATM   40  C15 UNL     1      -2.962  39.816 -10.800  1.00  0.00     0.202 C 
ENDBRANCH  37  39
ENDBRANCH  33  34
ENDBRANCH  32  33
ENDBRANCH  30  32
ENDBRANCH   4  30
BRANCH   6  41
HETATM   41  N6  UNL     1      -0.742  46.103 -10.694  1.00  0.00    -0.384 N 
ATOM     42  H62 UNL     1       0.084  46.553 -11.088  1.00  0.00     0.157 HD
ATOM     43  H61 UNL     1      -0.935  45.144 -10.980  1.00  0.00     0.157 HD
ENDBRANCH   6  41
TORSDOF 8
ENDMDL
MODEL 5
REMARK VINA RESULT: -5.854916176      1.181      1.458
REMARK  8 active torsions:
REMARK  status: ('A' for Active; 'I' for Inactive)
REMARK    1  A    between atoms: N1_2  and  C2_4 
REMARK    2  A    between atoms: C7_12  and  C8_13 
REMARK    3  A    between atoms: C9_16  and  N4_17 
REMARK    4  A    between atoms: N4_17  and  C10_19 
REMARK    5  A    between atoms: C10_19  and  C11_20 
REMARK    6  A    between atoms: C11_20  and  N5_21 
REMARK    7  A    between atoms: C14_24  and  O1_25 
REMARK    8  A    between atoms: C18_29  and  N6_30 
ROOT
HETATM    1  C8  UNL     1      -4.842  48.550 -10.819  1.00  0.00     0.123 A 
HETATM    2  N3  UNL     1      -5.769  47.545 -10.917  1.00  0.00    -0.327 N 
ATOM      3  H3  UNL     1      -5.535  46.633 -10.526  1.00  0.00     0.169 HD
HETATM    4  C9  UNL     1      -6.955  47.696 -11.496  1.00  0.00     0.120 A 
HETATM    5  C17 UNL     1      -7.335  48.904 -12.047  1.00  0.00     0.096 A 
HETATM    6  C18 UNL     1      -8.557  49.087 -12.652  1.00  0.00     0.132 A 
HETATM    7  N7  UNL     1      -8.825  50.321 -13.161  1.00  0.00    -0.176 N 
ATOM      8  H7  UNL     1      -9.724  50.480 -13.615  1.00  0.00     0.186 HD
HETATM    9  C19 UNL     1      -7.949  51.336 -13.087  1.00  0.00     0.679 A 
HETATM   10  N8  UNL     1      -8.272  52.479 -13.593  1.00  0.00    -0.234 N 
ATOM     11  H81 UNL     1      -7.607  53.250 -13.536  1.00  0.00     0.174 HD
ATOM     12  H82 UNL     1      -9.171  52.640 -14.047  1.00  0.00     0.174 HD
HETATM   13  N9  UNL     1      -6.759  51.122 -12.486  1.00  0.00    -0.176 N 
ATOM     14  H9  UNL     1      -6.091  51.890 -12.428  1.00  0.00     0.186 HD
HETATM   15  C20 UNL     1      -6.424  49.928 -11.961  1.00  0.00     0.140 A 
HETATM   16  N10 UNL     1      -5.237  49.708 -11.358  1.00  0.00    -0.326 N 
ATOM     17  H10 UNL     1      -4.585  50.491 -11.309  1.00  0.00     0.169 HD
ENDROOT
BRANCH   1  18
HETATM   18  C7  UNL     1      -3.515  48.260 -10.284  1.00  0.00     0.058 A 
HETATM   19  C2  UNL     1      -3.238  48.524  -8.964  1.00  0.00     0.116 A 
HETATM   20  N2  UNL     1      -2.044  48.146  -8.375  1.00  0.00    -0.332 N 
HETATM   21  C3  UNL     1      -1.079  47.507  -9.028  1.00  0.00     0.105 A 
ATOM     22  H2  UNL     1      -1.897  48.369  -7.390  1.00  0.00     0.168 HD
HETATM   23 CL1  UNL     1       0.430  47.042  -8.241  1.00  0.00    -0.064 Cl
HETATM   24  C4  UNL     1      -1.319  47.229 -10.347  1.00  0.00     0.050 A 
HETATM   25  C5  UNL     1      -2.524  47.597 -10.980  1.00  0.00    -0.041 A 
HETATM   26  C6  UNL     1      -2.703  47.199 -12.398  1.00  0.00     0.049 C 
BRANCH  19  27
HETATM   27  N1  UNL     1      -4.133  49.290  -8.174  1.00  0.00    -0.380 N 
HETATM   28  C1  UNL     1      -4.006  49.319  -6.712  1.00  0.00     0.147 C 
ATOM     29  H1  UNL     1      -4.873  49.826  -8.627  1.00  0.00     0.160 HD
ENDBRANCH  19  27
ENDBRANCH   1  18
BRANCH   4  30
HETATM   30  N4  UNL     1      -7.832  46.745 -11.588  1.00  0.00    -0.374 N 
ATOM     31  H4  UNL     1      -8.606  46.848 -12.244  1.00  0.00     0.161 HD
BRANCH  30  32
HETATM   32  C10 UNL     1      -7.743  45.542 -10.789  1.00  0.00     0.151 C 
BRANCH  32  33
HETATM   33  C11 UNL     1      -8.113  44.313 -11.589  1.00  0.00     0.292 C 
BRANCH  33  34
HETATM   34  N5  UNL     1      -6.942  43.564 -11.997  1.00  0.00     0.092 N 
HETATM   35  C12 UNL     1      -5.786  43.866 -11.213  1.00  0.00     0.275 C 
HETATM   36  C13 UNL     1      -4.630  43.363 -12.078  1.00  0.00     0.064 C 
HETATM   37  C14 UNL     1      -5.108  43.650 -13.485  1.00  0.00     0.150 C 
HETATM   38  C16 UNL     1      -6.613  43.756 -13.376  1.00  0.00     0.304 C 
BRANCH  37  39
HETATM   39  O1  UNL     1      -4.555  44.815 -13.997  1.00  0.00    -0.389 OA
HETATM   40  C15 UNL     1      -5.505  45.711 -14.456  1.00  0.00     0.202 C 
ENDBRANCH  37  39
ENDBRANCH  33  34
ENDBRANCH  32  33
ENDBRANCH  30  32
ENDBRANCH   4  30
BRANCH   6  41
HETATM   41  N6  UNL     1      -9.376  48.115 -12.713  1.00  0.00    -0.384 N 
ATOM     42  H62 UNL     1      -9.785  47.784 -13.587  1.00  0.00     0.157 HD
ATOM     43  H61 UNL     1      -9.645  47.632 -11.857  1.00  0.00     0.157 HD
ENDBRANCH   6  41
TORSDOF 8
ENDMDL
