MODEL 1
REMARK VINA RESULT: -6.617865369      0.000      0.000
REMARK  8 active torsions:
REMARK  status: ('A' for Active; 'I' for Inactive)
REMARK    1  A    between atoms: N1_1  and  C1_4 
REMARK    2  A    between atoms: C4_12  and  S1_13 
REMARK    3  A    between atoms: S1_13  and  C5_14 
REMARK    4  A    between atoms: C5_14  and  C6_15 
REMARK    5  A    between atoms: C7_18  and  N5_19 
REMARK    6  A    between atoms: N5_19  and  C8_21 
REMARK    7  A    between atoms: C13_29  and  C14_30 
REMARK    8  A    between atoms: C14_30  and  C15_32 
ROOT
HETATM    1  C6  UNL     1      -2.275  43.720 -12.549  1.00  0.00     0.049 A 
HETATM    2  N4  UNL     1      -0.956  43.547 -12.442  1.00  0.00    -0.194 N 
ATOM      3  H4  UNL     1      -0.329  44.287 -12.757  1.00  0.00     0.184 HD
HETATM    4  C7  UNL     1      -0.431  42.415 -11.927  1.00  0.00     0.678 A 
HETATM    5  N6  UNL     1      -1.262  41.456 -11.520  1.00  0.00    -0.201 N 
ATOM      6  H6  UNL     1      -0.859  40.603 -11.133  1.00  0.00     0.183 HD
HETATM    7  C12 UNL     1      -2.623  41.548 -11.592  1.00  0.00     0.121 A 
HETATM    8  C13 UNL     1      -3.109  42.723 -12.125  1.00  0.00     0.022 A 
ENDROOT
BRANCH   1   9
HETATM    9  C5  UNL     1      -2.828  44.983 -13.121  1.00  0.00     0.141 C 
BRANCH   9  10
HETATM   10  S1  UNL     1      -1.709  46.337 -12.771  1.00  0.00    -0.088 SA
BRANCH  10  11
HETATM   11  C4  UNL     1      -2.037  46.978 -11.126  1.00  0.00     0.146 A 
HETATM   12  N3  UNL     1      -1.433  46.601  -9.985  1.00  0.00    -0.329 N 
HETATM   13  C3  UNL     1      -1.921  47.288  -8.935  1.00  0.00     0.148 A 
ATOM     14  H3  UNL     1      -0.702  45.891  -9.923  1.00  0.00     0.168 HD
HETATM   15  C2  UNL     1      -1.688  47.317  -7.582  1.00  0.00     0.290 A 
HETATM   16  C16 UNL     1      -2.879  48.137  -9.445  1.00  0.00     0.155 A 
HETATM   17  N2  UNL     1      -2.339  48.127  -6.726  1.00  0.00    -0.154 N 
HETATM   18  O1  UNL     1      -0.812  46.542  -7.114  1.00  0.00    -0.265 OA
HETATM   19  C1  UNL     1      -3.274  48.948  -7.269  1.00  0.00     0.680 A 
ATOM     20  H2  UNL     1      -2.141  48.125  -5.725  1.00  0.00     0.187 HD
HETATM   21  N8  UNL     1      -3.526  48.942  -8.591  1.00  0.00    -0.174 N 
ATOM     22  H8  UNL     1      -4.237  49.574  -8.957  1.00  0.00     0.186 HD
HETATM   23  N7  UNL     1      -2.924  47.923 -10.778  1.00  0.00    -0.320 N 
ATOM     24  H7  UNL     1      -3.543  48.410 -11.427  1.00  0.00     0.169 HD
BRANCH  19  25
HETATM   25  N1  UNL     1      -3.903  49.728  -6.452  1.00  0.00    -0.234 N 
ATOM     26  H12 UNL     1      -3.429  50.215  -5.691  1.00  0.00     0.174 HD
ATOM     27  H11 UNL     1      -4.906  49.835  -6.604  1.00  0.00     0.174 HD
ENDBRANCH  19  25
ENDBRANCH  10  11
ENDBRANCH   9  10
ENDBRANCH   1   9
BRANCH   8  28
HETATM   28  C14 UNL     1      -4.555  42.896 -12.233  1.00  0.00     0.036 C 
HETATM   29  S2  UNL     1      -5.228  42.762 -13.711  1.00  0.00    -0.083 SA
BRANCH  28  30
HETATM   30  C15 UNL     1      -5.347  43.183 -11.010  1.00  0.00     0.166 C 
HETATM   31 CL1  UNL     1      -4.869  44.756 -10.334  1.00  0.00    -0.125 Cl
ENDBRANCH  28  30
ENDBRANCH   8  28
BRANCH   4  32
HETATM   32  N5  UNL     1       0.828  42.328 -11.861  1.00  0.00    -0.219 N 
ATOM     33  H5  UNL     1       1.265  43.097 -11.353  1.00  0.00     0.178 HD
BRANCH  32  34
HETATM   34  C8  UNL     1       1.748  41.378 -12.354  1.00  0.00     0.125 C 
HETATM   35  C9  UNL     1       2.969  41.969 -12.998  1.00  0.00     0.054 C 
HETATM   36  C10 UNL     1       4.078  41.036 -12.595  1.00  0.00     0.169 C 
HETATM   37  O2  UNL     1       3.660  40.344 -11.492  1.00  0.00    -0.389 OA
HETATM   38  C11 UNL     1       2.304  40.409 -11.360  1.00  0.00     0.193 C 
ENDBRANCH  32  34
ENDBRANCH   4  32
TORSDOF 8
ENDMDL
MODEL 2
REMARK VINA RESULT: -6.593581116      3.810      6.483
REMARK  8 active torsions:
REMARK  status: ('A' for Active; 'I' for Inactive)
REMARK    1  A    between atoms: N1_1  and  C1_4 
REMARK    2  A    between atoms: C4_12  and  S1_13 
REMARK    3  A    between atoms: S1_13  and  C5_14 
REMARK    4  A    between atoms: C5_14  and  C6_15 
REMARK    5  A    between atoms: C7_18  and  N5_19 
REMARK    6  A    between atoms: N5_19  and  C8_21 
REMARK    7  A    between atoms: C13_29  and  C14_30 
REMARK    8  A    between atoms: C14_30  and  C15_32 
ROOT
HETATM    1  C6  UNL     1      -5.355  43.362 -11.602  1.00  0.00     0.049 A 
HETATM    2  N4  UNL     1      -5.985  44.535 -11.503  1.00  0.00    -0.194 N 
ATOM      3  H4  UNL     1      -5.436  45.390 -11.409  1.00  0.00     0.184 HD
HETATM    4  C7  UNL     1      -7.332  44.617 -11.524  1.00  0.00     0.678 A 
HETATM    5  N6  UNL     1      -8.037  43.494 -11.647  1.00  0.00    -0.201 N 
ATOM      6  H6  UNL     1      -9.054  43.563 -11.662  1.00  0.00     0.183 HD
HETATM    7  C12 UNL     1      -7.476  42.252 -11.755  1.00  0.00     0.121 A 
HETATM    8  C13 UNL     1      -6.098  42.221 -11.728  1.00  0.00     0.022 A 
ENDROOT
BRANCH   1   9
HETATM    9  C5  UNL     1      -3.864  43.301 -11.577  1.00  0.00     0.141 C 
BRANCH   9  10
HETATM   10  S1  UNL     1      -3.192  44.886 -12.069  1.00  0.00    -0.088 SA
BRANCH  10  11
HETATM   11  C4  UNL     1      -3.074  45.961 -10.637  1.00  0.00     0.146 A 
HETATM   12  N3  UNL     1      -2.172  45.873  -9.642  1.00  0.00    -0.329 N 
HETATM   13  C3  UNL     1      -2.373  46.841  -8.727  1.00  0.00     0.148 A 
ATOM     14  H3  UNL     1      -1.436  45.168  -9.588  1.00  0.00     0.168 HD
HETATM   15  C2  UNL     1      -1.780  47.220  -7.548  1.00  0.00     0.290 A 
HETATM   16  C16 UNL     1      -3.453  47.570  -9.173  1.00  0.00     0.155 A 
HETATM   17  N2  UNL     1      -2.192  48.263  -6.803  1.00  0.00    -0.154 N 
HETATM   18  O1  UNL     1      -0.791  46.554  -7.140  1.00  0.00    -0.265 OA
HETATM   19  C1  UNL     1      -3.260  48.955  -7.277  1.00  0.00     0.680 A 
ATOM     20  H2  UNL     1      -1.729  48.519  -5.931  1.00  0.00     0.187 HD
HETATM   21  N8  UNL     1      -3.862  48.607  -8.429  1.00  0.00    -0.174 N 
ATOM     22  H8  UNL     1      -4.661  49.154  -8.749  1.00  0.00     0.186 HD
HETATM   23  N7  UNL     1      -3.855  47.009 -10.334  1.00  0.00    -0.320 N 
ATOM     24  H7  UNL     1      -4.638  47.335 -10.900  1.00  0.00     0.169 HD
BRANCH  19  25
HETATM   25  N1  UNL     1      -3.660  49.957  -6.565  1.00  0.00    -0.234 N 
ATOM     26  H12 UNL     1      -4.610  50.021  -6.200  1.00  0.00     0.174 HD
ATOM     27  H11 UNL     1      -2.974  50.690  -6.383  1.00  0.00     0.174 HD
ENDBRANCH  19  25
ENDBRANCH  10  11
ENDBRANCH   9  10
ENDBRANCH   1   9
BRANCH   8  28
HETATM   28  C14 UNL     1      -5.426  40.930 -11.839  1.00  0.00     0.036 C 
HETATM   29  S2  UNL     1      -5.047  40.395 -13.330  1.00  0.00    -0.083 SA
BRANCH  28  30
HETATM   30  C15 UNL     1      -5.118  40.162 -10.605  1.00  0.00     0.166 C 
HETATM   31 CL1  UNL     1      -3.443  39.570 -10.663  1.00  0.00    -0.125 Cl
ENDBRANCH  28  30
ENDBRANCH   8  28
BRANCH   4  32
HETATM   32  N5  UNL     1      -7.851  45.765 -11.424  1.00  0.00    -0.219 N 
ATOM     33  H5  UNL     1      -8.367  45.907 -10.556  1.00  0.00     0.178 HD
BRANCH  32  34
HETATM   34  C8  UNL     1      -7.858  46.889 -12.278  1.00  0.00     0.125 C 
HETATM   35  C9  UNL     1      -9.220  47.473 -12.527  1.00  0.00     0.054 C 
HETATM   36  C10 UNL     1      -8.973  48.956 -12.579  1.00  0.00     0.169 C 
HETATM   37  O2  UNL     1      -7.785  49.203 -11.947  1.00  0.00    -0.389 OA
HETATM   38  C11 UNL     1      -7.042  48.063 -11.843  1.00  0.00     0.193 C 
ENDBRANCH  32  34
ENDBRANCH   4  32
TORSDOF 8
ENDMDL
MODEL 3
REMARK VINA RESULT: -6.408646214      1.687      1.893
REMARK  8 active torsions:
REMARK  status: ('A' for Active; 'I' for Inactive)
REMARK    1  A    between atoms: N1_1  and  C1_4 
REMARK    2  A    between atoms: C4_12  and  S1_13 
REMARK    3  A    between atoms: S1_13  and  C5_14 
REMARK    4  A    between atoms: C5_14  and  C6_15 
REMARK    5  A    between atoms: C7_18  and  N5_19 
REMARK    6  A    between atoms: N5_19  and  C8_21 
REMARK    7  A    between atoms: C13_29  and  C14_30 
REMARK    8  A    between atoms: C14_30  and  C15_32 
ROOT
HETATM    1  C6  UNL     1      -2.795  42.428 -11.771  1.00  0.00     0.049 A 
HETATM    2  N4  UNL     1      -1.505  42.766 -11.835  1.00  0.00    -0.194 N 
ATOM      3  H4  UNL     1      -1.252  43.751 -11.911  1.00  0.00     0.184 HD
HETATM    4  C7  UNL     1      -0.529  41.835 -11.800  1.00  0.00     0.678 A 
HETATM    5  N6  UNL     1      -0.875  40.553 -11.700  1.00  0.00    -0.201 N 
ATOM      6  H6  UNL     1      -0.132  39.855 -11.675  1.00  0.00     0.183 HD
HETATM    7  C12 UNL     1      -2.168  40.117 -11.630  1.00  0.00     0.121 A 
HETATM    8  C13 UNL     1      -3.128  41.106 -11.669  1.00  0.00     0.022 A 
ENDROOT
BRANCH   1   9
HETATM    9  C5  UNL     1      -3.855  43.479 -11.811  1.00  0.00     0.141 C 
BRANCH   9  10
HETATM   10  S1  UNL     1      -3.115  45.059 -12.210  1.00  0.00    -0.088 SA
BRANCH  10  11
HETATM   11  C4  UNL     1      -3.037  46.078 -10.734  1.00  0.00     0.146 A 
HETATM   12  N3  UNL     1      -2.145  45.969  -9.732  1.00  0.00    -0.329 N 
HETATM   13  C3  UNL     1      -2.377  46.894  -8.782  1.00  0.00     0.148 A 
ATOM     14  H3  UNL     1      -1.395  45.278  -9.697  1.00  0.00     0.168 HD
HETATM   15  C2  UNL     1      -1.806  47.238  -7.581  1.00  0.00     0.290 A 
HETATM   16  C16 UNL     1      -3.468  47.618  -9.212  1.00  0.00     0.155 A 
HETATM   17  N2  UNL     1      -2.250  48.241  -6.800  1.00  0.00    -0.154 N 
HETATM   18  O1  UNL     1      -0.809  46.577  -7.188  1.00  0.00    -0.265 OA
HETATM   19  C1  UNL     1      -3.326  48.930  -7.259  1.00  0.00     0.680 A 
ATOM     20  H2  UNL     1      -1.802  48.471  -5.913  1.00  0.00     0.187 HD
HETATM   21  N8  UNL     1      -3.908  48.616  -8.432  1.00  0.00    -0.174 N 
ATOM     22  H8  UNL     1      -4.714  49.158  -8.740  1.00  0.00     0.186 HD
HETATM   23  N7  UNL     1      -3.843  47.097 -10.399  1.00  0.00    -0.320 N 
ATOM     24  H7  UNL     1      -4.627  47.429 -10.961  1.00  0.00     0.169 HD
BRANCH  19  25
HETATM   25  N1  UNL     1      -3.756  49.893  -6.513  1.00  0.00    -0.234 N 
ATOM     26  H12 UNL     1      -4.267  50.690  -6.894  1.00  0.00     0.174 HD
ATOM     27  H11 UNL     1      -3.559  49.820  -5.515  1.00  0.00     0.174 HD
ENDBRANCH  19  25
ENDBRANCH  10  11
ENDBRANCH   9  10
ENDBRANCH   1   9
BRANCH   8  28
HETATM   28  C14 UNL     1      -4.534  40.717 -11.598  1.00  0.00     0.036 C 
HETATM   29  S2  UNL     1      -5.310  40.413 -12.997  1.00  0.00    -0.083 SA
BRANCH  28  30
HETATM   30  C15 UNL     1      -5.194  40.616 -10.271  1.00  0.00     0.166 C 
HETATM   31 CL1  UNL     1      -6.903  40.174 -10.478  1.00  0.00    -0.125 Cl
ENDBRANCH  28  30
ENDBRANCH   8  28
BRANCH   4  32
HETATM   32  N5  UNL     1       0.668  42.238 -11.866  1.00  0.00    -0.219 N 
ATOM     33  H5  UNL     1       1.130  42.297 -10.959  1.00  0.00     0.178 HD
BRANCH  32  34
HETATM   34  C8  UNL     1       1.489  42.621 -12.947  1.00  0.00     0.125 C 
HETATM   35  C9  UNL     1       1.750  44.097 -13.039  1.00  0.00     0.054 C 
HETATM   36  C10 UNL     1       3.178  44.185 -13.503  1.00  0.00     0.169 C 
HETATM   37  O2  UNL     1       3.782  42.991 -13.218  1.00  0.00    -0.389 OA
HETATM   38  C11 UNL     1       2.855  42.015 -12.996  1.00  0.00     0.193 C 
ENDBRANCH  32  34
ENDBRANCH   4  32
TORSDOF 8
ENDMDL
MODEL 4
REMARK VINA RESULT: -6.335150829      2.931      4.622
REMARK  8 active torsions:
REMARK  status: ('A' for Active; 'I' for Inactive)
REMARK    1  A    between atoms: N1_1  and  C1_4 
REMARK    2  A    between atoms: C4_12  and  S1_13 
REMARK    3  A    between atoms: S1_13  and  C5_14 
REMARK    4  A    between atoms: C5_14  and  C6_15 
REMARK    5  A    between atoms: C7_18  and  N5_19 
REMARK    6  A    between atoms: N5_19  and  C8_21 
REMARK    7  A    between atoms: C13_29  and  C14_30 
REMARK    8  A    between atoms: C14_30  and  C15_32 
ROOT
HETATM    1  C6  UNL     1       0.007  43.321 -12.320  1.00  0.00     0.049 A 
HETATM    2  N4  UNL     1      -0.842  42.603 -11.580  1.00  0.00    -0.194 N 
ATOM      3  H4  UNL     1      -1.411  43.074 -10.877  1.00  0.00     0.184 HD
HETATM    4  C7  UNL     1      -0.965  41.269 -11.742  1.00  0.00     0.678 A 
HETATM    5  N6  UNL     1      -0.215  40.667 -12.664  1.00  0.00    -0.201 N 
ATOM      6  H6  UNL     1      -0.312  39.659 -12.779  1.00  0.00     0.183 HD
HETATM    7  C12 UNL     1       0.678  41.322 -13.463  1.00  0.00     0.121 A 
HETATM    8  C13 UNL     1       0.767  42.683 -13.261  1.00  0.00     0.022 A 
ENDROOT
BRANCH   1   9
HETATM    9  C5  UNL     1       0.122  44.796 -12.121  1.00  0.00     0.141 C 
BRANCH   9  10
HETATM   10  S1  UNL     1      -1.490  45.552 -12.315  1.00  0.00    -0.088 SA
BRANCH  10  11
HETATM   11  C4  UNL     1      -1.919  46.446 -10.819  1.00  0.00     0.146 A 
HETATM   12  N3  UNL     1      -1.410  46.241  -9.590  1.00  0.00    -0.329 N 
HETATM   13  C3  UNL     1      -1.956  47.090  -8.698  1.00  0.00     0.148 A 
ATOM     14  H3  UNL     1      -0.706  45.538  -9.364  1.00  0.00     0.168 HD
HETATM   15  C2  UNL     1      -1.821  47.326  -7.352  1.00  0.00     0.290 A 
HETATM   16  C16 UNL     1      -2.850  47.864  -9.405  1.00  0.00     0.155 A 
HETATM   17  N2  UNL     1      -2.511  48.269  -6.683  1.00  0.00    -0.154 N 
HETATM   18  O1  UNL     1      -1.003  46.619  -6.705  1.00  0.00    -0.265 OA
HETATM   19  C1  UNL     1      -3.382  49.010  -7.416  1.00  0.00     0.680 A 
ATOM     20  H2  UNL     1      -2.386  48.418  -5.682  1.00  0.00     0.187 HD
HETATM   21  N8  UNL     1      -3.536  48.802  -8.737  1.00  0.00    -0.174 N 
ATOM     22  H8  UNL     1      -4.201  49.380  -9.249  1.00  0.00     0.186 HD
HETATM   23  N7  UNL     1      -2.803  47.447 -10.688  1.00  0.00    -0.320 N 
ATOM     24  H7  UNL     1      -3.360  47.836 -11.449  1.00  0.00     0.169 HD
BRANCH  19  25
HETATM   25  N1  UNL     1      -4.047  49.916  -6.778  1.00  0.00    -0.234 N 
ATOM     26  H12 UNL     1      -4.759  49.683  -6.086  1.00  0.00     0.174 HD
ATOM     27  H11 UNL     1      -3.824  50.886  -7.002  1.00  0.00     0.174 HD
ENDBRANCH  19  25
ENDBRANCH  10  11
ENDBRANCH   9  10
ENDBRANCH   1   9
BRANCH   8  28
HETATM   28  C14 UNL     1       1.700  43.452 -14.079  1.00  0.00     0.036 C 
HETATM   29  S2  UNL     1       3.231  43.606 -13.544  1.00  0.00    -0.083 SA
BRANCH  28  30
HETATM   30  C15 UNL     1       1.225  44.056 -15.350  1.00  0.00     0.166 C 
HETATM   31 CL1  UNL     1       2.123  45.555 -15.680  1.00  0.00    -0.125 Cl
ENDBRANCH  28  30
ENDBRANCH   8  28
BRANCH   4  32
HETATM   32  N5  UNL     1      -1.790  40.662 -11.001  1.00  0.00    -0.219 N 
ATOM     33  H5  UNL     1      -1.447  40.496 -10.055  1.00  0.00     0.178 HD
BRANCH  32  34
HETATM   34  C8  UNL     1      -3.093  40.169 -11.226  1.00  0.00     0.125 C 
HETATM   35  C9  UNL     1      -3.518  39.080 -10.283  1.00  0.00     0.054 C 
HETATM   36  C10 UNL     1      -4.977  39.357 -10.043  1.00  0.00     0.169 C 
HETATM   37  O2  UNL     1      -5.209  40.666 -10.365  1.00  0.00    -0.389 OA
HETATM   38  C11 UNL     1      -4.207  41.163 -11.146  1.00  0.00     0.193 C 
ENDBRANCH  32  34
ENDBRANCH   4  32
TORSDOF 8
ENDMDL
MODEL 5
REMARK VINA RESULT: -6.320960913      1.352      1.714
REMARK  8 active torsions:
REMARK  status: ('A' for Active; 'I' for Inactive)
REMARK    1  A    between atoms: N1_1  and  C1_4 
REMARK    2  A    between atoms: C4_12  and  S1_13 
REMARK    3  A    between atoms: S1_13  and  C5_14 
REMARK    4  A    between atoms: C5_14  and  C6_15 
REMARK    5  A    between atoms: C7_18  and  N5_19 
REMARK    6  A    between atoms: N5_19  and  C8_21 
REMARK    7  A    between atoms: C13_29  and  C14_30 
REMARK    8  A    between atoms: C14_30  and  C15_32 
ROOT
HETATM    1  C6  UNL     1      -3.398  44.394 -12.680  1.00  0.00     0.049 A 
HETATM    2  N4  UNL     1      -2.364  43.606 -12.374  1.00  0.00    -0.194 N 
ATOM      3  H4  UNL     1      -1.426  43.881 -12.664  1.00  0.00     0.184 HD
HETATM    4  C7  UNL     1      -2.532  42.454 -11.691  1.00  0.00     0.678 A 
HETATM    5  N6  UNL     1      -3.764  42.107 -11.320  1.00  0.00    -0.201 N 
ATOM      6  H6  UNL     1      -3.883  41.235 -10.805  1.00  0.00     0.183 HD
HETATM    7  C12 UNL     1      -4.877  42.851 -11.590  1.00  0.00     0.121 A 
HETATM    8  C13 UNL     1      -4.653  44.019 -12.290  1.00  0.00     0.022 A 
ENDROOT
BRANCH   1   9
HETATM    9  C5  UNL     1      -3.183  45.663 -13.436  1.00  0.00     0.141 C 
BRANCH   9  10
HETATM   10  S1  UNL     1      -1.730  46.496 -12.803  1.00  0.00    -0.088 SA
BRANCH  10  11
HETATM   11  C4  UNL     1      -2.056  47.100 -11.145  1.00  0.00     0.146 A 
HETATM   12  N3  UNL     1      -1.463  46.685 -10.011  1.00  0.00    -0.329 N 
HETATM   13  C3  UNL     1      -1.946  47.352  -8.946  1.00  0.00     0.148 A 
ATOM     14  H3  UNL     1      -0.743  45.963  -9.964  1.00  0.00     0.168 HD
HETATM   15  C2  UNL     1      -1.719  47.344  -7.591  1.00  0.00     0.290 A 
HETATM   16  C16 UNL     1      -2.889  48.228  -9.439  1.00  0.00     0.155 A 
HETATM   17  N2  UNL     1      -2.362  48.142  -6.718  1.00  0.00    -0.154 N 
HETATM   18  O1  UNL     1      -0.857  46.545  -7.140  1.00  0.00    -0.265 OA
HETATM   19  C1  UNL     1      -3.283  48.990  -7.244  1.00  0.00     0.680 A 
ATOM     20  H2  UNL     1      -2.169  48.111  -5.717  1.00  0.00     0.187 HD
HETATM   21  N8  UNL     1      -3.528  49.021  -8.568  1.00  0.00    -0.174 N 
ATOM     22  H8  UNL     1      -4.228  49.673  -8.921  1.00  0.00     0.186 HD
HETATM   23  N7  UNL     1      -2.930  48.049 -10.777  1.00  0.00    -0.320 N 
ATOM     24  H7  UNL     1      -3.538  48.561 -11.416  1.00  0.00     0.169 HD
BRANCH  19  25
HETATM   25  N1  UNL     1      -3.903  49.758  -6.411  1.00  0.00    -0.234 N 
ATOM     26  H12 UNL     1      -3.419  50.464  -5.857  1.00  0.00     0.174 HD
ATOM     27  H11 UNL     1      -4.912  49.625  -6.332  1.00  0.00     0.174 HD
ENDBRANCH  19  25
ENDBRANCH  10  11
ENDBRANCH   9  10
ENDBRANCH   1   9
BRANCH   8  28
HETATM   28  C14 UNL     1      -5.795  44.868 -12.615  1.00  0.00     0.036 C 
HETATM   29  S2  UNL     1      -6.681  44.482 -13.927  1.00  0.00    -0.083 SA
BRANCH  28  30
HETATM   30  C15 UNL     1      -6.103  46.036 -11.750  1.00  0.00     0.166 C 
HETATM   31 CL1  UNL     1      -7.402  45.619 -10.610  1.00  0.00    -0.125 Cl
ENDBRANCH  28  30
ENDBRANCH   8  28
BRANCH   4  32
HETATM   32  N5  UNL     1      -1.503  41.764 -11.442  1.00  0.00    -0.219 N 
ATOM     33  H5  UNL     1      -1.440  41.458 -10.471  1.00  0.00     0.178 HD
BRANCH  32  34
HETATM   34  C8  UNL     1      -0.423  41.335 -12.243  1.00  0.00     0.125 C 
HETATM   35  C9  UNL     1       0.799  42.205 -12.159  1.00  0.00     0.054 C 
HETATM   36  C10 UNL     1       1.943  41.230 -12.228  1.00  0.00     0.169 C 
HETATM   37  O2  UNL     1       1.461  39.998 -11.880  1.00  0.00    -0.389 OA
HETATM   38  C11 UNL     1       0.100  39.960 -11.977  1.00  0.00     0.193 C 
ENDBRANCH  32  34
ENDBRANCH   4  32
TORSDOF 8
ENDMDL
