MODEL 1
REMARK VINA RESULT: -6.208446217      0.000      0.000
REMARK  5 active torsions:
REMARK  status: ('A' for Active; 'I' for Inactive)
REMARK    1  A    between atoms: S1_2  and  C2_3 
REMARK       I    between atoms: N3_9  and  C4_11 
REMARK    2  A    between atoms: C4_11  and  C5_13 
REMARK    3  A    between atoms: C5_13  and  S2_14 
REMARK    4  A    between atoms: S2_14  and  C6_15 
REMARK    5  A    between atoms: C9_23  and  C10_24 
ROOT
HETATM    1  C6  UNL     1     -30.364  -6.663 -14.002  1.00  0.00     0.149 A 
HETATM    2  N4  UNL     1     -29.318  -7.392 -14.428  1.00  0.00    -0.302 N 
ATOM      3  H4  UNL     1     -29.266  -7.608 -15.424  1.00  0.00     0.171 HD
HETATM    4  C7  UNL     1     -28.342  -7.853 -13.641  1.00  0.00     0.278 A 
HETATM    5  O2  UNL     1     -27.377  -8.525 -14.031  1.00  0.00    -0.265 OA
HETATM    6  C8  UNL     1     -28.442  -7.540 -12.280  1.00  0.00     0.147 A 
HETATM    7  N5  UNL     1     -27.666  -7.825 -11.220  1.00  0.00    -0.334 N 
ATOM      8  H5  UNL     1     -26.804  -8.369 -11.264  1.00  0.00     0.168 HD
HETATM    9  C9  UNL     1     -28.178  -7.298 -10.097  1.00  0.00     0.120 A 
HETATM   10  N8  UNL     1     -29.303  -6.672 -10.482  1.00  0.00    -0.326 N 
ATOM     11  H8  UNL     1     -29.927  -6.168  -9.853  1.00  0.00     0.169 HD
HETATM   12  C13 UNL     1     -29.495  -6.796 -11.795  1.00  0.00     0.141 A 
HETATM   13  N9  UNL     1     -30.423  -6.385 -12.684  1.00  0.00    -0.321 N 
ATOM     14  H9  UNL     1     -31.210  -5.834 -12.341  1.00  0.00     0.169 HD
ENDROOT
BRANCH   1  15
HETATM   15  S2  UNL     1     -31.643  -6.074 -15.127  1.00  0.00    -0.084 SA
BRANCH  15  16
HETATM   16  C5  UNL     1     -31.446  -4.294 -15.381  1.00  0.00     0.185 C 
BRANCH  16  17
HETATM   17  C4  UNL     1     -32.011  -3.481 -14.304  1.00  0.00     0.233 C 
HETATM   18  N3  UNL     1     -32.002  -2.070 -14.397  1.00  0.00    -0.305 N 
HETATM   19  C3  UNL     1     -31.031  -1.435 -13.779  1.00  0.00     0.168 A 
ATOM     20  H3  UNL     1     -32.717  -1.567 -14.921  1.00  0.00     0.171 HD
HETATM   21  N2  UNL     1     -30.027  -1.937 -13.058  1.00  0.00    -0.278 N 
HETATM   22  S3  UNL     1     -30.716   0.247 -13.684  1.00  0.00    -0.026 SA
HETATM   23  N1  UNL     1     -29.184  -1.145 -12.539  1.00  0.00    -0.286 N 
ATOM     24  H2  UNL     1     -29.939  -2.945 -12.926  1.00  0.00     0.189 HD
HETATM   25  C2  UNL     1     -29.300   0.163 -12.712  1.00  0.00     0.129 A 
ATOM     26  H1  UNL     1     -28.412  -1.517 -11.986  1.00  0.00     0.188 HD
HETATM   27  O1  UNL     1     -32.502  -4.038 -13.298  1.00  0.00    -0.272 OA
BRANCH  25  28
HETATM   28  S1  UNL     1     -28.251   1.489 -12.091  1.00  0.00    -0.108 SA
HETATM   29  C1  UNL     1     -26.730   1.451 -13.074  1.00  0.00     0.097 C 
ENDBRANCH  25  28
ENDBRANCH  16  17
ENDBRANCH  15  16
ENDBRANCH   1  15
BRANCH   9  30
HETATM   30  C10 UNL     1     -27.668  -7.357  -8.733  1.00  0.00     0.042 A 
HETATM   31  C11 UNL     1     -27.987  -6.518  -7.689  1.00  0.00     0.123 A 
HETATM   32  N6  UNL     1     -27.289  -6.929  -6.609  1.00  0.00    -0.311 N 
HETATM   33  N7  UNL     1     -26.542  -7.985  -6.910  1.00  0.00    -0.311 N 
ATOM     34  H6  UNL     1     -27.330  -6.490  -5.690  1.00  0.00     0.186 HD
HETATM   35  C12 UNL     1     -26.765  -8.259  -8.212  1.00  0.00     0.123 A 
ATOM     36  H7  UNL     1     -25.921  -8.491  -6.279  1.00  0.00     0.186 HD
ENDBRANCH   9  30
TORSDOF 5
ENDMDL
MODEL 2
REMARK VINA RESULT: -6.111518928      6.163      8.723
REMARK  5 active torsions:
REMARK  status: ('A' for Active; 'I' for Inactive)
REMARK    1  A    between atoms: S1_2  and  C2_3 
REMARK       I    between atoms: N3_9  and  C4_11 
REMARK    2  A    between atoms: C4_11  and  C5_13 
REMARK    3  A    between atoms: C5_13  and  S2_14 
REMARK    4  A    between atoms: S2_14  and  C6_15 
REMARK    5  A    between atoms: C9_23  and  C10_24 
ROOT
HETATM    1  C6  UNL     1     -25.402 -11.631 -12.639  1.00  0.00     0.149 A 
HETATM    2  N4  UNL     1     -25.884 -10.721 -13.502  1.00  0.00    -0.302 N 
ATOM      3  H4  UNL     1     -25.802 -10.923 -14.499  1.00  0.00     0.171 HD
HETATM    4  C7  UNL     1     -26.462  -9.569 -13.147  1.00  0.00     0.278 A 
HETATM    5  O2  UNL     1     -26.907  -8.728 -13.940  1.00  0.00    -0.265 OA
HETATM    6  C8  UNL     1     -26.560  -9.322 -11.772  1.00  0.00     0.147 A 
HETATM    7  N5  UNL     1     -27.068  -8.298 -11.065  1.00  0.00    -0.334 N 
ATOM      8  H5  UNL     1     -27.499  -7.469 -11.475  1.00  0.00     0.168 HD
HETATM    9  C9  UNL     1     -26.933  -8.513  -9.747  1.00  0.00     0.120 A 
HETATM   10  N8  UNL     1     -26.322  -9.705  -9.646  1.00  0.00    -0.326 N 
ATOM     11  H8  UNL     1     -26.074 -10.154  -8.764  1.00  0.00     0.169 HD
HETATM   12  C13 UNL     1     -26.081 -10.225 -10.850  1.00  0.00     0.141 A 
HETATM   13  N9  UNL     1     -25.515 -11.354 -11.325  1.00  0.00    -0.321 N 
ATOM     14  H9  UNL     1     -25.154 -12.032 -10.654  1.00  0.00     0.169 HD
ENDROOT
BRANCH   1  15
HETATM   15  S2  UNL     1     -24.635 -13.165 -13.194  1.00  0.00    -0.084 SA
BRANCH  15  16
HETATM   16  C5  UNL     1     -25.896 -14.456 -13.325  1.00  0.00     0.185 C 
BRANCH  16  17
HETATM   17  C4  UNL     1     -26.677 -14.640 -12.103  1.00  0.00     0.233 C 
HETATM   18  N3  UNL     1     -28.052 -14.958 -12.177  1.00  0.00    -0.305 N 
HETATM   19  C3  UNL     1     -28.905 -13.965 -12.054  1.00  0.00     0.168 A 
ATOM     20  H3  UNL     1     -28.370 -15.917 -12.321  1.00  0.00     0.171 HD
HETATM   21  N2  UNL     1     -28.658 -12.668 -11.863  1.00  0.00    -0.278 N 
HETATM   22  S3  UNL     1     -30.618 -13.988 -12.095  1.00  0.00    -0.026 SA
HETATM   23  N1  UNL     1     -29.632 -11.862 -11.770  1.00  0.00    -0.286 N 
ATOM     24  H2  UNL     1     -27.699 -12.329 -11.794  1.00  0.00     0.189 HD
HETATM   25  C2  UNL     1     -30.877 -12.304 -11.861  1.00  0.00     0.129 A 
ATOM     26  H1  UNL     1     -29.457 -10.868 -11.624  1.00  0.00     0.188 HD
HETATM   27  O1  UNL     1     -26.124 -14.514 -10.988  1.00  0.00    -0.272 OA
BRANCH  25  28
HETATM   28  S1  UNL     1     -32.422 -11.381 -11.764  1.00  0.00    -0.108 SA
HETATM   29  C1  UNL     1     -32.120  -9.979 -10.658  1.00  0.00     0.097 C 
ENDBRANCH  25  28
ENDBRANCH  16  17
ENDBRANCH  15  16
ENDBRANCH   1  15
BRANCH   9  30
HETATM   30  C10 UNL     1     -27.342  -7.675  -8.628  1.00  0.00     0.042 A 
HETATM   31  C11 UNL     1     -26.809  -7.666  -7.358  1.00  0.00     0.123 A 
HETATM   32  N6  UNL     1     -27.483  -6.742  -6.641  1.00  0.00    -0.311 N 
HETATM   33  N7  UNL     1     -28.418  -6.162  -7.386  1.00  0.00    -0.311 N 
ATOM     34  H6  UNL     1     -27.301  -6.520  -5.663  1.00  0.00     0.186 HD
HETATM   35  C12 UNL     1     -28.342  -6.727  -8.609  1.00  0.00     0.123 A 
ATOM     36  H7  UNL     1     -29.066  -5.432  -7.091  1.00  0.00     0.186 HD
ENDBRANCH   9  30
TORSDOF 5
ENDMDL
MODEL 3
REMARK VINA RESULT: -6.110080861      7.368     11.088
REMARK  5 active torsions:
REMARK  status: ('A' for Active; 'I' for Inactive)
REMARK    1  A    between atoms: S1_2  and  C2_3 
REMARK       I    between atoms: N3_9  and  C4_11 
REMARK    2  A    between atoms: C4_11  and  C5_13 
REMARK    3  A    between atoms: C5_13  and  S2_14 
REMARK    4  A    between atoms: S2_14  and  C6_15 
REMARK    5  A    between atoms: C9_23  and  C10_24 
ROOT
HETATM    1  C6  UNL     1     -26.621 -12.905 -12.094  1.00  0.00     0.149 A 
HETATM    2  N4  UNL     1     -27.962 -12.861 -12.163  1.00  0.00    -0.302 N 
ATOM      3  H4  UNL     1     -28.431 -13.564 -12.735  1.00  0.00     0.171 HD
HETATM    4  C7  UNL     1     -28.726 -11.962 -11.534  1.00  0.00     0.278 A 
HETATM    5  O2  UNL     1     -29.962 -11.919 -11.595  1.00  0.00    -0.265 OA
HETATM    6  C8  UNL     1     -28.053 -11.012 -10.756  1.00  0.00     0.147 A 
HETATM    7  N5  UNL     1     -28.481  -9.985 -10.002  1.00  0.00    -0.334 N 
ATOM      8  H5  UNL     1     -29.460  -9.726  -9.878  1.00  0.00     0.168 HD
HETATM    9  C9  UNL     1     -27.446  -9.346  -9.432  1.00  0.00     0.120 A 
HETATM   10  N8  UNL     1     -26.352 -10.003  -9.853  1.00  0.00    -0.326 N 
ATOM     11  H8  UNL     1     -25.397  -9.759  -9.594  1.00  0.00     0.169 HD
HETATM   12  C13 UNL     1     -26.680 -11.017 -10.655  1.00  0.00     0.141 A 
HETATM   13  N9  UNL     1     -26.012 -11.972 -11.335  1.00  0.00    -0.321 N 
ATOM     14  H9  UNL     1     -24.994 -11.988 -11.272  1.00  0.00     0.169 HD
ENDROOT
BRANCH   1  15
HETATM   15  S2  UNL     1     -25.658 -14.151 -12.971  1.00  0.00    -0.084 SA
BRANCH  15  16
HETATM   16  C5  UNL     1     -24.523 -13.336 -14.119  1.00  0.00     0.185 C 
BRANCH  16  17
HETATM   17  C4  UNL     1     -23.307 -12.830 -13.483  1.00  0.00     0.233 C 
HETATM   18  N3  UNL     1     -22.073 -13.493 -13.676  1.00  0.00    -0.305 N 
HETATM   19  C3  UNL     1     -21.692 -14.333 -12.739  1.00  0.00     0.168 A 
ATOM     20  H3  UNL     1     -21.504 -13.327 -14.505  1.00  0.00     0.171 HD
HETATM   21  N2  UNL     1     -22.312 -14.660 -11.604  1.00  0.00    -0.278 N 
HETATM   22  S3  UNL     1     -20.276 -15.295 -12.648  1.00  0.00    -0.026 SA
HETATM   23  N1  UNL     1     -21.771 -15.502 -10.826  1.00  0.00    -0.286 N 
ATOM     24  H2  UNL     1     -23.210 -14.239 -11.365  1.00  0.00     0.189 HD
HETATM   25  C2  UNL     1     -20.605 -16.048 -11.137  1.00  0.00     0.129 A 
ATOM     26  H1  UNL     1     -22.235 -15.761  -9.955  1.00  0.00     0.188 HD
HETATM   27  O1  UNL     1     -23.362 -11.806 -12.766  1.00  0.00    -0.272 OA
BRANCH  25  28
HETATM   28  S1  UNL     1     -19.633 -17.255 -10.219  1.00  0.00    -0.108 SA
HETATM   29  C1  UNL     1     -19.647 -16.724  -8.487  1.00  0.00     0.097 C 
ENDBRANCH  25  28
ENDBRANCH  16  17
ENDBRANCH  15  16
ENDBRANCH   1  15
BRANCH   9  30
HETATM   30  C10 UNL     1     -27.449  -8.192  -8.544  1.00  0.00     0.042 A 
HETATM   31  C11 UNL     1     -26.739  -8.042  -7.373  1.00  0.00     0.123 A 
HETATM   32  N6  UNL     1     -27.038  -6.825  -6.871  1.00  0.00    -0.311 N 
HETATM   33  N7  UNL     1     -27.900  -6.192  -7.658  1.00  0.00    -0.311 N 
ATOM     34  H6  UNL     1     -26.654  -6.444  -6.006  1.00  0.00     0.186 HD
HETATM   35  C12 UNL     1     -28.162  -7.021  -8.690  1.00  0.00     0.123 A 
ATOM     36  H7  UNL     1     -28.288  -5.260  -7.512  1.00  0.00     0.186 HD
ENDBRANCH   9  30
TORSDOF 5
ENDMDL
MODEL 4
REMARK VINA RESULT: -6.090624155      1.443      1.776
REMARK  5 active torsions:
REMARK  status: ('A' for Active; 'I' for Inactive)
REMARK    1  A    between atoms: S1_2  and  C2_3 
REMARK       I    between atoms: N3_9  and  C4_11 
REMARK    2  A    between atoms: C4_11  and  C5_13 
REMARK    3  A    between atoms: C5_13  and  S2_14 
REMARK    4  A    between atoms: S2_14  and  C6_15 
REMARK    5  A    between atoms: C9_23  and  C10_24 
ROOT
HETATM    1  C6  UNL     1     -29.865  -5.679 -13.596  1.00  0.00     0.149 A 
HETATM    2  N4  UNL     1     -30.888  -6.421 -13.142  1.00  0.00    -0.302 N 
ATOM      3  H4  UNL     1     -31.774  -6.367 -13.646  1.00  0.00     0.171 HD
HETATM    4  C7  UNL     1     -30.828  -7.226 -12.076  1.00  0.00     0.278 A 
HETATM    5  O2  UNL     1     -31.769  -7.912 -11.655  1.00  0.00    -0.265 OA
HETATM    6  C8  UNL     1     -29.599  -7.279 -11.407  1.00  0.00     0.147 A 
HETATM    7  N5  UNL     1     -29.179  -7.960 -10.327  1.00  0.00    -0.334 N 
ATOM      8  H5  UNL     1     -29.759  -8.602  -9.786  1.00  0.00     0.168 HD
HETATM    9  C9  UNL     1     -27.893  -7.683 -10.057  1.00  0.00     0.120 A 
HETATM   10  N8  UNL     1     -27.517  -6.804 -11.001  1.00  0.00    -0.326 N 
ATOM     11  H8  UNL     1     -26.585  -6.395 -11.071  1.00  0.00     0.169 HD
HETATM   12  C13 UNL     1     -28.522  -6.536 -11.835  1.00  0.00     0.141 A 
HETATM   13  N9  UNL     1     -28.700  -5.758 -12.923  1.00  0.00    -0.321 N 
ATOM     14  H9  UNL     1     -27.912  -5.200 -13.252  1.00  0.00     0.169 HD
ENDROOT
BRANCH   1  15
HETATM   15  S2  UNL     1     -30.022  -4.616 -15.044  1.00  0.00    -0.084 SA
BRANCH  15  16
HETATM   16  C5  UNL     1     -31.743  -4.085 -15.217  1.00  0.00     0.185 C 
BRANCH  16  17
HETATM   17  C4  UNL     1     -32.204  -3.225 -14.127  1.00  0.00     0.233 C 
HETATM   18  N3  UNL     1     -32.102  -1.819 -14.237  1.00  0.00    -0.305 N 
HETATM   19  C3  UNL     1     -31.065  -1.248 -13.667  1.00  0.00     0.168 A 
ATOM     20  H3  UNL     1     -32.803  -1.273 -14.737  1.00  0.00     0.171 HD
HETATM   21  N2  UNL     1     -30.068  -1.812 -12.982  1.00  0.00    -0.278 N 
HETATM   22  S3  UNL     1     -30.631   0.410 -13.606  1.00  0.00    -0.026 SA
HETATM   23  N1  UNL     1     -29.151  -1.075 -12.508  1.00  0.00    -0.286 N 
ATOM     24  H2  UNL     1     -30.044  -2.821 -12.842  1.00  0.00     0.189 HD
HETATM   25  C2  UNL     1     -29.184   0.236 -12.692  1.00  0.00     0.129 A 
ATOM     26  H1  UNL     1     -28.384  -1.494 -11.983  1.00  0.00     0.188 HD
HETATM   27  O1  UNL     1     -32.690  -3.738 -13.095  1.00  0.00    -0.272 OA
BRANCH  25  28
HETATM   28  S1  UNL     1     -28.021   1.492 -12.131  1.00  0.00    -0.108 SA
HETATM   29  C1  UNL     1     -26.609   1.435 -13.264  1.00  0.00     0.097 C 
ENDBRANCH  25  28
ENDBRANCH  16  17
ENDBRANCH  15  16
ENDBRANCH   1  15
BRANCH   9  30
HETATM   30  C10 UNL     1     -27.042  -8.195  -8.991  1.00  0.00     0.042 A 
HETATM   31  C11 UNL     1     -26.123  -9.216  -9.079  1.00  0.00     0.123 A 
HETATM   32  N6  UNL     1     -25.561  -9.363  -7.861  1.00  0.00    -0.311 N 
HETATM   33  N7  UNL     1     -26.073  -8.489  -7.001  1.00  0.00    -0.311 N 
ATOM     34  H6  UNL     1     -24.842 -10.049  -7.631  1.00  0.00     0.186 HD
HETATM   35  C12 UNL     1     -26.986  -7.765  -7.683  1.00  0.00     0.123 A 
ATOM     36  H7  UNL     1     -25.825  -8.385  -6.017  1.00  0.00     0.186 HD
ENDBRANCH   9  30
TORSDOF 5
ENDMDL
MODEL 5
REMARK VINA RESULT: -6.016710962      6.916     10.743
REMARK  5 active torsions:
REMARK  status: ('A' for Active; 'I' for Inactive)
REMARK    1  A    between atoms: S1_2  and  C2_3 
REMARK       I    between atoms: N3_9  and  C4_11 
REMARK    2  A    between atoms: C4_11  and  C5_13 
REMARK    3  A    between atoms: C5_13  and  S2_14 
REMARK    4  A    between atoms: S2_14  and  C6_15 
REMARK    5  A    between atoms: C9_23  and  C10_24 
ROOT
HETATM    1  C6  UNL     1     -25.129 -11.472 -12.603  1.00  0.00     0.149 A 
HETATM    2  N4  UNL     1     -26.177 -12.239 -12.258  1.00  0.00    -0.302 N 
ATOM      3  H4  UNL     1     -26.289 -13.133 -12.738  1.00  0.00     0.171 HD
HETATM    4  C7  UNL     1     -27.084 -11.914 -11.331  1.00  0.00     0.278 A 
HETATM    5  O2  UNL     1     -28.051 -12.619 -11.011  1.00  0.00    -0.265 OA
HETATM    6  C8  UNL     1     -26.903 -10.682 -10.691  1.00  0.00     0.147 A 
HETATM    7  N5  UNL     1     -27.596 -10.043  -9.733  1.00  0.00    -0.334 N 
ATOM      8  H5  UNL     1     -28.441 -10.405  -9.291  1.00  0.00     0.168 HD
HETATM    9  C9  UNL     1     -27.025  -8.865  -9.435  1.00  0.00     0.120 A 
HETATM   10  N8  UNL     1     -25.951  -8.782 -10.237  1.00  0.00    -0.326 N 
ATOM     11  H8  UNL     1     -25.302  -7.995 -10.253  1.00  0.00     0.169 HD
HETATM   12  C13 UNL     1     -25.844  -9.862 -11.011  1.00  0.00     0.141 A 
HETATM   13  N9  UNL     1     -24.992 -10.294 -11.964  1.00  0.00    -0.321 N 
ATOM     14  H9  UNL     1     -24.203  -9.697 -12.213  1.00  0.00     0.169 HD
ENDROOT
BRANCH   1  15
HETATM   15  S2  UNL     1     -23.945 -11.980 -13.864  1.00  0.00    -0.084 SA
BRANCH  15  16
HETATM   16  C5  UNL     1     -22.546 -12.813 -13.075  1.00  0.00     0.185 C 
BRANCH  16  17
HETATM   17  C4  UNL     1     -22.605 -14.272 -13.164  1.00  0.00     0.233 C 
HETATM   18  N3  UNL     1     -23.773 -14.909 -13.642  1.00  0.00    -0.305 N 
HETATM   19  C3  UNL     1     -24.618 -15.364 -12.743  1.00  0.00     0.168 A 
ATOM     20  H3  UNL     1     -23.953 -15.012 -14.640  1.00  0.00     0.171 HD
HETATM   21  N2  UNL     1     -24.534 -15.312 -11.412  1.00  0.00    -0.278 N 
HETATM   22  S3  UNL     1     -26.111 -16.176 -12.963  1.00  0.00    -0.026 SA
HETATM   23  N1  UNL     1     -25.467 -15.815 -10.716  1.00  0.00    -0.286 N 
ATOM     24  H2  UNL     1     -23.731 -14.874 -10.961  1.00  0.00     0.189 HD
HETATM   25  C2  UNL     1     -26.509 -16.383 -11.303  1.00  0.00     0.129 A 
ATOM     26  H1  UNL     1     -25.414 -15.782  -9.698  1.00  0.00     0.188 HD
HETATM   27  O1  UNL     1     -21.618 -14.955 -12.814  1.00  0.00    -0.272 OA
BRANCH  25  28
HETATM   28  S1  UNL     1     -27.951 -17.162 -10.555  1.00  0.00    -0.108 SA
HETATM   29  C1  UNL     1     -29.249 -15.900 -10.493  1.00  0.00     0.097 C 
ENDBRANCH  25  28
ENDBRANCH  16  17
ENDBRANCH  15  16
ENDBRANCH   1  15
BRANCH   9  30
HETATM   30  C10 UNL     1     -27.435  -7.860  -8.463  1.00  0.00     0.042 A 
HETATM   31  C11 UNL     1     -27.009  -7.743  -7.158  1.00  0.00     0.123 A 
HETATM   32  N6  UNL     1     -27.641  -6.679  -6.619  1.00  0.00    -0.311 N 
HETATM   33  N7  UNL     1     -28.447  -6.112  -7.511  1.00  0.00    -0.311 N 
ATOM     34  H6  UNL     1     -27.517  -6.354  -5.661  1.00  0.00     0.186 HD
HETATM   35  C12 UNL     1     -28.330  -6.829  -8.648  1.00  0.00     0.123 A 
ATOM     36  H7  UNL     1     -29.038  -5.294  -7.364  1.00  0.00     0.186 HD
ENDBRANCH   9  30
TORSDOF 5
ENDMDL
