MODEL 1
REMARK VINA RESULT: -5.929121533      0.000      0.000
REMARK  9 active torsions:
REMARK  status: ('A' for Active; 'I' for Inactive)
REMARK    1  A    between atoms: O1_2  and  C2_3 
REMARK    2  A    between atoms: C3_4  and  O2_5 
REMARK    3  A    between atoms: C5_8  and  C6_9 
REMARK    4  A    between atoms: C6_9  and  O3_10 
REMARK    5  A    between atoms: C6_9  and  N1_12 
REMARK    6  A    between atoms: N1_12  and  N2_14 
REMARK    7  A    between atoms: N2_14  and  C7_16 
REMARK    8  A    between atoms: C15_29  and  N7_30 
REMARK    9  A    between atoms: C18_33  and  O4_34 
ROOT
HETATM    1  C7  UNL     1     -27.333  -7.931 -10.296  1.00  0.00     0.095 A 
HETATM    2  C8  UNL     1     -26.525  -8.770 -11.093  1.00  0.00     0.096 A 
HETATM    3  C9  UNL     1     -26.781  -8.822 -12.480  1.00  0.00     0.104 C 
HETATM    4  N3  UNL     1     -26.978  -8.850 -13.634  1.00  0.00    -0.191 NA
HETATM    5  C10 UNL     1     -25.518  -9.526 -10.563  1.00  0.00     0.029 A 
HETATM    6  C11 UNL     1     -24.651 -10.394 -11.413  1.00  0.00     0.070 C 
HETATM    7  N4  UNL     1     -25.253  -9.501  -9.251  1.00  0.00    -0.346 N 
ATOM      8  H4  UNL     1     -24.500 -10.066  -8.859  1.00  0.00     0.167 HD
HETATM    9  C12 UNL     1     -25.999  -8.717  -8.468  1.00  0.00     0.139 A 
HETATM   10  N5  UNL     1     -25.719  -8.695  -7.079  1.00  0.00    -0.081 NA
HETATM   11  C13 UNL     1     -27.042  -7.924  -8.965  1.00  0.00     0.115 A 
HETATM   12  C14 UNL     1     -27.759  -7.120  -8.040  1.00  0.00     0.105 C 
HETATM   13  N6  UNL     1     -28.332  -6.456  -7.252  1.00  0.00    -0.191 NA
ENDROOT
BRANCH   1  14
HETATM   14  N2  UNL     1     -28.243  -7.251 -10.805  1.00  0.00    -0.296 N 
ATOM     15  H2  UNL     1     -27.884  -6.468 -11.350  1.00  0.00     0.187 HD
BRANCH  14  16
HETATM   16  N1  UNL     1     -29.616  -7.303 -10.807  1.00  0.00    -0.279 N 
ATOM     17  H1  UNL     1     -30.140  -6.775 -10.109  1.00  0.00     0.189 HD
BRANCH  16  18
HETATM   18  C6  UNL     1     -30.300  -8.061 -11.743  1.00  0.00     0.167 C 
BRANCH  18  19
HETATM   19  C5  UNL     1     -31.327  -9.053 -11.717  1.00  0.00     0.048 A 
HETATM   20  C4  UNL     1     -32.681  -8.613 -11.776  1.00  0.00     0.057 A 
HETATM   21  C3  UNL     1     -33.734  -9.479 -11.727  1.00  0.00     0.102 A 
HETATM   22  C2  UNL     1     -33.483 -10.826 -11.616  1.00  0.00     0.137 A 
HETATM   23  C18 UNL     1     -32.171 -11.314 -11.555  1.00  0.00     0.132 A 
HETATM   24  C15 UNL     1     -31.132 -10.402 -11.610  1.00  0.00     0.081 A 
BRANCH  21  25
HETATM   25  O2  UNL     1     -35.054  -9.000 -11.789  1.00  0.00    -0.358 OA
ATOM     26  H2  UNL     1     -35.316  -8.392 -12.470  1.00  0.00     0.217 HD
ENDBRANCH  21  25
BRANCH  22  27
HETATM   27  O1  UNL     1     -34.545 -11.710 -11.564  1.00  0.00    -0.351 OA
HETATM   28  C1  UNL     1     -35.220 -12.198 -12.707  1.00  0.00     0.210 C 
ENDBRANCH  22  27
BRANCH  23  29
HETATM   29  O4  UNL     1     -31.986 -12.629 -11.442  1.00  0.00    -0.351 OA
HETATM   30  C19 UNL     1     -31.917 -13.715 -12.261  1.00  0.00     0.210 C 
ENDBRANCH  23  29
BRANCH  24  31
HETATM   31  N7  UNL     1     -29.851 -10.969 -11.556  1.00  0.00    -0.386 N 
HETATM   32  C16 UNL     1     -29.134 -11.193 -10.305  1.00  0.00     0.149 C 
HETATM   33  C17 UNL     1     -29.203 -11.433 -12.768  1.00  0.00     0.149 C 
ENDBRANCH  24  31
ENDBRANCH  18  19
BRANCH  18  34
HETATM   34  O3  UNL     1     -29.892  -7.792 -12.972  1.00  0.00    -0.344 OA
ATOM     35  H3  UNL     1     -28.960  -7.937 -13.083  1.00  0.00     0.219 HD
ENDBRANCH  18  34
ENDBRANCH  16  18
ENDBRANCH  14  16
ENDBRANCH   1  14
TORSDOF 9
ENDMDL
MODEL 2
REMARK VINA RESULT: -5.749907076      1.804      2.780
REMARK  9 active torsions:
REMARK  status: ('A' for Active; 'I' for Inactive)
REMARK    1  A    between atoms: O1_2  and  C2_3 
REMARK    2  A    between atoms: C3_4  and  O2_5 
REMARK    3  A    between atoms: C5_8  and  C6_9 
REMARK    4  A    between atoms: C6_9  and  O3_10 
REMARK    5  A    between atoms: C6_9  and  N1_12 
REMARK    6  A    between atoms: N1_12  and  N2_14 
REMARK    7  A    between atoms: N2_14  and  C7_16 
REMARK    8  A    between atoms: C15_29  and  N7_30 
REMARK    9  A    between atoms: C18_33  and  O4_34 
ROOT
HETATM    1  C7  UNL     1     -27.496  -8.314 -10.535  1.00  0.00     0.095 A 
HETATM    2  C8  UNL     1     -26.743  -9.255 -11.268  1.00  0.00     0.096 A 
HETATM    3  C9  UNL     1     -27.261  -9.711 -12.500  1.00  0.00     0.104 C 
HETATM    4  N3  UNL     1     -27.678 -10.074 -13.532  1.00  0.00    -0.191 NA
HETATM    5  C10 UNL     1     -25.544  -9.733 -10.822  1.00  0.00     0.029 A 
HETATM    6  C11 UNL     1     -24.739 -10.711 -11.611  1.00  0.00     0.070 C 
HETATM    7  N4  UNL     1     -25.028  -9.323  -9.656  1.00  0.00    -0.346 N 
ATOM      8  H4  UNL     1     -24.133  -9.682  -9.326  1.00  0.00     0.167 HD
HETATM    9  C12 UNL     1     -25.716  -8.433  -8.936  1.00  0.00     0.139 A 
HETATM   10  N5  UNL     1     -25.171  -8.003  -7.701  1.00  0.00    -0.081 NA
HETATM   11  C13 UNL     1     -26.949  -7.914  -9.353  1.00  0.00     0.115 A 
HETATM   12  C14 UNL     1     -27.584  -6.961  -8.511  1.00  0.00     0.105 C 
HETATM   13  N6  UNL     1     -28.084  -6.168  -7.799  1.00  0.00    -0.191 NA
ENDROOT
BRANCH   1  14
HETATM   14  N2  UNL     1     -28.586  -7.893 -10.966  1.00  0.00    -0.296 N 
ATOM     15  H2  UNL     1     -28.488  -7.402 -11.855  1.00  0.00     0.187 HD
BRANCH  14  16
HETATM   16  N1  UNL     1     -29.889  -7.931 -10.531  1.00  0.00    -0.279 N 
ATOM     17  H1  UNL     1     -30.227  -7.208  -9.895  1.00  0.00     0.189 HD
BRANCH  16  18
HETATM   18  C6  UNL     1     -30.750  -8.935 -10.944  1.00  0.00     0.167 C 
BRANCH  18  19
HETATM   19  C5  UNL     1     -32.149  -9.050 -11.208  1.00  0.00     0.048 A 
HETATM   20  C4  UNL     1     -32.946  -9.772 -10.274  1.00  0.00     0.057 A 
HETATM   21  C3  UNL     1     -34.285  -9.966 -10.451  1.00  0.00     0.102 A 
HETATM   22  C2  UNL     1     -34.890  -9.445 -11.570  1.00  0.00     0.137 A 
HETATM   23  C18 UNL     1     -34.154  -8.725 -12.521  1.00  0.00     0.132 A 
HETATM   24  C15 UNL     1     -32.799  -8.552 -12.302  1.00  0.00     0.081 A 
BRANCH  21  25
HETATM   25  O2  UNL     1     -35.034 -10.684  -9.502  1.00  0.00    -0.358 OA
ATOM     26  H2  UNL     1     -34.612 -11.313  -8.929  1.00  0.00     0.217 HD
ENDBRANCH  21  25
BRANCH  22  27
HETATM   27  O1  UNL     1     -36.246  -9.637 -11.758  1.00  0.00    -0.351 OA
HETATM   28  C1  UNL     1     -36.798 -10.745 -12.442  1.00  0.00     0.210 C 
ENDBRANCH  22  27
BRANCH  23  29
HETATM   29  O4  UNL     1     -34.791  -8.249 -13.590  1.00  0.00    -0.351 OA
HETATM   30  C19 UNL     1     -35.564  -7.175 -13.911  1.00  0.00     0.210 C 
ENDBRANCH  23  29
BRANCH  24  31
HETATM   31  N7  UNL     1     -32.135  -7.812 -13.291  1.00  0.00    -0.386 N 
HETATM   32  C16 UNL     1     -31.937  -6.369 -13.205  1.00  0.00     0.149 C 
HETATM   33  C17 UNL     1     -31.541  -8.482 -14.432  1.00  0.00     0.149 C 
ENDBRANCH  24  31
ENDBRANCH  18  19
BRANCH  18  34
HETATM   34  O3  UNL     1     -30.105 -10.071 -11.141  1.00  0.00    -0.344 OA
ATOM     35  H3  UNL     1     -30.529 -10.619 -11.792  1.00  0.00     0.219 HD
ENDBRANCH  18  34
ENDBRANCH  16  18
ENDBRANCH  14  16
ENDBRANCH   1  14
TORSDOF 9
ENDMDL
MODEL 3
REMARK VINA RESULT: -5.723591812      0.595      2.663
REMARK  9 active torsions:
REMARK  status: ('A' for Active; 'I' for Inactive)
REMARK    1  A    between atoms: O1_2  and  C2_3 
REMARK    2  A    between atoms: C3_4  and  O2_5 
REMARK    3  A    between atoms: C5_8  and  C6_9 
REMARK    4  A    between atoms: C6_9  and  O3_10 
REMARK    5  A    between atoms: C6_9  and  N1_12 
REMARK    6  A    between atoms: N1_12  and  N2_14 
REMARK    7  A    between atoms: N2_14  and  C7_16 
REMARK    8  A    between atoms: C15_29  and  N7_30 
REMARK    9  A    between atoms: C18_33  and  O4_34 
ROOT
HETATM    1  C7  UNL     1     -27.390  -7.919 -10.646  1.00  0.00     0.095 A 
HETATM    2  C8  UNL     1     -27.090  -7.854  -9.269  1.00  0.00     0.096 A 
HETATM    3  C9  UNL     1     -27.830  -6.960  -8.465  1.00  0.00     0.104 C 
HETATM    4  N3  UNL     1     -28.456  -6.235  -7.793  1.00  0.00    -0.191 NA
HETATM    5  C10 UNL     1     -26.112  -8.622  -8.701  1.00  0.00     0.029 A 
HETATM    6  C11 UNL     1     -25.813  -8.567  -7.240  1.00  0.00     0.070 C 
HETATM    7  N4  UNL     1     -25.391  -9.476  -9.437  1.00  0.00    -0.346 N 
ATOM      8  H4  UNL     1     -24.662 -10.048  -9.010  1.00  0.00     0.167 HD
HETATM    9  C12 UNL     1     -25.649  -9.561 -10.744  1.00  0.00     0.139 A 
HETATM   10  N5  UNL     1     -24.882 -10.464 -11.523  1.00  0.00    -0.081 NA
HETATM   11  C13 UNL     1     -26.642  -8.796 -11.371  1.00  0.00     0.115 A 
HETATM   12  C14 UNL     1     -26.837  -8.981 -12.766  1.00  0.00     0.105 C 
HETATM   13  N6  UNL     1     -26.984  -9.161 -13.921  1.00  0.00    -0.191 NA
ENDROOT
BRANCH   1  14
HETATM   14  N2  UNL     1     -28.288  -7.210 -11.137  1.00  0.00    -0.296 N 
ATOM     15  H2  UNL     1     -27.915  -6.416 -11.656  1.00  0.00     0.187 HD
BRANCH  14  16
HETATM   16  N1  UNL     1     -29.662  -7.242 -11.147  1.00  0.00    -0.279 N 
ATOM     17  H1  UNL     1     -30.182  -6.650 -10.499  1.00  0.00     0.189 HD
BRANCH  16  18
HETATM   18  C6  UNL     1     -30.350  -8.066 -12.022  1.00  0.00     0.167 C 
BRANCH  18  19
HETATM   19  C5  UNL     1     -31.395  -9.034 -11.922  1.00  0.00     0.048 A 
HETATM   20  C4  UNL     1     -32.741  -8.570 -11.984  1.00  0.00     0.057 A 
HETATM   21  C3  UNL     1     -33.811  -9.410 -11.867  1.00  0.00     0.102 A 
HETATM   22  C2  UNL     1     -33.584 -10.753 -11.685  1.00  0.00     0.137 A 
HETATM   23  C18 UNL     1     -32.281 -11.264 -11.619  1.00  0.00     0.132 A 
HETATM   24  C15 UNL     1     -31.226 -10.378 -11.743  1.00  0.00     0.081 A 
BRANCH  21  25
HETATM   25  O2  UNL     1     -35.122  -8.908 -11.935  1.00  0.00    -0.358 OA
ATOM     26  H2  UNL     1     -35.739  -9.072 -11.232  1.00  0.00     0.217 HD
ENDBRANCH  21  25
BRANCH  22  27
HETATM   27  O1  UNL     1     -34.662 -11.611 -11.565  1.00  0.00    -0.351 OA
HETATM   28  C1  UNL     1     -35.383 -12.128 -12.666  1.00  0.00     0.210 C 
ENDBRANCH  22  27
BRANCH  23  29
HETATM   29  O4  UNL     1     -32.120 -12.574 -11.434  1.00  0.00    -0.351 OA
HETATM   30  C19 UNL     1     -32.142 -13.711 -12.184  1.00  0.00     0.210 C 
ENDBRANCH  23  29
BRANCH  24  31
HETATM   31  N7  UNL     1     -29.955 -10.967 -11.678  1.00  0.00    -0.386 N 
HETATM   32  C16 UNL     1     -29.220 -11.136 -10.429  1.00  0.00     0.149 C 
HETATM   33  C17 UNL     1     -29.338 -11.511 -12.873  1.00  0.00     0.149 C 
ENDBRANCH  24  31
ENDBRANCH  18  19
BRANCH  18  34
HETATM   34  O3  UNL     1     -29.925  -7.911 -13.264  1.00  0.00    -0.344 OA
ATOM     35  H3  UNL     1     -29.970  -8.718 -13.765  1.00  0.00     0.219 HD
ENDBRANCH  18  34
ENDBRANCH  16  18
ENDBRANCH  14  16
ENDBRANCH   1  14
TORSDOF 9
ENDMDL
MODEL 4
REMARK VINA RESULT: -5.680281393      2.020      3.354
REMARK  9 active torsions:
REMARK  status: ('A' for Active; 'I' for Inactive)
REMARK    1  A    between atoms: O1_2  and  C2_3 
REMARK    2  A    between atoms: C3_4  and  O2_5 
REMARK    3  A    between atoms: C5_8  and  C6_9 
REMARK    4  A    between atoms: C6_9  and  O3_10 
REMARK    5  A    between atoms: C6_9  and  N1_12 
REMARK    6  A    between atoms: N1_12  and  N2_14 
REMARK    7  A    between atoms: N2_14  and  C7_16 
REMARK    8  A    between atoms: C15_29  and  N7_30 
REMARK    9  A    between atoms: C18_33  and  O4_34 
ROOT
HETATM    1  C7  UNL     1     -27.550  -8.288 -10.343  1.00  0.00     0.095 A 
HETATM    2  C8  UNL     1     -26.864  -9.238 -11.130  1.00  0.00     0.096 A 
HETATM    3  C9  UNL     1     -27.471  -9.679 -12.326  1.00  0.00     0.104 C 
HETATM    4  N3  UNL     1     -27.963 -10.030 -13.328  1.00  0.00    -0.191 NA
HETATM    5  C10 UNL     1     -25.645  -9.738 -10.768  1.00  0.00     0.029 A 
HETATM    6  C11 UNL     1     -24.913 -10.725 -11.614  1.00  0.00     0.070 C 
HETATM    7  N4  UNL     1     -25.046  -9.342  -9.638  1.00  0.00    -0.346 N 
ATOM      8  H4  UNL     1     -24.136  -9.717  -9.370  1.00  0.00     0.167 HD
HETATM    9  C12 UNL     1     -25.669  -8.445  -8.870  1.00  0.00     0.139 A 
HETATM   10  N5  UNL     1     -25.034  -8.030  -7.672  1.00  0.00    -0.081 NA
HETATM   11  C13 UNL     1     -26.918  -7.903  -9.200  1.00  0.00     0.115 A 
HETATM   12  C14 UNL     1     -27.479  -6.945  -8.313  1.00  0.00     0.105 C 
HETATM   13  N6  UNL     1     -27.917  -6.147  -7.565  1.00  0.00    -0.191 NA
ENDROOT
BRANCH   1  14
HETATM   14  N2  UNL     1     -28.659  -7.848 -10.698  1.00  0.00    -0.296 N 
ATOM     15  H2  UNL     1     -28.583  -7.177 -11.463  1.00  0.00     0.187 HD
BRANCH  14  16
HETATM   16  N1  UNL     1     -29.961  -8.048 -10.306  1.00  0.00    -0.279 N 
ATOM     17  H1  UNL     1     -30.266  -7.717  -9.391  1.00  0.00     0.189 HD
BRANCH  16  18
HETATM   18  C6  UNL     1     -30.864  -8.693 -11.136  1.00  0.00     0.167 C 
BRANCH  18  19
HETATM   19  C5  UNL     1     -32.038  -8.329 -11.864  1.00  0.00     0.048 A 
HETATM   20  C4  UNL     1     -33.254  -9.001 -11.548  1.00  0.00     0.057 A 
HETATM   21  C3  UNL     1     -34.422  -8.749 -12.206  1.00  0.00     0.102 A 
HETATM   22  C2  UNL     1     -34.429  -7.811 -13.211  1.00  0.00     0.137 A 
HETATM   23  C18 UNL     1     -33.263  -7.119 -13.562  1.00  0.00     0.132 A 
HETATM   24  C15 UNL     1     -32.100  -7.405 -12.869  1.00  0.00     0.081 A 
BRANCH  21  25
HETATM   25  O2  UNL     1     -35.599  -9.435 -11.860  1.00  0.00    -0.358 OA
ATOM     26  H2  UNL     1     -35.558 -10.247 -11.368  1.00  0.00     0.217 HD
ENDBRANCH  21  25
BRANCH  22  27
HETATM   27  O1  UNL     1     -35.608  -7.549 -13.884  1.00  0.00    -0.351 OA
HETATM   28  C1  UNL     1     -36.020  -8.238 -15.049  1.00  0.00     0.210 C 
ENDBRANCH  22  27
BRANCH  23  29
HETATM   29  O4  UNL     1     -33.326  -6.225 -14.549  1.00  0.00    -0.351 OA
HETATM   30  C19 UNL     1     -33.698  -4.925 -14.713  1.00  0.00     0.210 C 
ENDBRANCH  23  29
BRANCH  24  31
HETATM   31  N7  UNL     1     -30.980  -6.663 -13.271  1.00  0.00    -0.386 N 
HETATM   32  C16 UNL     1     -30.617  -5.384 -12.671  1.00  0.00     0.149 C 
HETATM   33  C17 UNL     1     -30.075  -7.190 -14.274  1.00  0.00     0.149 C 
ENDBRANCH  24  31
ENDBRANCH  18  19
BRANCH  18  34
HETATM   34  O3  UNL     1     -30.555  -9.969 -11.286  1.00  0.00    -0.344 OA
ATOM     35  H3  UNL     1     -30.435 -10.206 -12.198  1.00  0.00     0.219 HD
ENDBRANCH  18  34
ENDBRANCH  16  18
ENDBRANCH  14  16
ENDBRANCH   1  14
TORSDOF 9
ENDMDL
MODEL 5
REMARK VINA RESULT: -5.662163369      2.416      4.022
REMARK  9 active torsions:
REMARK  status: ('A' for Active; 'I' for Inactive)
REMARK    1  A    between atoms: O1_2  and  C2_3 
REMARK    2  A    between atoms: C3_4  and  O2_5 
REMARK    3  A    between atoms: C5_8  and  C6_9 
REMARK    4  A    between atoms: C6_9  and  O3_10 
REMARK    5  A    between atoms: C6_9  and  N1_12 
REMARK    6  A    between atoms: N1_12  and  N2_14 
REMARK    7  A    between atoms: N2_14  and  C7_16 
REMARK    8  A    between atoms: C15_29  and  N7_30 
REMARK    9  A    between atoms: C18_33  and  O4_34 
ROOT
HETATM    1  C7  UNL     1     -28.377  -8.412 -10.007  1.00  0.00     0.095 A 
HETATM    2  C8  UNL     1     -27.504  -8.142  -8.932  1.00  0.00     0.096 A 
HETATM    3  C9  UNL     1     -27.621  -6.899  -8.272  1.00  0.00     0.104 C 
HETATM    4  N3  UNL     1     -27.731  -5.878  -7.711  1.00  0.00    -0.191 NA
HETATM    5  C10 UNL     1     -26.559  -9.038  -8.519  1.00  0.00     0.029 A 
HETATM    6  C11 UNL     1     -25.653  -8.758  -7.367  1.00  0.00     0.070 C 
HETATM    7  N4  UNL     1     -26.421 -10.223  -9.126  1.00  0.00    -0.346 N 
ATOM      8  H4  UNL     1     -25.714 -10.890  -8.816  1.00  0.00     0.167 HD
HETATM    9  C12 UNL     1     -27.231 -10.511 -10.149  1.00  0.00     0.139 A 
HETATM   10  N5  UNL     1     -27.080 -11.765 -10.792  1.00  0.00    -0.081 NA
HETATM   11  C13 UNL     1     -28.215  -9.625 -10.606  1.00  0.00     0.115 A 
HETATM   12  C14 UNL     1     -29.028 -10.044 -11.693  1.00  0.00     0.105 C 
HETATM   13  N6  UNL     1     -29.694 -10.420 -12.590  1.00  0.00    -0.191 NA
ENDROOT
BRANCH   1  14
HETATM   14  N2  UNL     1     -29.231  -7.578 -10.361  1.00  0.00    -0.296 N 
ATOM     15  H2  UNL     1     -30.098  -7.663  -9.831  1.00  0.00     0.187 HD
BRANCH  14  16
HETATM   16  N1  UNL     1     -29.285  -6.572 -11.295  1.00  0.00    -0.279 N 
ATOM     17  H1  UNL     1     -28.493  -5.936 -11.394  1.00  0.00     0.189 HD
BRANCH  16  18
HETATM   18  C6  UNL     1     -30.398  -6.407 -12.103  1.00  0.00     0.167 C 
BRANCH  18  19
HETATM   19  C5  UNL     1     -31.287  -7.263 -12.822  1.00  0.00     0.048 A 
HETATM   20  C4  UNL     1     -32.382  -7.836 -12.111  1.00  0.00     0.057 A 
HETATM   21  C3  UNL     1     -33.269  -8.690 -12.698  1.00  0.00     0.102 A 
HETATM   22  C2  UNL     1     -33.103  -9.011 -14.024  1.00  0.00     0.137 A 
HETATM   23  C18 UNL     1     -32.046  -8.476 -14.772  1.00  0.00     0.132 A 
HETATM   24  C15 UNL     1     -31.170  -7.613 -14.138  1.00  0.00     0.081 A 
BRANCH  21  25
HETATM   25  O2  UNL     1     -34.335  -9.231 -11.959  1.00  0.00    -0.358 OA
ATOM     26  H2  UNL     1     -34.497  -8.948 -11.066  1.00  0.00     0.217 HD
ENDBRANCH  21  25
BRANCH  22  27
HETATM   27  O1  UNL     1     -33.997  -9.877 -14.627  1.00  0.00    -0.351 OA
HETATM   28  C1  UNL     1     -33.835 -11.282 -14.659  1.00  0.00     0.210 C 
ENDBRANCH  22  27
BRANCH  23  29
HETATM   29  O4  UNL     1     -31.931  -8.827 -16.053  1.00  0.00    -0.351 OA
HETATM   30  C19 UNL     1     -32.454  -8.455 -17.254  1.00  0.00     0.210 C 
ENDBRANCH  23  29
BRANCH  24  31
HETATM   31  N7  UNL     1     -30.147  -7.111 -14.955  1.00  0.00    -0.386 N 
HETATM   32  C16 UNL     1     -30.261  -5.857 -15.691  1.00  0.00     0.149 C 
HETATM   33  C17 UNL     1     -28.874  -7.802 -15.042  1.00  0.00     0.149 C 
ENDBRANCH  24  31
ENDBRANCH  18  19
BRANCH  18  34
HETATM   34  O3  UNL     1     -30.711  -5.130 -12.238  1.00  0.00    -0.344 OA
ATOM     35  H3  UNL     1     -29.953  -4.562 -12.159  1.00  0.00     0.219 HD
ENDBRANCH  18  34
ENDBRANCH  16  18
ENDBRANCH  14  16
ENDBRANCH   1  14
TORSDOF 9
ENDMDL
