MODEL 1
REMARK VINA RESULT: -6.768597851      0.000      0.000
REMARK  6 active torsions:
REMARK  status: ('A' for Active; 'I' for Inactive)
REMARK    1  A    between atoms: C3_6  and  C4_7 
REMARK       I    between atoms: N2_10  and  C6_12 
REMARK       I    between atoms: C6_12  and  N3_14 
REMARK    2  A    between atoms: N3_14  and  C7_15 
REMARK    3  A    between atoms: C7_15  and  C8_16 
REMARK    4  A    between atoms: C7_15  and  C9_19 
REMARK    5  A    between atoms: C9_19  and  O6_21 
REMARK    6  A    between atoms: O6_21  and  C10_22 
ROOT
HETATM    1  C1  UNL     1     -33.522  -3.225 -16.862  1.00  0.00     0.072 C 
HETATM    2  C2  UNL     1     -32.657  -4.330 -16.388  1.00  0.00     0.052 A 
HETATM    3  N1  UNL     1     -32.175  -5.389 -17.050  1.00  0.00    -0.264 N 
ATOM      4  H1  UNL     1     -32.357  -5.582 -18.035  1.00  0.00     0.194 HD
HETATM    5  O1  UNL     1     -31.463  -6.124 -16.297  1.00  0.00    -0.235 OA
HETATM    6  C3  UNL     1     -31.427  -5.585 -15.056  1.00  0.00     0.140 A 
HETATM    7  C15 UNL     1     -32.154  -4.472 -15.081  1.00  0.00     0.105 A 
HETATM    8  C16 UNL     1     -32.381  -3.496 -14.080  1.00  0.00     0.104 C 
HETATM    9  N5  UNL     1     -32.552  -2.676 -13.285  1.00  0.00    -0.191 NA
ENDROOT
BRANCH   6  10
HETATM   10  C4  UNL     1     -30.652  -6.255 -13.994  1.00  0.00     0.068 A 
HETATM   11  S1  UNL     1     -31.403  -6.830 -12.498  1.00  0.00    -0.049 SA
HETATM   12  C5  UNL     1     -30.060  -7.606 -11.833  1.00  0.00     0.154 A 
HETATM   13  N2  UNL     1     -29.961  -8.261 -10.691  1.00  0.00    -0.277 N 
HETATM   14  N4  UNL     1     -29.112  -7.407 -12.740  1.00  0.00    -0.339 N 
HETATM   15  C6  UNL     1     -28.670  -8.841 -10.353  1.00  0.00     0.396 C 
ATOM     16  H2  UNL     1     -30.762  -8.358 -10.068  1.00  0.00     0.173 HD
HETATM   17  O2  UNL     1     -28.510  -9.975 -10.836  1.00  0.00    -0.230 OA
HETATM   18  N3  UNL     1     -27.807  -8.117  -9.583  1.00  0.00    -0.369 NA
HETATM   19  C13 UNL     1     -29.403  -6.728 -13.827  1.00  0.00     0.027 A 
ATOM     20  H4  UNL     1     -28.172  -7.775 -12.596  1.00  0.00     0.168 HD
HETATM   21  C14 UNL     1     -28.291  -6.388 -14.828  1.00  0.00     0.070 C 
BRANCH  18  22
HETATM   22  C7  UNL     1     -26.945  -7.395  -8.813  1.00  0.00     0.367 C 
BRANCH  22  23
HETATM   23  C8  UNL     1     -27.639  -6.449  -7.865  1.00  0.00     0.221 C 
HETATM   24  O3  UNL     1     -27.012  -5.558  -7.316  1.00  0.00    -0.645 OA
HETATM   25  O4  UNL     1     -29.006  -6.665  -7.674  1.00  0.00    -0.645 OA
ENDBRANCH  22  23
BRANCH  22  26
HETATM   26  C9  UNL     1     -26.130  -8.273  -7.904  1.00  0.00     0.306 C 
HETATM   27  O5  UNL     1     -26.707  -9.128  -7.177  1.00  0.00    -0.261 OA
BRANCH  26  28
HETATM   28  O6  UNL     1     -24.765  -8.188  -7.824  1.00  0.00    -0.314 OA
BRANCH  28  29
HETATM   29  C10 UNL     1     -23.856  -8.771  -8.708  1.00  0.00     0.123 C 
HETATM   30  C11 UNL     1     -22.743  -7.898  -9.167  1.00  0.00     0.040 C 
HETATM   31  C12 UNL     1     -24.554  -9.360  -9.929  1.00  0.00     0.040 C 
ENDBRANCH  28  29
ENDBRANCH  26  28
ENDBRANCH  22  26
ENDBRANCH  18  22
ENDBRANCH   6  10
TORSDOF 6
ENDMDL
MODEL 2
REMARK VINA RESULT: -6.490959939      2.070      3.106
REMARK  6 active torsions:
REMARK  status: ('A' for Active; 'I' for Inactive)
REMARK    1  A    between atoms: C3_6  and  C4_7 
REMARK       I    between atoms: N2_10  and  C6_12 
REMARK       I    between atoms: C6_12  and  N3_14 
REMARK    2  A    between atoms: N3_14  and  C7_15 
REMARK    3  A    between atoms: C7_15  and  C8_16 
REMARK    4  A    between atoms: C7_15  and  C9_19 
REMARK    5  A    between atoms: C9_19  and  O6_21 
REMARK    6  A    between atoms: O6_21  and  C10_22 
ROOT
HETATM    1  C1  UNL     1     -33.922  -4.300 -14.664  1.00  0.00     0.072 C 
HETATM    2  C2  UNL     1     -33.413  -5.580 -14.120  1.00  0.00     0.052 A 
HETATM    3  N1  UNL     1     -34.023  -6.765 -13.998  1.00  0.00    -0.264 N 
ATOM      4  H1  UNL     1     -34.985  -6.949 -14.285  1.00  0.00     0.194 HD
HETATM    5  O1  UNL     1     -33.254  -7.633 -13.479  1.00  0.00    -0.235 OA
HETATM    6  C3  UNL     1     -32.055  -7.065 -13.216  1.00  0.00     0.140 A 
HETATM    7  C15 UNL     1     -32.121  -5.794 -13.604  1.00  0.00     0.105 A 
HETATM    8  C16 UNL     1     -31.128  -4.784 -13.626  1.00  0.00     0.104 C 
HETATM    9  N5  UNL     1     -30.323  -3.957 -13.677  1.00  0.00    -0.191 NA
ENDROOT
BRANCH   6  10
HETATM   10  C4  UNL     1     -30.981  -7.876 -12.614  1.00  0.00     0.068 A 
HETATM   11  S1  UNL     1     -31.205  -8.763 -11.098  1.00  0.00    -0.049 SA
HETATM   12  C5  UNL     1     -29.725  -9.572 -11.067  1.00  0.00     0.154 A 
HETATM   13  N2  UNL     1     -29.263 -10.424 -10.169  1.00  0.00    -0.277 N 
HETATM   14  N4  UNL     1     -29.124  -9.153 -12.173  1.00  0.00    -0.339 N 
HETATM   15  C6  UNL     1     -27.936 -10.982 -10.386  1.00  0.00     0.396 C 
ATOM     16  H2  UNL     1     -29.816 -10.681  -9.353  1.00  0.00     0.173 HD
HETATM   17  O2  UNL     1     -27.951 -11.994 -11.106  1.00  0.00    -0.230 OA
HETATM   18  N3  UNL     1     -26.863 -10.367  -9.809  1.00  0.00    -0.369 NA
HETATM   19  C13 UNL     1     -29.750  -8.300 -12.954  1.00  0.00     0.027 A 
ATOM     20  H4  UNL     1     -28.191  -9.488 -12.415  1.00  0.00     0.168 HD
HETATM   21  C14 UNL     1     -29.023  -7.717 -14.173  1.00  0.00     0.070 C 
BRANCH  18  22
HETATM   22  C7  UNL     1     -25.792  -9.754  -9.232  1.00  0.00     0.367 C 
BRANCH  22  23
HETATM   23  C8  UNL     1     -25.206  -8.651 -10.077  1.00  0.00     0.221 C 
HETATM   24  O3  UNL     1     -25.754  -8.310 -11.111  1.00  0.00    -0.645 OA
HETATM   25  O4  UNL     1     -24.028  -8.071  -9.598  1.00  0.00    -0.645 OA
ENDBRANCH  22  23
BRANCH  22  26
HETATM   26  C9  UNL     1     -26.161  -9.061  -7.950  1.00  0.00     0.306 C 
HETATM   27  O5  UNL     1     -25.351  -9.059  -6.983  1.00  0.00    -0.261 OA
BRANCH  26  28
HETATM   28  O6  UNL     1     -27.358  -8.417  -7.777  1.00  0.00    -0.314 OA
BRANCH  28  29
HETATM   29  C10 UNL     1     -27.594  -7.058  -7.990  1.00  0.00     0.123 C 
HETATM   30  C11 UNL     1     -28.270  -6.333  -6.881  1.00  0.00     0.040 C 
HETATM   31  C12 UNL     1     -28.368  -6.816  -9.281  1.00  0.00     0.040 C 
ENDBRANCH  28  29
ENDBRANCH  26  28
ENDBRANCH  22  26
ENDBRANCH  18  22
ENDBRANCH   6  10
TORSDOF 6
ENDMDL
MODEL 3
REMARK VINA RESULT: -6.439604280      3.056      4.572
REMARK  6 active torsions:
REMARK  status: ('A' for Active; 'I' for Inactive)
REMARK    1  A    between atoms: C3_6  and  C4_7 
REMARK       I    between atoms: N2_10  and  C6_12 
REMARK       I    between atoms: C6_12  and  N3_14 
REMARK    2  A    between atoms: N3_14  and  C7_15 
REMARK    3  A    between atoms: C7_15  and  C8_16 
REMARK    4  A    between atoms: C7_15  and  C9_19 
REMARK    5  A    between atoms: C9_19  and  O6_21 
REMARK    6  A    between atoms: O6_21  and  C10_22 
ROOT
HETATM    1  C1  UNL     1     -35.249  -9.715 -15.697  1.00  0.00     0.072 C 
HETATM    2  C2  UNL     1     -34.459  -8.905 -14.741  1.00  0.00     0.052 A 
HETATM    3  N1  UNL     1     -34.602  -7.626 -14.374  1.00  0.00    -0.264 N 
ATOM      4  H1  UNL     1     -35.326  -7.003 -14.734  1.00  0.00     0.194 HD
HETATM    5  O1  UNL     1     -33.724  -7.285 -13.522  1.00  0.00    -0.235 OA
HETATM    6  C3  UNL     1     -32.921  -8.342 -13.263  1.00  0.00     0.140 A 
HETATM    7  C15 UNL     1     -33.352  -9.362 -14.001  1.00  0.00     0.105 A 
HETATM    8  C16 UNL     1     -32.921 -10.710 -14.052  1.00  0.00     0.104 C 
HETATM    9  N5  UNL     1     -32.601 -11.820 -14.085  1.00  0.00    -0.191 NA
ENDROOT
BRANCH   6  10
HETATM   10  C4  UNL     1     -31.819  -8.200 -12.293  1.00  0.00     0.068 A 
HETATM   11  S1  UNL     1     -30.502  -7.041 -12.525  1.00  0.00    -0.049 SA
HETATM   12  C5  UNL     1     -29.718  -7.263 -11.047  1.00  0.00     0.154 A 
HETATM   13  N2  UNL     1     -28.634  -6.668 -10.585  1.00  0.00    -0.277 N 
HETATM   14  N4  UNL     1     -30.457  -8.186 -10.445  1.00  0.00    -0.339 N 
HETATM   15  C6  UNL     1     -28.162  -7.053  -9.263  1.00  0.00     0.396 C 
ATOM     16  H2  UNL     1     -28.143  -5.963 -11.136  1.00  0.00     0.173 HD
HETATM   17  O2  UNL     1     -28.711  -6.411  -8.351  1.00  0.00    -0.230 OA
HETATM   18  N3  UNL     1     -27.216  -8.030  -9.162  1.00  0.00    -0.369 NA
HETATM   19  C13 UNL     1     -31.513  -8.661 -11.067  1.00  0.00     0.027 A 
ATOM     20  H4  UNL     1     -30.210  -8.521  -9.514  1.00  0.00     0.168 HD
HETATM   21  C14 UNL     1     -32.309  -9.811 -10.435  1.00  0.00     0.070 C 
BRANCH  18  22
HETATM   22  C7  UNL     1     -26.270  -9.006  -9.061  1.00  0.00     0.367 C 
BRANCH  22  23
HETATM   23  C8  UNL     1     -25.420  -8.890  -7.820  1.00  0.00     0.221 C 
HETATM   24  O3  UNL     1     -25.915  -8.529  -6.766  1.00  0.00    -0.645 OA
HETATM   25  O4  UNL     1     -24.070  -9.219  -7.969  1.00  0.00    -0.645 OA
ENDBRANCH  22  23
BRANCH  22  26
HETATM   26  C9  UNL     1     -26.881 -10.375  -8.945  1.00  0.00     0.306 C 
HETATM   27  O5  UNL     1     -27.136 -10.853  -7.805  1.00  0.00    -0.261 OA
BRANCH  26  28
HETATM   28  O6  UNL     1     -27.182 -11.144 -10.038  1.00  0.00    -0.314 OA
BRANCH  28  29
HETATM   29  C10 UNL     1     -28.323 -11.026 -10.833  1.00  0.00     0.123 C 
HETATM   30  C11 UNL     1     -29.065 -12.287 -11.099  1.00  0.00     0.040 C 
HETATM   31  C12 UNL     1     -28.016 -10.345 -12.162  1.00  0.00     0.040 C 
ENDBRANCH  28  29
ENDBRANCH  26  28
ENDBRANCH  22  26
ENDBRANCH  18  22
ENDBRANCH   6  10
TORSDOF 6
ENDMDL
MODEL 4
REMARK VINA RESULT: -6.313777779      2.781      4.114
REMARK  6 active torsions:
REMARK  status: ('A' for Active; 'I' for Inactive)
REMARK    1  A    between atoms: C3_6  and  C4_7 
REMARK       I    between atoms: N2_10  and  C6_12 
REMARK       I    between atoms: C6_12  and  N3_14 
REMARK    2  A    between atoms: N3_14  and  C7_15 
REMARK    3  A    between atoms: C7_15  and  C8_16 
REMARK    4  A    between atoms: C7_15  and  C9_19 
REMARK    5  A    between atoms: C9_19  and  O6_21 
REMARK    6  A    between atoms: O6_21  and  C10_22 
ROOT
HETATM    1  C1  UNL     1     -35.814  -7.959 -15.612  1.00  0.00     0.072 C 
HETATM    2  C2  UNL     1     -34.783  -8.499 -14.695  1.00  0.00     0.052 A 
HETATM    3  N1  UNL     1     -34.499  -9.766 -14.371  1.00  0.00    -0.264 N 
ATOM      4  H1  UNL     1     -34.993 -10.578 -14.742  1.00  0.00     0.194 HD
HETATM    5  O1  UNL     1     -33.538  -9.830 -13.544  1.00  0.00    -0.235 OA
HETATM    6  C3  UNL     1     -33.112  -8.578 -13.258  1.00  0.00     0.140 A 
HETATM    7  C15 UNL     1     -33.862  -7.731 -13.958  1.00  0.00     0.105 A 
HETATM    8  C16 UNL     1     -33.787  -6.323 -14.085  1.00  0.00     0.104 C 
HETATM    9  N5  UNL     1     -33.722  -5.177 -14.223  1.00  0.00    -0.191 NA
ENDROOT
BRANCH   6  10
HETATM   10  C4  UNL     1     -31.991  -8.387 -12.319  1.00  0.00     0.068 A 
HETATM   11  S1  UNL     1     -30.629  -7.315 -12.681  1.00  0.00    -0.049 SA
HETATM   12  C5  UNL     1     -29.833  -7.421 -11.197  1.00  0.00     0.154 A 
HETATM   13  N2  UNL     1     -28.718  -6.830 -10.809  1.00  0.00    -0.277 N 
HETATM   14  N4  UNL     1     -30.602  -8.245 -10.497  1.00  0.00    -0.339 N 
HETATM   15  C6  UNL     1     -28.244  -7.099  -9.460  1.00  0.00     0.396 C 
ATOM     16  H2  UNL     1     -28.207  -6.207 -11.434  1.00  0.00     0.173 HD
HETATM   17  O2  UNL     1     -28.751  -6.345  -8.612  1.00  0.00    -0.230 OA
HETATM   18  N3  UNL     1     -27.339  -8.102  -9.269  1.00  0.00    -0.369 NA
HETATM   19  C13 UNL     1     -31.686  -8.734 -11.055  1.00  0.00     0.027 A 
ATOM     20  H4  UNL     1     -30.356  -8.494  -9.538  1.00  0.00     0.168 HD
HETATM   21  C14 UNL     1     -32.521  -9.778 -10.301  1.00  0.00     0.070 C 
BRANCH  18  22
HETATM   22  C7  UNL     1     -26.434  -9.103  -9.079  1.00  0.00     0.367 C 
BRANCH  22  23
HETATM   23  C8  UNL     1     -25.678  -8.987  -7.780  1.00  0.00     0.221 C 
HETATM   24  O3  UNL     1     -26.261  -8.688  -6.752  1.00  0.00    -0.645 OA
HETATM   25  O4  UNL     1     -24.305  -9.242  -7.844  1.00  0.00    -0.645 OA
ENDBRANCH  22  23
BRANCH  22  26
HETATM   26  C9  UNL     1     -27.093 -10.450  -8.988  1.00  0.00     0.306 C 
HETATM   27  O5  UNL     1     -27.429 -10.908  -7.860  1.00  0.00    -0.261 OA
BRANCH  26  28
HETATM   28  O6  UNL     1     -27.355 -11.222 -10.089  1.00  0.00    -0.314 OA
BRANCH  28  29
HETATM   29  C10 UNL     1     -28.492 -11.141 -10.894  1.00  0.00     0.123 C 
HETATM   30  C11 UNL     1     -29.208 -12.420 -11.141  1.00  0.00     0.040 C 
HETATM   31  C12 UNL     1     -28.188 -10.479 -12.234  1.00  0.00     0.040 C 
ENDBRANCH  28  29
ENDBRANCH  26  28
ENDBRANCH  22  26
ENDBRANCH  18  22
ENDBRANCH   6  10
TORSDOF 6
ENDMDL
MODEL 5
REMARK VINA RESULT: -6.208628142      3.763      4.980
REMARK  6 active torsions:
REMARK  status: ('A' for Active; 'I' for Inactive)
REMARK    1  A    between atoms: C3_6  and  C4_7 
REMARK       I    between atoms: N2_10  and  C6_12 
REMARK       I    between atoms: C6_12  and  N3_14 
REMARK    2  A    between atoms: N3_14  and  C7_15 
REMARK    3  A    between atoms: C7_15  and  C8_16 
REMARK    4  A    between atoms: C7_15  and  C9_19 
REMARK    5  A    between atoms: C9_19  and  O6_21 
REMARK    6  A    between atoms: O6_21  and  C10_22 
ROOT
HETATM    1  C1  UNL     1     -33.974 -12.881 -16.014  1.00  0.00     0.072 C 
HETATM    2  C2  UNL     1     -33.565 -11.718 -15.193  1.00  0.00     0.052 A 
HETATM    3  N1  UNL     1     -34.094 -10.490 -15.117  1.00  0.00    -0.264 N 
ATOM      4  H1  UNL     1     -34.903 -10.179 -15.654  1.00  0.00     0.194 HD
HETATM    5  O1  UNL     1     -33.461  -9.762 -14.291  1.00  0.00    -0.235 OA
HETATM    6  C3  UNL     1     -32.446 -10.477 -13.753  1.00  0.00     0.140 A 
HETATM    7  C15 UNL     1     -32.485 -11.694 -14.289  1.00  0.00     0.105 A 
HETATM    8  C16 UNL     1     -31.706 -12.845 -14.022  1.00  0.00     0.104 C 
HETATM    9  N5  UNL     1     -31.098 -13.801 -13.795  1.00  0.00    -0.191 NA
ENDROOT
BRANCH   6  10
HETATM   10  C4  UNL     1     -31.562  -9.849 -12.753  1.00  0.00     0.068 A 
HETATM   11  S1  UNL     1     -29.883  -9.422 -13.113  1.00  0.00    -0.049 SA
HETATM   12  C5  UNL     1     -29.516  -8.631 -11.668  1.00  0.00     0.154 A 
HETATM   13  N2  UNL     1     -28.386  -8.056 -11.301  1.00  0.00    -0.277 N 
HETATM   14  N4  UNL     1     -30.646  -8.717 -10.978  1.00  0.00    -0.339 N 
HETATM   15  C6  UNL     1     -28.338  -7.439  -9.983  1.00  0.00     0.396 C 
ATOM     16  H2  UNL     1     -27.575  -8.044 -11.919  1.00  0.00     0.173 HD
HETATM   17  O2  UNL     1     -28.749  -6.267  -9.985  1.00  0.00    -0.230 OA
HETATM   18  N3  UNL     1     -27.873  -8.174  -8.931  1.00  0.00    -0.369 NA
HETATM   19  C13 UNL     1     -31.677  -9.329 -11.518  1.00  0.00     0.027 A 
ATOM     20  H4  UNL     1     -30.714  -8.314 -10.043  1.00  0.00     0.168 HD
HETATM   21  C14 UNL     1     -32.950  -9.539 -10.688  1.00  0.00     0.070 C 
BRANCH  18  22
HETATM   22  C7  UNL     1     -27.407  -8.907  -7.881  1.00  0.00     0.367 C 
BRANCH  22  23
HETATM   23  C8  UNL     1     -27.458 -10.395  -8.120  1.00  0.00     0.221 C 
HETATM   24  O3  UNL     1     -27.016 -10.868  -9.153  1.00  0.00    -0.645 OA
HETATM   25  O4  UNL     1     -28.030 -11.160  -7.100  1.00  0.00    -0.645 OA
ENDBRANCH  22  23
BRANCH  22  26
HETATM   26  C9  UNL     1     -25.953  -8.641  -7.609  1.00  0.00     0.306 C 
HETATM   27  O5  UNL     1     -25.463  -8.931  -6.482  1.00  0.00    -0.261 OA
BRANCH  26  28
HETATM   28  O6  UNL     1     -25.115  -8.089  -8.542  1.00  0.00    -0.314 OA
BRANCH  28  29
HETATM   29  C10 UNL     1     -24.080  -8.750  -9.205  1.00  0.00     0.123 C 
HETATM   30  C11 UNL     1     -22.788  -8.017  -9.290  1.00  0.00     0.040 C 
HETATM   31  C12 UNL     1     -24.493  -9.183 -10.607  1.00  0.00     0.040 C 
ENDBRANCH  28  29
ENDBRANCH  26  28
ENDBRANCH  22  26
ENDBRANCH  18  22
ENDBRANCH   6  10
TORSDOF 6
ENDMDL
