MODEL 1
REMARK VINA RESULT: -6.241954809      0.000      0.000
REMARK  6 active torsions:
REMARK  status: ('A' for Active; 'I' for Inactive)
REMARK    1  A    between atoms: C3_5  and  C4_6 
REMARK    2  A    between atoms: C11_19  and  N4_20 
REMARK    3  A    between atoms: N4_20  and  N5_22 
REMARK    4  A    between atoms: N5_22  and  C12_23 
REMARK    5  A    between atoms: C12_23  and  C13_24 
REMARK    6  A    between atoms: C12_23  and  C14_27 
ROOT
HETATM    1  C1  UNL     1     -24.723 -13.121 -14.759  1.00  0.00     0.076 C 
HETATM    2  C2  UNL     1     -25.125 -12.166 -13.651  1.00  0.00     0.049 A 
HETATM    3  N1  UNL     1     -26.267 -11.574 -13.461  1.00  0.00    -0.349 N 
ATOM      4  H1  UNL     1     -27.032 -11.737 -14.115  1.00  0.00     0.166 HD
HETATM    5  C3  UNL     1     -26.450 -10.766 -12.435  1.00  0.00     0.113 A 
HETATM    6  C11 UNL     1     -25.386 -10.591 -11.598  1.00  0.00     0.118 A 
HETATM    7  S2  UNL     1     -24.191 -11.606 -12.349  1.00  0.00    -0.056 SA
ENDROOT
BRANCH   5   8
HETATM    8  C4  UNL     1     -27.783 -10.099 -12.247  1.00  0.00     0.139 A 
HETATM    9  N2  UNL     1     -28.825 -10.715 -11.718  1.00  0.00    -0.307 N 
HETATM   10  C5  UNL     1     -30.031 -10.163 -11.531  1.00  0.00     0.256 A 
ATOM     11  H2  UNL     1     -28.703 -11.686 -11.430  1.00  0.00     0.170 HD
HETATM   12  O1  UNL     1     -30.981 -10.820 -11.017  1.00  0.00    -0.268 OA
HETATM   13  C6  UNL     1     -30.228  -8.831 -11.916  1.00  0.00     0.044 A 
HETATM   14  C7  UNL     1     -29.167  -8.206 -12.453  1.00  0.00     0.083 A 
HETATM   15  C10 UNL     1     -31.470  -8.083 -11.782  1.00  0.00     0.062 C 
HETATM   16  N3  UNL     1     -27.970  -8.822 -12.617  1.00  0.00    -0.334 N 
HETATM   17  S1  UNL     1     -29.680  -6.532 -12.859  1.00  0.00    -0.107 SA
ATOM     18  H3  UNL     1     -27.195  -8.303 -13.030  1.00  0.00     0.168 HD
HETATM   19  C8  UNL     1     -31.463  -6.832 -12.535  1.00  0.00     0.054 C 
HETATM   20  C9  UNL     1     -32.261  -6.811 -13.795  1.00  0.00     0.022 C 
ENDBRANCH   5   8
BRANCH   6  21
HETATM   21  N4  UNL     1     -25.205  -9.812 -10.411  1.00  0.00    -0.295 N 
ATOM     22  H4  UNL     1     -24.712 -10.222  -9.617  1.00  0.00     0.183 HD
BRANCH  21  23
HETATM   23  N5  UNL     1     -25.685  -8.508 -10.313  1.00  0.00    -0.124 NA
BRANCH  23  24
HETATM   24  C12 UNL     1     -25.647  -7.981  -8.988  1.00  0.00     0.217 C 
BRANCH  24  25
HETATM   25  C13 UNL     1     -24.499  -8.565  -8.250  1.00  0.00     0.254 C 
HETATM   26  N6  UNL     1     -24.666  -9.626  -7.308  1.00  0.00    -0.060 NA
HETATM   27  O2  UNL     1     -23.345  -8.113  -8.460  1.00  0.00    -0.275 OA
ENDBRANCH  24  25
BRANCH  24  28
HETATM   28  C14 UNL     1     -26.894  -8.381  -8.188  1.00  0.00     0.151 C 
HETATM   29  C15 UNL     1     -28.137  -8.248  -9.012  1.00  0.00     0.036 C 
HETATM   30  C16 UNL     1     -28.499  -6.802  -8.848  1.00  0.00     0.029 C 
HETATM   31  C17 UNL     1     -27.748  -6.395  -7.618  1.00  0.00     0.168 C 
HETATM   32  O3  UNL     1     -27.101  -7.526  -7.134  1.00  0.00    -0.384 OA
ENDBRANCH  24  28
ENDBRANCH  23  24
ENDBRANCH  21  23
ENDBRANCH   6  21
TORSDOF 6
ENDMDL
MODEL 2
REMARK VINA RESULT: -6.193824687      1.516      1.953
REMARK  6 active torsions:
REMARK  status: ('A' for Active; 'I' for Inactive)
REMARK    1  A    between atoms: C3_5  and  C4_6 
REMARK    2  A    between atoms: C11_19  and  N4_20 
REMARK    3  A    between atoms: N4_20  and  N5_22 
REMARK    4  A    between atoms: N5_22  and  C12_23 
REMARK    5  A    between atoms: C12_23  and  C13_24 
REMARK    6  A    between atoms: C12_23  and  C14_27 
ROOT
HETATM    1  C1  UNL     1     -24.195 -13.180 -14.716  1.00  0.00     0.076 C 
HETATM    2  C2  UNL     1     -24.753 -12.267 -13.640  1.00  0.00     0.049 A 
HETATM    3  N1  UNL     1     -25.947 -11.766 -13.537  1.00  0.00    -0.349 N 
ATOM      4  H1  UNL     1     -26.646 -11.982 -14.248  1.00  0.00     0.166 HD
HETATM    5  C3  UNL     1     -26.270 -10.981 -12.528  1.00  0.00     0.113 A 
HETATM    6  C11 UNL     1     -25.289 -10.731 -11.612  1.00  0.00     0.118 A 
HETATM    7  S2  UNL     1     -23.966 -11.646 -12.271  1.00  0.00    -0.056 SA
ENDROOT
BRANCH   5   8
HETATM    8  C4  UNL     1     -27.660 -10.419 -12.441  1.00  0.00     0.139 A 
HETATM    9  N2  UNL     1     -27.929  -9.137 -12.619  1.00  0.00    -0.307 N 
HETATM   10  C5  UNL     1     -29.149  -8.591 -12.551  1.00  0.00     0.256 A 
ATOM     11  H2  UNL     1     -27.146  -8.516 -12.824  1.00  0.00     0.170 HD
HETATM   12  O1  UNL     1     -29.325  -7.352 -12.734  1.00  0.00    -0.268 OA
HETATM   13  C6  UNL     1     -30.243  -9.419 -12.273  1.00  0.00     0.044 A 
HETATM   14  C7  UNL     1     -29.968 -10.722 -12.092  1.00  0.00     0.083 A 
HETATM   15  C10 UNL     1     -31.630  -8.989 -12.165  1.00  0.00     0.062 C 
HETATM   16  N3  UNL     1     -28.708 -11.215 -12.174  1.00  0.00    -0.334 N 
HETATM   17  S1  UNL     1     -31.524 -11.555 -11.750  1.00  0.00    -0.107 SA
ATOM     18  H3  UNL     1     -28.552 -12.212 -12.029  1.00  0.00     0.168 HD
HETATM   19  C8  UNL     1     -32.496 -10.007 -11.576  1.00  0.00     0.054 C 
HETATM   20  C9  UNL     1     -32.921  -9.780 -10.165  1.00  0.00     0.022 C 
ENDBRANCH   5   8
BRANCH   6  21
HETATM   21  N4  UNL     1     -25.259  -9.948 -10.413  1.00  0.00    -0.295 N 
ATOM     22  H4  UNL     1     -24.933 -10.377  -9.547  1.00  0.00     0.183 HD
BRANCH  21  23
HETATM   23  N5  UNL     1     -25.664  -8.615 -10.401  1.00  0.00    -0.124 NA
BRANCH  23  24
HETATM   24  C12 UNL     1     -25.719  -8.044  -9.095  1.00  0.00     0.217 C 
BRANCH  24  25
HETATM   25  C13 UNL     1     -24.608  -8.579  -8.269  1.00  0.00     0.254 C 
HETATM   26  N6  UNL     1     -24.815  -9.601  -7.292  1.00  0.00    -0.060 NA
HETATM   27  O2  UNL     1     -23.450  -8.119  -8.433  1.00  0.00    -0.275 OA
ENDBRANCH  24  25
BRANCH  24  28
HETATM   28  C14 UNL     1     -27.005  -8.445  -8.360  1.00  0.00     0.151 C 
HETATM   29  C15 UNL     1     -28.207  -8.292  -9.240  1.00  0.00     0.036 C 
HETATM   30  C16 UNL     1     -28.565  -6.845  -9.074  1.00  0.00     0.029 C 
HETATM   31  C17 UNL     1     -27.871  -6.460  -7.804  1.00  0.00     0.168 C 
HETATM   32  O3  UNL     1     -27.255  -7.602  -7.305  1.00  0.00    -0.384 OA
ENDBRANCH  24  28
ENDBRANCH  23  24
ENDBRANCH  21  23
ENDBRANCH   6  21
TORSDOF 6
ENDMDL
MODEL 3
REMARK VINA RESULT: -6.091596057      2.691      6.924
REMARK  6 active torsions:
REMARK  status: ('A' for Active; 'I' for Inactive)
REMARK    1  A    between atoms: C3_5  and  C4_6 
REMARK    2  A    between atoms: C11_19  and  N4_20 
REMARK    3  A    between atoms: N4_20  and  N5_22 
REMARK    4  A    between atoms: N5_22  and  C12_23 
REMARK    5  A    between atoms: C12_23  and  C13_24 
REMARK    6  A    between atoms: C12_23  and  C14_27 
ROOT
HETATM    1  C1  UNL     1     -31.271  -4.603 -13.369  1.00  0.00     0.076 C 
HETATM    2  C2  UNL     1     -30.949  -5.874 -12.606  1.00  0.00     0.049 A 
HETATM    3  N1  UNL     1     -29.932  -6.125 -11.836  1.00  0.00    -0.349 N 
ATOM      4  H1  UNL     1     -29.224  -5.405 -11.688  1.00  0.00     0.166 HD
HETATM    5  C3  UNL     1     -29.803  -7.295 -11.242  1.00  0.00     0.113 A 
HETATM    6  C11 UNL     1     -30.785  -8.212 -11.482  1.00  0.00     0.118 A 
HETATM    7  S2  UNL     1     -31.830  -7.323 -12.549  1.00  0.00    -0.056 SA
ENDROOT
BRANCH   5   8
HETATM    8  C4  UNL     1     -28.615  -7.550 -10.359  1.00  0.00     0.139 A 
HETATM    9  N2  UNL     1     -28.524  -7.082  -9.126  1.00  0.00    -0.307 N 
HETATM   10  C5  UNL     1     -27.487  -7.282  -8.304  1.00  0.00     0.256 A 
ATOM     11  H2  UNL     1     -29.303  -6.525  -8.776  1.00  0.00     0.170 HD
HETATM   12  O1  UNL     1     -27.474  -6.799  -7.135  1.00  0.00    -0.268 OA
HETATM   13  C6  UNL     1     -26.404  -8.044  -8.758  1.00  0.00     0.044 A 
HETATM   14  C7  UNL     1     -26.498  -8.520 -10.011  1.00  0.00     0.083 A 
HETATM   15  C10 UNL     1     -25.204  -8.357  -7.994  1.00  0.00     0.062 C 
HETATM   16  N3  UNL     1     -27.577  -8.281 -10.797  1.00  0.00    -0.334 N 
HETATM   17  S1  UNL     1     -24.997  -9.448 -10.347  1.00  0.00    -0.107 SA
ATOM     18  H3  UNL     1     -27.601  -8.665 -11.741  1.00  0.00     0.168 HD
HETATM   19  C8  UNL     1     -24.132  -8.904  -8.820  1.00  0.00     0.054 C 
HETATM   20  C9  UNL     1     -22.997  -7.987  -9.129  1.00  0.00     0.022 C 
ENDBRANCH   5   8
BRANCH   6  21
HETATM   21  N4  UNL     1     -30.988  -9.556 -11.030  1.00  0.00    -0.295 N 
ATOM     22  H4  UNL     1     -31.138  -9.729 -10.036  1.00  0.00     0.183 HD
BRANCH  21  23
HETATM   23  N5  UNL     1     -30.984 -10.632 -11.915  1.00  0.00    -0.124 NA
BRANCH  23  24
HETATM   24  C12 UNL     1     -30.274 -11.771 -11.430  1.00  0.00     0.217 C 
BRANCH  24  25
HETATM   25  C13 UNL     1     -28.907 -11.368 -11.016  1.00  0.00     0.254 C 
HETATM   26  N6  UNL     1     -28.513 -11.325  -9.642  1.00  0.00    -0.060 NA
HETATM   27  O2  UNL     1     -28.069 -11.055 -11.899  1.00  0.00    -0.275 OA
ENDBRANCH  24  25
BRANCH  24  28
HETATM   28  C14 UNL     1     -30.075 -12.820 -12.532  1.00  0.00     0.151 C 
HETATM   29  C15 UNL     1     -31.383 -13.239 -13.129  1.00  0.00     0.036 C 
HETATM   30  C16 UNL     1     -31.853 -14.313 -12.194  1.00  0.00     0.029 C 
HETATM   31  C17 UNL     1     -30.603 -14.720 -11.478  1.00  0.00     0.168 C 
HETATM   32  O3  UNL     1     -29.555 -13.983 -12.020  1.00  0.00    -0.384 OA
ENDBRANCH  24  28
ENDBRANCH  23  24
ENDBRANCH  21  23
ENDBRANCH   6  21
TORSDOF 6
ENDMDL
MODEL 4
REMARK VINA RESULT: -5.973830407      2.528      7.088
REMARK  6 active torsions:
REMARK  status: ('A' for Active; 'I' for Inactive)
REMARK    1  A    between atoms: C3_5  and  C4_6 
REMARK    2  A    between atoms: C11_19  and  N4_20 
REMARK    3  A    between atoms: N4_20  and  N5_22 
REMARK    4  A    between atoms: N5_22  and  C12_23 
REMARK    5  A    between atoms: C12_23  and  C13_24 
REMARK    6  A    between atoms: C12_23  and  C14_27 
ROOT
HETATM    1  C1  UNL     1     -31.374  -3.817 -13.416  1.00  0.00     0.076 C 
HETATM    2  C2  UNL     1     -31.026  -5.201 -12.902  1.00  0.00     0.049 A 
HETATM    3  N1  UNL     1     -30.087  -5.548 -12.072  1.00  0.00    -0.349 N 
ATOM      4  H1  UNL     1     -29.472  -4.834 -11.682  1.00  0.00     0.166 HD
HETATM    5  C3  UNL     1     -29.918  -6.810 -11.727  1.00  0.00     0.113 A 
HETATM    6  C11 UNL     1     -30.776  -7.715 -12.285  1.00  0.00     0.118 A 
HETATM    7  S2  UNL     1     -31.767  -6.682 -13.271  1.00  0.00    -0.056 SA
ENDROOT
BRANCH   5   8
HETATM    8  C4  UNL     1     -28.824  -7.175 -10.766  1.00  0.00     0.139 A 
HETATM    9  N2  UNL     1     -28.790  -6.740  -9.518  1.00  0.00    -0.307 N 
HETATM   10  C5  UNL     1     -27.836  -7.038  -8.627  1.00  0.00     0.256 A 
ATOM     11  H2  UNL     1     -29.548  -6.131  -9.211  1.00  0.00     0.170 HD
HETATM   12  O1  UNL     1     -27.874  -6.581  -7.448  1.00  0.00    -0.268 OA
HETATM   13  C6  UNL     1     -26.784  -7.873  -9.020  1.00  0.00     0.044 A 
HETATM   14  C7  UNL     1     -26.820  -8.314 -10.288  1.00  0.00     0.083 A 
HETATM   15  C10 UNL     1     -25.672  -8.294  -8.179  1.00  0.00     0.062 C 
HETATM   16  N3  UNL     1     -27.815  -7.976 -11.145  1.00  0.00    -0.334 N 
HETATM   17  S1  UNL     1     -25.373  -9.351 -10.537  1.00  0.00    -0.107 SA
ATOM     18  H3  UNL     1     -27.797  -8.338 -12.098  1.00  0.00     0.168 HD
HETATM   19  C8  UNL     1     -24.586  -8.907  -8.938  1.00  0.00     0.054 C 
HETATM   20  C9  UNL     1     -23.364  -8.075  -9.138  1.00  0.00     0.022 C 
ENDBRANCH   5   8
BRANCH   6  21
HETATM   21  N4  UNL     1     -30.903  -9.135 -12.158  1.00  0.00    -0.295 N 
ATOM     22  H4  UNL     1     -31.744  -9.523 -11.731  1.00  0.00     0.183 HD
BRANCH  21  23
HETATM   23  N5  UNL     1     -29.905 -10.000 -12.604  1.00  0.00    -0.124 NA
BRANCH  23  24
HETATM   24  C12 UNL     1     -30.302 -11.370 -12.624  1.00  0.00     0.217 C 
BRANCH  24  25
HETATM   25  C13 UNL     1     -31.783 -11.462 -12.615  1.00  0.00     0.254 C 
HETATM   26  N6  UNL     1     -32.524 -11.631 -11.405  1.00  0.00    -0.060 NA
HETATM   27  O2  UNL     1     -32.405 -11.390 -13.705  1.00  0.00    -0.275 OA
ENDBRANCH  24  25
BRANCH  24  28
HETATM   28  C14 UNL     1     -29.838 -12.108 -11.361  1.00  0.00     0.151 C 
HETATM   29  C15 UNL     1     -28.505 -11.610 -10.896  1.00  0.00     0.036 C 
HETATM   30  C16 UNL     1     -27.540 -12.413 -11.716  1.00  0.00     0.029 C 
HETATM   31  C17 UNL     1     -28.363 -13.574 -12.182  1.00  0.00     0.168 C 
HETATM   32  O3  UNL     1     -29.626 -13.440 -11.616  1.00  0.00    -0.384 OA
ENDBRANCH  24  28
ENDBRANCH  23  24
ENDBRANCH  21  23
ENDBRANCH   6  21
TORSDOF 6
ENDMDL
MODEL 5
REMARK VINA RESULT: -5.910802774      2.937      7.597
REMARK  6 active torsions:
REMARK  status: ('A' for Active; 'I' for Inactive)
REMARK    1  A    between atoms: C3_5  and  C4_6 
REMARK    2  A    between atoms: C11_19  and  N4_20 
REMARK    3  A    between atoms: N4_20  and  N5_22 
REMARK    4  A    between atoms: N5_22  and  C12_23 
REMARK    5  A    between atoms: C12_23  and  C13_24 
REMARK    6  A    between atoms: C12_23  and  C14_27 
ROOT
HETATM    1  C1  UNL     1     -31.051  -4.108 -13.587  1.00  0.00     0.076 C 
HETATM    2  C2  UNL     1     -30.839  -5.411 -12.840  1.00  0.00     0.049 A 
HETATM    3  N1  UNL     1     -29.875  -5.737 -12.032  1.00  0.00    -0.349 N 
ATOM      4  H1  UNL     1     -29.133  -5.064 -11.837  1.00  0.00     0.166 HD
HETATM    5  C3  UNL     1     -29.840  -6.925 -11.459  1.00  0.00     0.113 A 
HETATM    6  C11 UNL     1     -30.863  -7.777 -11.763  1.00  0.00     0.118 A 
HETATM    7  S2  UNL     1     -31.804  -6.806 -12.854  1.00  0.00    -0.056 SA
ENDROOT
BRANCH   5   8
HETATM    8  C4  UNL     1     -28.711  -7.268 -10.531  1.00  0.00     0.139 A 
HETATM    9  N2  UNL     1     -28.647  -6.828  -9.286  1.00  0.00    -0.307 N 
HETATM   10  C5  UNL     1     -27.661  -7.106  -8.423  1.00  0.00     0.256 A 
ATOM     11  H2  UNL     1     -29.406  -6.231  -8.958  1.00  0.00     0.170 HD
HETATM   12  O1  UNL     1     -27.672  -6.646  -7.245  1.00  0.00    -0.268 OA
HETATM   13  C6  UNL     1     -26.607  -7.924  -8.846  1.00  0.00     0.044 A 
HETATM   14  C7  UNL     1     -26.674  -8.370 -10.111  1.00  0.00     0.083 A 
HETATM   15  C10 UNL     1     -25.463  -8.322  -8.037  1.00  0.00     0.062 C 
HETATM   16  N3  UNL     1     -27.700  -8.052 -10.938  1.00  0.00    -0.334 N 
HETATM   17  S1  UNL     1     -25.217  -9.382 -10.400  1.00  0.00    -0.107 SA
ATOM     18  H3  UNL     1     -27.705  -8.417 -11.891  1.00  0.00     0.168 HD
HETATM   19  C8  UNL     1     -24.390  -8.919  -8.827  1.00  0.00     0.054 C 
HETATM   20  C9  UNL     1     -23.189  -8.067  -9.067  1.00  0.00     0.022 C 
ENDBRANCH   5   8
BRANCH   6  21
HETATM   21  N4  UNL     1     -31.164  -9.115 -11.350  1.00  0.00    -0.295 N 
ATOM     22  H4  UNL     1     -30.436  -9.828 -11.404  1.00  0.00     0.183 HD
BRANCH  21  23
HETATM   23  N5  UNL     1     -32.426  -9.466 -10.876  1.00  0.00    -0.124 NA
BRANCH  23  24
HETATM   24  C12 UNL     1     -32.982 -10.611 -11.520  1.00  0.00     0.217 C 
BRANCH  24  25
HETATM   25  C13 UNL     1     -31.913 -11.351 -12.236  1.00  0.00     0.254 C 
HETATM   26  N6  UNL     1     -31.589 -11.080 -13.601  1.00  0.00    -0.060 NA
HETATM   27  O2  UNL     1     -31.274 -12.243 -11.624  1.00  0.00    -0.275 OA
ENDBRANCH  24  25
BRANCH  24  28
HETATM   28  C14 UNL     1     -33.996 -10.210 -12.600  1.00  0.00     0.151 C 
HETATM   29  C15 UNL     1     -34.846  -9.062 -12.152  1.00  0.00     0.036 C 
HETATM   30  C16 UNL     1     -35.940  -9.733 -11.376  1.00  0.00     0.029 C 
HETATM   31  C17 UNL     1     -35.882 -11.151 -11.851  1.00  0.00     0.168 C 
HETATM   32  O3  UNL     1     -34.898 -11.220 -12.831  1.00  0.00    -0.384 OA
ENDBRANCH  24  28
ENDBRANCH  23  24
ENDBRANCH  21  23
ENDBRANCH   6  21
TORSDOF 6
ENDMDL
