MODEL 1
REMARK VINA RESULT: -5.892271892      0.000      0.000
REMARK  8 active torsions:
REMARK  status: ('A' for Active; 'I' for Inactive)
REMARK    1  A    between atoms: O1_2  and  C2_3 
REMARK    2  A    between atoms: C2_3  and  C3_5 
REMARK    3  A    between atoms: C5_8  and  C6_9 
REMARK    4  A    between atoms: C7_14  and  O5_15 
REMARK    5  A    between atoms: C9_20  and  C10_21 
REMARK    6  A    between atoms: C10_21  and  N3_22 
REMARK       I    between atoms: N3_22  and  C11_24 
REMARK       I    between atoms: C11_24  and  N5_28 
REMARK    7  A    between atoms: N5_28  and  S3_30 
REMARK    8  A    between atoms: S3_30  and  C12_33 
ROOT
HETATM    1  C3  UNL     1       8.838  15.608 -14.827  1.00  0.00     0.161 C 
HETATM    2  C4  UNL     1       9.599  14.933 -13.721  1.00  0.00     0.178 C 
HETATM    3  O3  UNL     1       9.396  14.761 -12.537  1.00  0.00    -0.294 OA
HETATM    4  C5  UNL     1      10.686  14.586 -14.728  1.00  0.00     0.165 C 
HETATM    5  S1  UNL     1      10.246  12.845 -15.163  1.00  0.00    -0.066 SA
HETATM    6  S2  UNL     1       8.092  12.944 -15.063  1.00  0.00    -0.054 SA
HETATM    7  C7  UNL     1       7.736  14.705 -15.328  1.00  0.00     0.155 C 
HETATM    8  C8  UNL     1       7.461  14.894 -16.790  1.00  0.00     0.166 C 
HETATM    9  N2  UNL     1       8.518  15.571 -17.449  1.00  0.00    -0.411 N 
ATOM     10  H2  UNL     1       8.348  16.297 -18.145  1.00  0.00     0.153 HD
HETATM   11  C9  UNL     1       9.857  15.163 -17.069  1.00  0.00     0.103 C 
HETATM   12  C13 UNL     1      10.093  15.587 -15.638  1.00  0.00     0.075 C 
ENDROOT
BRANCH  11  13
HETATM   13  C10 UNL     1      10.782  15.915 -18.000  1.00  0.00     0.163 C 
BRANCH  13  14
HETATM   14  N3  UNL     1      10.373  17.233 -18.322  1.00  0.00    -0.224 N 
HETATM   15  C11 UNL     1      11.283  18.317 -18.179  1.00  0.00     0.681 C 
HETATM   16  N4  UNL     1      10.799  19.467 -17.855  1.00  0.00    -0.234 N 
HETATM   17  N5  UNL     1      12.690  18.179 -18.378  1.00  0.00    -0.116 N 
ATOM     18  H42 UNL     1       9.794  19.565 -17.713  1.00  0.00     0.174 HD
ATOM     19  H41 UNL     1      11.452  20.244 -17.752  1.00  0.00     0.174 HD
ATOM     20  H5  UNL     1      13.208  17.497 -17.823  1.00  0.00     0.197 HD
ATOM     21  H3  UNL     1       9.425  17.404 -18.657  1.00  0.00     0.177 HD
BRANCH  17  22
HETATM   22  S3  UNL     1      13.533  19.137 -19.530  1.00  0.00     0.257 S 
HETATM   23  O6  UNL     1      14.565  19.949 -18.814  1.00  0.00    -0.204 OA
HETATM   24  O7  UNL     1      12.553  20.099 -20.135  1.00  0.00    -0.204 OA
BRANCH  22  25
HETATM   25  C12 UNL     1      14.289  18.135 -20.787  1.00  0.00     0.278 C 
HETATM   26 CL1  UNL     1      13.939  16.413 -20.521  1.00  0.00    -0.113 Cl
ENDBRANCH  22  25
ENDBRANCH  17  22
ENDBRANCH  13  14
ENDBRANCH  11  13
BRANCH   1  27
HETATM   27  C2  UNL     1       8.407  16.977 -14.457  1.00  0.00     0.279 C 
HETATM   28  O2  UNL     1       7.707  17.236 -13.450  1.00  0.00    -0.264 OA
BRANCH  27  29
HETATM   29  O1  UNL     1       8.771  18.089 -15.243  1.00  0.00    -0.325 OA
HETATM   30  C1  UNL     1       7.804  18.839 -15.953  1.00  0.00     0.213 C 
ENDBRANCH  27  29
ENDBRANCH   1  27
BRANCH   4  31
HETATM   31  C6  UNL     1      12.016  14.762 -14.160  1.00  0.00     0.259 C 
HETATM   32  N1  UNL     1      12.475  13.686 -13.298  1.00  0.00    -0.060 NA
HETATM   33  O4  UNL     1      12.793  15.706 -14.316  1.00  0.00    -0.275 OA
ENDBRANCH   4  31
BRANCH   7  34
HETATM   34  O5  UNL     1       6.600  15.003 -14.558  1.00  0.00    -0.375 OA
ATOM     35  H5  UNL     1       6.028  14.247 -14.620  1.00  0.00     0.211 HD
ENDBRANCH   7  34
TORSDOF 8
ENDMDL
MODEL 2
REMARK VINA RESULT: -5.750996792      1.774      2.024
REMARK  8 active torsions:
REMARK  status: ('A' for Active; 'I' for Inactive)
REMARK    1  A    between atoms: O1_2  and  C2_3 
REMARK    2  A    between atoms: C2_3  and  C3_5 
REMARK    3  A    between atoms: C5_8  and  C6_9 
REMARK    4  A    between atoms: C7_14  and  O5_15 
REMARK    5  A    between atoms: C9_20  and  C10_21 
REMARK    6  A    between atoms: C10_21  and  N3_22 
REMARK       I    between atoms: N3_22  and  C11_24 
REMARK       I    between atoms: C11_24  and  N5_28 
REMARK    7  A    between atoms: N5_28  and  S3_30 
REMARK    8  A    between atoms: S3_30  and  C12_33 
ROOT
HETATM    1  C3  UNL     1       9.243  15.556 -14.511  1.00  0.00     0.161 C 
HETATM    2  C4  UNL     1      10.157  14.749 -13.633  1.00  0.00     0.178 C 
HETATM    3  O3  UNL     1      10.017  14.161 -12.580  1.00  0.00    -0.294 OA
HETATM    4  C5  UNL     1      11.280  15.002 -14.630  1.00  0.00     0.165 C 
HETATM    5  S1  UNL     1      11.250  13.443 -15.623  1.00  0.00    -0.066 SA
HETATM    6  S2  UNL     1       9.134  13.018 -15.629  1.00  0.00    -0.054 SA
HETATM    7  C7  UNL     1       8.374  14.641 -15.340  1.00  0.00     0.155 C 
HETATM    8  C8  UNL     1       8.040  15.227 -16.680  1.00  0.00     0.166 C 
HETATM    9  N2  UNL     1       8.900  16.300 -17.023  1.00  0.00    -0.411 N 
ATOM     10  H2  UNL     1       8.556  17.155 -17.460  1.00  0.00     0.153 HD
HETATM   11  C9  UNL     1      10.303  16.104 -16.710  1.00  0.00     0.103 C 
HETATM   12  C13 UNL     1      10.456  16.083 -15.208  1.00  0.00     0.075 C 
ENDROOT
BRANCH  11  13
HETATM   13  C10 UNL     1      11.013  17.305 -17.295  1.00  0.00     0.163 C 
BRANCH  13  14
HETATM   14  N3  UNL     1      12.293  17.041 -17.843  1.00  0.00    -0.224 N 
HETATM   15  C11 UNL     1      12.707  17.696 -19.037  1.00  0.00     0.681 C 
HETATM   16  N4  UNL     1      13.491  17.053 -19.832  1.00  0.00    -0.234 N 
HETATM   17  N5  UNL     1      12.291  19.018 -19.380  1.00  0.00    -0.116 N 
ATOM     18  H42 UNL     1      13.788  16.109 -19.587  1.00  0.00     0.174 HD
ATOM     19  H41 UNL     1      13.788  17.523 -20.688  1.00  0.00     0.174 HD
ATOM     20  H5  UNL     1      11.295  19.224 -19.453  1.00  0.00     0.197 HD
ATOM     21  H3  UNL     1      12.919  16.381 -17.381  1.00  0.00     0.177 HD
BRANCH  17  22
HETATM   22  S3  UNL     1      13.431  20.271 -19.671  1.00  0.00     0.257 S 
HETATM   23  O6  UNL     1      13.857  20.207 -21.104  1.00  0.00    -0.204 OA
HETATM   24  O7  UNL     1      14.646  19.994 -18.834  1.00  0.00    -0.204 OA
BRANCH  22  25
HETATM   25  C12 UNL     1      12.758  21.871 -19.293  1.00  0.00     0.278 C 
HETATM   26 CL1  UNL     1      11.202  21.720 -18.446  1.00  0.00    -0.113 Cl
ENDBRANCH  22  25
ENDBRANCH  17  22
ENDBRANCH  13  14
ENDBRANCH  11  13
BRANCH   1  27
HETATM   27  C2  UNL     1       8.510  16.597 -13.752  1.00  0.00     0.279 C 
HETATM   28  O2  UNL     1       8.164  16.468 -12.554  1.00  0.00    -0.264 OA
BRANCH  27  29
HETATM   29  O1  UNL     1       8.156  17.820 -14.356  1.00  0.00    -0.325 OA
HETATM   30  C1  UNL     1       6.821  18.096 -14.736  1.00  0.00     0.213 C 
ENDBRANCH  27  29
ENDBRANCH   1  27
BRANCH   4  31
HETATM   31  C6  UNL     1      12.541  15.278 -13.954  1.00  0.00     0.259 C 
HETATM   32  N1  UNL     1      13.427  14.139 -13.793  1.00  0.00    -0.060 NA
HETATM   33  O4  UNL     1      12.944  16.352 -13.503  1.00  0.00    -0.275 OA
ENDBRANCH   4  31
BRANCH   7  34
HETATM   34  O5  UNL     1       7.211  14.410 -14.587  1.00  0.00    -0.375 OA
ATOM     35  H5  UNL     1       7.414  14.668 -13.696  1.00  0.00     0.211 HD
ENDBRANCH   7  34
TORSDOF 8
ENDMDL
MODEL 3
REMARK VINA RESULT: -5.702108880      1.266      1.386
REMARK  8 active torsions:
REMARK  status: ('A' for Active; 'I' for Inactive)
REMARK    1  A    between atoms: O1_2  and  C2_3 
REMARK    2  A    between atoms: C2_3  and  C3_5 
REMARK    3  A    between atoms: C5_8  and  C6_9 
REMARK    4  A    between atoms: C7_14  and  O5_15 
REMARK    5  A    between atoms: C9_20  and  C10_21 
REMARK    6  A    between atoms: C10_21  and  N3_22 
REMARK       I    between atoms: N3_22  and  C11_24 
REMARK       I    between atoms: C11_24  and  N5_28 
REMARK    7  A    between atoms: N5_28  and  S3_30 
REMARK    8  A    between atoms: S3_30  and  C12_33 
ROOT
HETATM    1  C3  UNL     1       8.824  15.540 -14.801  1.00  0.00     0.161 C 
HETATM    2  C4  UNL     1       9.609  14.905 -13.689  1.00  0.00     0.178 C 
HETATM    3  O3  UNL     1       9.426  14.765 -12.497  1.00  0.00    -0.294 OA
HETATM    4  C5  UNL     1      10.684  14.540 -14.703  1.00  0.00     0.165 C 
HETATM    5  S1  UNL     1      10.255  12.782 -15.080  1.00  0.00    -0.066 SA
HETATM    6  S2  UNL     1       8.102  12.864 -14.949  1.00  0.00    -0.054 SA
HETATM    7  C7  UNL     1       7.723  14.612 -15.259  1.00  0.00     0.155 C 
HETATM    8  C8  UNL     1       7.425  14.756 -16.722  1.00  0.00     0.166 C 
HETATM    9  N2  UNL     1       8.464  15.424 -17.416  1.00  0.00    -0.411 N 
ATOM     10  H2  UNL     1       8.276  16.128 -18.130  1.00  0.00     0.153 HD
HETATM   11  C9  UNL     1       9.813  15.041 -17.045  1.00  0.00     0.103 C 
HETATM   12  C13 UNL     1      10.066  15.508 -15.632  1.00  0.00     0.075 C 
ENDROOT
BRANCH  11  13
HETATM   13  C10 UNL     1      10.716  15.775 -18.013  1.00  0.00     0.163 C 
BRANCH  13  14
HETATM   14  N3  UNL     1      10.322  17.101 -18.317  1.00  0.00    -0.224 N 
HETATM   15  C11 UNL     1      11.280  18.154 -18.290  1.00  0.00     0.681 C 
HETATM   16  N4  UNL     1      10.873  19.325 -17.941  1.00  0.00    -0.234 N 
HETATM   17  N5  UNL     1      12.653  17.960 -18.630  1.00  0.00    -0.116 N 
ATOM     18  H42 UNL     1       9.892  19.463 -17.698  1.00  0.00     0.174 HD
ATOM     19  H41 UNL     1      11.559  20.079 -17.922  1.00  0.00     0.174 HD
ATOM     20  H5  UNL     1      13.201  17.269 -18.119  1.00  0.00     0.197 HD
ATOM     21  H3  UNL     1       9.351  17.302 -18.555  1.00  0.00     0.177 HD
BRANCH  17  22
HETATM   22  S3  UNL     1      13.404  18.868 -19.883  1.00  0.00     0.257 S 
HETATM   23  O6  UNL     1      12.360  19.262 -20.879  1.00  0.00    -0.204 OA
HETATM   24  O7  UNL     1      14.373  17.965 -20.589  1.00  0.00    -0.204 OA
BRANCH  22  25
HETATM   25  C12 UNL     1      14.231  20.305 -19.245  1.00  0.00     0.278 C 
HETATM   26 CL1  UNL     1      13.151  21.716 -19.260  1.00  0.00    -0.113 Cl
ENDBRANCH  22  25
ENDBRANCH  17  22
ENDBRANCH  13  14
ENDBRANCH  11  13
BRANCH   1  27
HETATM   27  C2  UNL     1       8.384  16.915 -14.465  1.00  0.00     0.279 C 
HETATM   28  O2  UNL     1       7.677  17.192 -13.467  1.00  0.00    -0.264 OA
BRANCH  27  29
HETATM   29  O1  UNL     1       8.748  18.011 -15.273  1.00  0.00    -0.325 OA
HETATM   30  C1  UNL     1       7.795  18.695 -16.062  1.00  0.00     0.213 C 
ENDBRANCH  27  29
ENDBRANCH   1  27
BRANCH   4  31
HETATM   31  C6  UNL     1      12.021  14.746 -14.160  1.00  0.00     0.259 C 
HETATM   32  N1  UNL     1      12.501  13.703 -13.269  1.00  0.00    -0.060 NA
HETATM   33  O4  UNL     1      12.788  15.690 -14.360  1.00  0.00    -0.275 OA
ENDBRANCH   4  31
BRANCH   7  34
HETATM   34  O5  UNL     1       6.596  14.921 -14.481  1.00  0.00    -0.375 OA
ATOM     35  H5  UNL     1       6.246  14.092 -14.176  1.00  0.00     0.211 HD
ENDBRANCH   7  34
TORSDOF 8
ENDMDL
MODEL 4
REMARK VINA RESULT: -5.695815291      3.245      5.904
REMARK  8 active torsions:
REMARK  status: ('A' for Active; 'I' for Inactive)
REMARK    1  A    between atoms: O1_2  and  C2_3 
REMARK    2  A    between atoms: C2_3  and  C3_5 
REMARK    3  A    between atoms: C5_8  and  C6_9 
REMARK    4  A    between atoms: C7_14  and  O5_15 
REMARK    5  A    between atoms: C9_20  and  C10_21 
REMARK    6  A    between atoms: C10_21  and  N3_22 
REMARK       I    between atoms: N3_22  and  C11_24 
REMARK       I    between atoms: C11_24  and  N5_28 
REMARK    7  A    between atoms: N5_28  and  S3_30 
REMARK    8  A    between atoms: S3_30  and  C12_33 
ROOT
HETATM    1  C3  UNL     1       8.401  17.390 -17.393  1.00  0.00     0.161 C 
HETATM    2  C4  UNL     1       7.177  16.606 -17.014  1.00  0.00     0.178 C 
HETATM    3  O3  UNL     1       6.013  16.635 -17.359  1.00  0.00    -0.294 OA
HETATM    4  C5  UNL     1       8.034  15.802 -16.046  1.00  0.00     0.165 C 
HETATM    5  S1  UNL     1       8.399  14.290 -17.044  1.00  0.00    -0.066 SA
HETATM    6  S2  UNL     1       8.543  15.146 -19.021  1.00  0.00    -0.054 SA
HETATM    7  C7  UNL     1       8.960  16.884 -18.702  1.00  0.00     0.155 C 
HETATM    8  C8  UNL     1      10.453  17.010 -18.774  1.00  0.00     0.166 C 
HETATM    9  N2  UNL     1      11.035  17.205 -17.496  1.00  0.00    -0.411 N 
ATOM     10  H2  UNL     1      11.791  17.871 -17.339  1.00  0.00     0.153 HD
HETATM   11  C9  UNL     1      10.484  16.396 -16.426  1.00  0.00     0.103 C 
HETATM   12  C13 UNL     1       9.067  16.852 -16.169  1.00  0.00     0.075 C 
ENDROOT
BRANCH  11  13
HETATM   13  C10 UNL     1      11.355  16.680 -15.223  1.00  0.00     0.163 C 
BRANCH  13  14
HETATM   14  N3  UNL     1      12.337  15.697 -14.944  1.00  0.00    -0.224 N 
HETATM   15  C11 UNL     1      12.240  14.907 -13.764  1.00  0.00     0.681 C 
HETATM   16  N4  UNL     1      13.338  14.525 -13.207  1.00  0.00    -0.234 N 
HETATM   17  N5  UNL     1      10.991  14.529 -13.185  1.00  0.00    -0.116 N 
ATOM     18  H42 UNL     1      14.230  14.795 -13.621  1.00  0.00     0.174 HD
ATOM     19  H41 UNL     1      13.268  13.958 -12.362  1.00  0.00     0.174 HD
ATOM     20  H5  UNL     1      10.327  15.254 -12.914  1.00  0.00     0.197 HD
ATOM     21  H3  UNL     1      13.115  15.556 -15.589  1.00  0.00     0.177 HD
BRANCH  17  22
HETATM   22  S3  UNL     1      10.581  12.878 -12.934  1.00  0.00     0.257 S 
HETATM   23  O6  UNL     1       9.616  12.793 -11.793  1.00  0.00    -0.204 OA
HETATM   24  O7  UNL     1      11.826  12.151 -12.518  1.00  0.00    -0.204 OA
BRANCH  22  25
HETATM   25  C12 UNL     1       9.883  12.147 -14.395  1.00  0.00     0.278 C 
HETATM   26 CL1  UNL     1      10.052  10.378 -14.361  1.00  0.00    -0.113 Cl
ENDBRANCH  22  25
ENDBRANCH  17  22
ENDBRANCH  13  14
ENDBRANCH  11  13
BRANCH   1  27
HETATM   27  C2  UNL     1       8.172  18.853 -17.335  1.00  0.00     0.279 C 
HETATM   28  O2  UNL     1       8.992  19.665 -16.846  1.00  0.00    -0.264 OA
BRANCH  27  29
HETATM   29  O1  UNL     1       6.985  19.422 -17.839  1.00  0.00    -0.325 OA
HETATM   30  C1  UNL     1       6.177  20.269 -17.045  1.00  0.00     0.213 C 
ENDBRANCH  27  29
ENDBRANCH   1  27
BRANCH   4  31
HETATM   31  C6  UNL     1       7.335  15.559 -14.791  1.00  0.00     0.259 C 
HETATM   32  N1  UNL     1       8.081  15.885 -13.587  1.00  0.00    -0.060 NA
HETATM   33  O4  UNL     1       6.199  15.112 -14.625  1.00  0.00    -0.275 OA
ENDBRANCH   4  31
BRANCH   7  34
HETATM   34  O5  UNL     1       8.341  17.635 -19.714  1.00  0.00    -0.375 OA
ATOM     35  H5  UNL     1       7.508  17.924 -19.361  1.00  0.00     0.211 HD
ENDBRANCH   7  34
TORSDOF 8
ENDMDL
MODEL 5
REMARK VINA RESULT: -5.615851287      1.780      2.156
REMARK  8 active torsions:
REMARK  status: ('A' for Active; 'I' for Inactive)
REMARK    1  A    between atoms: O1_2  and  C2_3 
REMARK    2  A    between atoms: C2_3  and  C3_5 
REMARK    3  A    between atoms: C5_8  and  C6_9 
REMARK    4  A    between atoms: C7_14  and  O5_15 
REMARK    5  A    between atoms: C9_20  and  C10_21 
REMARK    6  A    between atoms: C10_21  and  N3_22 
REMARK       I    between atoms: N3_22  and  C11_24 
REMARK       I    between atoms: C11_24  and  N5_28 
REMARK    7  A    between atoms: N5_28  and  S3_30 
REMARK    8  A    between atoms: S3_30  and  C12_33 
ROOT
HETATM    1  C3  UNL     1       8.815  15.497 -14.891  1.00  0.00     0.161 C 
HETATM    2  C4  UNL     1       9.631  14.923 -13.767  1.00  0.00     0.178 C 
HETATM    3  O3  UNL     1       9.480  14.852 -12.565  1.00  0.00    -0.294 OA
HETATM    4  C5  UNL     1      10.675  14.498 -14.788  1.00  0.00     0.165 C 
HETATM    5  S1  UNL     1      10.233  12.723 -15.053  1.00  0.00    -0.066 SA
HETATM    6  S2  UNL     1       8.084  12.819 -14.866  1.00  0.00    -0.054 SA
HETATM    7  C7  UNL     1       7.700  14.549 -15.264  1.00  0.00     0.155 C 
HETATM    8  C8  UNL     1       7.361  14.611 -16.724  1.00  0.00     0.166 C 
HETATM    9  N2  UNL     1       8.381  15.235 -17.484  1.00  0.00    -0.411 N 
ATOM     10  H2  UNL     1       8.174  15.898 -18.231  1.00  0.00     0.153 HD
HETATM   11  C9  UNL     1       9.739  14.868 -17.130  1.00  0.00     0.103 C 
HETATM   12  C13 UNL     1      10.033  15.414 -15.753  1.00  0.00     0.075 C 
ENDROOT
BRANCH  11  13
HETATM   13  C10 UNL     1      10.615  15.543 -18.163  1.00  0.00     0.163 C 
BRANCH  13  14
HETATM   14  N3  UNL     1      11.491  16.535 -17.655  1.00  0.00    -0.224 N 
HETATM   15  C11 UNL     1      11.789  17.689 -18.434  1.00  0.00     0.681 C 
HETATM   16  N4  UNL     1      12.960  18.211 -18.305  1.00  0.00    -0.234 N 
HETATM   17  N5  UNL     1      10.853  18.278 -19.337  1.00  0.00    -0.116 N 
ATOM     18  H42 UNL     1      13.628  17.791 -17.660  1.00  0.00     0.174 HD
ATOM     19  H41 UNL     1      13.173  19.038 -18.863  1.00  0.00     0.174 HD
ATOM     20  H5  UNL     1      10.458  17.709 -20.086  1.00  0.00     0.197 HD
ATOM     21  H3  UNL     1      11.908  16.422 -16.731  1.00  0.00     0.177 HD
BRANCH  17  22
HETATM   22  S3  UNL     1      10.375  19.922 -19.189  1.00  0.00     0.257 S 
HETATM   23  O6  UNL     1      10.691  20.629 -20.469  1.00  0.00    -0.204 OA
HETATM   24  O7  UNL     1      11.214  20.552 -18.115  1.00  0.00    -0.204 OA
BRANCH  22  25
HETATM   25  C12 UNL     1       8.647  20.071 -18.805  1.00  0.00     0.278 C 
HETATM   26 CL1  UNL     1       7.864  18.476 -18.779  1.00  0.00    -0.113 Cl
ENDBRANCH  22  25
ENDBRANCH  17  22
ENDBRANCH  13  14
ENDBRANCH  11  13
BRANCH   1  27
HETATM   27  C2  UNL     1       8.388  16.891 -14.621  1.00  0.00     0.279 C 
HETATM   28  O2  UNL     1       7.701  17.225 -13.627  1.00  0.00    -0.264 OA
BRANCH  27  29
HETATM   29  O1  UNL     1       8.741  17.939 -15.493  1.00  0.00    -0.325 OA
HETATM   30  C1  UNL     1       8.555  19.295 -15.131  1.00  0.00     0.213 C 
ENDBRANCH  27  29
ENDBRANCH   1  27
BRANCH   4  31
HETATM   31  C6  UNL     1      12.028  14.729 -14.296  1.00  0.00     0.259 C 
HETATM   32  N1  UNL     1      12.522  13.749 -13.345  1.00  0.00    -0.060 NA
HETATM   33  O4  UNL     1      12.796  15.649 -14.584  1.00  0.00    -0.275 OA
ENDBRANCH   4  31
BRANCH   7  34
HETATM   34  O5  UNL     1       6.596  14.905 -14.473  1.00  0.00    -0.375 OA
ATOM     35  H5  UNL     1       6.146  14.096 -14.261  1.00  0.00     0.211 HD
ENDBRANCH   7  34
TORSDOF 8
ENDMDL
