MODEL 1
REMARK VINA RESULT: -6.715238441      0.000      0.000
REMARK  8 active torsions:
REMARK  status: ('A' for Active; 'I' for Inactive)
REMARK    1  A    between atoms: N1_1  and  C1_4 
REMARK    2  A    between atoms: C2_7  and  C3_8 
REMARK    3  A    between atoms: C4_13  and  N5_14 
REMARK    4  A    between atoms: C5_21  and  N9_22 
REMARK       I    between atoms: N9_22  and  C6_24 
REMARK       I    between atoms: C6_24  and  N10_26 
REMARK    5  A    between atoms: N10_26  and  C7_28 
REMARK    6  A    between atoms: C7_28  and  C8_29 
REMARK    7  A    between atoms: C8_29  and  N11_30 
REMARK       I    between atoms: N11_30  and  C9_32 
REMARK    8  A    between atoms: C9_32  and  C10_34 
ROOT
HETATM    1  N5  UNL     1      10.661  15.860 -16.294  1.00  0.00     0.108 N 
HETATM    2  N6  UNL     1      10.928  15.602 -17.564  1.00  0.00    -0.191 N 
ATOM      3  H6  UNL     1      11.530  14.848 -17.894  1.00  0.00     0.211 HD
HETATM    4  N7  UNL     1      10.301  16.464 -18.338  1.00  0.00    -0.212 N 
ATOM      5  H7  UNL     1      10.339  16.485 -19.358  1.00  0.00     0.210 HD
HETATM    6  N8  UNL     1       9.615  17.295 -17.578  1.00  0.00    -0.114 N 
ATOM      7  H8  UNL     1       9.031  18.067 -17.899  1.00  0.00     0.207 HD
HETATM    8  C5  UNL     1       9.827  16.937 -16.307  1.00  0.00     0.739 A 
ENDROOT
BRANCH   8   9
HETATM    9  N9  UNL     1       9.365  17.466 -15.234  1.00  0.00    -0.138 N 
HETATM   10  C6  UNL     1       8.105  17.141 -14.694  1.00  0.00     0.334 C 
HETATM   11  O2  UNL     1       7.931  16.790 -13.499  1.00  0.00    -0.247 OA
HETATM   12  N10 UNL     1       6.954  17.212 -15.541  1.00  0.00    -0.341 N 
ATOM     13  H10 UNL     1       7.095  17.492 -16.511  1.00  0.00     0.164 HD
ATOM     14  H9  UNL     1       9.938  18.155 -14.748  1.00  0.00     0.189 HD
BRANCH  12  15
HETATM   15  C7  UNL     1       5.635  16.920 -15.123  1.00  0.00     0.144 C 
BRANCH  15  16
HETATM   16  C8  UNL     1       5.220  15.505 -15.294  1.00  0.00     0.142 C 
BRANCH  16  17
HETATM   17  N11 UNL     1       5.614  14.817 -16.472  1.00  0.00    -0.355 N 
HETATM   18  C9  UNL     1       6.739  14.097 -16.823  1.00  0.00     0.254 C 
HETATM   19  O3  UNL     1       7.718  13.957 -16.060  1.00  0.00    -0.268 OA
ATOM     20  H11 UNL     1       4.920  14.865 -17.218  1.00  0.00     0.162 HD
BRANCH  18  21
HETATM   21  C10 UNL     1       6.892  13.435 -18.122  1.00  0.00     0.066 A 
HETATM   22  C11 UNL     1       7.890  13.945 -18.955  1.00  0.00     0.021 A 
HETATM   23  C12 UNL     1       8.067  13.427 -20.222  1.00  0.00     0.018 A 
HETATM   24  C13 UNL     1       7.225  12.410 -20.597  1.00  0.00     0.089 A 
HETATM   25  N12 UNL     1       6.287  11.944 -19.787  1.00  0.00    -0.359 N 
HETATM   26  C14 UNL     1       6.082  12.430 -18.526  1.00  0.00     0.095 A 
ATOM     27  H12 UNL     1       5.690  11.188 -20.119  1.00  0.00     0.166 HD
HETATM   28 BR1  UNL     1       4.779  11.655 -17.395  1.00  0.00    -0.030 Br
ENDBRANCH  18  21
ENDBRANCH  16  17
ENDBRANCH  15  16
ENDBRANCH  12  15
ENDBRANCH   8   9
BRANCH   1  29
HETATM   29  C4  UNL     1      11.110  15.176 -15.135  1.00  0.00     0.736 A 
HETATM   30  N4  UNL     1      10.450  14.069 -14.718  1.00  0.00    -0.168 N 
HETATM   31  C2  UNL     1      10.837  13.378 -13.609  1.00  0.00     0.201 A 
ATOM     32  H4  UNL     1       9.642  13.744 -15.248  1.00  0.00     0.186 HD
HETATM   33  N2  UNL     1      11.901  13.803 -12.908  1.00  0.00    -0.171 N 
HETATM   34  C1  UNL     1      12.567  14.895 -13.304  1.00  0.00     0.692 A 
ATOM     35  H2  UNL     1      12.200  13.295 -12.076  1.00  0.00     0.186 HD
HETATM   36  N13 UNL     1      12.166  15.570 -14.412  1.00  0.00    -0.020 N 
ATOM     37  H13 UNL     1      12.684  16.400 -14.700  1.00  0.00     0.203 HD
BRANCH  31  38
HETATM   38  C3  UNL     1      10.128  12.199 -13.164  1.00  0.00     0.299 C 
HETATM   39  N3  UNL     1      10.080  11.060 -13.992  1.00  0.00    -0.054 NA
HETATM   40  O1  UNL     1       9.558  12.182 -12.055  1.00  0.00    -0.268 OA
ENDBRANCH  31  38
BRANCH  34  41
HETATM   41  N1  UNL     1      13.573  15.286 -12.631  1.00  0.00    -0.234 N 
ATOM     42  H12 UNL     1      14.449  14.763 -12.649  1.00  0.00     0.174 HD
ATOM     43  H11 UNL     1      13.497  16.134 -12.070  1.00  0.00     0.174 HD
ENDBRANCH  34  41
ENDBRANCH   1  29
TORSDOF 8
ENDMDL
MODEL 2
REMARK VINA RESULT: -6.705740541      4.002      5.760
REMARK  8 active torsions:
REMARK  status: ('A' for Active; 'I' for Inactive)
REMARK    1  A    between atoms: N1_1  and  C1_4 
REMARK    2  A    between atoms: C2_7  and  C3_8 
REMARK    3  A    between atoms: C4_13  and  N5_14 
REMARK    4  A    between atoms: C5_21  and  N9_22 
REMARK       I    between atoms: N9_22  and  C6_24 
REMARK       I    between atoms: C6_24  and  N10_26 
REMARK    5  A    between atoms: N10_26  and  C7_28 
REMARK    6  A    between atoms: C7_28  and  C8_29 
REMARK    7  A    between atoms: C8_29  and  N11_30 
REMARK       I    between atoms: N11_30  and  C9_32 
REMARK    8  A    between atoms: C9_32  and  C10_34 
ROOT
HETATM    1  N5  UNL     1      10.763  15.810 -16.321  1.00  0.00     0.108 N 
HETATM    2  N6  UNL     1      11.293  15.773 -17.533  1.00  0.00    -0.191 N 
ATOM      3  H6  UNL     1      12.125  15.243 -17.792  1.00  0.00     0.211 HD
HETATM    4  N7  UNL     1      10.587  16.523 -18.354  1.00  0.00    -0.212 N 
ATOM      5  H7  UNL     1      10.783  16.667 -19.345  1.00  0.00     0.210 HD
HETATM    6  N8  UNL     1       9.585  17.057 -17.684  1.00  0.00    -0.114 N 
ATOM      7  H8  UNL     1       8.871  17.682 -18.059  1.00  0.00     0.207 HD
HETATM    8  C5  UNL     1       9.677  16.627 -16.422  1.00  0.00     0.739 A 
ENDROOT
BRANCH   8   9
HETATM    9  N9  UNL     1       8.919  16.895 -15.423  1.00  0.00    -0.138 N 
HETATM   10  C6  UNL     1       8.091  18.032 -15.366  1.00  0.00     0.334 C 
HETATM   11  O2  UNL     1       6.861  17.984 -15.108  1.00  0.00    -0.247 OA
HETATM   12  N10 UNL     1       8.668  19.318 -15.611  1.00  0.00    -0.341 N 
ATOM     13  H10 UNL     1       9.664  19.358 -15.826  1.00  0.00     0.164 HD
ATOM     14  H9  UNL     1       8.916  16.252 -14.630  1.00  0.00     0.189 HD
BRANCH  12  15
HETATM   15  C7  UNL     1       7.951  20.536 -15.578  1.00  0.00     0.144 C 
BRANCH  15  16
HETATM   16  C8  UNL     1       8.307  21.505 -16.646  1.00  0.00     0.142 C 
BRANCH  16  17
HETATM   17  N11 UNL     1       9.604  21.440 -17.219  1.00  0.00    -0.355 N 
HETATM   18  C9  UNL     1      10.182  20.631 -18.178  1.00  0.00     0.254 C 
HETATM   19  O3  UNL     1       9.571  19.691 -18.728  1.00  0.00    -0.268 OA
ATOM     20  H11 UNL     1      10.245  22.139 -16.844  1.00  0.00     0.162 HD
BRANCH  18  21
HETATM   21  C10 UNL     1      11.565  20.797 -18.635  1.00  0.00     0.066 A 
HETATM   22  C11 UNL     1      12.371  19.658 -18.569  1.00  0.00     0.021 A 
HETATM   23  C12 UNL     1      13.704  19.731 -18.919  1.00  0.00     0.018 A 
HETATM   24  C13 UNL     1      14.170  20.957 -19.324  1.00  0.00     0.089 A 
HETATM   25  N12 UNL     1      13.384  22.020 -19.379  1.00  0.00    -0.359 N 
HETATM   26  C14 UNL     1      12.060  21.988 -19.042  1.00  0.00     0.095 A 
ATOM     27  H12 UNL     1      13.785  22.906 -19.687  1.00  0.00     0.166 HD
HETATM   28 BR1  UNL     1      10.979  23.529 -19.227  1.00  0.00    -0.030 Br
ENDBRANCH  18  21
ENDBRANCH  16  17
ENDBRANCH  15  16
ENDBRANCH  12  15
ENDBRANCH   8   9
BRANCH   1  29
HETATM   29  C4  UNL     1      11.188  15.142 -15.144  1.00  0.00     0.736 A 
HETATM   30  N4  UNL     1      10.532  14.028 -14.737  1.00  0.00    -0.168 N 
HETATM   31  C2  UNL     1      10.897  13.351 -13.612  1.00  0.00     0.201 A 
ATOM     32  H4  UNL     1       9.745  13.687 -15.288  1.00  0.00     0.186 HD
HETATM   33  N2  UNL     1      11.934  13.797 -12.884  1.00  0.00    -0.171 N 
HETATM   34  C1  UNL     1      12.595  14.895 -13.270  1.00  0.00     0.692 A 
ATOM     35  H2  UNL     1      12.217  13.300 -12.040  1.00  0.00     0.186 HD
HETATM   36  N13 UNL     1      12.217  15.557 -14.394  1.00  0.00    -0.020 N 
ATOM     37  H13 UNL     1      12.730  16.392 -14.674  1.00  0.00     0.203 HD
BRANCH  31  38
HETATM   38  C3  UNL     1      10.192  12.165 -13.178  1.00  0.00     0.299 C 
HETATM   39  N3  UNL     1      10.206  11.011 -13.986  1.00  0.00    -0.054 NA
HETATM   40  O1  UNL     1       9.573  12.155 -12.095  1.00  0.00    -0.268 OA
ENDBRANCH  31  38
BRANCH  34  41
HETATM   41  N1  UNL     1      13.576  15.307 -12.572  1.00  0.00    -0.234 N 
ATOM     42  H12 UNL     1      14.133  14.655 -12.019  1.00  0.00     0.174 HD
ATOM     43  H11 UNL     1      13.803  16.301 -12.570  1.00  0.00     0.174 HD
ENDBRANCH  34  41
ENDBRANCH   1  29
TORSDOF 8
ENDMDL
MODEL 3
REMARK VINA RESULT: -6.448279296      1.329      1.848
REMARK  8 active torsions:
REMARK  status: ('A' for Active; 'I' for Inactive)
REMARK    1  A    between atoms: N1_1  and  C1_4 
REMARK    2  A    between atoms: C2_7  and  C3_8 
REMARK    3  A    between atoms: C4_13  and  N5_14 
REMARK    4  A    between atoms: C5_21  and  N9_22 
REMARK       I    between atoms: N9_22  and  C6_24 
REMARK       I    between atoms: C6_24  and  N10_26 
REMARK    5  A    between atoms: N10_26  and  C7_28 
REMARK    6  A    between atoms: C7_28  and  C8_29 
REMARK    7  A    between atoms: C8_29  and  N11_30 
REMARK       I    between atoms: N11_30  and  C9_32 
REMARK    8  A    between atoms: C9_32  and  C10_34 
ROOT
HETATM    1  N5  UNL     1      10.691  15.851 -16.274  1.00  0.00     0.108 N 
HETATM    2  N6  UNL     1      11.080  15.691 -17.528  1.00  0.00    -0.191 N 
ATOM      3  H6  UNL     1      11.793  15.033 -17.841  1.00  0.00     0.211 HD
HETATM    4  N7  UNL     1      10.408  16.509 -18.313  1.00  0.00    -0.212 N 
ATOM      5  H7  UNL     1      10.517  16.586 -19.325  1.00  0.00     0.210 HD
HETATM    6  N8  UNL     1       9.570  17.211 -17.575  1.00  0.00    -0.114 N 
ATOM      7  H8  UNL     1       8.920  17.922 -17.909  1.00  0.00     0.207 HD
HETATM    8  C5  UNL     1       9.732  16.818 -16.308  1.00  0.00     0.739 A 
ENDROOT
BRANCH   8   9
HETATM    9  N9  UNL     1       9.131  17.232 -15.254  1.00  0.00    -0.138 N 
HETATM   10  C6  UNL     1       7.948  16.649 -14.760  1.00  0.00     0.334 C 
HETATM   11  O2  UNL     1       7.808  16.261 -13.572  1.00  0.00    -0.247 OA
HETATM   12  N10 UNL     1       6.840  16.483 -15.648  1.00  0.00    -0.341 N 
ATOM     13  H10 UNL     1       6.954  16.792 -16.613  1.00  0.00     0.164 HD
ATOM     14  H9  UNL     1       9.530  18.023 -14.747  1.00  0.00     0.189 HD
BRANCH  12  15
HETATM   15  C7  UNL     1       5.596  15.920 -15.279  1.00  0.00     0.144 C 
BRANCH  15  16
HETATM   16  C8  UNL     1       4.708  15.558 -16.413  1.00  0.00     0.142 C 
BRANCH  16  17
HETATM   17  N11 UNL     1       4.705  14.216 -16.875  1.00  0.00    -0.355 N 
HETATM   18  C9  UNL     1       5.703  13.296 -17.132  1.00  0.00     0.254 C 
HETATM   19  O3  UNL     1       6.917  13.561 -17.010  1.00  0.00    -0.268 OA
ATOM     20  H11 UNL     1       3.769  13.853 -17.054  1.00  0.00     0.162 HD
BRANCH  18  21
HETATM   21  C10 UNL     1       5.431  11.925 -17.575  1.00  0.00     0.066 A 
HETATM   22  C11 UNL     1       5.210  10.988 -16.563  1.00  0.00     0.021 A 
HETATM   23  C12 UNL     1       5.008   9.660 -16.880  1.00  0.00     0.018 A 
HETATM   24  C13 UNL     1       5.036   9.332 -18.212  1.00  0.00     0.089 A 
HETATM   25  N12 UNL     1       5.246  10.240 -19.151  1.00  0.00    -0.359 N 
HETATM   26  C14 UNL     1       5.450  11.563 -18.878  1.00  0.00     0.095 A 
ATOM     27  H12 UNL     1       5.257   9.938 -20.125  1.00  0.00     0.166 HD
HETATM   28 BR1  UNL     1       5.658  12.816 -20.279  1.00  0.00    -0.030 Br
ENDBRANCH  18  21
ENDBRANCH  16  17
ENDBRANCH  15  16
ENDBRANCH  12  15
ENDBRANCH   8   9
BRANCH   1  29
HETATM   29  C4  UNL     1      11.136  15.169 -15.112  1.00  0.00     0.736 A 
HETATM   30  N4  UNL     1      10.482  14.056 -14.702  1.00  0.00    -0.168 N 
HETATM   31  C2  UNL     1      10.865  13.366 -13.590  1.00  0.00     0.201 A 
ATOM     32  H4  UNL     1       9.681  13.725 -15.239  1.00  0.00     0.186 HD
HETATM   33  N2  UNL     1      11.921  13.799 -12.881  1.00  0.00    -0.171 N 
HETATM   34  C1  UNL     1      12.581  14.896 -13.270  1.00  0.00     0.692 A 
ATOM     35  H2  UNL     1      12.218  13.292 -12.047  1.00  0.00     0.186 HD
HETATM   36  N13 UNL     1      12.184  15.570 -14.380  1.00  0.00    -0.020 N 
ATOM     37  H13 UNL     1      12.697  16.405 -14.663  1.00  0.00     0.203 HD
BRANCH  31  38
HETATM   38  C3  UNL     1      10.162  12.181 -13.152  1.00  0.00     0.299 C 
HETATM   39  N3  UNL     1      10.159  11.031 -13.968  1.00  0.00    -0.054 NA
HETATM   40  O1  UNL     1       9.559  12.168 -12.061  1.00  0.00    -0.268 OA
ENDBRANCH  31  38
BRANCH  34  41
HETATM   41  N1  UNL     1      13.579  15.295 -12.589  1.00  0.00    -0.234 N 
ATOM     42  H12 UNL     1      13.458  15.631 -11.633  1.00  0.00     0.174 HD
ATOM     43  H11 UNL     1      14.508  15.276 -13.009  1.00  0.00     0.174 HD
ENDBRANCH  34  41
ENDBRANCH   1  29
TORSDOF 8
ENDMDL
MODEL 4
REMARK VINA RESULT: -6.393861231      1.637      1.922
REMARK  8 active torsions:
REMARK  status: ('A' for Active; 'I' for Inactive)
REMARK    1  A    between atoms: N1_1  and  C1_4 
REMARK    2  A    between atoms: C2_7  and  C3_8 
REMARK    3  A    between atoms: C4_13  and  N5_14 
REMARK    4  A    between atoms: C5_21  and  N9_22 
REMARK       I    between atoms: N9_22  and  C6_24 
REMARK       I    between atoms: C6_24  and  N10_26 
REMARK    5  A    between atoms: N10_26  and  C7_28 
REMARK    6  A    between atoms: C7_28  and  C8_29 
REMARK    7  A    between atoms: C8_29  and  N11_30 
REMARK       I    between atoms: N11_30  and  C9_32 
REMARK    8  A    between atoms: C9_32  and  C10_34 
ROOT
HETATM    1  N5  UNL     1      10.595  15.877 -16.238  1.00  0.00     0.108 N 
HETATM    2  N6  UNL     1      10.843  15.640 -17.516  1.00  0.00    -0.191 N 
ATOM      3  H6  UNL     1      11.447  14.898 -17.868  1.00  0.00     0.211 HD
HETATM    4  N7  UNL     1      10.194  16.507 -18.267  1.00  0.00    -0.212 N 
ATOM      5  H7  UNL     1      10.214  16.544 -19.286  1.00  0.00     0.210 HD
HETATM    6  N8  UNL     1       9.512  17.319 -17.482  1.00  0.00    -0.114 N 
ATOM      7  H8  UNL     1       8.915  18.090 -17.783  1.00  0.00     0.207 HD
HETATM    8  C5  UNL     1       9.748  16.945 -16.221  1.00  0.00     0.739 A 
ENDROOT
BRANCH   8   9
HETATM    9  N9  UNL     1       9.299  17.452 -15.133  1.00  0.00    -0.138 N 
HETATM   10  C6  UNL     1       7.926  17.626 -14.871  1.00  0.00     0.334 C 
HETATM   11  O2  UNL     1       7.359  17.208 -13.830  1.00  0.00    -0.247 OA
HETATM   12  N10 UNL     1       7.124  18.313 -15.835  1.00  0.00    -0.341 N 
ATOM     13  H10 UNL     1       7.581  18.648 -16.683  1.00  0.00     0.164 HD
ATOM     14  H9  UNL     1       9.969  17.745 -14.421  1.00  0.00     0.189 HD
BRANCH  12  15
HETATM   15  C7  UNL     1       5.738  18.560 -15.692  1.00  0.00     0.144 C 
BRANCH  15  16
HETATM   16  C8  UNL     1       4.869  17.846 -16.663  1.00  0.00     0.142 C 
BRANCH  16  17
HETATM   17  N11 UNL     1       4.849  16.427 -16.643  1.00  0.00    -0.355 N 
HETATM   18  C9  UNL     1       5.732  15.457 -17.074  1.00  0.00     0.254 C 
HETATM   19  O3  UNL     1       6.807  15.727 -17.650  1.00  0.00    -0.268 OA
ATOM     20  H11 UNL     1       4.003  16.042 -16.222  1.00  0.00     0.162 HD
BRANCH  18  21
HETATM   21  C10 UNL     1       5.490  14.021 -16.899  1.00  0.00     0.066 A 
HETATM   22  C11 UNL     1       5.975  13.460 -15.715  1.00  0.00     0.021 A 
HETATM   23  C12 UNL     1       5.850  12.105 -15.489  1.00  0.00     0.018 A 
HETATM   24  C13 UNL     1       5.238  11.368 -16.472  1.00  0.00     0.089 A 
HETATM   25  N12 UNL     1       4.786  11.926 -17.584  1.00  0.00    -0.359 N 
HETATM   26  C14 UNL     1       4.890  13.263 -17.844  1.00  0.00     0.095 A 
ATOM     27  H12 UNL     1       4.340  11.329 -18.281  1.00  0.00     0.166 HD
HETATM   28 BR1  UNL     1       4.144  14.001 -19.418  1.00  0.00    -0.030 Br
ENDBRANCH  18  21
ENDBRANCH  16  17
ENDBRANCH  15  16
ENDBRANCH  12  15
ENDBRANCH   8   9
BRANCH   1  29
HETATM   29  C4  UNL     1      11.070  15.181 -15.098  1.00  0.00     0.736 A 
HETATM   30  N4  UNL     1      10.429  14.061 -14.686  1.00  0.00    -0.168 N 
HETATM   31  C2  UNL     1      10.841  13.357 -13.594  1.00  0.00     0.201 A 
ATOM     32  H4  UNL     1       9.616  13.735 -15.207  1.00  0.00     0.186 HD
HETATM   33  N2  UNL     1      11.913  13.783 -12.905  1.00  0.00    -0.171 N 
HETATM   34  C1  UNL     1      12.561  14.888 -13.296  1.00  0.00     0.692 A 
ATOM     35  H2  UNL     1      12.232  13.266 -12.086  1.00  0.00     0.186 HD
HETATM   36  N13 UNL     1      12.134  15.575 -14.386  1.00  0.00    -0.020 N 
ATOM     37  H13 UNL     1      12.638  16.415 -14.671  1.00  0.00     0.203 HD
BRANCH  31  38
HETATM   38  C3  UNL     1      10.152  12.164 -13.155  1.00  0.00     0.299 C 
HETATM   39  N3  UNL     1      10.175  11.009 -13.962  1.00  0.00    -0.054 NA
HETATM   40  O1  UNL     1       9.539  12.149 -12.069  1.00  0.00    -0.268 OA
ENDBRANCH  31  38
BRANCH  34  41
HETATM   41  N1  UNL     1      13.574  15.280 -12.634  1.00  0.00    -0.234 N 
ATOM     42  H12 UNL     1      13.945  16.223 -12.757  1.00  0.00     0.174 HD
ATOM     43  H11 UNL     1      14.015  14.641 -11.974  1.00  0.00     0.174 HD
ENDBRANCH  34  41
ENDBRANCH   1  29
TORSDOF 8
ENDMDL
MODEL 5
REMARK VINA RESULT: -6.388321459      3.280      5.652
REMARK  8 active torsions:
REMARK  status: ('A' for Active; 'I' for Inactive)
REMARK    1  A    between atoms: N1_1  and  C1_4 
REMARK    2  A    between atoms: C2_7  and  C3_8 
REMARK    3  A    between atoms: C4_13  and  N5_14 
REMARK    4  A    between atoms: C5_21  and  N9_22 
REMARK       I    between atoms: N9_22  and  C6_24 
REMARK       I    between atoms: C6_24  and  N10_26 
REMARK    5  A    between atoms: N10_26  and  C7_28 
REMARK    6  A    between atoms: C7_28  and  C8_29 
REMARK    7  A    between atoms: C8_29  and  N11_30 
REMARK       I    between atoms: N11_30  and  C9_32 
REMARK    8  A    between atoms: C9_32  and  C10_34 
ROOT
HETATM    1  N5  UNL     1      10.734  15.938 -16.249  1.00  0.00     0.108 N 
HETATM    2  N6  UNL     1      11.142  15.810 -17.502  1.00  0.00    -0.191 N 
ATOM      3  H6  UNL     1      11.865  15.165 -17.819  1.00  0.00     0.211 HD
HETATM    4  N7  UNL     1      10.474  16.640 -18.278  1.00  0.00    -0.212 N 
ATOM      5  H7  UNL     1      10.597  16.740 -19.286  1.00  0.00     0.210 HD
HETATM    6  N8  UNL     1       9.620  17.318 -17.536  1.00  0.00    -0.114 N 
ATOM      7  H8  UNL     1       8.969  18.031 -17.864  1.00  0.00     0.207 HD
HETATM    8  C5  UNL     1       9.767  16.898 -16.276  1.00  0.00     0.739 A 
ENDROOT
BRANCH   8   9
HETATM    9  N9  UNL     1       9.148  17.284 -15.221  1.00  0.00    -0.138 N 
HETATM   10  C6  UNL     1       8.005  16.635 -14.717  1.00  0.00     0.334 C 
HETATM   11  O2  UNL     1       7.894  16.249 -13.525  1.00  0.00    -0.247 OA
HETATM   12  N10 UNL     1       6.903  16.397 -15.598  1.00  0.00    -0.341 N 
ATOM     13  H10 UNL     1       6.994  16.705 -16.566  1.00  0.00     0.164 HD
ATOM     14  H9  UNL     1       9.502  18.101 -14.722  1.00  0.00     0.189 HD
BRANCH  12  15
HETATM   15  C7  UNL     1       5.697  15.764 -15.218  1.00  0.00     0.144 C 
BRANCH  15  16
HETATM   16  C8  UNL     1       4.488  16.624 -15.283  1.00  0.00     0.142 C 
BRANCH  16  17
HETATM   17  N11 UNL     1       4.425  17.775 -14.455  1.00  0.00    -0.355 N 
HETATM   18  C9  UNL     1       3.409  18.643 -14.107  1.00  0.00     0.254 C 
HETATM   19  O3  UNL     1       2.249  18.543 -14.559  1.00  0.00    -0.268 OA
ATOM     20  H11 UNL     1       5.320  18.012 -14.026  1.00  0.00     0.162 HD
BRANCH  18  21
HETATM   21  C10 UNL     1       3.596  19.762 -13.178  1.00  0.00     0.066 A 
HETATM   22  C11 UNL     1       3.430  19.465 -11.823  1.00  0.00     0.021 A 
HETATM   23  C12 UNL     1       3.525  20.466 -10.878  1.00  0.00     0.018 A 
HETATM   24  C13 UNL     1       3.785  21.731 -11.342  1.00  0.00     0.089 A 
HETATM   25  N12 UNL     1       3.939  21.985 -12.633  1.00  0.00    -0.359 N 
HETATM   26  C14 UNL     1       3.853  21.021 -13.597  1.00  0.00     0.095 A 
ATOM     27  H12 UNL     1       4.130  22.944 -12.920  1.00  0.00     0.166 HD
HETATM   28 BR1  UNL     1       4.170  21.444 -15.414  1.00  0.00    -0.030 Br
ENDBRANCH  18  21
ENDBRANCH  16  17
ENDBRANCH  15  16
ENDBRANCH  12  15
ENDBRANCH   8   9
BRANCH   1  29
HETATM   29  C4  UNL     1      11.169  15.235 -15.097  1.00  0.00     0.736 A 
HETATM   30  N4  UNL     1      10.508  14.116 -14.712  1.00  0.00    -0.168 N 
HETATM   31  C2  UNL     1      10.881  13.406 -13.610  1.00  0.00     0.201 A 
ATOM     32  H4  UNL     1       9.710  13.798 -15.260  1.00  0.00     0.186 HD
HETATM   33  N2  UNL     1      11.933  13.821 -12.885  1.00  0.00    -0.171 N 
HETATM   34  C1  UNL     1      12.599  14.924 -13.250  1.00  0.00     0.692 A 
ATOM     35  H2  UNL     1      12.222  13.299 -12.059  1.00  0.00     0.186 HD
HETATM   36  N13 UNL     1      12.212  15.619 -14.350  1.00  0.00    -0.020 N 
ATOM     37  H13 UNL     1      12.730  16.457 -14.615  1.00  0.00     0.203 HD
BRANCH  31  38
HETATM   38  C3  UNL     1      10.172  12.215 -13.199  1.00  0.00     0.299 C 
HETATM   39  N3  UNL     1      10.134  11.095 -14.054  1.00  0.00    -0.054 NA
HETATM   40  O1  UNL     1       9.593  12.170 -12.096  1.00  0.00    -0.268 OA
ENDBRANCH  31  38
BRANCH  34  41
HETATM   41  N1  UNL     1      13.593  15.307 -12.554  1.00  0.00    -0.234 N 
ATOM     42  H12 UNL     1      14.012  14.691 -11.858  1.00  0.00     0.174 HD
ATOM     43  H11 UNL     1      13.971  16.243 -12.700  1.00  0.00     0.174 HD
ENDBRANCH  34  41
ENDBRANCH   1  29
TORSDOF 8
ENDMDL
