MODEL 1
REMARK VINA RESULT: -5.929420780      0.000      0.000
REMARK  10 active torsions:
REMARK  status: ('A' for Active; 'I' for Inactive)
REMARK    1  A    between atoms: C4_5  and  O1_6 
REMARK    2  A    between atoms: O1_6  and  C5_7 
REMARK    3  A    between atoms: C5_7  and  C6_9 
REMARK    4  A    between atoms: C12_19  and  N1_20 
REMARK       I    between atoms: N1_20  and  C13_22 
REMARK    5  A    between atoms: C13_22  and  C14_24 
REMARK    6  A    between atoms: C14_24  and  N2_25 
REMARK    7  A    between atoms: C14_24  and  C16_30 
REMARK    8  A    between atoms: C16_30  and  O9_32 
REMARK    9  A    between atoms: O9_32  and  C17_33 
REMARK       I    between atoms: C17_33  and  N5_35 
REMARK   10  A    between atoms: N5_35  and  N6_37 
ROOT
HETATM    1  N1  UNL     1       9.340  15.651 -16.013  1.00  0.00    -0.344 N 
ATOM      2  H1  UNL     1       9.638  16.545 -15.622  1.00  0.00     0.163 HD
HETATM    3  C13 UNL     1       8.284  14.987 -15.383  1.00  0.00     0.251 C 
HETATM    4  O7  UNL     1       7.887  13.887 -15.831  1.00  0.00    -0.271 OA
ENDROOT
BRANCH   1   5
HETATM    5  C12 UNL     1      10.040  15.158 -17.181  1.00  0.00     0.198 C 
HETATM    6  C7  UNL     1      10.528  16.214 -18.072  1.00  0.00     0.044 C 
HETATM    7  C4  UNL     1       9.637  17.087 -18.838  1.00  0.00     0.149 C 
HETATM    8  C8  UNL     1      11.625  15.731 -19.037  1.00  0.00     0.028 C 
HETATM    9  C10 UNL     1      11.623  16.860 -17.292  1.00  0.00     0.152 C 
HETATM   10  C3  UNL     1      10.367  18.303 -19.356  1.00  0.00     0.077 C 
HETATM   11  C2  UNL     1      11.856  18.226 -19.275  1.00  0.00     0.108 C 
HETATM   12  C1  UNL     1      12.447  19.388 -18.461  1.00  0.00     0.052 C 
HETATM   13  F1  UNL     1      12.472  18.316 -20.527  1.00  0.00    -0.243 F 
HETATM   14  C9  UNL     1      12.362  16.967 -18.635  1.00  0.00     0.056 C 
HETATM   15  O5  UNL     1      12.123  15.805 -16.491  1.00  0.00    -0.313 OA
HETATM   16  C11 UNL     1      11.361  14.656 -16.636  1.00  0.00     0.283 C 
HETATM   17  O6  UNL     1      11.600  13.464 -16.407  1.00  0.00    -0.263 OA
BRANCH   7  18
HETATM   18  O1  UNL     1       8.386  17.341 -18.308  1.00  0.00    -0.306 OA
BRANCH  18  19
HETATM   19  C5  UNL     1       7.962  18.497 -17.723  1.00  0.00     0.360 C 
HETATM   20  O2  UNL     1       6.819  18.878 -18.129  1.00  0.00    -0.252 OA
BRANCH  19  21
HETATM   21  C6  UNL     1       8.685  19.257 -16.739  1.00  0.00     0.277 C 
HETATM   22  O3  UNL     1       8.883  20.483 -16.919  1.00  0.00    -0.640 OA
HETATM   23  O4  UNL     1       9.181  18.686 -15.581  1.00  0.00    -0.640 OA
ENDBRANCH  19  21
ENDBRANCH  18  19
ENDBRANCH   7  18
ENDBRANCH   1   5
BRANCH   3  24
HETATM   24  C14 UNL     1       7.642  15.588 -14.192  1.00  0.00     0.277 C 
BRANCH  24  25
HETATM   25  N2  UNL     1       7.227  16.950 -14.421  1.00  0.00    -0.345 N 
HETATM   26  C15 UNL     1       6.023  17.293 -14.694  1.00  0.00     0.198 C 
HETATM   27  N3  UNL     1       5.758  18.666 -14.895  1.00  0.00    -0.067 NA
HETATM   28  N4  UNL     1       4.960  16.361 -14.801  1.00  0.00    -0.067 NA
ATOM     29  H2  UNL     1       7.934  17.683 -14.362  1.00  0.00     0.163 HD
ENDBRANCH  24  25
BRANCH  24  30
HETATM   30  C16 UNL     1       8.641  15.524 -13.068  1.00  0.00     0.299 C 
HETATM   31  O8  UNL     1       8.411  16.049 -11.949  1.00  0.00    -0.262 OA
BRANCH  30  32
HETATM   32  O9  UNL     1       9.851  14.883 -13.232  1.00  0.00    -0.224 OA
BRANCH  32  33
HETATM   33  C17 UNL     1      10.052  13.546 -12.925  1.00  0.00     0.386 C 
HETATM   34  O10 UNL     1      10.391  13.257 -11.752  1.00  0.00    -0.236 OA
HETATM   35  N5  UNL     1       9.889  12.509 -13.878  1.00  0.00    -0.252 N 
ATOM     36  H5  UNL     1       9.614  12.733 -14.835  1.00  0.00     0.191 HD
BRANCH  35  37
HETATM   37  N6  UNL     1      10.106  11.185 -13.508  1.00  0.00    -0.341 N 
ATOM     38  H62 UNL     1       9.336  10.651 -13.103  1.00  0.00     0.177 HD
ATOM     39  H61 UNL     1      11.025  10.763 -13.641  1.00  0.00     0.177 HD
ENDBRANCH  35  37
ENDBRANCH  32  33
ENDBRANCH  30  32
ENDBRANCH  24  30
ENDBRANCH   3  24
TORSDOF 10
ENDMDL
MODEL 2
REMARK VINA RESULT: -5.887921241      3.598      6.437
REMARK  10 active torsions:
REMARK  status: ('A' for Active; 'I' for Inactive)
REMARK    1  A    between atoms: C4_5  and  O1_6 
REMARK    2  A    between atoms: O1_6  and  C5_7 
REMARK    3  A    between atoms: C5_7  and  C6_9 
REMARK    4  A    between atoms: C12_19  and  N1_20 
REMARK       I    between atoms: N1_20  and  C13_22 
REMARK    5  A    between atoms: C13_22  and  C14_24 
REMARK    6  A    between atoms: C14_24  and  N2_25 
REMARK    7  A    between atoms: C14_24  and  C16_30 
REMARK    8  A    between atoms: C16_30  and  O9_32 
REMARK    9  A    between atoms: O9_32  and  C17_33 
REMARK       I    between atoms: C17_33  and  N5_35 
REMARK   10  A    between atoms: N5_35  and  N6_37 
ROOT
HETATM    1  N1  UNL     1       8.565  15.220 -17.301  1.00  0.00    -0.344 N 
ATOM      2  H1  UNL     1       8.026  15.683 -16.569  1.00  0.00     0.163 HD
HETATM    3  C13 UNL     1       9.821  15.744 -17.614  1.00  0.00     0.251 C 
HETATM    4  O7  UNL     1      10.515  15.204 -18.507  1.00  0.00    -0.271 OA
ENDROOT
BRANCH   1   5
HETATM    5  C12 UNL     1       7.973  14.064 -17.944  1.00  0.00     0.198 C 
HETATM    6  C7  UNL     1       6.922  13.417 -17.155  1.00  0.00     0.044 C 
HETATM    7  C4  UNL     1       7.185  12.718 -15.896  1.00  0.00     0.149 C 
HETATM    8  C8  UNL     1       6.012  12.504 -17.995  1.00  0.00     0.028 C 
HETATM    9  C10 UNL     1       5.803  14.402 -17.176  1.00  0.00     0.152 C 
HETATM   10  C3  UNL     1       5.913  12.488 -15.115  1.00  0.00     0.077 C 
HETATM   11  C2  UNL     1       4.653  12.709 -15.886  1.00  0.00     0.108 C 
HETATM   12  C1  UNL     1       3.752  13.762 -15.222  1.00  0.00     0.052 C 
HETATM   13  F1  UNL     1       3.862  11.560 -15.970  1.00  0.00    -0.243 F 
HETATM   14  C9  UNL     1       4.880  13.179 -17.293  1.00  0.00     0.056 C 
HETATM   15  O5  UNL     1       5.970  15.065 -18.416  1.00  0.00    -0.313 OA
HETATM   16  C11 UNL     1       7.129  14.653 -19.056  1.00  0.00     0.283 C 
HETATM   17  O6  UNL     1       7.491  14.704 -20.238  1.00  0.00    -0.263 OA
BRANCH   7  18
HETATM   18  O1  UNL     1       8.260  13.152 -15.141  1.00  0.00    -0.306 OA
BRANCH  18  19
HETATM   19  C5  UNL     1       9.447  12.507 -14.958  1.00  0.00     0.360 C 
HETATM   20  O2  UNL     1      10.369  12.918 -15.730  1.00  0.00    -0.252 OA
BRANCH  19  21
HETATM   21  C6  UNL     1       9.697  11.461 -14.004  1.00  0.00     0.277 C 
HETATM   22  O3  UNL     1       9.664  11.714 -12.775  1.00  0.00    -0.640 OA
HETATM   23  O4  UNL     1       9.979  10.162 -14.387  1.00  0.00    -0.640 OA
ENDBRANCH  19  21
ENDBRANCH  18  19
ENDBRANCH   7  18
ENDBRANCH   1   5
BRANCH   3  24
HETATM   24  C14 UNL     1      10.325  16.932 -16.888  1.00  0.00     0.277 C 
BRANCH  24  25
HETATM   25  N2  UNL     1      11.547  17.444 -17.458  1.00  0.00    -0.345 N 
HETATM   26  C15 UNL     1      11.660  18.613 -17.972  1.00  0.00     0.198 C 
HETATM   27  N3  UNL     1      12.918  18.984 -18.495  1.00  0.00    -0.067 NA
HETATM   28  N4  UNL     1      10.585  19.536 -18.036  1.00  0.00    -0.067 NA
ATOM     29  H2  UNL     1      12.370  16.841 -17.452  1.00  0.00     0.163 HD
ENDBRANCH  24  25
BRANCH  24  30
HETATM   30  C16 UNL     1      10.544  16.520 -15.457  1.00  0.00     0.299 C 
HETATM   31  O8  UNL     1       9.581  16.313 -14.675  1.00  0.00    -0.262 OA
BRANCH  30  32
HETATM   32  O9  UNL     1      11.818  16.355 -14.954  1.00  0.00    -0.224 OA
BRANCH  32  33
HETATM   33  C17 UNL     1      12.188  15.284 -14.155  1.00  0.00     0.386 C 
HETATM   34  O10 UNL     1      13.342  14.814 -14.301  1.00  0.00    -0.236 OA
HETATM   35  N5  UNL     1      11.319  14.711 -13.192  1.00  0.00    -0.252 N 
ATOM     36  H5  UNL     1      10.379  15.086 -13.066  1.00  0.00     0.191 HD
BRANCH  35  37
HETATM   37  N6  UNL     1      11.751  13.636 -12.420  1.00  0.00    -0.341 N 
ATOM     38  H62 UNL     1      12.208  13.820 -11.527  1.00  0.00     0.177 HD
ATOM     39  H61 UNL     1      11.608  12.682 -12.751  1.00  0.00     0.177 HD
ENDBRANCH  35  37
ENDBRANCH  32  33
ENDBRANCH  30  32
ENDBRANCH  24  30
ENDBRANCH   3  24
TORSDOF 10
ENDMDL
MODEL 3
REMARK VINA RESULT: -5.785103728      2.411      4.563
REMARK  10 active torsions:
REMARK  status: ('A' for Active; 'I' for Inactive)
REMARK    1  A    between atoms: C4_5  and  O1_6 
REMARK    2  A    between atoms: O1_6  and  C5_7 
REMARK    3  A    between atoms: C5_7  and  C6_9 
REMARK    4  A    between atoms: C12_19  and  N1_20 
REMARK       I    between atoms: N1_20  and  C13_22 
REMARK    5  A    between atoms: C13_22  and  C14_24 
REMARK    6  A    between atoms: C14_24  and  N2_25 
REMARK    7  A    between atoms: C14_24  and  C16_30 
REMARK    8  A    between atoms: C16_30  and  O9_32 
REMARK    9  A    between atoms: O9_32  and  C17_33 
REMARK       I    between atoms: C17_33  and  N5_35 
REMARK   10  A    between atoms: N5_35  and  N6_37 
ROOT
HETATM    1  N1  UNL     1       8.012  16.362 -15.402  1.00  0.00    -0.344 N 
ATOM      2  H1  UNL     1       7.755  16.131 -16.362  1.00  0.00     0.163 HD
HETATM    3  C13 UNL     1       8.587  15.355 -14.624  1.00  0.00     0.251 C 
HETATM    4  O7  UNL     1       8.917  15.596 -13.440  1.00  0.00    -0.271 OA
ENDROOT
BRANCH   1   5
HETATM    5  C12 UNL     1       7.755  17.711 -14.941  1.00  0.00     0.198 C 
HETATM    6  C7  UNL     1       8.090  18.748 -15.919  1.00  0.00     0.044 C 
HETATM    7  C4  UNL     1       9.462  19.037 -16.339  1.00  0.00     0.149 C 
HETATM    8  C8  UNL     1       7.417  20.100 -15.621  1.00  0.00     0.028 C 
HETATM    9  C10 UNL     1       7.064  18.575 -16.988  1.00  0.00     0.152 C 
HETATM   10  C3  UNL     1       9.492  19.858 -17.605  1.00  0.00     0.077 C 
HETATM   11  C2  UNL     1       8.185  20.471 -17.989  1.00  0.00     0.108 C 
HETATM   12  C1  UNL     1       7.744  20.046 -19.398  1.00  0.00     0.052 C 
HETATM   13  F1  UNL     1       8.234  21.867 -18.034  1.00  0.00    -0.243 F 
HETATM   14  C9  UNL     1       7.055  20.109 -17.070  1.00  0.00     0.056 C 
HETATM   15  O5  UNL     1       5.941  18.072 -16.288  1.00  0.00    -0.313 OA
HETATM   16  C11 UNL     1       6.244  17.825 -14.958  1.00  0.00     0.283 C 
HETATM   17  O6  UNL     1       5.536  17.706 -13.950  1.00  0.00    -0.263 OA
BRANCH   7  18
HETATM   18  O1  UNL     1      10.370  17.995 -16.300  1.00  0.00    -0.306 OA
BRANCH  18  19
HETATM   19  C5  UNL     1      10.916  17.341 -17.364  1.00  0.00     0.360 C 
HETATM   20  O2  UNL     1      11.989  17.876 -17.789  1.00  0.00    -0.252 OA
BRANCH  19  21
HETATM   21  C6  UNL     1      10.383  16.162 -17.991  1.00  0.00     0.277 C 
HETATM   22  O3  UNL     1      11.151  15.224 -18.314  1.00  0.00    -0.640 OA
HETATM   23  O4  UNL     1       9.034  16.012 -18.259  1.00  0.00    -0.640 OA
ENDBRANCH  19  21
ENDBRANCH  18  19
ENDBRANCH   7  18
ENDBRANCH   1   5
BRANCH   3  24
HETATM   24  C14 UNL     1       8.804  14.009 -15.203  1.00  0.00     0.277 C 
BRANCH  24  25
HETATM   25  N2  UNL     1       7.693  13.122 -14.958  1.00  0.00    -0.345 N 
HETATM   26  C15 UNL     1       6.681  13.013 -15.738  1.00  0.00     0.198 C 
HETATM   27  N3  UNL     1       5.664  12.103 -15.373  1.00  0.00    -0.067 NA
HETATM   28  N4  UNL     1       6.545  13.759 -16.935  1.00  0.00    -0.067 NA
ATOM     29  H2  UNL     1       7.714  12.548 -14.115  1.00  0.00     0.163 HD
ENDBRANCH  24  25
BRANCH  24  30
HETATM   30  C16 UNL     1      10.062  13.458 -14.589  1.00  0.00     0.299 C 
HETATM   31  O8  UNL     1      10.029  12.668 -13.611  1.00  0.00    -0.262 OA
BRANCH  30  32
HETATM   32  O9  UNL     1      11.303  13.806 -15.083  1.00  0.00    -0.224 OA
BRANCH  32  33
HETATM   33  C17 UNL     1      12.190  14.626 -14.403  1.00  0.00     0.386 C 
HETATM   34  O10 UNL     1      12.592  15.663 -14.983  1.00  0.00    -0.236 OA
HETATM   35  N5  UNL     1      12.651  14.337 -13.094  1.00  0.00    -0.252 N 
ATOM     36  H5  UNL     1      12.329  13.497 -12.613  1.00  0.00     0.191 HD
BRANCH  35  37
HETATM   37  N6  UNL     1      13.541  15.202 -12.465  1.00  0.00    -0.341 N 
ATOM     38  H62 UNL     1      13.189  15.852 -11.762  1.00  0.00     0.177 HD
ATOM     39  H61 UNL     1      14.531  15.179 -12.710  1.00  0.00     0.177 HD
ENDBRANCH  35  37
ENDBRANCH  32  33
ENDBRANCH  30  32
ENDBRANCH  24  30
ENDBRANCH   3  24
TORSDOF 10
ENDMDL
MODEL 4
REMARK VINA RESULT: -5.752874469      2.450      3.509
REMARK  10 active torsions:
REMARK  status: ('A' for Active; 'I' for Inactive)
REMARK    1  A    between atoms: C4_5  and  O1_6 
REMARK    2  A    between atoms: O1_6  and  C5_7 
REMARK    3  A    between atoms: C5_7  and  C6_9 
REMARK    4  A    between atoms: C12_19  and  N1_20 
REMARK       I    between atoms: N1_20  and  C13_22 
REMARK    5  A    between atoms: C13_22  and  C14_24 
REMARK    6  A    between atoms: C14_24  and  N2_25 
REMARK    7  A    between atoms: C14_24  and  C16_30 
REMARK    8  A    between atoms: C16_30  and  O9_32 
REMARK    9  A    between atoms: O9_32  and  C17_33 
REMARK       I    between atoms: C17_33  and  N5_35 
REMARK   10  A    between atoms: N5_35  and  N6_37 
ROOT
HETATM    1  N1  UNL     1       9.122  15.512 -16.740  1.00  0.00    -0.344 N 
ATOM      2  H1  UNL     1       9.224  15.821 -15.773  1.00  0.00     0.163 HD
HETATM    3  C13 UNL     1       8.646  14.219 -16.962  1.00  0.00     0.251 C 
HETATM    4  O7  UNL     1       8.506  13.800 -18.135  1.00  0.00    -0.271 OA
ENDROOT
BRANCH   1   5
HETATM    5  C12 UNL     1       9.482  16.446 -17.788  1.00  0.00     0.198 C 
HETATM    6  C7  UNL     1       8.895  17.779 -17.624  1.00  0.00     0.044 C 
HETATM    7  C4  UNL     1       7.459  18.037 -17.737  1.00  0.00     0.149 C 
HETATM    8  C8  UNL     1       9.613  18.860 -18.451  1.00  0.00     0.028 C 
HETATM    9  C10 UNL     1       9.606  18.339 -16.439  1.00  0.00     0.152 C 
HETATM   10  C3  UNL     1       7.092  19.382 -17.157  1.00  0.00     0.077 C 
HETATM   11  C2  UNL     1       8.248  20.289 -16.892  1.00  0.00     0.108 C 
HETATM   12  C1  UNL     1       8.307  20.728 -15.421  1.00  0.00     0.052 C 
HETATM   13  F1  UNL     1       8.179  21.481 -17.620  1.00  0.00    -0.243 F 
HETATM   14  C9  UNL     1       9.582  19.674 -17.199  1.00  0.00     0.056 C 
HETATM   15  O5  UNL     1      10.877  17.717 -16.493  1.00  0.00    -0.313 OA
HETATM   16  C11 UNL     1      10.935  16.774 -17.507  1.00  0.00     0.283 C 
HETATM   17  O6  UNL     1      11.883  16.254 -18.109  1.00  0.00    -0.263 OA
BRANCH   7  18
HETATM   18  O1  UNL     1       6.600  17.006 -17.403  1.00  0.00    -0.306 OA
BRANCH  18  19
HETATM   19  C5  UNL     1       5.738  16.965 -16.348  1.00  0.00     0.360 C 
HETATM   20  O2  UNL     1       4.532  16.752 -16.690  1.00  0.00    -0.252 OA
BRANCH  19  21
HETATM   21  C6  UNL     1       6.092  17.135 -14.965  1.00  0.00     0.277 C 
HETATM   22  O3  UNL     1       7.135  16.601 -14.516  1.00  0.00    -0.640 OA
HETATM   23  O4  UNL     1       5.319  17.877 -14.090  1.00  0.00    -0.640 OA
ENDBRANCH  19  21
ENDBRANCH  18  19
ENDBRANCH   7  18
ENDBRANCH   1   5
BRANCH   3  24
HETATM   24  C14 UNL     1       8.308  13.350 -15.811  1.00  0.00     0.277 C 
BRANCH  24  25
HETATM   25  N2  UNL     1       7.094  13.762 -15.151  1.00  0.00    -0.345 N 
HETATM   26  C15 UNL     1       5.926  13.349 -15.482  1.00  0.00     0.198 C 
HETATM   27  N3  UNL     1       4.823  13.837 -14.748  1.00  0.00    -0.067 NA
HETATM   28  N4  UNL     1       5.702  12.435 -16.543  1.00  0.00    -0.067 NA
ATOM     29  H2  UNL     1       7.169  14.420 -14.375  1.00  0.00     0.163 HD
ENDBRANCH  24  25
BRANCH  24  30
HETATM   30  C16 UNL     1       9.471  13.406 -14.857  1.00  0.00     0.299 C 
HETATM   31  O8  UNL     1      10.320  12.479 -14.795  1.00  0.00    -0.262 OA
BRANCH  30  32
HETATM   32  O9  UNL     1       9.644  14.482 -14.012  1.00  0.00    -0.224 OA
BRANCH  32  33
HETATM   33  C17 UNL     1      10.748  14.633 -13.188  1.00  0.00     0.386 C 
HETATM   34  O10 UNL     1      10.558  14.655 -11.948  1.00  0.00    -0.236 OA
HETATM   35  N5  UNL     1      12.068  14.762 -13.692  1.00  0.00    -0.252 N 
ATOM     36  H5  UNL     1      12.233  14.745 -14.699  1.00  0.00     0.191 HD
BRANCH  35  37
HETATM   37  N6  UNL     1      13.136  14.911 -12.813  1.00  0.00    -0.341 N 
ATOM     38  H62 UNL     1      13.134  14.386 -11.938  1.00  0.00     0.177 HD
ATOM     39  H61 UNL     1      13.904  15.540 -13.047  1.00  0.00     0.177 HD
ENDBRANCH  35  37
ENDBRANCH  32  33
ENDBRANCH  30  32
ENDBRANCH  24  30
ENDBRANCH   3  24
TORSDOF 10
ENDMDL
MODEL 5
REMARK VINA RESULT: -5.653525274      2.417      3.842
REMARK  10 active torsions:
REMARK  status: ('A' for Active; 'I' for Inactive)
REMARK    1  A    between atoms: C4_5  and  O1_6 
REMARK    2  A    between atoms: O1_6  and  C5_7 
REMARK    3  A    between atoms: C5_7  and  C6_9 
REMARK    4  A    between atoms: C12_19  and  N1_20 
REMARK       I    between atoms: N1_20  and  C13_22 
REMARK    5  A    between atoms: C13_22  and  C14_24 
REMARK    6  A    between atoms: C14_24  and  N2_25 
REMARK    7  A    between atoms: C14_24  and  C16_30 
REMARK    8  A    between atoms: C16_30  and  O9_32 
REMARK    9  A    between atoms: O9_32  and  C17_33 
REMARK       I    between atoms: C17_33  and  N5_35 
REMARK   10  A    between atoms: N5_35  and  N6_37 
ROOT
HETATM    1  N1  UNL     1       9.826  14.853 -16.184  1.00  0.00    -0.344 N 
ATOM      2  H1  UNL     1       8.868  15.170 -16.034  1.00  0.00     0.163 HD
HETATM    3  C13 UNL     1      10.167  13.578 -15.727  1.00  0.00     0.251 C 
HETATM    4  O7  UNL     1      11.333  13.150 -15.892  1.00  0.00    -0.271 OA
ENDROOT
BRANCH   1   5
HETATM    5  C12 UNL     1      10.737  15.756 -16.857  1.00  0.00     0.198 C 
HETATM    6  C7  UNL     1      10.080  16.899 -17.496  1.00  0.00     0.044 C 
HETATM    7  C4  UNL     1       9.188  16.764 -18.649  1.00  0.00     0.149 C 
HETATM    8  C8  UNL     1      11.046  18.055 -17.806  1.00  0.00     0.028 C 
HETATM    9  C10 UNL     1       9.603  17.723 -16.348  1.00  0.00     0.152 C 
HETATM   10  C3  UNL     1       8.364  18.012 -18.858  1.00  0.00     0.077 C 
HETATM   11  C2  UNL     1       8.827  19.208 -18.092  1.00  0.00     0.108 C 
HETATM   12  C1  UNL     1       7.722  19.770 -17.185  1.00  0.00     0.052 C 
HETATM   13  F1  UNL     1       9.189  20.274 -18.920  1.00  0.00    -0.243 F 
HETATM   14  C9  UNL     1      10.003  18.936 -17.201  1.00  0.00     0.056 C 
HETATM   15  O5  UNL     1      10.551  17.450 -15.331  1.00  0.00    -0.313 OA
HETATM   16  C11 UNL     1      11.449  16.471 -15.727  1.00  0.00     0.283 C 
HETATM   17  O6  UNL     1      12.580  16.167 -15.328  1.00  0.00    -0.263 OA
BRANCH   7  18
HETATM   18  O1  UNL     1       8.490  15.578 -18.777  1.00  0.00    -0.306 OA
BRANCH  18  19
HETATM   19  C5  UNL     1       8.629  14.645 -19.761  1.00  0.00     0.360 C 
HETATM   20  O2  UNL     1       9.770  14.671 -20.322  1.00  0.00    -0.252 OA
BRANCH  19  21
HETATM   21  C6  UNL     1       7.628  13.699 -20.171  1.00  0.00     0.277 C 
HETATM   22  O3  UNL     1       6.471  14.095 -20.453  1.00  0.00    -0.640 OA
HETATM   23  O4  UNL     1       7.887  12.343 -20.269  1.00  0.00    -0.640 OA
ENDBRANCH  19  21
ENDBRANCH  18  19
ENDBRANCH   7  18
ENDBRANCH   1   5
BRANCH   3  24
HETATM   24  C14 UNL     1       9.150  12.741 -15.051  1.00  0.00     0.277 C 
BRANCH  24  25
HETATM   25  N2  UNL     1       8.026  13.515 -14.584  1.00  0.00    -0.345 N 
HETATM   26  C15 UNL     1       7.001  13.791 -15.304  1.00  0.00     0.198 C 
HETATM   27  N3  UNL     1       5.972  14.560 -14.716  1.00  0.00    -0.067 NA
HETATM   28  N4  UNL     1       6.863  13.362 -16.648  1.00  0.00    -0.067 NA
ATOM     29  H2  UNL     1       8.047  13.862 -13.625  1.00  0.00     0.163 HD
ENDBRANCH  24  25
BRANCH  24  30
HETATM   30  C16 UNL     1       9.833  12.056 -13.898  1.00  0.00     0.299 C 
HETATM   31  O8  UNL     1      10.241  10.869 -13.983  1.00  0.00    -0.262 OA
BRANCH  30  32
HETATM   32  O9  UNL     1      10.034  12.712 -12.702  1.00  0.00    -0.224 OA
BRANCH  32  33
HETATM   33  C17 UNL     1      10.896  13.789 -12.559  1.00  0.00     0.386 C 
HETATM   34  O10 UNL     1      10.433  14.853 -12.083  1.00  0.00    -0.236 OA
HETATM   35  N5  UNL     1      12.264  13.728 -12.927  1.00  0.00    -0.252 N 
ATOM     36  H5  UNL     1      12.650  12.867 -13.315  1.00  0.00     0.191 HD
BRANCH  35  37
HETATM   37  N6  UNL     1      13.079  14.843 -12.759  1.00  0.00    -0.341 N 
ATOM     38  H62 UNL     1      12.771  15.742 -13.130  1.00  0.00     0.177 HD
ATOM     39  H61 UNL     1      13.970  14.753 -12.270  1.00  0.00     0.177 HD
ENDBRANCH  35  37
ENDBRANCH  32  33
ENDBRANCH  30  32
ENDBRANCH  24  30
ENDBRANCH   3  24
TORSDOF 10
ENDMDL
