MODEL 1
REMARK VINA RESULT: -8.835678324      0.000      0.000
REMARK  9 active torsions:
REMARK  status: ('A' for Active; 'I' for Inactive)
REMARK    1  A    between atoms: O1_2  and  C2_3 
REMARK    2  A    between atoms: C5_6  and  N1_7 
REMARK       I    between atoms: N1_7  and  C6_9 
REMARK    3  A    between atoms: C6_9  and  C7_11 
REMARK    4  A    between atoms: C7_11  and  O3_12 
REMARK    5  A    between atoms: O3_12  and  C8_13 
REMARK    6  A    between atoms: C8_13  and  C9_15 
REMARK    7  A    between atoms: C11_20  and  C12_21 
REMARK    8  A    between atoms: C18_30  and  O7_31 
REMARK    9  A    between atoms: C18_30  and  C19_33 
ROOT
HETATM    1  C9  UNL     1      21.177   9.898  10.062  1.00  0.00     0.244 C 
HETATM    2  C10 UNL     1      22.517  10.436  10.556  1.00  0.00     0.239 C 
HETATM    3  O5  UNL     1      23.150   9.927  11.499  1.00  0.00    -0.272 OA
HETATM    4  N2  UNL     1      22.963  11.569   9.830  1.00  0.00    -0.330 N 
ATOM      5  H2  UNL     1      23.815  12.090  10.043  1.00  0.00     0.165 HD
HETATM    6  C11 UNL     1      22.039  11.898   8.729  1.00  0.00     0.265 C 
HETATM    7  O6  UNL     1      20.853  12.184   9.318  1.00  0.00    -0.321 OA
HETATM    8  C18 UNL     1      20.294  11.075   9.980  1.00  0.00     0.215 C 
ENDROOT
BRANCH   1   9
HETATM    9  C8  UNL     1      20.853   8.809  10.941  1.00  0.00     0.278 C 
HETATM   10  O4  UNL     1      21.573   7.745  10.893  1.00  0.00    -0.264 OA
BRANCH   9  11
HETATM   11  O3  UNL     1      19.836   8.723  11.895  1.00  0.00    -0.311 OA
BRANCH  11  12
HETATM   12  C7  UNL     1      19.015   7.566  11.874  1.00  0.00     0.281 C 
BRANCH  12  13
HETATM   13  C6  UNL     1      17.599   7.841  12.238  1.00  0.00     0.246 C 
HETATM   14  N1  UNL     1      16.547   7.154  11.564  1.00  0.00    -0.325 N 
ATOM     15  H1  UNL     1      16.826   6.488  10.844  1.00  0.00     0.169 HD
HETATM   16  O2  UNL     1      17.363   8.665  13.120  1.00  0.00    -0.271 OA
BRANCH  14  17
HETATM   17  C5  UNL     1      15.179   7.297  11.785  1.00  0.00     0.035 A 
HETATM   18  C4  UNL     1      14.452   6.756  12.819  1.00  0.00     0.032 A 
HETATM   19  C3  UNL     1      13.072   6.962  12.875  1.00  0.00     0.039 A 
HETATM   20  C2  UNL     1      12.398   7.698  11.918  1.00  0.00     0.068 A 
HETATM   21  C26 UNL     1      13.130   8.227  10.902  1.00  0.00     0.039 A 
HETATM   22  C25 UNL     1      14.482   8.046  10.815  1.00  0.00     0.032 A 
BRANCH  20  23
HETATM   23  O1  UNL     1      11.022   7.900  11.977  1.00  0.00    -0.356 OA
HETATM   24  C1  UNL     1      10.377   8.716  11.000  1.00  0.00     0.210 C 
ENDBRANCH  20  23
ENDBRANCH  14  17
ENDBRANCH  12  13
ENDBRANCH  11  12
ENDBRANCH   9  11
ENDBRANCH   1   9
BRANCH   8  25
HETATM   25  O7  UNL     1      20.033  11.528  11.282  1.00  0.00    -0.360 OA
ATOM     26  H7  UNL     1      19.151  11.268  11.521  1.00  0.00     0.213 HD
ENDBRANCH   8  25
BRANCH   8  27
HETATM   27  C19 UNL     1      18.964  10.829   9.332  1.00  0.00     0.005 A 
HETATM   28  C20 UNL     1      18.750  10.400   8.073  1.00  0.00     0.015 A 
HETATM   29  C21 UNL     1      17.466  10.204   7.561  1.00  0.00     0.043 A 
HETATM   30  C22 UNL     1      16.375  10.451   8.348  1.00  0.00     0.116 A 
HETATM   31  F1  UNL     1      15.096  10.276   7.889  1.00  0.00    -0.206 F 
HETATM   32  C23 UNL     1      16.570  10.889   9.636  1.00  0.00     0.043 A 
HETATM   33  C24 UNL     1      17.835  11.075  10.119  1.00  0.00     0.015 A 
ENDBRANCH   8  27
BRANCH   6  34
HETATM   34  C12 UNL     1      22.669  12.856   7.861  1.00  0.00     0.034 A 
HETATM   35  C13 UNL     1      23.037  14.146   8.136  1.00  0.00     0.046 A 
HETATM   36 CL1  UNL     1      22.810  14.730   9.768  1.00  0.00    -0.084 Cl
HETATM   37  C14 UNL     1      23.578  15.007   7.216  1.00  0.00     0.024 A 
HETATM   38  C15 UNL     1      23.775  14.574   5.923  1.00  0.00     0.003 A 
HETATM   39  C16 UNL     1      23.423  13.284   5.590  1.00  0.00     0.024 A 
HETATM   40  C17 UNL     1      22.883  12.437   6.529  1.00  0.00     0.046 A 
HETATM   41 CL2  UNL     1      22.428  10.825   6.009  1.00  0.00    -0.084 Cl
ENDBRANCH   6  34
TORSDOF 9
ENDMDL
MODEL 2
REMARK VINA RESULT: -8.733057559      6.178      9.285
REMARK  9 active torsions:
REMARK  status: ('A' for Active; 'I' for Inactive)
REMARK    1  A    between atoms: O1_2  and  C2_3 
REMARK    2  A    between atoms: C5_6  and  N1_7 
REMARK       I    between atoms: N1_7  and  C6_9 
REMARK    3  A    between atoms: C6_9  and  C7_11 
REMARK    4  A    between atoms: C7_11  and  O3_12 
REMARK    5  A    between atoms: O3_12  and  C8_13 
REMARK    6  A    between atoms: C8_13  and  C9_15 
REMARK    7  A    between atoms: C11_20  and  C12_21 
REMARK    8  A    between atoms: C18_30  and  O7_31 
REMARK    9  A    between atoms: C18_30  and  C19_33 
ROOT
HETATM    1  C9  UNL     1      11.532  10.662   9.501  1.00  0.00     0.244 C 
HETATM    2  C10 UNL     1      11.243   9.164   9.508  1.00  0.00     0.239 C 
HETATM    3  O5  UNL     1      10.268   8.655   8.927  1.00  0.00    -0.272 OA
HETATM    4  N2  UNL     1      12.198   8.417  10.243  1.00  0.00    -0.330 N 
ATOM      5  H2  UNL     1      12.147   7.409  10.396  1.00  0.00     0.165 HD
HETATM    6  C11 UNL     1      13.273   9.283  10.760  1.00  0.00     0.265 C 
HETATM    7  O6  UNL     1      12.667  10.169  11.587  1.00  0.00    -0.321 OA
HETATM    8  C18 UNL     1      11.771  11.018  10.910  1.00  0.00     0.215 C 
ENDROOT
BRANCH   1   9
HETATM    9  C8  UNL     1      10.443  11.259   8.778  1.00  0.00     0.278 C 
HETATM   10  O4  UNL     1       9.257  11.164   9.263  1.00  0.00    -0.264 OA
BRANCH   9  11
HETATM   11  O3  UNL     1      10.473  11.970   7.576  1.00  0.00    -0.311 OA
BRANCH  11  12
HETATM   12  C7  UNL     1      10.620  11.225   6.377  1.00  0.00     0.281 C 
BRANCH  12  13
HETATM   13  C6  UNL     1      12.003  10.720   6.163  1.00  0.00     0.246 C 
HETATM   14  N1  UNL     1      12.262   9.319   6.213  1.00  0.00    -0.325 N 
ATOM     15  H1  UNL     1      11.462   8.714   6.399  1.00  0.00     0.169 HD
HETATM   16  O2  UNL     1      12.903  11.530   5.947  1.00  0.00    -0.271 OA
BRANCH  14  17
HETATM   17  C5  UNL     1      13.491   8.689   6.035  1.00  0.00     0.035 A 
HETATM   18  C4  UNL     1      14.247   8.669   4.887  1.00  0.00     0.032 A 
HETATM   19  C3  UNL     1      15.446   7.953   4.861  1.00  0.00     0.039 A 
HETATM   20  C2  UNL     1      15.909   7.254   5.959  1.00  0.00     0.068 A 
HETATM   21  C26 UNL     1      15.152   7.284   7.089  1.00  0.00     0.039 A 
HETATM   22  C25 UNL     1      13.974   7.973   7.150  1.00  0.00     0.032 A 
BRANCH  20  23
HETATM   23  O1  UNL     1      17.105   6.541   5.929  1.00  0.00    -0.356 OA
HETATM   24  C1  UNL     1      17.086   5.116   5.873  1.00  0.00     0.210 C 
ENDBRANCH  20  23
ENDBRANCH  14  17
ENDBRANCH  12  13
ENDBRANCH  11  12
ENDBRANCH   9  11
ENDBRANCH   1   9
BRANCH   8  25
HETATM   25  O7  UNL     1      10.562  10.897  11.612  1.00  0.00    -0.360 OA
ATOM     26  H7  UNL     1      10.503  11.610  12.237  1.00  0.00     0.213 HD
ENDBRANCH   8  25
BRANCH   8  27
HETATM   27  C19 UNL     1      12.266  12.415  11.139  1.00  0.00     0.005 A 
HETATM   28  C20 UNL     1      13.483  12.899  10.823  1.00  0.00     0.015 A 
HETATM   29  C21 UNL     1      13.850  14.221  11.082  1.00  0.00     0.043 A 
HETATM   30  C22 UNL     1      12.958  15.070  11.677  1.00  0.00     0.116 A 
HETATM   31  F1  UNL     1      13.273  16.374  11.952  1.00  0.00    -0.206 F 
HETATM   32  C23 UNL     1      11.710  14.597  12.007  1.00  0.00     0.043 A 
HETATM   33  C24 UNL     1      11.370  13.300  11.746  1.00  0.00     0.015 A 
ENDBRANCH   8  27
BRANCH   6  34
HETATM   34  C12 UNL     1      14.348   8.458  11.241  1.00  0.00     0.034 A 
HETATM   35  C13 UNL     1      14.315   7.493  12.212  1.00  0.00     0.046 A 
HETATM   36 CL1  UNL     1      12.769   7.116  12.937  1.00  0.00    -0.084 Cl
HETATM   37  C14 UNL     1      15.414   6.799  12.648  1.00  0.00     0.024 A 
HETATM   38  C15 UNL     1      16.645   7.069  12.092  1.00  0.00     0.003 A 
HETATM   39  C16 UNL     1      16.738   8.031  11.109  1.00  0.00     0.024 A 
HETATM   40  C17 UNL     1      15.622   8.715  10.687  1.00  0.00     0.046 A 
HETATM   41 CL2  UNL     1      15.836   9.949   9.460  1.00  0.00    -0.084 Cl
ENDBRANCH   6  34
TORSDOF 9
ENDMDL
MODEL 3
REMARK VINA RESULT: -8.633051907      1.092      1.449
REMARK  9 active torsions:
REMARK  status: ('A' for Active; 'I' for Inactive)
REMARK    1  A    between atoms: O1_2  and  C2_3 
REMARK    2  A    between atoms: C5_6  and  N1_7 
REMARK       I    between atoms: N1_7  and  C6_9 
REMARK    3  A    between atoms: C6_9  and  C7_11 
REMARK    4  A    between atoms: C7_11  and  O3_12 
REMARK    5  A    between atoms: O3_12  and  C8_13 
REMARK    6  A    between atoms: C8_13  and  C9_15 
REMARK    7  A    between atoms: C11_20  and  C12_21 
REMARK    8  A    between atoms: C18_30  and  O7_31 
REMARK    9  A    between atoms: C18_30  and  C19_33 
ROOT
HETATM    1  C9  UNL     1      21.232  10.411   9.341  1.00  0.00     0.244 C 
HETATM    2  C10 UNL     1      22.360  11.101  10.104  1.00  0.00     0.239 C 
HETATM    3  O5  UNL     1      22.738  10.741  11.233  1.00  0.00    -0.272 OA
HETATM    4  N2  UNL     1      22.930  12.187   9.393  1.00  0.00    -0.330 N 
ATOM      5  H2  UNL     1      23.664  12.793   9.759  1.00  0.00     0.165 HD
HETATM    6  C11 UNL     1      22.323  12.329   8.056  1.00  0.00     0.265 C 
HETATM    7  O6  UNL     1      21.009  12.578   8.273  1.00  0.00    -0.321 OA
HETATM    8  C18 UNL     1      20.347  11.500   8.890  1.00  0.00     0.215 C 
ENDROOT
BRANCH   1   9
HETATM    9  C8  UNL     1      20.737   9.394  10.226  1.00  0.00     0.278 C 
HETATM   10  O4  UNL     1      21.333   8.256  10.250  1.00  0.00    -0.264 OA
BRANCH   9  11
HETATM   11  O3  UNL     1      19.663   9.453  11.117  1.00  0.00    -0.311 OA
BRANCH  11  12
HETATM   12  C7  UNL     1      19.222   8.233  11.693  1.00  0.00     0.281 C 
BRANCH  12  13
HETATM   13  C6  UNL     1      17.808   8.276  12.156  1.00  0.00     0.246 C 
HETATM   14  N1  UNL     1      16.814   7.520  11.469  1.00  0.00    -0.325 N 
ATOM     15  H1  UNL     1      17.130   6.970  10.671  1.00  0.00     0.169 HD
HETATM   16  O2  UNL     1      17.525   8.972  13.129  1.00  0.00    -0.271 OA
BRANCH  14  17
HETATM   17  C5  UNL     1      15.456   7.453  11.774  1.00  0.00     0.035 A 
HETATM   18  C4  UNL     1      14.877   6.738  12.795  1.00  0.00     0.032 A 
HETATM   19  C3  UNL     1      13.487   6.744  12.941  1.00  0.00     0.039 A 
HETATM   20  C2  UNL     1      12.661   7.450  12.088  1.00  0.00     0.068 A 
HETATM   21  C26 UNL     1      13.248   8.154  11.083  1.00  0.00     0.039 A 
HETATM   22  C25 UNL     1      14.604   8.170  10.910  1.00  0.00     0.032 A 
BRANCH  20  23
HETATM   23  O1  UNL     1      11.276   7.454  12.237  1.00  0.00    -0.356 OA
HETATM   24  C1  UNL     1      10.457   8.124  11.281  1.00  0.00     0.210 C 
ENDBRANCH  20  23
ENDBRANCH  14  17
ENDBRANCH  12  13
ENDBRANCH  11  12
ENDBRANCH   9  11
ENDBRANCH   1   9
BRANCH   8  25
HETATM   25  O7  UNL     1      19.721  12.059  10.015  1.00  0.00    -0.360 OA
ATOM     26  H7  UNL     1      18.954  12.540   9.725  1.00  0.00     0.213 HD
ENDBRANCH   8  25
BRANCH   8  27
HETATM   27  C19 UNL     1      19.257  11.085   7.949  1.00  0.00     0.005 A 
HETATM   28  C20 UNL     1      17.974  10.828   8.268  1.00  0.00     0.015 A 
HETATM   29  C21 UNL     1      17.030  10.443   7.314  1.00  0.00     0.043 A 
HETATM   30  C22 UNL     1      17.402  10.315   6.004  1.00  0.00     0.116 A 
HETATM   31  F1  UNL     1      16.513   9.937   5.032  1.00  0.00    -0.206 F 
HETATM   32  C23 UNL     1      18.706  10.572   5.656  1.00  0.00     0.043 A 
HETATM   33  C24 UNL     1      19.615  10.948   6.604  1.00  0.00     0.015 A 
ENDBRANCH   8  27
BRANCH   6  34
HETATM   34  C12 UNL     1      23.116  13.242   7.278  1.00  0.00     0.034 A 
HETATM   35  C13 UNL     1      23.184  14.607   7.368  1.00  0.00     0.046 A 
HETATM   36 CL1  UNL     1      22.268  15.388   8.636  1.00  0.00    -0.084 Cl
HETATM   37  C14 UNL     1      23.928  15.399   6.533  1.00  0.00     0.024 A 
HETATM   38  C15 UNL     1      24.666  14.812   5.528  1.00  0.00     0.003 A 
HETATM   39  C16 UNL     1      24.636  13.441   5.391  1.00  0.00     0.024 A 
HETATM   40  C17 UNL     1      23.883  12.666   6.240  1.00  0.00     0.046 A 
HETATM   41 CL2  UNL     1      23.871  10.933   5.970  1.00  0.00    -0.084 Cl
ENDBRANCH   6  34
TORSDOF 9
ENDMDL
MODEL 4
REMARK VINA RESULT: -8.359559905      7.019      9.846
REMARK  9 active torsions:
REMARK  status: ('A' for Active; 'I' for Inactive)
REMARK    1  A    between atoms: O1_2  and  C2_3 
REMARK    2  A    between atoms: C5_6  and  N1_7 
REMARK       I    between atoms: N1_7  and  C6_9 
REMARK    3  A    between atoms: C6_9  and  C7_11 
REMARK    4  A    between atoms: C7_11  and  O3_12 
REMARK    5  A    between atoms: O3_12  and  C8_13 
REMARK    6  A    between atoms: C8_13  and  C9_15 
REMARK    7  A    between atoms: C11_20  and  C12_21 
REMARK    8  A    between atoms: C18_30  and  O7_31 
REMARK    9  A    between atoms: C18_30  and  C19_33 
ROOT
HETATM    1  C9  UNL     1      12.039  11.363  10.345  1.00  0.00     0.244 C 
HETATM    2  C10 UNL     1      11.134  12.140   9.393  1.00  0.00     0.239 C 
HETATM    3  O5  UNL     1      10.381  13.057   9.765  1.00  0.00    -0.272 OA
HETATM    4  N2  UNL     1      11.242  11.709   8.046  1.00  0.00    -0.330 N 
ATOM      5  H2  UNL     1      10.685  12.080   7.276  1.00  0.00     0.165 HD
HETATM    6  C11 UNL     1      12.264  10.655   7.902  1.00  0.00     0.265 C 
HETATM    7  O6  UNL     1      11.837   9.622   8.668  1.00  0.00    -0.321 OA
HETATM    8  C18 UNL     1      11.797   9.943  10.038  1.00  0.00     0.215 C 
ENDROOT
BRANCH   1   9
HETATM    9  C8  UNL     1      11.753  11.881  11.654  1.00  0.00     0.278 C 
HETATM   10  O4  UNL     1      10.643  11.556  12.215  1.00  0.00    -0.264 OA
BRANCH   9  11
HETATM   11  O3  UNL     1      12.533  12.715  12.458  1.00  0.00    -0.311 OA
BRANCH  11  12
HETATM   12  C7  UNL     1      13.048  13.899  11.869  1.00  0.00     0.281 C 
BRANCH  12  13
HETATM   13  C6  UNL     1      12.093  15.039  11.905  1.00  0.00     0.246 C 
HETATM   14  N1  UNL     1      10.726  14.809  12.242  1.00  0.00    -0.325 N 
ATOM     15  H1  UNL     1      10.464  13.846  12.448  1.00  0.00     0.169 HD
HETATM   16  O2  UNL     1      12.505  16.167  11.638  1.00  0.00    -0.271 OA
BRANCH  14  17
HETATM   17  C5  UNL     1       9.713  15.762  12.320  1.00  0.00     0.035 A 
HETATM   18  C4  UNL     1       9.263  16.393  13.455  1.00  0.00     0.032 A 
HETATM   19  C3  UNL     1       8.204  17.300  13.367  1.00  0.00     0.039 A 
HETATM   20  C2  UNL     1       7.581  17.590  12.168  1.00  0.00     0.068 A 
HETATM   21  C26 UNL     1       8.037  16.959  11.054  1.00  0.00     0.039 A 
HETATM   22  C25 UNL     1       9.071  16.066  11.102  1.00  0.00     0.032 A 
BRANCH  20  23
HETATM   23  O1  UNL     1       6.525  18.494  12.086  1.00  0.00    -0.356 OA
HETATM   24  C1  UNL     1       5.276  18.085  11.532  1.00  0.00     0.210 C 
ENDBRANCH  20  23
ENDBRANCH  14  17
ENDBRANCH  12  13
ENDBRANCH  11  12
ENDBRANCH   9  11
ENDBRANCH   1   9
BRANCH   8  25
HETATM   25  O7  UNL     1      10.494   9.615  10.446  1.00  0.00    -0.360 OA
ATOM     26  H7  UNL     1      10.164   8.929   9.878  1.00  0.00     0.213 HD
ENDBRANCH   8  25
BRANCH   8  27
HETATM   27  C19 UNL     1      12.719   8.978  10.721  1.00  0.00     0.005 A 
HETATM   28  C20 UNL     1      14.013   8.754  10.421  1.00  0.00     0.015 A 
HETATM   29  C21 UNL     1      14.790   7.826  11.118  1.00  0.00     0.043 A 
HETATM   30  C22 UNL     1      14.236   7.109  12.143  1.00  0.00     0.116 A 
HETATM   31  F1  UNL     1      14.958   6.187  12.854  1.00  0.00    -0.206 F 
HETATM   32  C23 UNL     1      12.917   7.322  12.465  1.00  0.00     0.043 A 
HETATM   33  C24 UNL     1      12.174   8.234  11.772  1.00  0.00     0.015 A 
ENDBRANCH   8  27
BRANCH   6  34
HETATM   34  C12 UNL     1      12.537  10.458   6.504  1.00  0.00     0.034 A 
HETATM   35  C13 UNL     1      11.650  10.354   5.466  1.00  0.00     0.046 A 
HETATM   36 CL1  UNL     1       9.951  10.566   5.819  1.00  0.00    -0.084 Cl
HETATM   37  C14 UNL     1      12.009  10.102   4.167  1.00  0.00     0.024 A 
HETATM   38  C15 UNL     1      13.340   9.937   3.856  1.00  0.00     0.003 A 
HETATM   39  C16 UNL     1      14.278  10.031   4.862  1.00  0.00     0.024 A 
HETATM   40  C17 UNL     1      13.896  10.285   6.158  1.00  0.00     0.046 A 
HETATM   41 CL2  UNL     1      15.151  10.350   7.381  1.00  0.00    -0.084 Cl
ENDBRANCH   6  34
TORSDOF 9
ENDMDL
MODEL 5
REMARK VINA RESULT: -8.301115732      4.189      8.806
REMARK  9 active torsions:
REMARK  status: ('A' for Active; 'I' for Inactive)
REMARK    1  A    between atoms: O1_2  and  C2_3 
REMARK    2  A    between atoms: C5_6  and  N1_7 
REMARK       I    between atoms: N1_7  and  C6_9 
REMARK    3  A    between atoms: C6_9  and  C7_11 
REMARK    4  A    between atoms: C7_11  and  O3_12 
REMARK    5  A    between atoms: O3_12  and  C8_13 
REMARK    6  A    between atoms: C8_13  and  C9_15 
REMARK    7  A    between atoms: C11_20  and  C12_21 
REMARK    8  A    between atoms: C18_30  and  O7_31 
REMARK    9  A    between atoms: C18_30  and  C19_33 
ROOT
HETATM    1  C9  UNL     1      13.007   8.497  10.182  1.00  0.00     0.244 C 
HETATM    2  C10 UNL     1      12.687   7.522   9.052  1.00  0.00     0.239 C 
HETATM    3  O5  UNL     1      12.778   6.287   9.172  1.00  0.00    -0.272 OA
HETATM    4  N2  UNL     1      12.278   8.168   7.859  1.00  0.00    -0.330 N 
ATOM      5  H2  UNL     1      12.065   7.685   6.986  1.00  0.00     0.165 HD
HETATM    6  C11 UNL     1      12.200   9.630   8.040  1.00  0.00     0.265 C 
HETATM    7  O6  UNL     1      13.457  10.028   8.355  1.00  0.00    -0.321 OA
HETATM    8  C18 UNL     1      13.900   9.504   9.584  1.00  0.00     0.215 C 
ENDROOT
BRANCH   1   9
HETATM    9  C8  UNL     1      13.461   7.682  11.274  1.00  0.00     0.278 C 
HETATM   10  O4  UNL     1      12.585   7.102  12.015  1.00  0.00    -0.264 OA
BRANCH   9  11
HETATM   11  O3  UNL     1      14.769   7.397  11.672  1.00  0.00    -0.311 OA
BRANCH  11  12
HETATM   12  C7  UNL     1      15.229   7.983  12.880  1.00  0.00     0.281 C 
BRANCH  12  13
HETATM   13  C6  UNL     1      16.634   8.468  12.804  1.00  0.00     0.246 C 
HETATM   14  N1  UNL     1      17.203   8.795  11.538  1.00  0.00    -0.325 N 
ATOM     15  H1  UNL     1      16.600   8.677  10.724  1.00  0.00     0.169 HD
HETATM   16  O2  UNL     1      17.282   8.575  13.843  1.00  0.00    -0.271 OA
BRANCH  14  17
HETATM   17  C5  UNL     1      18.494   9.258  11.296  1.00  0.00     0.035 A 
HETATM   18  C4  UNL     1      18.854  10.528  10.914  1.00  0.00     0.032 A 
HETATM   19  C3  UNL     1      20.198  10.822  10.672  1.00  0.00     0.039 A 
HETATM   20  C2  UNL     1      21.194   9.873  10.802  1.00  0.00     0.068 A 
HETATM   21  C26 UNL     1      20.823   8.622  11.182  1.00  0.00     0.039 A 
HETATM   22  C25 UNL     1      19.518   8.298  11.427  1.00  0.00     0.032 A 
BRANCH  20  23
HETATM   23  O1  UNL     1      22.532  10.171  10.559  1.00  0.00    -0.356 OA
HETATM   24  C1  UNL     1      22.912  11.491  10.174  1.00  0.00     0.210 C 
ENDBRANCH  20  23
ENDBRANCH  14  17
ENDBRANCH  12  13
ENDBRANCH  11  12
ENDBRANCH   9  11
ENDBRANCH   1   9
BRANCH   8  25
HETATM   25  O7  UNL     1      15.129   8.891   9.290  1.00  0.00    -0.360 OA
ATOM     26  H7  UNL     1      15.727   9.555   8.967  1.00  0.00     0.213 HD
ENDBRANCH   8  25
BRANCH   8  27
HETATM   27  C19 UNL     1      14.203  10.685  10.457  1.00  0.00     0.005 A 
HETATM   28  C20 UNL     1      13.512  11.080  11.544  1.00  0.00     0.015 A 
HETATM   29  C21 UNL     1      13.876  12.201  12.291  1.00  0.00     0.043 A 
HETATM   30  C22 UNL     1      14.967  12.939  11.923  1.00  0.00     0.116 A 
HETATM   31  F1  UNL     1      15.361  14.048  12.624  1.00  0.00    -0.206 F 
HETATM   32  C23 UNL     1      15.687  12.554  10.818  1.00  0.00     0.043 A 
HETATM   33  C24 UNL     1      15.316  11.453  10.100  1.00  0.00     0.015 A 
ENDBRANCH   8  27
BRANCH   6  34
HETATM   34  C12 UNL     1      11.517  10.205   6.914  1.00  0.00     0.034 A 
HETATM   35  C13 UNL     1      11.899  10.220   5.599  1.00  0.00     0.046 A 
HETATM   36 CL1  UNL     1      13.363   9.368   5.164  1.00  0.00    -0.084 Cl
HETATM   37  C14 UNL     1      11.205  10.853   4.601  1.00  0.00     0.024 A 
HETATM   38  C15 UNL     1      10.044  11.528   4.911  1.00  0.00     0.003 A 
HETATM   39  C16 UNL     1       9.611  11.546   6.219  1.00  0.00     0.024 A 
HETATM   40  C17 UNL     1      10.323  10.903   7.204  1.00  0.00     0.046 A 
HETATM   41 CL2  UNL     1       9.722  11.009   8.849  1.00  0.00    -0.084 Cl
ENDBRANCH   6  34
TORSDOF 9
ENDMDL
