MODEL 1
REMARK VINA RESULT: -9.147509189      0.000      0.000
REMARK  7 active torsions:
REMARK  status: ('A' for Active; 'I' for Inactive)
REMARK    1  A    between atoms: C1_2  and  C2_4 
REMARK    2  A    between atoms: C3_8  and  C4_9 
REMARK    3  A    between atoms: C4_9  and  C5_11 
REMARK    4  A    between atoms: C8_15  and  C9_16 
REMARK    5  A    between atoms: C15_23  and  N3_24 
REMARK    6  A    between atoms: N3_24  and  S2_26 
REMARK    7  A    between atoms: S2_26  and  C16_29 
ROOT
HETATM    1  C5  UNL     1      18.257   9.658  10.661  1.00  0.00     0.021 A 
HETATM    2  C6  UNL     1      17.541   8.632  10.086  1.00  0.00     0.058 A 
HETATM    3  C7  UNL     1      16.176   8.587  10.158  1.00  0.00     0.130 A 
HETATM    4  F1  UNL     1      15.463   7.563   9.582  1.00  0.00    -0.205 F 
HETATM    5  C8  UNL     1      15.449   9.558  10.805  1.00  0.00     0.040 A 
HETATM    6  C15 UNL     1      16.163  10.613  11.398  1.00  0.00     0.057 A 
HETATM    7  C22 UNL     1      17.531  10.633  11.310  1.00  0.00     0.046 A 
ENDROOT
BRANCH   1   8
HETATM    8  C4  UNL     1      19.664   9.668  10.601  1.00  0.00     0.202 C 
HETATM    9  O2  UNL     1      20.278   8.914  11.443  1.00  0.00    -0.286 OA
BRANCH   8  10
HETATM   10  C3  UNL     1      20.528  10.423   9.703  1.00  0.00     0.099 A 
HETATM   11  S1  UNL     1      21.359  11.873  10.007  1.00  0.00    -0.008 SA
HETATM   12  N2  UNL     1      22.070  12.099   8.515  1.00  0.00    -0.320 N 
HETATM   13  C2  UNL     1      21.660  11.052   7.790  1.00  0.00     0.130 A 
ATOM     14  H2  UNL     1      22.680  12.862   8.221  1.00  0.00     0.174 HD
HETATM   15  C23 UNL     1      20.850  10.156   8.390  1.00  0.00     0.101 A 
HETATM   16  N4  UNL     1      20.335   8.965   7.726  1.00  0.00    -0.098 NA
BRANCH  13  17
HETATM   17  C1  UNL     1      22.098  10.915   6.367  1.00  0.00     0.283 C 
HETATM   18  N1  UNL     1      23.401  10.481   6.042  1.00  0.00    -0.056 NA
HETATM   19  O1  UNL     1      21.327  11.181   5.415  1.00  0.00    -0.269 OA
ENDBRANCH  13  17
ENDBRANCH   8  10
ENDBRANCH   1   8
BRANCH   6  20
HETATM   20  N3  UNL     1      15.367  11.575  12.048  1.00  0.00    -0.280 N 
ATOM     21  H3  UNL     1      14.810  11.223  12.827  1.00  0.00     0.179 HD
BRANCH  20  22
HETATM   22  S2  UNL     1      15.196  13.235  11.729  1.00  0.00     0.263 S 
HETATM   23  O3  UNL     1      15.651  13.499  10.289  1.00  0.00    -0.200 OA
HETATM   24  O4  UNL     1      16.103  14.059  12.649  1.00  0.00    -0.200 OA
BRANCH  22  25
HETATM   25  C16 UNL     1      13.602  13.856  11.972  1.00  0.00     0.080 A 
HETATM   26  C17 UNL     1      13.329  15.157  11.544  1.00  0.00     0.027 A 
HETATM   27  C18 UNL     1      12.088  15.720  11.630  1.00  0.00     0.025 A 
HETATM   28  C19 UNL     1      11.051  14.970  12.165  1.00  0.00     0.034 A 
HETATM   29 CL2  UNL     1       9.436  15.626  12.297  1.00  0.00    -0.084 Cl
HETATM   30  C20 UNL     1      11.297  13.672  12.600  1.00  0.00     0.025 A 
HETATM   31  C21 UNL     1      12.555  13.132  12.500  1.00  0.00     0.027 A 
ENDBRANCH  22  25
ENDBRANCH  20  22
ENDBRANCH   6  20
BRANCH   5  32
HETATM   32  C9  UNL     1      14.001   9.505  10.892  1.00  0.00    -0.021 A 
HETATM   33  C10 UNL     1      13.380   8.725  11.831  1.00  0.00     0.014 A 
HETATM   34  C11 UNL     1      12.000   8.669  11.904  1.00  0.00     0.024 A 
HETATM   35  C12 UNL     1      11.229   9.417  11.006  1.00  0.00     0.034 A 
HETATM   36 CL1  UNL     1       9.468   9.372  11.073  1.00  0.00    -0.084 Cl
HETATM   37  C13 UNL     1      11.865  10.197  10.067  1.00  0.00     0.024 A 
HETATM   38  C14 UNL     1      13.239  10.234  10.018  1.00  0.00     0.014 A 
ENDBRANCH   5  32
TORSDOF 7
ENDMDL
MODEL 2
REMARK VINA RESULT: -8.849720575      1.837      2.255
REMARK  7 active torsions:
REMARK  status: ('A' for Active; 'I' for Inactive)
REMARK    1  A    between atoms: C1_2  and  C2_4 
REMARK    2  A    between atoms: C3_8  and  C4_9 
REMARK    3  A    between atoms: C4_9  and  C5_11 
REMARK    4  A    between atoms: C8_15  and  C9_16 
REMARK    5  A    between atoms: C15_23  and  N3_24 
REMARK    6  A    between atoms: N3_24  and  S2_26 
REMARK    7  A    between atoms: S2_26  and  C16_29 
ROOT
HETATM    1  C5  UNL     1      18.673   8.858  10.632  1.00  0.00     0.021 A 
HETATM    2  C6  UNL     1      18.148   8.133  11.678  1.00  0.00     0.058 A 
HETATM    3  C7  UNL     1      16.800   7.943  11.808  1.00  0.00     0.130 A 
HETATM    4  F1  UNL     1      16.277   7.217  12.851  1.00  0.00    -0.205 F 
HETATM    5  C8  UNL     1      15.901   8.463  10.907  1.00  0.00     0.040 A 
HETATM    6  C15 UNL     1      16.420   9.206   9.832  1.00  0.00     0.057 A 
HETATM    7  C22 UNL     1      17.775   9.381   9.727  1.00  0.00     0.046 A 
ENDROOT
BRANCH   1   8
HETATM    8  C4  UNL     1      20.063   9.068  10.536  1.00  0.00     0.202 C 
HETATM    9  O2  UNL     1      20.803   8.370  11.321  1.00  0.00    -0.286 OA
BRANCH   8  10
HETATM   10  C3  UNL     1      20.782   9.980   9.655  1.00  0.00     0.099 A 
HETATM   11  S1  UNL     1      21.525  11.457  10.042  1.00  0.00    -0.008 SA
HETATM   12  N2  UNL     1      22.080  11.889   8.529  1.00  0.00    -0.320 N 
HETATM   13  C2  UNL     1      21.687  10.887   7.734  1.00  0.00     0.130 A 
ATOM     14  H2  UNL     1      22.601  12.726   8.269  1.00  0.00     0.174 HD
HETATM   15  C23 UNL     1      21.004   9.872   8.300  1.00  0.00     0.101 A 
HETATM   16  N4  UNL     1      20.523   8.713   7.558  1.00  0.00    -0.098 NA
BRANCH  13  17
HETATM   17  C1  UNL     1      22.004  10.930   6.273  1.00  0.00     0.283 C 
HETATM   18  N1  UNL     1      23.262  10.514   5.787  1.00  0.00    -0.056 NA
HETATM   19  O1  UNL     1      21.168  11.335   5.432  1.00  0.00    -0.269 OA
ENDBRANCH  13  17
ENDBRANCH   8  10
ENDBRANCH   1   8
BRANCH   6  20
HETATM   20  N3  UNL     1      15.454   9.716   8.944  1.00  0.00    -0.280 N 
ATOM     21  H3  UNL     1      15.000   9.021   8.351  1.00  0.00     0.179 HD
BRANCH  20  22
HETATM   22  S2  UNL     1      14.931  11.316   8.712  1.00  0.00     0.263 S 
HETATM   23  O3  UNL     1      14.235  11.403   7.349  1.00  0.00    -0.200 OA
HETATM   24  O4  UNL     1      16.126  12.275   8.672  1.00  0.00    -0.200 OA
BRANCH  22  25
HETATM   25  C16 UNL     1      13.891  11.923   9.951  1.00  0.00     0.080 A 
HETATM   26  C17 UNL     1      12.515  11.740   9.805  1.00  0.00     0.027 A 
HETATM   27  C18 UNL     1      11.612  12.124  10.754  1.00  0.00     0.025 A 
HETATM   28  C19 UNL     1      12.078  12.721  11.916  1.00  0.00     0.034 A 
HETATM   29 CL2  UNL     1      10.977  13.228  13.176  1.00  0.00    -0.084 Cl
HETATM   30  C20 UNL     1      13.445  12.915  12.086  1.00  0.00     0.025 A 
HETATM   31  C21 UNL     1      14.329  12.519  11.115  1.00  0.00     0.027 A 
ENDBRANCH  22  25
ENDBRANCH  20  22
ENDBRANCH   6  20
BRANCH   5  32
HETATM   32  C9  UNL     1      14.469   8.271  11.049  1.00  0.00    -0.021 A 
HETATM   33  C10 UNL     1      13.792   7.402  10.236  1.00  0.00     0.014 A 
HETATM   34  C11 UNL     1      12.425   7.229  10.368  1.00  0.00     0.024 A 
HETATM   35  C12 UNL     1      11.727   7.952  11.343  1.00  0.00     0.034 A 
HETATM   36 CL1  UNL     1       9.987   7.754  11.540  1.00  0.00    -0.084 Cl
HETATM   37  C13 UNL     1      12.421   8.822  12.154  1.00  0.00     0.024 A 
HETATM   38  C14 UNL     1      13.779   8.973  12.001  1.00  0.00     0.014 A 
ENDBRANCH   5  32
TORSDOF 7
ENDMDL
MODEL 3
REMARK VINA RESULT: -8.702738945      1.202      1.414
REMARK  7 active torsions:
REMARK  status: ('A' for Active; 'I' for Inactive)
REMARK    1  A    between atoms: C1_2  and  C2_4 
REMARK    2  A    between atoms: C3_8  and  C4_9 
REMARK    3  A    between atoms: C4_9  and  C5_11 
REMARK    4  A    between atoms: C8_15  and  C9_16 
REMARK    5  A    between atoms: C15_23  and  N3_24 
REMARK    6  A    between atoms: N3_24  and  S2_26 
REMARK    7  A    between atoms: S2_26  and  C16_29 
ROOT
HETATM    1  C5  UNL     1      18.171   9.582  10.657  1.00  0.00     0.021 A 
HETATM    2  C6  UNL     1      17.439   8.578  10.065  1.00  0.00     0.058 A 
HETATM    3  C7  UNL     1      16.073   8.558  10.130  1.00  0.00     0.130 A 
HETATM    4  F1  UNL     1      15.344   7.556   9.537  1.00  0.00    -0.205 F 
HETATM    5  C8  UNL     1      15.361   9.534  10.785  1.00  0.00     0.040 A 
HETATM    6  C15 UNL     1      16.093  10.568  11.396  1.00  0.00     0.057 A 
HETATM    7  C22 UNL     1      17.461  10.562  11.315  1.00  0.00     0.046 A 
ENDROOT
BRANCH   1   8
HETATM    8  C4  UNL     1      19.579   9.565  10.605  1.00  0.00     0.202 C 
HETATM    9  O2  UNL     1      20.182   9.003  11.591  1.00  0.00    -0.286 OA
BRANCH   8  10
HETATM   10  C3  UNL     1      20.454  10.103   9.570  1.00  0.00     0.099 A 
HETATM   11  S1  UNL     1      20.416   9.811   7.898  1.00  0.00    -0.008 SA
HETATM   12  N2  UNL     1      21.723  10.737   7.429  1.00  0.00    -0.320 N 
HETATM   13  C2  UNL     1      22.180  11.267   8.569  1.00  0.00     0.130 A 
ATOM     14  H2  UNL     1      22.089  10.869   6.487  1.00  0.00     0.174 HD
HETATM   15  C23 UNL     1      21.531  10.951   9.708  1.00  0.00     0.101 A 
HETATM   16  N4  UNL     1      21.913  11.461  11.020  1.00  0.00    -0.098 NA
BRANCH  13  17
HETATM   17  C1  UNL     1      23.375  12.166   8.545  1.00  0.00     0.283 C 
HETATM   18  N1  UNL     1      24.684  11.641   8.577  1.00  0.00    -0.056 NA
HETATM   19  O1  UNL     1      23.256  13.413   8.495  1.00  0.00    -0.269 OA
ENDBRANCH  13  17
ENDBRANCH   8  10
ENDBRANCH   1   8
BRANCH   6  20
HETATM   20  N3  UNL     1      15.312  11.537  12.054  1.00  0.00    -0.280 N 
ATOM     21  H3  UNL     1      14.751  11.187  12.832  1.00  0.00     0.179 HD
BRANCH  20  22
HETATM   22  S2  UNL     1      15.163  13.202  11.747  1.00  0.00     0.263 S 
HETATM   23  O3  UNL     1      15.630  13.470  10.311  1.00  0.00    -0.200 OA
HETATM   24  O4  UNL     1      16.076  14.007  12.678  1.00  0.00    -0.200 OA
BRANCH  22  25
HETATM   25  C16 UNL     1      13.576  13.841  11.986  1.00  0.00     0.080 A 
HETATM   26  C17 UNL     1      13.319  15.144  11.556  1.00  0.00     0.027 A 
HETATM   27  C18 UNL     1      12.085  15.721  11.639  1.00  0.00     0.025 A 
HETATM   28  C19 UNL     1      11.037  14.984  12.173  1.00  0.00     0.034 A 
HETATM   29 CL2  UNL     1       9.430  15.659  12.300  1.00  0.00    -0.084 Cl
HETATM   30  C20 UNL     1      11.268  13.684  12.609  1.00  0.00     0.025 A 
HETATM   31  C21 UNL     1      12.520  13.129  12.512  1.00  0.00     0.027 A 
ENDBRANCH  22  25
ENDBRANCH  20  22
ENDBRANCH   6  20
BRANCH   5  32
HETATM   32  C9  UNL     1      13.912   9.509  10.864  1.00  0.00    -0.021 A 
HETATM   33  C10 UNL     1      13.272   8.739  11.798  1.00  0.00     0.014 A 
HETATM   34  C11 UNL     1      11.890   8.709  11.863  1.00  0.00     0.024 A 
HETATM   35  C12 UNL     1      11.138   9.473  10.962  1.00  0.00     0.034 A 
HETATM   36 CL1  UNL     1       9.377   9.460  11.019  1.00  0.00    -0.084 Cl
HETATM   37  C13 UNL     1      11.795  10.242  10.028  1.00  0.00     0.024 A 
HETATM   38  C14 UNL     1      13.169  10.254   9.987  1.00  0.00     0.014 A 
ENDBRANCH   5  32
TORSDOF 7
ENDMDL
MODEL 4
REMARK VINA RESULT: -8.672555392      3.031      4.403
REMARK  7 active torsions:
REMARK  status: ('A' for Active; 'I' for Inactive)
REMARK    1  A    between atoms: C1_2  and  C2_4 
REMARK    2  A    between atoms: C3_8  and  C4_9 
REMARK    3  A    between atoms: C4_9  and  C5_11 
REMARK    4  A    between atoms: C8_15  and  C9_16 
REMARK    5  A    between atoms: C15_23  and  N3_24 
REMARK    6  A    between atoms: N3_24  and  S2_26 
REMARK    7  A    between atoms: S2_26  and  C16_29 
ROOT
HETATM    1  C5  UNL     1      21.387  10.554  10.613  1.00  0.00     0.021 A 
HETATM    2  C6  UNL     1      21.259   9.237  10.993  1.00  0.00     0.058 A 
HETATM    3  C7  UNL     1      20.042   8.705  11.320  1.00  0.00     0.130 A 
HETATM    4  F1  UNL     1      19.915   7.389  11.696  1.00  0.00    -0.205 F 
HETATM    5  C8  UNL     1      18.889   9.452  11.289  1.00  0.00     0.040 A 
HETATM    6  C15 UNL     1      19.001  10.799  10.904  1.00  0.00     0.057 A 
HETATM    7  C22 UNL     1      20.233  11.306  10.581  1.00  0.00     0.046 A 
ENDROOT
BRANCH   1   8
HETATM    8  C4  UNL     1      22.655  11.090  10.311  1.00  0.00     0.202 C 
HETATM    9  O2  UNL     1      23.670  10.460  10.784  1.00  0.00    -0.286 OA
BRANCH   8  10
HETATM   10  C3  UNL     1      22.973  12.274   9.523  1.00  0.00     0.099 A 
HETATM   11  S1  UNL     1      23.450  12.363   7.896  1.00  0.00    -0.008 SA
HETATM   12  N2  UNL     1      23.653  14.014   7.760  1.00  0.00    -0.320 N 
HETATM   13  C2  UNL     1      23.351  14.486   8.975  1.00  0.00     0.130 A 
ATOM     14  H2  UNL     1      23.942  14.543   6.937  1.00  0.00     0.174 HD
HETATM   15  C23 UNL     1      22.990  13.594   9.919  1.00  0.00     0.101 A 
HETATM   16  N4  UNL     1      22.625  13.966  11.280  1.00  0.00    -0.098 NA
BRANCH  13  17
HETATM   17  C1  UNL     1      23.429  15.955   9.242  1.00  0.00     0.283 C 
HETATM   18  N1  UNL     1      24.597  16.539   9.776  1.00  0.00    -0.056 NA
HETATM   19  O1  UNL     1      22.463  16.718   9.002  1.00  0.00    -0.269 OA
ENDBRANCH  13  17
ENDBRANCH   8  10
ENDBRANCH   1   8
BRANCH   6  20
HETATM   20  N3  UNL     1      17.789  11.515  10.894  1.00  0.00    -0.280 N 
ATOM     21  H3  UNL     1      17.588  12.042  11.744  1.00  0.00     0.179 HD
BRANCH  20  22
HETATM   22  S2  UNL     1      16.609  11.632   9.676  1.00  0.00     0.263 S 
HETATM   23  O3  UNL     1      17.079  10.811   8.470  1.00  0.00    -0.200 OA
HETATM   24  O4  UNL     1      16.460  13.083   9.205  1.00  0.00    -0.200 OA
BRANCH  22  25
HETATM   25  C16 UNL     1      15.026  11.135  10.154  1.00  0.00     0.080 A 
HETATM   26  C17 UNL     1      14.307  10.304   9.293  1.00  0.00     0.027 A 
HETATM   27  C18 UNL     1      13.076   9.803   9.603  1.00  0.00     0.025 A 
HETATM   28  C19 UNL     1      12.510  10.131  10.827  1.00  0.00     0.034 A 
HETATM   29 CL2  UNL     1      10.941   9.517  11.291  1.00  0.00    -0.084 Cl
HETATM   30  C20 UNL     1      13.206  10.958  11.702  1.00  0.00     0.025 A 
HETATM   31  C21 UNL     1      14.442  11.446  11.364  1.00  0.00     0.027 A 
ENDBRANCH  22  25
ENDBRANCH  20  22
ENDBRANCH   6  20
BRANCH   5  32
HETATM   32  C9  UNL     1      17.598   8.891  11.647  1.00  0.00    -0.021 A 
HETATM   33  C10 UNL     1      17.030   9.155  12.864  1.00  0.00     0.014 A 
HETATM   34  C11 UNL     1      15.805   8.610  13.206  1.00  0.00     0.024 A 
HETATM   35  C12 UNL     1      15.140   7.778  12.297  1.00  0.00     0.034 A 
HETATM   36 CL1  UNL     1      13.577   7.070  12.699  1.00  0.00    -0.084 Cl
HETATM   37  C13 UNL     1      15.723   7.521  11.077  1.00  0.00     0.024 A 
HETATM   38  C14 UNL     1      16.940   8.077  10.763  1.00  0.00     0.014 A 
ENDBRANCH   5  32
TORSDOF 7
ENDMDL
MODEL 5
REMARK VINA RESULT: -8.561653786      2.884      4.028
REMARK  7 active torsions:
REMARK  status: ('A' for Active; 'I' for Inactive)
REMARK    1  A    between atoms: C1_2  and  C2_4 
REMARK    2  A    between atoms: C3_8  and  C4_9 
REMARK    3  A    between atoms: C4_9  and  C5_11 
REMARK    4  A    between atoms: C8_15  and  C9_16 
REMARK    5  A    between atoms: C15_23  and  N3_24 
REMARK    6  A    between atoms: N3_24  and  S2_26 
REMARK    7  A    between atoms: S2_26  and  C16_29 
ROOT
HETATM    1  C5  UNL     1      21.230  10.507  10.615  1.00  0.00     0.021 A 
HETATM    2  C6  UNL     1      21.175   9.185  10.997  1.00  0.00     0.058 A 
HETATM    3  C7  UNL     1      19.995   8.598  11.361  1.00  0.00     0.130 A 
HETATM    4  F1  UNL     1      19.941   7.277  11.740  1.00  0.00    -0.205 F 
HETATM    5  C8  UNL     1      18.808   9.290  11.367  1.00  0.00     0.040 A 
HETATM    6  C15 UNL     1      18.845  10.641  10.981  1.00  0.00     0.057 A 
HETATM    7  C22 UNL     1      20.041  11.204  10.620  1.00  0.00     0.046 A 
ENDROOT
BRANCH   1   8
HETATM    8  C4  UNL     1      22.461  11.101  10.274  1.00  0.00     0.202 C 
HETATM    9  O2  UNL     1      23.519  10.522  10.718  1.00  0.00    -0.286 OA
BRANCH   8  10
HETATM   10  C3  UNL     1      22.700  12.296   9.474  1.00  0.00     0.099 A 
HETATM   11  S1  UNL     1      22.982  13.884  10.006  1.00  0.00    -0.008 SA
HETATM   12  N2  UNL     1      23.119  14.647   8.529  1.00  0.00    -0.320 N 
HETATM   13  C2  UNL     1      22.945  13.669   7.633  1.00  0.00     0.130 A 
ATOM     14  H2  UNL     1      23.296  15.635   8.349  1.00  0.00     0.174 HD
HETATM   15  C23 UNL     1      22.724  12.425   8.103  1.00  0.00     0.101 A 
HETATM   16  N4  UNL     1      22.527  11.263   7.244  1.00  0.00    -0.098 NA
BRANCH  13  17
HETATM   17  C1  UNL     1      22.993  13.982   6.171  1.00  0.00     0.283 C 
HETATM   18  N1  UNL     1      24.152  13.724   5.408  1.00  0.00    -0.056 NA
HETATM   19  O1  UNL     1      22.011  14.482   5.575  1.00  0.00    -0.269 OA
ENDBRANCH  13  17
ENDBRANCH   8  10
ENDBRANCH   1   8
BRANCH   6  20
HETATM   20  N3  UNL     1      17.601  11.300  11.009  1.00  0.00    -0.280 N 
ATOM     21  H3  UNL     1      17.368  11.748  11.895  1.00  0.00     0.179 HD
BRANCH  20  22
HETATM   22  S2  UNL     1      16.431  11.458   9.787  1.00  0.00     0.263 S 
HETATM   23  O3  UNL     1      16.988  10.836   8.502  1.00  0.00    -0.200 OA
HETATM   24  O4  UNL     1      16.154  12.936   9.492  1.00  0.00    -0.200 OA
BRANCH  22  25
HETATM   25  C16 UNL     1      14.894  10.765  10.166  1.00  0.00     0.080 A 
HETATM   26  C17 UNL     1      14.313   9.902   9.235  1.00  0.00     0.027 A 
HETATM   27  C18 UNL     1      13.134   9.252   9.462  1.00  0.00     0.025 A 
HETATM   28  C19 UNL     1      12.482   9.456  10.670  1.00  0.00     0.034 A 
HETATM   29 CL2  UNL     1      10.973   8.649  11.030  1.00  0.00    -0.084 Cl
HETATM   30  C20 UNL     1      13.040  10.312  11.614  1.00  0.00     0.025 A 
HETATM   31  C21 UNL     1      14.227  10.951  11.357  1.00  0.00     0.027 A 
ENDBRANCH  22  25
ENDBRANCH  20  22
ENDBRANCH   6  20
BRANCH   5  32
HETATM   32  C9  UNL     1      17.557   8.670  11.765  1.00  0.00    -0.021 A 
HETATM   33  C10 UNL     1      17.019   8.902  13.002  1.00  0.00     0.014 A 
HETATM   34  C11 UNL     1      15.831   8.301  13.381  1.00  0.00     0.024 A 
HETATM   35  C12 UNL     1      15.174   7.444  12.491  1.00  0.00     0.034 A 
HETATM   36 CL1  UNL     1      13.659   6.664  12.940  1.00  0.00    -0.084 Cl
HETATM   37  C13 UNL     1      15.726   7.219  11.249  1.00  0.00     0.024 A 
HETATM   38  C14 UNL     1      16.907   7.831  10.899  1.00  0.00     0.014 A 
ENDBRANCH   5  32
TORSDOF 7
ENDMDL
