MODEL 1
REMARK VINA RESULT: -8.916429247      0.000      0.000
REMARK  9 active torsions:
REMARK  status: ('A' for Active; 'I' for Inactive)
REMARK    1  A    between atoms: O1_2  and  C2_3 
REMARK    2  A    between atoms: C5_6  and  C6_7 
REMARK    3  A    between atoms: C6_7  and  N1_8 
REMARK       I    between atoms: N1_8  and  C7_9 
REMARK    4  A    between atoms: C7_9  and  C8_11 
REMARK    5  A    between atoms: C9_12  and  C10_13 
REMARK       I    between atoms: C10_13  and  N2_15 
REMARK    6  A    between atoms: N2_15  and  C11_17 
REMARK    7  A    between atoms: N4_27  and  C17_28 
REMARK    8  A    between atoms: C23_35  and  C24_36 
REMARK    9  A    between atoms: C26_40  and  O5_41 
ROOT
HETATM    1  C8  UNL     1      11.936  12.128  10.320  1.00  0.00     0.114 A 
HETATM    2  C9  UNL     1      11.304  11.170   9.607  1.00  0.00     0.136 A 
HETATM    3  N3  UNL     1      12.025  10.031   9.877  1.00  0.00    -0.287 N 
ATOM      4  H3  UNL     1      11.802   9.117   9.484  1.00  0.00     0.188 HD
HETATM    5  N4  UNL     1      13.015  10.239  10.678  1.00  0.00    -0.250 N 
HETATM    6  C23 UNL     1      13.011  11.530  10.989  1.00  0.00     0.141 A 
ENDROOT
BRANCH   1   7
HETATM    7  C7  UNL     1      11.621  13.559  10.421  1.00  0.00     0.330 C 
HETATM    8  N1  UNL     1      11.193  14.122  11.544  1.00  0.00    -0.378 NA
HETATM    9  O2  UNL     1      11.795  14.217   9.329  1.00  0.00    -0.251 OA
BRANCH   8  10
HETATM   10  C6  UNL     1      10.574  14.816  12.299  1.00  0.00     0.198 C 
BRANCH  10  11
HETATM   11  C5  UNL     1       9.482  15.779  12.044  1.00  0.00    -0.004 A 
HETATM   12  C4  UNL     1       9.015  16.557  13.096  1.00  0.00     0.017 A 
HETATM   13  C3  UNL     1       7.999  17.484  12.966  1.00  0.00     0.040 A 
HETATM   14  C2  UNL     1       7.424  17.637  11.714  1.00  0.00     0.101 A 
HETATM   15  C26 UNL     1       7.861  16.881  10.644  1.00  0.00     0.099 A 
HETATM   16  C25 UNL     1       8.895  15.948  10.811  1.00  0.00     0.053 A 
BRANCH  14  17
HETATM   17  O1  UNL     1       6.399  18.546  11.501  1.00  0.00    -0.353 OA
HETATM   18  C1  UNL     1       5.065  18.131  11.693  1.00  0.00     0.210 C 
ENDBRANCH  14  17
BRANCH  15  19
HETATM   19  O5  UNL     1       7.270  17.055   9.411  1.00  0.00    -0.358 OA
ATOM     20  H5  UNL     1       7.799  16.970   8.627  1.00  0.00     0.217 HD
ENDBRANCH  15  19
ENDBRANCH  10  11
ENDBRANCH   8  10
ENDBRANCH   1   7
BRANCH   2  21
HETATM   21  C10 UNL     1      10.144  11.137   8.732  1.00  0.00     0.275 C 
HETATM   22  O3  UNL     1       9.134  10.546   9.196  1.00  0.00    -0.266 OA
HETATM   23  N2  UNL     1      10.126  11.718   7.458  1.00  0.00    -0.320 N 
ATOM     24  H2  UNL     1      10.985  12.180   7.158  1.00  0.00     0.169 HD
BRANCH  23  25
HETATM   25  C11 UNL     1       9.049  11.736   6.540  1.00  0.00     0.058 A 
HETATM   26  C12 UNL     1       8.874  10.893   5.474  1.00  0.00     0.031 A 
HETATM   27  C13 UNL     1       7.772  10.984   4.617  1.00  0.00     0.004 A 
HETATM   28  C14 UNL     1       6.808  11.927   4.803  1.00  0.00     0.026 A 
HETATM   29  C15 UNL     1       6.953  12.789   5.864  1.00  0.00     0.058 A 
HETATM   30 CL1  UNL     1       5.706  14.008   6.103  1.00  0.00    -0.082 Cl
HETATM   31  C16 UNL     1       8.039  12.693   6.701  1.00  0.00     0.082 A 
HETATM   32 CL2  UNL     1       8.139  13.844   8.037  1.00  0.00    -0.080 Cl
ENDBRANCH  23  25
ENDBRANCH   2  21
BRANCH   6  33
HETATM   33  C24 UNL     1      13.919  12.254  11.858  1.00  0.00     0.284 C 
HETATM   34  N5  UNL     1      15.108  12.831  11.346  1.00  0.00    -0.056 NA
HETATM   35  O4  UNL     1      13.702  12.402  13.088  1.00  0.00    -0.269 OA
ENDBRANCH   6  33
BRANCH   5  36
HETATM   36  C17 UNL     1      13.945   9.234  11.137  1.00  0.00     0.057 A 
HETATM   37  C18 UNL     1      13.683   8.527  12.272  1.00  0.00     0.034 A 
HETATM   38  C19 UNL     1      14.592   7.559  12.686  1.00  0.00     0.044 A 
HETATM   39  C20 UNL     1      15.734   7.329  11.950  1.00  0.00     0.116 A 
HETATM   40  F1  UNL     1      16.622   6.391  12.347  1.00  0.00    -0.206 F 
HETATM   41  C21 UNL     1      16.005   8.042  10.801  1.00  0.00     0.044 A 
HETATM   42  C22 UNL     1      15.087   8.988  10.422  1.00  0.00     0.034 A 
ENDBRANCH   5  36
TORSDOF 9
ENDMDL
MODEL 2
REMARK VINA RESULT: -8.807747814      2.587      5.833
REMARK  9 active torsions:
REMARK  status: ('A' for Active; 'I' for Inactive)
REMARK    1  A    between atoms: O1_2  and  C2_3 
REMARK    2  A    between atoms: C5_6  and  C6_7 
REMARK    3  A    between atoms: C6_7  and  N1_8 
REMARK       I    between atoms: N1_8  and  C7_9 
REMARK    4  A    between atoms: C7_9  and  C8_11 
REMARK    5  A    between atoms: C9_12  and  C10_13 
REMARK       I    between atoms: C10_13  and  N2_15 
REMARK    6  A    between atoms: N2_15  and  C11_17 
REMARK    7  A    between atoms: N4_27  and  C17_28 
REMARK    8  A    between atoms: C23_35  and  C24_36 
REMARK    9  A    between atoms: C26_40  and  O5_41 
ROOT
HETATM    1  C8  UNL     1      12.023   9.701   9.440  1.00  0.00     0.114 A 
HETATM    2  C9  UNL     1      12.108  10.505  10.523  1.00  0.00     0.136 A 
HETATM    3  N3  UNL     1      13.224  10.048  11.183  1.00  0.00    -0.287 N 
ATOM      4  H3  UNL     1      13.566  10.451  12.056  1.00  0.00     0.188 HD
HETATM    5  N4  UNL     1      13.793   9.057  10.586  1.00  0.00    -0.250 N 
HETATM    6  C23 UNL     1      13.089   8.794   9.492  1.00  0.00     0.141 A 
ENDROOT
BRANCH   1   7
HETATM    7  C7  UNL     1      11.023   9.708   8.365  1.00  0.00     0.330 C 
HETATM    8  N1  UNL     1      11.281  10.169   7.147  1.00  0.00    -0.378 NA
HETATM    9  O2  UNL     1       9.878   9.229   8.705  1.00  0.00    -0.251 OA
BRANCH   8  10
HETATM   10  C6  UNL     1      11.150  10.730   6.097  1.00  0.00     0.198 C 
BRANCH  10  11
HETATM   11  C5  UNL     1       9.978  11.416   5.513  1.00  0.00    -0.004 A 
HETATM   12  C4  UNL     1      10.114  12.734   5.090  1.00  0.00     0.017 A 
HETATM   13  C3  UNL     1       9.084  13.465   4.533  1.00  0.00     0.040 A 
HETATM   14  C2  UNL     1       7.854  12.841   4.394  1.00  0.00     0.101 A 
HETATM   15  C26 UNL     1       7.680  11.534   4.803  1.00  0.00     0.099 A 
HETATM   16  C25 UNL     1       8.748  10.818   5.365  1.00  0.00     0.053 A 
BRANCH  14  17
HETATM   17  O1  UNL     1       6.769  13.507   3.844  1.00  0.00    -0.353 OA
HETATM   18  C1  UNL     1       6.126  14.509   4.600  1.00  0.00     0.210 C 
ENDBRANCH  14  17
BRANCH  15  19
HETATM   19  O5  UNL     1       6.445  10.940   4.651  1.00  0.00    -0.358 OA
ATOM     20  H5  UNL     1       6.160  10.295   5.288  1.00  0.00     0.217 HD
ENDBRANCH  15  19
ENDBRANCH  10  11
ENDBRANCH   8  10
ENDBRANCH   1   7
BRANCH   2  21
HETATM   21  C10 UNL     1      11.335  11.624  11.035  1.00  0.00     0.275 C 
HETATM   22  O3  UNL     1      10.587  11.361  12.012  1.00  0.00    -0.266 OA
HETATM   23  N2  UNL     1      11.402  12.915  10.497  1.00  0.00    -0.320 N 
ATOM     24  H2  UNL     1      12.035  13.044   9.707  1.00  0.00     0.169 HD
BRANCH  23  25
HETATM   25  C11 UNL     1      10.690  14.060  10.926  1.00  0.00     0.058 A 
HETATM   26  C12 UNL     1      10.795  14.674  12.147  1.00  0.00     0.031 A 
HETATM   27  C13 UNL     1      10.049  15.807  12.485  1.00  0.00     0.004 A 
HETATM   28  C14 UNL     1       9.171  16.364  11.606  1.00  0.00     0.026 A 
HETATM   29  C15 UNL     1       9.041  15.773  10.371  1.00  0.00     0.058 A 
HETATM   30 CL1  UNL     1       7.906  16.493   9.236  1.00  0.00    -0.082 Cl
HETATM   31  C16 UNL     1       9.779  14.659  10.048  1.00  0.00     0.082 A 
HETATM   32 CL2  UNL     1       9.544  13.970   8.438  1.00  0.00    -0.080 Cl
ENDBRANCH  23  25
ENDBRANCH   2  21
BRANCH   6  33
HETATM   33  C24 UNL     1      13.324   7.774   8.487  1.00  0.00     0.284 C 
HETATM   34  N5  UNL     1      12.813   6.463   8.651  1.00  0.00    -0.056 NA
HETATM   35  O4  UNL     1      13.984   7.997   7.440  1.00  0.00    -0.269 OA
ENDBRANCH   6  33
BRANCH   5  36
HETATM   36  C17 UNL     1      14.980   8.372  11.046  1.00  0.00     0.057 A 
HETATM   37  C18 UNL     1      16.186   8.637  10.473  1.00  0.00     0.034 A 
HETATM   38  C19 UNL     1      17.313   7.969  10.941  1.00  0.00     0.044 A 
HETATM   39  C20 UNL     1      17.196   7.059  11.968  1.00  0.00     0.116 A 
HETATM   40  F1  UNL     1      18.286   6.406  12.427  1.00  0.00    -0.206 F 
HETATM   41  C21 UNL     1      15.976   6.787  12.551  1.00  0.00     0.044 A 
HETATM   42  C22 UNL     1      14.887   7.463  12.065  1.00  0.00     0.034 A 
ENDBRANCH   5  36
TORSDOF 9
ENDMDL
MODEL 3
REMARK VINA RESULT: -8.700958332      4.990      8.565
REMARK  9 active torsions:
REMARK  status: ('A' for Active; 'I' for Inactive)
REMARK    1  A    between atoms: O1_2  and  C2_3 
REMARK    2  A    between atoms: C5_6  and  C6_7 
REMARK    3  A    between atoms: C6_7  and  N1_8 
REMARK       I    between atoms: N1_8  and  C7_9 
REMARK    4  A    between atoms: C7_9  and  C8_11 
REMARK    5  A    between atoms: C9_12  and  C10_13 
REMARK       I    between atoms: C10_13  and  N2_15 
REMARK    6  A    between atoms: N2_15  and  C11_17 
REMARK    7  A    between atoms: N4_27  and  C17_28 
REMARK    8  A    between atoms: C23_35  and  C24_36 
REMARK    9  A    between atoms: C26_40  and  O5_41 
ROOT
HETATM    1  C8  UNL     1      18.418  10.345  10.898  1.00  0.00     0.114 A 
HETATM    2  C9  UNL     1      17.883  11.586  10.939  1.00  0.00     0.136 A 
HETATM    3  N3  UNL     1      18.888  12.392  10.461  1.00  0.00    -0.287 N 
ATOM      4  H3  UNL     1      18.800  13.404  10.364  1.00  0.00     0.188 HD
HETATM    5  N4  UNL     1      19.953  11.737  10.146  1.00  0.00    -0.250 N 
HETATM    6  C23 UNL     1      19.721  10.454  10.397  1.00  0.00     0.141 A 
ENDROOT
BRANCH   1   7
HETATM    7  C7  UNL     1      17.812   9.068  11.295  1.00  0.00     0.330 C 
HETATM    8  N1  UNL     1      16.980   8.393  10.511  1.00  0.00    -0.378 NA
HETATM    9  O2  UNL     1      18.157   8.660  12.465  1.00  0.00    -0.251 OA
BRANCH   8  10
HETATM   10  C6  UNL     1      16.047   7.734  10.151  1.00  0.00     0.198 C 
BRANCH  10  11
HETATM   11  C5  UNL     1      14.626   8.097   9.970  1.00  0.00    -0.004 A 
HETATM   12  C4  UNL     1      13.844   8.327  11.096  1.00  0.00     0.017 A 
HETATM   13  C3  UNL     1      12.507   8.669  11.038  1.00  0.00     0.040 A 
HETATM   14  C2  UNL     1      11.927   8.787   9.785  1.00  0.00     0.101 A 
HETATM   15  C26 UNL     1      12.672   8.565   8.643  1.00  0.00     0.099 A 
HETATM   16  C25 UNL     1      14.028   8.219   8.737  1.00  0.00     0.053 A 
BRANCH  14  17
HETATM   17  O1  UNL     1      10.590   9.127   9.642  1.00  0.00    -0.353 OA
HETATM   18  C1  UNL     1       9.752   9.098  10.775  1.00  0.00     0.210 C 
ENDBRANCH  14  17
BRANCH  15  19
HETATM   19  O5  UNL     1      12.067   8.690   7.410  1.00  0.00    -0.358 OA
ATOM     20  H5  UNL     1      12.227   8.030   6.746  1.00  0.00     0.217 HD
ENDBRANCH  15  19
ENDBRANCH  10  11
ENDBRANCH   8  10
ENDBRANCH   1   7
BRANCH   2  21
HETATM   21  C10 UNL     1      16.599  12.138  11.339  1.00  0.00     0.275 C 
HETATM   22  O3  UNL     1      16.656  13.175  12.050  1.00  0.00    -0.266 OA
HETATM   23  N2  UNL     1      15.372  11.574  10.969  1.00  0.00    -0.320 N 
ATOM     24  H2  UNL     1      15.414  10.736  10.390  1.00  0.00     0.169 HD
BRANCH  23  25
HETATM   25  C11 UNL     1      14.079  12.039  11.309  1.00  0.00     0.058 A 
HETATM   26  C12 UNL     1      13.623  12.329  12.568  1.00  0.00     0.031 A 
HETATM   27  C13 UNL     1      12.324  12.787  12.810  1.00  0.00     0.004 A 
HETATM   28  C14 UNL     1      11.438  12.970  11.793  1.00  0.00     0.026 A 
HETATM   29  C15 UNL     1      11.863  12.689  10.516  1.00  0.00     0.058 A 
HETATM   30 CL1  UNL     1      10.717  12.926   9.202  1.00  0.00    -0.082 Cl
HETATM   31  C16 UNL     1      13.142  12.239  10.287  1.00  0.00     0.082 A 
HETATM   32 CL2  UNL     1      13.597  11.905   8.613  1.00  0.00    -0.080 Cl
ENDBRANCH  23  25
ENDBRANCH   2  21
BRANCH   6  33
HETATM   33  C24 UNL     1      20.606   9.320  10.207  1.00  0.00     0.284 C 
HETATM   34  N5  UNL     1      21.505   8.923  11.228  1.00  0.00    -0.056 NA
HETATM   35  O4  UNL     1      20.621   8.645   9.147  1.00  0.00    -0.269 OA
ENDBRANCH   6  33
BRANCH   5  36
HETATM   36  C17 UNL     1      21.167  12.317   9.619  1.00  0.00     0.057 A 
HETATM   37  C18 UNL     1      22.017  12.991  10.443  1.00  0.00     0.034 A 
HETATM   38  C19 UNL     1      23.182  13.531   9.910  1.00  0.00     0.044 A 
HETATM   39  C20 UNL     1      23.461  13.379   8.569  1.00  0.00     0.116 A 
HETATM   40  F1  UNL     1      24.591  13.902   8.045  1.00  0.00    -0.206 F 
HETATM   41  C21 UNL     1      22.604  12.698   7.730  1.00  0.00     0.044 A 
HETATM   42  C22 UNL     1      21.464  12.178   8.289  1.00  0.00     0.034 A 
ENDBRANCH   5  36
TORSDOF 9
ENDMDL
MODEL 4
REMARK VINA RESULT: -8.626867419      5.127      8.764
REMARK  9 active torsions:
REMARK  status: ('A' for Active; 'I' for Inactive)
REMARK    1  A    between atoms: O1_2  and  C2_3 
REMARK    2  A    between atoms: C5_6  and  C6_7 
REMARK    3  A    between atoms: C6_7  and  N1_8 
REMARK       I    between atoms: N1_8  and  C7_9 
REMARK    4  A    between atoms: C7_9  and  C8_11 
REMARK    5  A    between atoms: C9_12  and  C10_13 
REMARK       I    between atoms: C10_13  and  N2_15 
REMARK    6  A    between atoms: N2_15  and  C11_17 
REMARK    7  A    between atoms: N4_27  and  C17_28 
REMARK    8  A    between atoms: C23_35  and  C24_36 
REMARK    9  A    between atoms: C26_40  and  O5_41 
ROOT
HETATM    1  C8  UNL     1      18.465  10.363  10.827  1.00  0.00     0.114 A 
HETATM    2  C9  UNL     1      17.926  11.600  10.896  1.00  0.00     0.136 A 
HETATM    3  N3  UNL     1      18.934  12.422  10.453  1.00  0.00    -0.287 N 
ATOM      4  H3  UNL     1      18.845  13.436  10.384  1.00  0.00     0.188 HD
HETATM    5  N4  UNL     1      20.006  11.779  10.134  1.00  0.00    -0.250 N 
HETATM    6  C23 UNL     1      19.774  10.489  10.346  1.00  0.00     0.141 A 
ENDROOT
BRANCH   1   7
HETATM    7  C7  UNL     1      17.858   9.073  11.180  1.00  0.00     0.330 C 
HETATM    8  N1  UNL     1      17.019   8.430  10.376  1.00  0.00    -0.378 NA
HETATM    9  O2  UNL     1      18.208   8.622  12.332  1.00  0.00    -0.251 OA
BRANCH   8  10
HETATM   10  C6  UNL     1      16.082   7.787   9.997  1.00  0.00     0.198 C 
BRANCH  10  11
HETATM   11  C5  UNL     1      14.653   7.859  10.367  1.00  0.00    -0.004 A 
HETATM   12  C4  UNL     1      13.754   8.418   9.467  1.00  0.00     0.017 A 
HETATM   13  C3  UNL     1      12.401   8.534   9.715  1.00  0.00     0.040 A 
HETATM   14  C2  UNL     1      11.926   8.063  10.928  1.00  0.00     0.101 A 
HETATM   15  C26 UNL     1      12.789   7.501  11.848  1.00  0.00     0.099 A 
HETATM   16  C25 UNL     1      14.159   7.398  11.566  1.00  0.00     0.053 A 
BRANCH  14  17
HETATM   17  O1  UNL     1      10.580   8.143  11.253  1.00  0.00    -0.353 OA
HETATM   18  C1  UNL     1       9.785   9.129  10.634  1.00  0.00     0.210 C 
ENDBRANCH  14  17
BRANCH  15  19
HETATM   19  O5  UNL     1      12.287   7.041  13.048  1.00  0.00    -0.358 OA
ATOM     20  H5  UNL     1      12.548   7.470  13.854  1.00  0.00     0.217 HD
ENDBRANCH  15  19
ENDBRANCH  10  11
ENDBRANCH   8  10
ENDBRANCH   1   7
BRANCH   2  21
HETATM   21  C10 UNL     1      16.635  12.138  11.294  1.00  0.00     0.275 C 
HETATM   22  O3  UNL     1      16.678  13.203  11.963  1.00  0.00    -0.266 OA
HETATM   23  N2  UNL     1      15.416  11.532  10.966  1.00  0.00    -0.320 N 
ATOM     24  H2  UNL     1      15.470  10.672  10.419  1.00  0.00     0.169 HD
BRANCH  23  25
HETATM   25  C11 UNL     1      14.118  11.980  11.308  1.00  0.00     0.058 A 
HETATM   26  C12 UNL     1      13.660  12.262  12.568  1.00  0.00     0.031 A 
HETATM   27  C13 UNL     1      12.355  12.703  12.812  1.00  0.00     0.004 A 
HETATM   28  C14 UNL     1      11.466  12.875  11.797  1.00  0.00     0.026 A 
HETATM   29  C15 UNL     1      11.893  12.601  10.519  1.00  0.00     0.058 A 
HETATM   30 CL1  UNL     1      10.742  12.824   9.207  1.00  0.00    -0.082 Cl
HETATM   31  C16 UNL     1      13.177  12.169  10.288  1.00  0.00     0.082 A 
HETATM   32 CL2  UNL     1      13.634  11.841   8.613  1.00  0.00    -0.080 Cl
ENDBRANCH  23  25
ENDBRANCH   2  21
BRANCH   6  33
HETATM   33  C24 UNL     1      20.664   9.363  10.136  1.00  0.00     0.284 C 
HETATM   34  N5  UNL     1      21.602   8.985  11.129  1.00  0.00    -0.056 NA
HETATM   35  O4  UNL     1      20.650   8.678   9.082  1.00  0.00    -0.269 OA
ENDBRANCH   6  33
BRANCH   5  36
HETATM   36  C17 UNL     1      21.225  12.376   9.639  1.00  0.00     0.057 A 
HETATM   37  C18 UNL     1      21.980  13.163  10.455  1.00  0.00     0.034 A 
HETATM   38  C19 UNL     1      23.153  13.718   9.955  1.00  0.00     0.044 A 
HETATM   39  C20 UNL     1      23.533  13.468   8.654  1.00  0.00     0.116 A 
HETATM   40  F1  UNL     1      24.671  14.004   8.162  1.00  0.00    -0.206 F 
HETATM   41  C21 UNL     1      22.771  12.672   7.823  1.00  0.00     0.044 A 
HETATM   42  C22 UNL     1      21.621  12.141   8.350  1.00  0.00     0.034 A 
ENDBRANCH   5  36
TORSDOF 9
ENDMDL
MODEL 5
REMARK VINA RESULT: -8.597387685      5.578      9.131
REMARK  9 active torsions:
REMARK  status: ('A' for Active; 'I' for Inactive)
REMARK    1  A    between atoms: O1_2  and  C2_3 
REMARK    2  A    between atoms: C5_6  and  C6_7 
REMARK    3  A    between atoms: C6_7  and  N1_8 
REMARK       I    between atoms: N1_8  and  C7_9 
REMARK    4  A    between atoms: C7_9  and  C8_11 
REMARK    5  A    between atoms: C9_12  and  C10_13 
REMARK       I    between atoms: C10_13  and  N2_15 
REMARK    6  A    between atoms: N2_15  and  C11_17 
REMARK    7  A    between atoms: N4_27  and  C17_28 
REMARK    8  A    between atoms: C23_35  and  C24_36 
REMARK    9  A    between atoms: C26_40  and  O5_41 
ROOT
HETATM    1  C8  UNL     1      18.502  10.572  10.245  1.00  0.00     0.114 A 
HETATM    2  C9  UNL     1      18.152  11.867  10.408  1.00  0.00     0.136 A 
HETATM    3  N3  UNL     1      19.165  12.560   9.791  1.00  0.00    -0.287 N 
ATOM      4  H3  UNL     1      19.201  13.578   9.739  1.00  0.00     0.188 HD
HETATM    5  N4  UNL     1      20.069  11.791   9.285  1.00  0.00    -0.250 N 
HETATM    6  C23 UNL     1      19.709  10.537   9.537  1.00  0.00     0.141 A 
ENDROOT
BRANCH   1   7
HETATM    7  C7  UNL     1      17.802   9.364  10.702  1.00  0.00     0.330 C 
HETATM    8  N1  UNL     1      17.027   8.638   9.905  1.00  0.00    -0.378 NA
HETATM    9  O2  UNL     1      18.005   9.072  11.938  1.00  0.00    -0.251 OA
BRANCH   8  10
HETATM   10  C6  UNL     1      16.109   7.976   9.514  1.00  0.00     0.198 C 
BRANCH  10  11
HETATM   11  C5  UNL     1      14.742   7.813  10.054  1.00  0.00    -0.004 A 
HETATM   12  C4  UNL     1      13.658   8.094   9.230  1.00  0.00     0.017 A 
HETATM   13  C3  UNL     1      12.343   7.976   9.635  1.00  0.00     0.040 A 
HETATM   14  C2  UNL     1      12.105   7.554  10.933  1.00  0.00     0.101 A 
HETATM   15  C26 UNL     1      13.156   7.267  11.781  1.00  0.00     0.099 A 
HETATM   16  C25 UNL     1      14.481   7.397  11.338  1.00  0.00     0.053 A 
BRANCH  14  17
HETATM   17  O1  UNL     1      10.813   7.411  11.416  1.00  0.00    -0.353 OA
HETATM   18  C1  UNL     1       9.880   8.444  11.190  1.00  0.00     0.210 C 
ENDBRANCH  14  17
BRANCH  15  19
HETATM   19  O5  UNL     1      12.888   6.850  13.068  1.00  0.00    -0.358 OA
ATOM     20  H5  UNL     1      13.454   7.135  13.775  1.00  0.00     0.217 HD
ENDBRANCH  15  19
ENDBRANCH  10  11
ENDBRANCH   8  10
ENDBRANCH   1   7
BRANCH   2  21
HETATM   21  C10 UNL     1      17.035  12.558  11.031  1.00  0.00     0.275 C 
HETATM   22  O3  UNL     1      17.150  12.764  12.267  1.00  0.00    -0.266 OA
HETATM   23  N2  UNL     1      15.902  12.978  10.325  1.00  0.00    -0.320 N 
ATOM     24  H2  UNL     1      15.889  12.774   9.325  1.00  0.00     0.169 HD
BRANCH  23  25
HETATM   25  C11 UNL     1      14.772  13.654  10.843  1.00  0.00     0.058 A 
HETATM   26  C12 UNL     1      14.599  15.012  10.920  1.00  0.00     0.031 A 
HETATM   27  C13 UNL     1      13.443  15.593  11.450  1.00  0.00     0.004 A 
HETATM   28  C14 UNL     1      12.419  14.829  11.921  1.00  0.00     0.026 A 
HETATM   29  C15 UNL     1      12.560  13.463  11.858  1.00  0.00     0.058 A 
HETATM   30 CL1  UNL     1      11.236  12.477  12.468  1.00  0.00    -0.082 Cl
HETATM   31  C16 UNL     1      13.699  12.900  11.336  1.00  0.00     0.082 A 
HETATM   32 CL2  UNL     1      13.789  11.136  11.298  1.00  0.00    -0.080 Cl
ENDBRANCH  23  25
ENDBRANCH   2  21
BRANCH   6  33
HETATM   33  C24 UNL     1      20.392   9.310   9.171  1.00  0.00     0.284 C 
HETATM   34  N5  UNL     1      20.290   8.788   7.858  1.00  0.00    -0.056 NA
HETATM   35  O4  UNL     1      21.094   8.659   9.987  1.00  0.00    -0.269 OA
ENDBRANCH   6  33
BRANCH   5  36
HETATM   36  C17 UNL     1      21.248  12.235   8.580  1.00  0.00     0.057 A 
HETATM   37  C18 UNL     1      22.424  12.397   9.248  1.00  0.00     0.034 A 
HETATM   38  C19 UNL     1      23.546  12.818   8.542  1.00  0.00     0.044 A 
HETATM   39  C20 UNL     1      23.455  13.063   7.189  1.00  0.00     0.116 A 
HETATM   40  F1  UNL     1      24.541  13.473   6.497  1.00  0.00    -0.206 F 
HETATM   41  C21 UNL     1      22.266  12.902   6.507  1.00  0.00     0.044 A 
HETATM   42  C22 UNL     1      21.181  12.485   7.235  1.00  0.00     0.034 A 
ENDBRANCH   5  36
TORSDOF 9
ENDMDL
