MODEL 1
REMARK VINA RESULT: -7.585651193      0.000      0.000
REMARK  11 active torsions:
REMARK  status: ('A' for Active; 'I' for Inactive)
REMARK    1  A    between atoms: O1_2  and  C2_3 
REMARK    2  A    between atoms: C4_5  and  N1_6 
REMARK    3  A    between atoms: N1_6  and  C5_8 
REMARK    4  A    between atoms: C5_8  and  N2_10 
REMARK    5  A    between atoms: N2_10  and  C6_12 
REMARK    6  A    between atoms: C14_21  and  C15_22 
REMARK    7  A    between atoms: C15_22  and  O3_24 
REMARK    8  A    between atoms: O3_24  and  C16_25 
REMARK    9  A    between atoms: C17_26  and  O4_27 
REMARK   10  A    between atoms: C17_26  and  N3_29 
REMARK       I    between atoms: N3_29  and  C18_31 
REMARK   11  A    between atoms: C18_31  and  C19_33 
ROOT
HETATM    1  C2  UNL     1      18.710  11.720   8.165  1.00  0.00     0.086 A 
HETATM    2  C3  UNL     1      17.915  11.073   7.247  1.00  0.00     0.067 A 
HETATM    3  C4  UNL     1      18.390  10.069   6.401  1.00  0.00     0.036 A 
HETATM    4  C12 UNL     1      19.701   9.737   6.512  1.00  0.00     0.030 A 
HETATM    5  C13 UNL     1      20.512  10.398   7.449  1.00  0.00     0.023 A 
HETATM    6  C14 UNL     1      20.044  11.389   8.284  1.00  0.00     0.073 A 
ENDROOT
BRANCH   6   7
HETATM    7  C15 UNL     1      20.922  12.038   9.242  1.00  0.00     0.300 C 
HETATM    8  O2  UNL     1      21.658  12.999   8.956  1.00  0.00    -0.259 OA
BRANCH   7   9
HETATM    9  O3  UNL     1      20.950  11.562  10.569  1.00  0.00    -0.283 OA
BRANCH   9  10
HETATM   10  C16 UNL     1      21.663  10.382  10.847  1.00  0.00     0.201 C 
HETATM   11  C17 UNL     1      20.888   9.192  11.048  1.00  0.00     0.165 C 
BRANCH  11  12
HETATM   12  O4  UNL     1      21.448   8.084  10.578  1.00  0.00    -0.345 OA
ATOM     13  H4  UNL     1      20.833   7.391  10.367  1.00  0.00     0.219 HD
ENDBRANCH  11  12
BRANCH  11  14
HETATM   14  N3  UNL     1      19.657   8.985  11.645  1.00  0.00    -0.301 N 
HETATM   15  C18 UNL     1      18.447   8.713  11.027  1.00  0.00     0.277 C 
HETATM   16  O5  UNL     1      18.386   8.687   9.742  1.00  0.00    -0.266 OA
ATOM     17  H3  UNL     1      19.638   9.038  12.664  1.00  0.00     0.171 HD
BRANCH  15  18
HETATM   18  C19 UNL     1      17.195   8.450  11.750  1.00  0.00     0.142 A 
HETATM   19  N4  UNL     1      16.452   9.549  12.113  1.00  0.00    -0.326 N 
HETATM   20  C20 UNL     1      15.291   9.408  12.742  1.00  0.00     0.189 A 
ATOM     21  H4  UNL     1      16.798  10.483  11.897  1.00  0.00     0.168 HD
HETATM   22  F1  UNL     1      14.560  10.515  13.099  1.00  0.00    -0.186 F 
HETATM   23  C21 UNL     1      14.760   8.175  13.067  1.00  0.00     0.064 A 
HETATM   24  C22 UNL     1      15.467   7.056  12.724  1.00  0.00     0.049 A 
HETATM   25  C23 UNL     1      16.692   7.248  12.057  1.00  0.00     0.148 A 
HETATM   26  F2  UNL     1      17.350   6.099  11.692  1.00  0.00    -0.203 F 
ENDBRANCH  15  18
ENDBRANCH  11  14
ENDBRANCH   9  10
ENDBRANCH   7   9
ENDBRANCH   6   7
BRANCH   1  27
HETATM   27  O1  UNL     1      18.213  12.716   8.991  1.00  0.00    -0.355 OA
HETATM   28  C1  UNL     1      17.287  12.342   9.992  1.00  0.00     0.210 C 
ENDBRANCH   1  27
BRANCH   3  29
HETATM   29  N1  UNL     1      17.462   9.516   5.485  1.00  0.00    -0.333 N 
ATOM     30  H1  UNL     1      17.534   9.860   4.527  1.00  0.00     0.168 HD
BRANCH  29  31
HETATM   31  C5  UNL     1      16.470   8.572   5.706  1.00  0.00     0.176 C 
HETATM   32  S1  UNL     1      15.462   8.160   4.460  1.00  0.00    -0.041 SA
BRANCH  31  33
HETATM   33  N2  UNL     1      16.273   7.901   6.903  1.00  0.00    -0.333 N 
ATOM     34  H2  UNL     1      17.004   7.229   7.140  1.00  0.00     0.168 HD
BRANCH  33  35
HETATM   35  C6  UNL     1      15.230   7.995   7.849  1.00  0.00     0.034 A 
HETATM   36  C7  UNL     1      14.990   9.037   8.700  1.00  0.00     0.031 A 
HETATM   37  C8  UNL     1      13.919   9.068   9.592  1.00  0.00     0.021 A 
HETATM   38  C9  UNL     1      13.043   8.010   9.638  1.00  0.00     0.011 A 
HETATM   39 BR1  UNL     1      11.584   8.057  10.854  1.00  0.00    -0.051 Br
HETATM   40  C10 UNL     1      13.244   6.937   8.801  1.00  0.00     0.021 A 
HETATM   41  C11 UNL     1      14.300   6.938   7.942  1.00  0.00     0.031 A 
ENDBRANCH  33  35
ENDBRANCH  31  33
ENDBRANCH  29  31
ENDBRANCH   3  29
TORSDOF 11
ENDMDL
MODEL 2
REMARK VINA RESULT: -7.422758602      5.026      7.572
REMARK  11 active torsions:
REMARK  status: ('A' for Active; 'I' for Inactive)
REMARK    1  A    between atoms: O1_2  and  C2_3 
REMARK    2  A    between atoms: C4_5  and  N1_6 
REMARK    3  A    between atoms: N1_6  and  C5_8 
REMARK    4  A    between atoms: C5_8  and  N2_10 
REMARK    5  A    between atoms: N2_10  and  C6_12 
REMARK    6  A    between atoms: C14_21  and  C15_22 
REMARK    7  A    between atoms: C15_22  and  O3_24 
REMARK    8  A    between atoms: O3_24  and  C16_25 
REMARK    9  A    between atoms: C17_26  and  O4_27 
REMARK   10  A    between atoms: C17_26  and  N3_29 
REMARK       I    between atoms: N3_29  and  C18_31 
REMARK   11  A    between atoms: C18_31  and  C19_33 
ROOT
HETATM    1  C2  UNL     1      12.143   8.360   9.741  1.00  0.00     0.086 A 
HETATM    2  C3  UNL     1      11.240   9.272   9.244  1.00  0.00     0.067 A 
HETATM    3  C4  UNL     1      10.800  10.381   9.970  1.00  0.00     0.036 A 
HETATM    4  C12 UNL     1      11.303  10.541  11.219  1.00  0.00     0.030 A 
HETATM    5  C13 UNL     1      12.226   9.610  11.725  1.00  0.00     0.023 A 
HETATM    6  C14 UNL     1      12.660   8.515  11.010  1.00  0.00     0.073 A 
ENDROOT
BRANCH   6   7
HETATM    7  C15 UNL     1      13.620   7.583  11.576  1.00  0.00     0.300 C 
HETATM    8  O2  UNL     1      13.297   6.523  12.141  1.00  0.00    -0.259 OA
BRANCH   7   9
HETATM    9  O3  UNL     1      14.995   7.887  11.486  1.00  0.00    -0.283 OA
BRANCH   9  10
HETATM   10  C16 UNL     1      15.852   7.437  12.505  1.00  0.00     0.201 C 
HETATM   11  C17 UNL     1      17.006   8.243  12.780  1.00  0.00     0.165 C 
BRANCH  11  12
HETATM   12  O4  UNL     1      17.350   8.297  14.061  1.00  0.00    -0.345 OA
ATOM     13  H4  UNL     1      18.125   7.796  14.283  1.00  0.00     0.219 HD
ENDBRANCH  11  12
BRANCH  11  14
HETATM   14  N3  UNL     1      17.834   8.980  11.950  1.00  0.00    -0.301 N 
HETATM   15  C18 UNL     1      19.104   8.649  11.505  1.00  0.00     0.277 C 
HETATM   16  O5  UNL     1      19.655   7.562  11.918  1.00  0.00    -0.266 OA
ATOM     17  H3  UNL     1      17.464   9.874  11.626  1.00  0.00     0.171 HD
BRANCH  15  18
HETATM   18  C19 UNL     1      19.890   9.472  10.575  1.00  0.00     0.142 A 
HETATM   19  N4  UNL     1      21.104   9.927  11.033  1.00  0.00    -0.326 N 
HETATM   20  C20 UNL     1      21.898  10.652  10.253  1.00  0.00     0.189 A 
ATOM     21  H4  UNL     1      21.399   9.706  11.983  1.00  0.00     0.168 HD
HETATM   22  F1  UNL     1      23.109  11.100  10.723  1.00  0.00    -0.186 F 
HETATM   23  C21 UNL     1      21.566  10.992   8.955  1.00  0.00     0.064 A 
HETATM   24  C22 UNL     1      20.366  10.559   8.461  1.00  0.00     0.049 A 
HETATM   25  C23 UNL     1      19.555   9.792   9.320  1.00  0.00     0.148 A 
HETATM   26  F2  UNL     1      18.379   9.342   8.772  1.00  0.00    -0.203 F 
ENDBRANCH  15  18
ENDBRANCH  11  14
ENDBRANCH   9  10
ENDBRANCH   7   9
ENDBRANCH   6   7
BRANCH   1  27
HETATM   27  O1  UNL     1      12.561   7.265   8.999  1.00  0.00    -0.355 OA
HETATM   28  C1  UNL     1      13.449   7.498   7.923  1.00  0.00     0.210 C 
ENDBRANCH   1  27
BRANCH   3  29
HETATM   29  N1  UNL     1       9.844  11.215   9.341  1.00  0.00    -0.333 N 
ATOM     30  H1  UNL     1       8.868  10.964   9.503  1.00  0.00     0.168 HD
BRANCH  29  31
HETATM   31  C5  UNL     1      10.046  12.327   8.535  1.00  0.00     0.176 C 
HETATM   32  S1  UNL     1       9.617  12.250   6.939  1.00  0.00    -0.041 SA
BRANCH  31  33
HETATM   33  N2  UNL     1      10.555  13.538   8.978  1.00  0.00    -0.333 N 
ATOM     34  H2  UNL     1      11.336  13.898   8.428  1.00  0.00     0.168 HD
BRANCH  33  35
HETATM   35  C6  UNL     1      10.172  14.354  10.063  1.00  0.00     0.034 A 
HETATM   36  C7  UNL     1      10.720  14.358  11.316  1.00  0.00     0.031 A 
HETATM   37  C8  UNL     1      10.303  15.217  12.333  1.00  0.00     0.021 A 
HETATM   38  C9  UNL     1       9.291  16.114  12.091  1.00  0.00     0.011 A 
HETATM   39 BR1  UNL     1       8.726  17.282  13.479  1.00  0.00    -0.051 Br
HETATM   40  C10 UNL     1       8.707  16.146  10.846  1.00  0.00     0.021 A 
HETATM   41  C11 UNL     1       9.138  15.294   9.875  1.00  0.00     0.031 A 
ENDBRANCH  33  35
ENDBRANCH  31  33
ENDBRANCH  29  31
ENDBRANCH   3  29
TORSDOF 11
ENDMDL
MODEL 3
REMARK VINA RESULT: -7.376994497      4.882      7.479
REMARK  11 active torsions:
REMARK  status: ('A' for Active; 'I' for Inactive)
REMARK    1  A    between atoms: O1_2  and  C2_3 
REMARK    2  A    between atoms: C4_5  and  N1_6 
REMARK    3  A    between atoms: N1_6  and  C5_8 
REMARK    4  A    between atoms: C5_8  and  N2_10 
REMARK    5  A    between atoms: N2_10  and  C6_12 
REMARK    6  A    between atoms: C14_21  and  C15_22 
REMARK    7  A    between atoms: C15_22  and  O3_24 
REMARK    8  A    between atoms: O3_24  and  C16_25 
REMARK    9  A    between atoms: C17_26  and  O4_27 
REMARK   10  A    between atoms: C17_26  and  N3_29 
REMARK       I    between atoms: N3_29  and  C18_31 
REMARK   11  A    between atoms: C18_31  and  C19_33 
ROOT
HETATM    1  C2  UNL     1      12.895   9.617  11.684  1.00  0.00     0.086 A 
HETATM    2  C3  UNL     1      12.033  10.508  11.085  1.00  0.00     0.067 A 
HETATM    3  C4  UNL     1      10.896  10.110  10.378  1.00  0.00     0.036 A 
HETATM    4  C12 UNL     1      10.656   8.778  10.295  1.00  0.00     0.030 A 
HETATM    5  C13 UNL     1      11.536   7.869  10.907  1.00  0.00     0.023 A 
HETATM    6  C14 UNL     1      12.657   8.261  11.604  1.00  0.00     0.073 A 
ENDROOT
BRANCH   6   7
HETATM    7  C15 UNL     1      13.534   7.282  12.224  1.00  0.00     0.300 C 
HETATM    8  O2  UNL     1      13.182   6.542  13.160  1.00  0.00    -0.259 OA
BRANCH   7   9
HETATM    9  O3  UNL     1      14.855   7.155  11.747  1.00  0.00    -0.283 OA
BRANCH   9  10
HETATM   10  C16 UNL     1      15.900   7.045  12.681  1.00  0.00     0.201 C 
HETATM   11  C17 UNL     1      16.866   8.104  12.696  1.00  0.00     0.165 C 
BRANCH  11  12
HETATM   12  O4  UNL     1      17.330   8.412  13.901  1.00  0.00    -0.345 OA
ATOM     13  H4  UNL     1      17.384   9.343  14.078  1.00  0.00     0.219 HD
ENDBRANCH  11  12
BRANCH  11  14
HETATM   14  N3  UNL     1      17.409   8.871  11.679  1.00  0.00    -0.301 N 
HETATM   15  C18 UNL     1      18.728   8.915  11.259  1.00  0.00     0.277 C 
HETATM   16  O5  UNL     1      19.614   8.219  11.882  1.00  0.00    -0.266 OA
ATOM     17  H3  UNL     1      16.758   9.477  11.178  1.00  0.00     0.171 HD
BRANCH  15  18
HETATM   18  C19 UNL     1      19.205   9.722  10.127  1.00  0.00     0.142 A 
HETATM   19  N4  UNL     1      19.704   9.033   9.047  1.00  0.00    -0.326 N 
HETATM   20  C20 UNL     1      20.129   9.676   7.966  1.00  0.00     0.189 A 
ATOM     21  H4  UNL     1      19.749   8.015   9.077  1.00  0.00     0.168 HD
HETATM   22  F1  UNL     1      20.626   8.974   6.894  1.00  0.00    -0.186 F 
HETATM   23  C21 UNL     1      20.099  11.053   7.853  1.00  0.00     0.064 A 
HETATM   24  C22 UNL     1      19.609  11.777   8.905  1.00  0.00     0.049 A 
HETATM   25  C23 UNL     1      19.168  11.057  10.032  1.00  0.00     0.148 A 
HETATM   26  F2  UNL     1      18.645  11.818  11.048  1.00  0.00    -0.203 F 
ENDBRANCH  15  18
ENDBRANCH  11  14
ENDBRANCH   9  10
ENDBRANCH   7   9
ENDBRANCH   6   7
BRANCH   1  27
HETATM   27  O1  UNL     1      14.018  10.040  12.378  1.00  0.00    -0.355 OA
HETATM   28  C1  UNL     1      14.648  11.232  11.951  1.00  0.00     0.210 C 
ENDBRANCH   1  27
BRANCH   3  29
HETATM   29  N1  UNL     1      10.121  11.138   9.788  1.00  0.00    -0.333 N 
ATOM     30  H1  UNL     1       9.145  11.175  10.084  1.00  0.00     0.168 HD
BRANCH  29  31
HETATM   31  C5  UNL     1      10.501  12.102   8.866  1.00  0.00     0.176 C 
HETATM   32  S1  UNL     1      10.462  11.730   7.254  1.00  0.00    -0.041 SA
BRANCH  31  33
HETATM   33  N2  UNL     1      10.883  13.395   9.190  1.00  0.00    -0.333 N 
ATOM     34  H2  UNL     1      11.688  13.744   8.669  1.00  0.00     0.168 HD
BRANCH  33  35
HETATM   35  C6  UNL     1      10.342  14.307  10.121  1.00  0.00     0.034 A 
HETATM   36  C7  UNL     1       9.342  15.210   9.893  1.00  0.00     0.031 A 
HETATM   37  C8  UNL     1       8.841  16.064  10.875  1.00  0.00     0.021 A 
HETATM   38  C9  UNL     1       9.362  16.017  12.145  1.00  0.00     0.011 A 
HETATM   39 BR1  UNL     1       8.676  17.182  13.481  1.00  0.00    -0.051 Br
HETATM   40  C10 UNL     1      10.372  15.125  12.423  1.00  0.00     0.021 A 
HETATM   41  C11 UNL     1      10.838  14.305  11.441  1.00  0.00     0.031 A 
ENDBRANCH  33  35
ENDBRANCH  31  33
ENDBRANCH  29  31
ENDBRANCH   3  29
TORSDOF 11
ENDMDL
MODEL 4
REMARK VINA RESULT: -7.324724507      2.023      2.830
REMARK  11 active torsions:
REMARK  status: ('A' for Active; 'I' for Inactive)
REMARK    1  A    between atoms: O1_2  and  C2_3 
REMARK    2  A    between atoms: C4_5  and  N1_6 
REMARK    3  A    between atoms: N1_6  and  C5_8 
REMARK    4  A    between atoms: C5_8  and  N2_10 
REMARK    5  A    between atoms: N2_10  and  C6_12 
REMARK    6  A    between atoms: C14_21  and  C15_22 
REMARK    7  A    between atoms: C15_22  and  O3_24 
REMARK    8  A    between atoms: O3_24  and  C16_25 
REMARK    9  A    between atoms: C17_26  and  O4_27 
REMARK   10  A    between atoms: C17_26  and  N3_29 
REMARK       I    between atoms: N3_29  and  C18_31 
REMARK   11  A    between atoms: C18_31  and  C19_33 
ROOT
HETATM    1  C2  UNL     1      20.379  11.824   5.902  1.00  0.00     0.086 A 
HETATM    2  C3  UNL     1      19.163  11.344   5.473  1.00  0.00     0.067 A 
HETATM    3  C4  UNL     1      18.645  10.111   5.876  1.00  0.00     0.036 A 
HETATM    4  C12 UNL     1      19.398   9.375   6.732  1.00  0.00     0.030 A 
HETATM    5  C13 UNL     1      20.639   9.867   7.170  1.00  0.00     0.023 A 
HETATM    6  C14 UNL     1      21.150  11.083   6.773  1.00  0.00     0.073 A 
ENDROOT
BRANCH   6   7
HETATM    7  C15 UNL     1      22.437  11.550   7.260  1.00  0.00     0.300 C 
HETATM    8  O2  UNL     1      23.522  11.246   6.733  1.00  0.00    -0.259 OA
BRANCH   7   9
HETATM    9  O3  UNL     1      22.469  12.394   8.389  1.00  0.00    -0.283 OA
BRANCH   9  10
HETATM   10  C16 UNL     1      23.274  12.027   9.482  1.00  0.00     0.201 C 
HETATM   11  C17 UNL     1      22.737  11.046  10.379  1.00  0.00     0.165 C 
BRANCH  11  12
HETATM   12  O4  UNL     1      23.633  10.204  10.878  1.00  0.00    -0.345 OA
ATOM     13  H4  UNL     1      23.944   9.549  10.264  1.00  0.00     0.219 HD
ENDBRANCH  11  12
BRANCH  11  14
HETATM   14  N3  UNL     1      21.446  10.815  10.825  1.00  0.00    -0.301 N 
HETATM   15  C18 UNL     1      20.709   9.646  10.722  1.00  0.00     0.277 C 
HETATM   16  O5  UNL     1      21.209   8.635  10.104  1.00  0.00    -0.266 OA
ATOM     17  H3  UNL     1      20.983  11.599  11.285  1.00  0.00     0.171 HD
BRANCH  15  18
HETATM   18  C19 UNL     1      19.359   9.475  11.277  1.00  0.00     0.142 A 
HETATM   19  N4  UNL     1      19.054   8.231  11.779  1.00  0.00    -0.326 N 
HETATM   20  C20 UNL     1      17.870   7.990  12.329  1.00  0.00     0.189 A 
ATOM     21  H4  UNL     1      19.746   7.485  11.728  1.00  0.00     0.168 HD
HETATM   22  F1  UNL     1      17.579   6.743  12.827  1.00  0.00    -0.186 F 
HETATM   23  C21 UNL     1      16.882   8.952  12.434  1.00  0.00     0.064 A 
HETATM   24  C22 UNL     1      17.145  10.202  11.947  1.00  0.00     0.049 A 
HETATM   25  C23 UNL     1      18.413  10.417  11.372  1.00  0.00     0.148 A 
HETATM   26  F2  UNL     1      18.651  11.696  10.934  1.00  0.00    -0.203 F 
ENDBRANCH  15  18
ENDBRANCH  11  14
ENDBRANCH   9  10
ENDBRANCH   7   9
ENDBRANCH   6   7
BRANCH   1  27
HETATM   27  O1  UNL     1      20.870  13.051   5.483  1.00  0.00    -0.355 OA
HETATM   28  C1  UNL     1      19.961  13.959   4.891  1.00  0.00     0.210 C 
ENDBRANCH   1  27
BRANCH   3  29
HETATM   29  N1  UNL     1      17.396   9.733   5.325  1.00  0.00    -0.333 N 
ATOM     30  H1  UNL     1      17.433   9.334   4.388  1.00  0.00     0.168 HD
BRANCH  29  31
HETATM   31  C5  UNL     1      16.129   9.830   5.882  1.00  0.00     0.176 C 
HETATM   32  S1  UNL     1      14.824   9.325   4.998  1.00  0.00    -0.041 SA
BRANCH  31  33
HETATM   33  N2  UNL     1      15.864  10.291   7.162  1.00  0.00    -0.333 N 
ATOM     34  H2  UNL     1      16.122  11.264   7.327  1.00  0.00     0.168 HD
BRANCH  33  35
HETATM   35  C6  UNL     1      15.295   9.635   8.275  1.00  0.00     0.034 A 
HETATM   36  C7  UNL     1      14.321  10.124   9.101  1.00  0.00     0.031 A 
HETATM   37  C8  UNL     1      13.789   9.403  10.169  1.00  0.00     0.021 A 
HETATM   38  C9  UNL     1      14.250   8.135  10.429  1.00  0.00     0.011 A 
HETATM   39 BR1  UNL     1      13.522   7.156  11.886  1.00  0.00    -0.051 Br
HETATM   40  C10 UNL     1      15.231   7.600   9.626  1.00  0.00     0.021 A 
HETATM   41  C11 UNL     1      15.729   8.331   8.590  1.00  0.00     0.031 A 
ENDBRANCH  33  35
ENDBRANCH  31  33
ENDBRANCH  29  31
ENDBRANCH   3  29
TORSDOF 11
ENDMDL
MODEL 5
REMARK VINA RESULT: -7.296922181      3.607      6.372
REMARK  11 active torsions:
REMARK  status: ('A' for Active; 'I' for Inactive)
REMARK    1  A    between atoms: O1_2  and  C2_3 
REMARK    2  A    between atoms: C4_5  and  N1_6 
REMARK    3  A    between atoms: N1_6  and  C5_8 
REMARK    4  A    between atoms: C5_8  and  N2_10 
REMARK    5  A    between atoms: N2_10  and  C6_12 
REMARK    6  A    between atoms: C14_21  and  C15_22 
REMARK    7  A    between atoms: C15_22  and  O3_24 
REMARK    8  A    between atoms: O3_24  and  C16_25 
REMARK    9  A    between atoms: C17_26  and  O4_27 
REMARK   10  A    between atoms: C17_26  and  N3_29 
REMARK       I    between atoms: N3_29  and  C18_31 
REMARK   11  A    between atoms: C18_31  and  C19_33 
ROOT
HETATM    1  C2  UNL     1      13.719   9.038   6.905  1.00  0.00     0.086 A 
HETATM    2  C3  UNL     1      12.654   8.907   7.766  1.00  0.00     0.067 A 
HETATM    3  C4  UNL     1      12.516   7.836   8.652  1.00  0.00     0.036 A 
HETATM    4  C12 UNL     1      13.495   6.896   8.641  1.00  0.00     0.030 A 
HETATM    5  C13 UNL     1      14.583   7.031   7.762  1.00  0.00     0.023 A 
HETATM    6  C14 UNL     1      14.718   8.087   6.888  1.00  0.00     0.073 A 
ENDROOT
BRANCH   6   7
HETATM    7  C15 UNL     1      15.867   8.184   6.003  1.00  0.00     0.300 C 
HETATM    8  O2  UNL     1      15.958   7.567   4.927  1.00  0.00    -0.259 OA
BRANCH   7   9
HETATM    9  O3  UNL     1      16.940   9.021   6.373  1.00  0.00    -0.283 OA
BRANCH   9  10
HETATM   10  C16 UNL     1      17.364  10.012   5.471  1.00  0.00     0.201 C 
HETATM   11  C17 UNL     1      18.702  10.502   5.631  1.00  0.00     0.165 C 
BRANCH  11  12
HETATM   12  O4  UNL     1      19.325  10.790   4.495  1.00  0.00    -0.345 OA
ATOM     13  H4  UNL     1      19.640  11.685   4.434  1.00  0.00     0.219 HD
ENDBRANCH  11  12
BRANCH  11  14
HETATM   14  N3  UNL     1      19.470  10.730   6.761  1.00  0.00    -0.301 N 
HETATM   15  C18 UNL     1      20.254   9.822   7.454  1.00  0.00     0.277 C 
HETATM   16  O5  UNL     1      20.274   8.591   7.082  1.00  0.00    -0.266 OA
ATOM     17  H3  UNL     1      19.457  11.683   7.127  1.00  0.00     0.171 HD
BRANCH  15  18
HETATM   18  C19 UNL     1      21.083  10.170   8.616  1.00  0.00     0.142 A 
HETATM   19  N4  UNL     1      22.045  11.134   8.419  1.00  0.00    -0.326 N 
HETATM   20  C20 UNL     1      22.821  11.536   9.418  1.00  0.00     0.189 A 
ATOM     21  H4  UNL     1      22.163  11.544   7.494  1.00  0.00     0.168 HD
HETATM   22  F1  UNL     1      23.777  12.500   9.207  1.00  0.00    -0.186 F 
HETATM   23  C21 UNL     1      22.719  11.025  10.699  1.00  0.00     0.064 A 
HETATM   24  C22 UNL     1      21.775  10.064  10.937  1.00  0.00     0.049 A 
HETATM   25  C23 UNL     1      20.972   9.667   9.851  1.00  0.00     0.148 A 
HETATM   26  F2  UNL     1      20.010   8.732  10.143  1.00  0.00    -0.203 F 
ENDBRANCH  15  18
ENDBRANCH  11  14
ENDBRANCH   9  10
ENDBRANCH   7   9
ENDBRANCH   6   7
BRANCH   1  27
HETATM   27  O1  UNL     1      13.829  10.110   6.034  1.00  0.00    -0.355 OA
HETATM   28  C1  UNL     1      13.961  11.403   6.592  1.00  0.00     0.210 C 
ENDBRANCH   1  27
BRANCH   3  29
HETATM   29  N1  UNL     1      11.349   7.818   9.454  1.00  0.00    -0.333 N 
ATOM     30  H1  UNL     1      10.631   7.153   9.168  1.00  0.00     0.168 HD
BRANCH  29  31
HETATM   31  C5  UNL     1      11.046   8.578  10.575  1.00  0.00     0.176 C 
HETATM   32  S1  UNL     1       9.559   9.298  10.678  1.00  0.00    -0.041 SA
BRANCH  31  33
HETATM   33  N2  UNL     1      11.892   8.756  11.658  1.00  0.00    -0.333 N 
ATOM     34  H2  UNL     1      11.485   9.277  12.435  1.00  0.00     0.168 HD
BRANCH  33  35
HETATM   35  C6  UNL     1      13.223   8.334  11.864  1.00  0.00     0.034 A 
HETATM   36  C7  UNL     1      13.629   7.163  12.440  1.00  0.00     0.031 A 
HETATM   37  C8  UNL     1      14.969   6.804  12.586  1.00  0.00     0.021 A 
HETATM   38  C9  UNL     1      15.951   7.653  12.136  1.00  0.00     0.011 A 
HETATM   39 BR1  UNL     1      17.776   7.159  12.335  1.00  0.00    -0.051 Br
HETATM   40  C10 UNL     1      15.592   8.844  11.550  1.00  0.00     0.021 A 
HETATM   41  C11 UNL     1      14.274   9.164  11.423  1.00  0.00     0.031 A 
ENDBRANCH  33  35
ENDBRANCH  31  33
ENDBRANCH  29  31
ENDBRANCH   3  29
TORSDOF 11
ENDMDL
