MODEL 1
REMARK VINA RESULT: -7.373697330      0.000      0.000
REMARK  8 active torsions:
REMARK  status: ('A' for Active; 'I' for Inactive)
REMARK    1  A    between atoms: C3_3  and  C5_5 
REMARK    2  A    between atoms: C9_9  and  O1_10 
REMARK    3  A    between atoms: C10_12  and  C11_13 
REMARK    4  A    between atoms: C11_13  and  C12_14 
REMARK    5  A    between atoms: C11_13  and  N1_17 
REMARK    6  A    between atoms: C12_14  and  C13_15 
REMARK       I    between atoms: N1_17  and  C15_19 
REMARK    7  A    between atoms: C15_19  and  C16_21 
REMARK    8  A    between atoms: C19_28  and  O4_29 
ROOT
HETATM    1  C1  UNL     1      16.937   9.287   8.768  1.00  0.00     0.016 C 
HETATM    2  C2  UNL     1      15.668   8.912   8.808  1.00  0.00    -0.067 C 
HETATM    3  C3  UNL     1      15.135   8.168   7.659  1.00  0.00    -0.021 C 
HETATM    4  C4  UNL     1      15.693   6.806   7.427  1.00  0.00     0.020 C 
HETATM    5  C7  UNL     1      13.640   8.029   7.792  1.00  0.00     0.017 C 
HETATM    6  C8  UNL     1      13.109   9.356   8.194  1.00  0.00     0.043 C 
HETATM    7  C9  UNL     1      13.579   9.897   9.505  1.00  0.00     0.100 C 
HETATM    8  C10 UNL     1      12.453   9.870  10.462  1.00  0.00     0.180 C 
HETATM    9  O3  UNL     1      12.730   9.516  11.733  1.00  0.00    -0.375 OA
HETATM   10  C17 UNL     1      13.695   8.695  12.054  1.00  0.00     0.133 C 
HETATM   11  C18 UNL     1      14.568   9.419  13.099  1.00  0.00     0.101 C 
HETATM   12  C19 UNL     1      15.992   9.190  12.675  1.00  0.00     0.167 C 
HETATM   13  O5  UNL     1      16.444  10.068  11.731  1.00  0.00    -0.354 OA
HETATM   14  C20 UNL     1      15.569  10.440  10.768  1.00  0.00     0.189 C 
HETATM   15  C21 UNL     1      14.884   9.289  10.022  1.00  0.00     0.045 C 
HETATM   16  C22 UNL     1      14.682   8.213  11.013  1.00  0.00     0.041 C 
HETATM   17  C23 UNL     1      15.790   7.863  11.923  1.00  0.00     0.052 C 
HETATM   18  C24 UNL     1      17.045   7.308  11.459  1.00  0.00     0.016 C 
ENDROOT
BRANCH   8  19
HETATM   19  C11 UNL     1      11.640  11.134  10.572  1.00  0.00     0.116 C 
BRANCH  19  20
HETATM   20  C12 UNL     1      11.193  11.337  12.009  1.00  0.00     0.027 C 
BRANCH  20  21
HETATM   21  C13 UNL     1      11.354  12.728  12.516  1.00  0.00    -0.002 C 
HETATM   22  C14 UNL     1      12.824  13.117  12.349  1.00  0.00     0.005 C 
ENDBRANCH  20  21
ENDBRANCH  19  20
BRANCH  19  23
HETATM   23  N1  UNL     1      10.512  11.275   9.751  1.00  0.00    -0.346 N 
HETATM   24  C15 UNL     1      10.557  12.073   8.588  1.00  0.00     0.325 C 
HETATM   25  O2  UNL     1      11.579  12.714   8.195  1.00  0.00    -0.263 OA
ATOM     26  H1  UNL     1       9.648  10.794   9.998  1.00  0.00     0.163 HD
BRANCH  24  27
HETATM   27  C16 UNL     1       9.354  12.232   7.691  1.00  0.00     0.472 C 
HETATM   28  F1  UNL     1       9.403  13.413   6.990  1.00  0.00    -0.162 F 
HETATM   29  F2  UNL     1       8.177  12.056   8.349  1.00  0.00    -0.162 F 
HETATM   30  F3  UNL     1       9.457  11.182   6.769  1.00  0.00    -0.162 F 
ENDBRANCH  24  27
ENDBRANCH  19  23
ENDBRANCH   8  19
BRANCH   7  31
HETATM   31  O1  UNL     1      13.863  11.264   9.239  1.00  0.00    -0.386 OA
ATOM     32  H1  UNL     1      13.148  11.737   9.650  1.00  0.00     0.210 HD
ENDBRANCH   7  31
BRANCH   3  33
HETATM   33  C5  UNL     1      15.389   8.919   6.338  1.00  0.00     0.009 C 
HETATM   34  C6  UNL     1      15.693   7.914   5.250  1.00  0.00     0.006 C 
ENDBRANCH   3  33
BRANCH  12  35
HETATM   35  O4  UNL     1      16.866   9.055  13.720  1.00  0.00    -0.365 OA
ATOM     36  H4  UNL     1      16.984   8.158  14.009  1.00  0.00     0.213 HD
ENDBRANCH  12  35
TORSDOF 8
ENDMDL
MODEL 2
REMARK VINA RESULT: -7.122013752      4.702      6.722
REMARK  8 active torsions:
REMARK  status: ('A' for Active; 'I' for Inactive)
REMARK    1  A    between atoms: C3_3  and  C5_5 
REMARK    2  A    between atoms: C9_9  and  O1_10 
REMARK    3  A    between atoms: C10_12  and  C11_13 
REMARK    4  A    between atoms: C11_13  and  C12_14 
REMARK    5  A    between atoms: C11_13  and  N1_17 
REMARK    6  A    between atoms: C12_14  and  C13_15 
REMARK       I    between atoms: N1_17  and  C15_19 
REMARK    7  A    between atoms: C15_19  and  C16_21 
REMARK    8  A    between atoms: C19_28  and  O4_29 
ROOT
HETATM    1  C1  UNL     1      13.711   7.555   7.749  1.00  0.00     0.016 C 
HETATM    2  C2  UNL     1      14.626   8.497   7.914  1.00  0.00    -0.067 C 
HETATM    3  C3  UNL     1      15.269   9.048   6.714  1.00  0.00    -0.021 C 
HETATM    4  C4  UNL     1      14.401   9.834   5.791  1.00  0.00     0.020 C 
HETATM    5  C7  UNL     1      16.422   9.933   7.115  1.00  0.00     0.017 C 
HETATM    6  C8  UNL     1      17.185   9.211   8.164  1.00  0.00     0.043 C 
HETATM    7  C9  UNL     1      16.458   8.903   9.431  1.00  0.00     0.100 C 
HETATM    8  C10 UNL     1      17.008   9.747  10.513  1.00  0.00     0.180 C 
HETATM    9  O3  UNL     1      16.135  10.261  11.402  1.00  0.00    -0.375 OA
HETATM   10  C17 UNL     1      14.897  10.556  11.102  1.00  0.00     0.133 C 
HETATM   11  C18 UNL     1      14.004   9.826  12.124  1.00  0.00     0.101 C 
HETATM   12  C19 UNL     1      12.894   9.197  11.327  1.00  0.00     0.167 C 
HETATM   13  O5  UNL     1      13.213   7.986  10.782  1.00  0.00    -0.354 OA
HETATM   14  C20 UNL     1      14.471   7.836  10.307  1.00  0.00     0.189 C 
HETATM   15  C21 UNL     1      14.932   8.912   9.316  1.00  0.00     0.045 C 
HETATM   16  C22 UNL     1      14.313  10.177   9.758  1.00  0.00     0.041 C 
HETATM   17  C23 UNL     1      12.888  10.179  10.143  1.00  0.00     0.052 C 
HETATM   18  C24 UNL     1      11.820   9.892   9.208  1.00  0.00     0.016 C 
ENDROOT
BRANCH   8  19
HETATM   19  C11 UNL     1      18.103   9.132  11.346  1.00  0.00     0.116 C 
BRANCH  19  20
HETATM   20  C12 UNL     1      17.579   8.810  12.733  1.00  0.00     0.027 C 
BRANCH  20  21
HETATM   21  C13 UNL     1      17.567   7.359  13.069  1.00  0.00    -0.002 C 
HETATM   22  C14 UNL     1      16.106   6.914  13.158  1.00  0.00     0.005 C 
ENDBRANCH  20  21
ENDBRANCH  19  20
BRANCH  19  23
HETATM   23  N1  UNL     1      19.303   9.843  11.498  1.00  0.00    -0.346 N 
HETATM   24  C15 UNL     1      20.403   9.601  10.648  1.00  0.00     0.325 C 
HETATM   25  O2  UNL     1      20.410   8.749   9.708  1.00  0.00    -0.263 OA
ATOM     26  H1  UNL     1      19.381  10.546  12.233  1.00  0.00     0.163 HD
BRANCH  24  27
HETATM   27  C16 UNL     1      21.699  10.360  10.796  1.00  0.00     0.472 C 
HETATM   28  F1  UNL     1      22.604   9.663  11.559  1.00  0.00    -0.162 F 
HETATM   29  F2  UNL     1      21.518  11.637  11.225  1.00  0.00    -0.162 F 
HETATM   30  F3  UNL     1      22.211  10.444   9.495  1.00  0.00    -0.162 F 
ENDBRANCH  24  27
ENDBRANCH  19  23
ENDBRANCH   8  19
BRANCH   7  31
HETATM   31  O1  UNL     1      16.820   7.561   9.727  1.00  0.00    -0.386 OA
ATOM     32  H1  UNL     1      16.143   7.038   9.313  1.00  0.00     0.210 HD
ENDBRANCH   7  31
BRANCH   3  33
HETATM   33  C5  UNL     1      15.859   7.932   5.831  1.00  0.00     0.009 C 
HETATM   34  C6  UNL     1      15.693   8.313   4.377  1.00  0.00     0.006 C 
ENDBRANCH   3  33
BRANCH  12  35
HETATM   35  O4  UNL     1      11.690   9.175  11.977  1.00  0.00    -0.365 OA
ATOM     36  H4  UNL     1      11.705   8.700  12.799  1.00  0.00     0.213 HD
ENDBRANCH  12  35
TORSDOF 8
ENDMDL
MODEL 3
REMARK VINA RESULT: -7.113250002      4.759      6.829
REMARK  8 active torsions:
REMARK  status: ('A' for Active; 'I' for Inactive)
REMARK    1  A    between atoms: C3_3  and  C5_5 
REMARK    2  A    between atoms: C9_9  and  O1_10 
REMARK    3  A    between atoms: C10_12  and  C11_13 
REMARK    4  A    between atoms: C11_13  and  C12_14 
REMARK    5  A    between atoms: C11_13  and  N1_17 
REMARK    6  A    between atoms: C12_14  and  C13_15 
REMARK       I    between atoms: N1_17  and  C15_19 
REMARK    7  A    between atoms: C15_19  and  C16_21 
REMARK    8  A    between atoms: C19_28  and  O4_29 
ROOT
HETATM    1  C1  UNL     1      14.261   7.806   9.150  1.00  0.00     0.016 C 
HETATM    2  C2  UNL     1      14.858   8.987   9.157  1.00  0.00    -0.067 C 
HETATM    3  C3  UNL     1      14.351  10.019   8.242  1.00  0.00    -0.021 C 
HETATM    4  C4  UNL     1      12.978  10.535   8.511  1.00  0.00     0.020 C 
HETATM    5  C7  UNL     1      15.287  11.200   8.238  1.00  0.00     0.017 C 
HETATM    6  C8  UNL     1      16.669  10.666   8.145  1.00  0.00     0.043 C 
HETATM    7  C9  UNL     1      17.129   9.795   9.268  1.00  0.00     0.100 C 
HETATM    8  C10 UNL     1      18.149  10.525  10.049  1.00  0.00     0.180 C 
HETATM    9  O3  UNL     1      18.112  10.393  11.390  1.00  0.00    -0.375 OA
HETATM   10  C17 UNL     1      17.010  10.180  12.060  1.00  0.00     0.133 C 
HETATM   11  C18 UNL     1      17.246   8.924  12.922  1.00  0.00     0.101 C 
HETATM   12  C19 UNL     1      16.017   8.074  12.758  1.00  0.00     0.167 C 
HETATM   13  O5  UNL     1      16.029   7.280  11.646  1.00  0.00    -0.354 OA
HETATM   14  C20 UNL     1      16.568   7.804  10.521  1.00  0.00     0.189 C 
HETATM   15  C21 UNL     1      16.007   9.165  10.095  1.00  0.00     0.045 C 
HETATM   16  C22 UNL     1      15.707   9.900  11.341  1.00  0.00     0.041 C 
HETATM   17  C23 UNL     1      15.013   9.195  12.436  1.00  0.00     0.052 C 
HETATM   18  C24 UNL     1      13.661   8.692  12.316  1.00  0.00     0.016 C 
ENDROOT
BRANCH   8  19
HETATM   19  C11 UNL     1      19.585  10.277   9.667  1.00  0.00     0.116 C 
BRANCH  19  20
HETATM   20  C12 UNL     1      20.497  10.623  10.831  1.00  0.00     0.027 C 
BRANCH  20  21
HETATM   21  C13 UNL     1      21.721   9.780  10.930  1.00  0.00    -0.002 C 
HETATM   22  C14 UNL     1      21.281   8.365  11.313  1.00  0.00     0.005 C 
ENDBRANCH  20  21
ENDBRANCH  19  20
BRANCH  19  23
HETATM   23  N1  UNL     1      20.091  10.916   8.526  1.00  0.00    -0.346 N 
HETATM   24  C15 UNL     1      20.684  10.175   7.482  1.00  0.00     0.325 C 
HETATM   25  O2  UNL     1      20.813   8.913   7.481  1.00  0.00    -0.263 OA
ATOM     26  H1  UNL     1      20.029  11.932   8.449  1.00  0.00     0.163 HD
BRANCH  24  27
HETATM   27  C16 UNL     1      21.229  10.846   6.246  1.00  0.00     0.472 C 
HETATM   28  F1  UNL     1      20.365  10.722   5.184  1.00  0.00    -0.162 F 
HETATM   29  F2  UNL     1      22.496  10.453   5.945  1.00  0.00    -0.162 F 
HETATM   30  F3  UNL     1      21.301  12.204   6.581  1.00  0.00    -0.162 F 
ENDBRANCH  24  27
ENDBRANCH  19  23
ENDBRANCH   8  19
BRANCH   7  31
HETATM   31  O1  UNL     1      17.794   8.715   8.625  1.00  0.00    -0.386 OA
ATOM     32  H1  UNL     1      17.105   8.265   8.149  1.00  0.00     0.210 HD
ENDBRANCH   7  31
BRANCH   3  33
HETATM   33  C5  UNL     1      14.291   9.502   6.793  1.00  0.00     0.009 C 
HETATM   34  C6  UNL     1      12.931   9.816   6.212  1.00  0.00     0.006 C 
ENDBRANCH   3  33
BRANCH  12  35
HETATM   35  O4  UNL     1      15.666   7.384  13.887  1.00  0.00    -0.365 OA
ATOM     36  H4  UNL     1      14.739   7.186  13.943  1.00  0.00     0.213 HD
ENDBRANCH  12  35
TORSDOF 8
ENDMDL
MODEL 4
REMARK VINA RESULT: -6.956858501      5.314      7.291
REMARK  8 active torsions:
REMARK  status: ('A' for Active; 'I' for Inactive)
REMARK    1  A    between atoms: C3_3  and  C5_5 
REMARK    2  A    between atoms: C9_9  and  O1_10 
REMARK    3  A    between atoms: C10_12  and  C11_13 
REMARK    4  A    between atoms: C11_13  and  C12_14 
REMARK    5  A    between atoms: C11_13  and  N1_17 
REMARK    6  A    between atoms: C12_14  and  C13_15 
REMARK       I    between atoms: N1_17  and  C15_19 
REMARK    7  A    between atoms: C15_19  and  C16_21 
REMARK    8  A    between atoms: C19_28  and  O4_29 
ROOT
HETATM    1  C1  UNL     1      15.661   7.584   8.698  1.00  0.00     0.016 C 
HETATM    2  C2  UNL     1      16.068   8.752   8.227  1.00  0.00    -0.067 C 
HETATM    3  C3  UNL     1      15.761   9.073   6.827  1.00  0.00    -0.021 C 
HETATM    4  C4  UNL     1      14.322   9.259   6.484  1.00  0.00     0.020 C 
HETATM    5  C7  UNL     1      16.489  10.328   6.419  1.00  0.00     0.017 C 
HETATM    6  C8  UNL     1      17.883  10.209   6.919  1.00  0.00     0.043 C 
HETATM    7  C9  UNL     1      18.058  10.106   8.399  1.00  0.00     0.100 C 
HETATM    8  C10 UNL     1      18.668  11.358   8.893  1.00  0.00     0.180 C 
HETATM    9  O3  UNL     1      18.214  11.846  10.066  1.00  0.00    -0.375 OA
HETATM   10  C17 UNL     1      16.990  11.669  10.489  1.00  0.00     0.133 C 
HETATM   11  C18 UNL     1      17.089  11.061  11.902  1.00  0.00     0.101 C 
HETATM   12  C19 UNL     1      16.098   9.930  11.935  1.00  0.00     0.167 C 
HETATM   13  O5  UNL     1      16.572   8.755  11.425  1.00  0.00    -0.354 OA
HETATM   14  C20 UNL     1      17.377   8.834  10.340  1.00  0.00     0.189 C 
HETATM   15  C21 UNL     1      16.817   9.642   9.164  1.00  0.00     0.045 C 
HETATM   16  C22 UNL     1      16.038  10.750   9.754  1.00  0.00     0.041 C 
HETATM   17  C23 UNL     1      15.121  10.461  10.872  1.00  0.00     0.052 C 
HETATM   18  C24 UNL     1      13.956   9.612  10.736  1.00  0.00     0.016 C 
ENDROOT
BRANCH   8  19
HETATM   19  C11 UNL     1      20.169  11.366   9.018  1.00  0.00     0.116 C 
BRANCH  19  20
HETATM   20  C12 UNL     1      20.584  12.200  10.217  1.00  0.00     0.027 C 
BRANCH  20  21
HETATM   21  C13 UNL     1      21.891  11.812  10.817  1.00  0.00    -0.002 C 
HETATM   22  C14 UNL     1      21.946  10.284  10.866  1.00  0.00     0.005 C 
ENDBRANCH  20  21
ENDBRANCH  19  20
BRANCH  19  23
HETATM   23  N1  UNL     1      20.927  11.794   7.918  1.00  0.00    -0.346 N 
HETATM   24  C15 UNL     1      21.564  10.864   7.070  1.00  0.00     0.325 C 
HETATM   25  O2  UNL     1      21.516   9.604   7.219  1.00  0.00    -0.263 OA
ATOM     26  H1  UNL     1      21.019  12.792   7.729  1.00  0.00     0.163 HD
BRANCH  24  27
HETATM   27  C16 UNL     1      22.379  11.307   5.880  1.00  0.00     0.472 C 
HETATM   28  F1  UNL     1      21.610  11.379   4.744  1.00  0.00    -0.162 F 
HETATM   29  F2  UNL     1      23.509  10.570   5.708  1.00  0.00    -0.162 F 
HETATM   30  F3  UNL     1      22.795  12.606   6.199  1.00  0.00    -0.162 F 
ENDBRANCH  24  27
ENDBRANCH  19  23
ENDBRANCH   8  19
BRANCH   7  31
HETATM   31  O1  UNL     1      19.027   9.079   8.567  1.00  0.00    -0.386 OA
ATOM     32  H1  UNL     1      18.579   8.415   9.077  1.00  0.00     0.210 HD
ENDBRANCH   7  31
BRANCH   3  33
HETATM   33  C5  UNL     1      16.242   7.959   5.878  1.00  0.00     0.009 C 
HETATM   34  C6  UNL     1      15.670   8.203   4.500  1.00  0.00     0.006 C 
ENDBRANCH   3  33
BRANCH  12  35
HETATM   35  O4  UNL     1      15.489   9.763  13.149  1.00  0.00    -0.365 OA
ATOM     36  H4  UNL     1      15.924  10.215  13.862  1.00  0.00     0.213 HD
ENDBRANCH  12  35
TORSDOF 8
ENDMDL
MODEL 5
REMARK VINA RESULT: -6.937784437      5.037      7.074
REMARK  8 active torsions:
REMARK  status: ('A' for Active; 'I' for Inactive)
REMARK    1  A    between atoms: C3_3  and  C5_5 
REMARK    2  A    between atoms: C9_9  and  O1_10 
REMARK    3  A    between atoms: C10_12  and  C11_13 
REMARK    4  A    between atoms: C11_13  and  C12_14 
REMARK    5  A    between atoms: C11_13  and  N1_17 
REMARK    6  A    between atoms: C12_14  and  C13_15 
REMARK       I    between atoms: N1_17  and  C15_19 
REMARK    7  A    between atoms: C15_19  and  C16_21 
REMARK    8  A    between atoms: C19_28  and  O4_29 
ROOT
HETATM    1  C1  UNL     1      20.747  13.485   7.350  1.00  0.00     0.016 C 
HETATM    2  C2  UNL     1      20.658  12.168   7.432  1.00  0.00    -0.067 C 
HETATM    3  C3  UNL     1      20.573  11.406   6.179  1.00  0.00    -0.021 C 
HETATM    4  C4  UNL     1      21.777  11.426   5.300  1.00  0.00     0.020 C 
HETATM    5  C7  UNL     1      20.257   9.963   6.481  1.00  0.00     0.017 C 
HETATM    6  C8  UNL     1      19.169   9.953   7.491  1.00  0.00     0.043 C 
HETATM    7  C9  UNL     1      19.474  10.581   8.812  1.00  0.00     0.100 C 
HETATM    8  C10 UNL     1      19.563   9.517   9.834  1.00  0.00     0.180 C 
HETATM    9  O3  UNL     1      20.527   9.638  10.769  1.00  0.00    -0.375 OA
HETATM   10  C17 UNL     1      21.670  10.233  10.548  1.00  0.00     0.133 C 
HETATM   11  C18 UNL     1      21.835  11.304  11.645  1.00  0.00     0.101 C 
HETATM   12  C19 UNL     1      22.299  12.548  10.939  1.00  0.00     0.167 C 
HETATM   13  O5  UNL     1      21.291  13.296  10.400  1.00  0.00    -0.354 OA
HETATM   14  C20 UNL     1      20.256  12.624   9.844  1.00  0.00     0.189 C 
HETATM   15  C21 UNL     1      20.642  11.569   8.801  1.00  0.00     0.045 C 
HETATM   16  C22 UNL     1      21.918  10.981   9.256  1.00  0.00     0.041 C 
HETATM   17  C23 UNL     1      22.987  11.878   9.737  1.00  0.00     0.052 C 
HETATM   18  C24 UNL     1      23.646  12.845   8.884  1.00  0.00     0.016 C 
ENDROOT
BRANCH   8  19
HETATM   19  C11 UNL     1      18.301   9.225  10.604  1.00  0.00     0.116 C 
BRANCH  19  20
HETATM   20  C12 UNL     1      18.648   8.690  11.982  1.00  0.00     0.027 C 
BRANCH  20  21
HETATM   21  C13 UNL     1      18.246   7.276  12.216  1.00  0.00    -0.002 C 
HETATM   22  C14 UNL     1      17.059   7.283  13.181  1.00  0.00     0.005 C 
ENDBRANCH  20  21
ENDBRANCH  19  20
BRANCH  19  23
HETATM   23  N1  UNL     1      17.360   8.355  10.034  1.00  0.00    -0.346 N 
HETATM   24  C15 UNL     1      16.100   8.827   9.609  1.00  0.00     0.325 C 
HETATM   25  O2  UNL     1      15.716  10.033   9.702  1.00  0.00    -0.263 OA
ATOM     26  H1  UNL     1      17.590   7.367   9.926  1.00  0.00     0.163 HD
BRANCH  24  27
HETATM   27  C16 UNL     1      15.078   7.906   8.990  1.00  0.00     0.472 C 
HETATM   28  F1  UNL     1      15.676   6.936   8.221  1.00  0.00    -0.162 F 
HETATM   29  F2  UNL     1      14.095   8.574   8.329  1.00  0.00    -0.162 F 
HETATM   30  F3  UNL     1      14.467   7.271  10.079  1.00  0.00    -0.162 F 
ENDBRANCH  24  27
ENDBRANCH  19  23
ENDBRANCH   8  19
BRANCH   7  31
HETATM   31  O1  UNL     1      18.316  11.348   9.112  1.00  0.00    -0.386 OA
ATOM     32  H1  UNL     1      17.668  10.703   9.371  1.00  0.00     0.210 HD
ENDBRANCH   7  31
BRANCH   3  33
HETATM   33  C5  UNL     1      19.434  11.925   5.283  1.00  0.00     0.009 C 
HETATM   34  C6  UNL     1      19.703  11.513   3.853  1.00  0.00     0.006 C 
ENDBRANCH   3  33
BRANCH  12  35
HETATM   35  O4  UNL     1      23.175  13.305  11.669  1.00  0.00    -0.365 OA
ATOM     36  H4  UNL     1      24.084  13.184  11.424  1.00  0.00     0.213 HD
ENDBRANCH  12  35
TORSDOF 8
ENDMDL
