MODEL 1
REMARK VINA RESULT: -8.747897744      0.000      0.000
REMARK  7 active torsions:
REMARK  status: ('A' for Active; 'I' for Inactive)
REMARK       I    between atoms: C1_2  and  N1_3 
REMARK    1  A    between atoms: C1_2  and  C16_25 
REMARK    2  A    between atoms: N1_3  and  O2_5 
REMARK    3  A    between atoms: O2_5  and  C2_6 
REMARK    4  A    between atoms: C2_6  and  C3_8 
REMARK    5  A    between atoms: C6_11  and  C7_12 
REMARK       I    between atoms: C7_12  and  N2_14 
REMARK    6  A    between atoms: N2_14  and  C8_16 
REMARK       I    between atoms: C16_25  and  N3_27 
REMARK    7  A    between atoms: N3_27  and  C17_29 
ROOT
HETATM    1  C2  UNL     1      13.987   6.807  12.529  1.00  0.00     0.315 C 
HETATM    2  O3  UNL     1      13.818   5.962  13.430  1.00  0.00    -0.257 OA
ENDROOT
BRANCH   1   3
HETATM    3  O2  UNL     1      12.902   7.267  11.821  1.00  0.00    -0.192 OA
BRANCH   3   4
HETATM    4  N1  UNL     1      12.209   8.396  12.067  1.00  0.00    -0.217 N 
HETATM    5  C1  UNL     1      12.000   9.330  11.016  1.00  0.00     0.333 C 
HETATM    6  O1  UNL     1      12.469   9.098   9.850  1.00  0.00    -0.260 OA
ATOM      7  H1  UNL     1      11.837   8.579  12.999  1.00  0.00     0.198 HD
BRANCH   5   8
HETATM    8  C16 UNL     1      11.268  10.558  11.206  1.00  0.00     0.316 C 
HETATM    9  O5  UNL     1      10.070  10.531  11.555  1.00  0.00    -0.262 OA
HETATM   10  N3  UNL     1      11.897  11.803  10.998  1.00  0.00    -0.314 N 
ATOM     11  H3  UNL     1      12.877  11.798  10.714  1.00  0.00     0.169 HD
BRANCH  10  12
HETATM   12  C17 UNL     1      11.265  13.056  11.158  1.00  0.00     0.113 A 
HETATM   13  C18 UNL     1      11.168  13.672  12.403  1.00  0.00     0.146 A 
HETATM   14  F1  UNL     1      11.698  13.040  13.472  1.00  0.00    -0.204 F 
HETATM   15  C19 UNL     1      10.542  14.891  12.506  1.00  0.00     0.045 A 
HETATM   16  C20 UNL     1       9.998  15.540  11.408  1.00  0.00     0.006 A 
HETATM   17  C21 UNL     1      10.109  14.909  10.187  1.00  0.00     0.045 A 
HETATM   18  C22 UNL     1      10.734  13.683  10.071  1.00  0.00     0.146 A 
HETATM   19  F2  UNL     1      10.844  13.056   8.857  1.00  0.00    -0.204 F 
ENDBRANCH  10  12
ENDBRANCH   5   8
ENDBRANCH   3   4
ENDBRANCH   1   3
BRANCH   1  20
HETATM   20  C3  UNL     1      15.306   7.301  12.231  1.00  0.00     0.041 A 
HETATM   21  C4  UNL     1      16.373   7.182  13.098  1.00  0.00     0.018 A 
HETATM   22  C5  UNL     1      17.605   7.685  12.750  1.00  0.00     0.018 A 
HETATM   23  C6  UNL     1      17.844   8.318  11.549  1.00  0.00     0.032 A 
HETATM   24  C14 UNL     1      16.786   8.433  10.694  1.00  0.00     0.018 A 
HETATM   25  C15 UNL     1      15.526   7.930  11.027  1.00  0.00     0.018 A 
BRANCH  23  26
HETATM   26  C7  UNL     1      19.198   8.843  11.224  1.00  0.00     0.256 C 
HETATM   27  O4  UNL     1      20.171   8.213  11.708  1.00  0.00    -0.267 OA
HETATM   28  N2  UNL     1      19.378   9.963  10.432  1.00  0.00    -0.323 N 
ATOM     29  H2  UNL     1      18.528  10.410  10.090  1.00  0.00     0.169 HD
BRANCH  28  30
HETATM   30  C8  UNL     1      20.583  10.558  10.044  1.00  0.00     0.035 A 
HETATM   31  C9  UNL     1      21.054  10.391   8.729  1.00  0.00     0.031 A 
HETATM   32  C10 UNL     1      22.235  10.933   8.282  1.00  0.00     0.026 A 
HETATM   33  C11 UNL     1      23.014  11.678   9.124  1.00  0.00     0.034 A 
HETATM   34 CL1  UNL     1      24.515  12.348   8.493  1.00  0.00    -0.084 Cl
HETATM   35  C12 UNL     1      22.601  11.865  10.396  1.00  0.00     0.026 A 
HETATM   36  C13 UNL     1      21.397  11.310  10.849  1.00  0.00     0.031 A 
ENDBRANCH  28  30
ENDBRANCH  23  26
ENDBRANCH   1  20
TORSDOF 7
ENDMDL
MODEL 2
REMARK VINA RESULT: -8.694802277      5.079     10.956
REMARK  7 active torsions:
REMARK  status: ('A' for Active; 'I' for Inactive)
REMARK       I    between atoms: C1_2  and  N1_3 
REMARK    1  A    between atoms: C1_2  and  C16_25 
REMARK    2  A    between atoms: N1_3  and  O2_5 
REMARK    3  A    between atoms: O2_5  and  C2_6 
REMARK    4  A    between atoms: C2_6  and  C3_8 
REMARK    5  A    between atoms: C6_11  and  C7_12 
REMARK       I    between atoms: C7_12  and  N2_14 
REMARK    6  A    between atoms: N2_14  and  C8_16 
REMARK       I    between atoms: C16_25  and  N3_27 
REMARK    7  A    between atoms: N3_27  and  C17_29 
ROOT
HETATM    1  C2  UNL     1      16.260  10.391  11.867  1.00  0.00     0.315 C 
HETATM    2  O3  UNL     1      15.870   9.236  11.610  1.00  0.00    -0.257 OA
ENDROOT
BRANCH   1   3
HETATM    3  O2  UNL     1      17.589  10.611  12.143  1.00  0.00    -0.192 OA
BRANCH   3   4
HETATM    4  N1  UNL     1      18.584  10.719  11.240  1.00  0.00    -0.217 N 
HETATM    5  C1  UNL     1      19.551   9.683  11.141  1.00  0.00     0.333 C 
HETATM    6  O1  UNL     1      19.476   8.660  11.905  1.00  0.00    -0.260 OA
ATOM      7  H1  UNL     1      18.642  11.537  10.634  1.00  0.00     0.198 HD
BRANCH   5   8
HETATM    8  C16 UNL     1      20.642   9.729  10.199  1.00  0.00     0.316 C 
HETATM    9  O5  UNL     1      21.375   8.732  10.033  1.00  0.00    -0.262 OA
HETATM   10  N3  UNL     1      20.894  10.901   9.456  1.00  0.00    -0.314 N 
ATOM     11  H3  UNL     1      20.280  11.701   9.609  1.00  0.00     0.169 HD
BRANCH  10  12
HETATM   12  C17 UNL     1      21.936  11.042   8.512  1.00  0.00     0.113 A 
HETATM   13  C18 UNL     1      21.781  10.643   7.187  1.00  0.00     0.146 A 
HETATM   14  F1  UNL     1      20.597  10.110   6.815  1.00  0.00    -0.204 F 
HETATM   15  C19 UNL     1      22.824  10.801   6.308  1.00  0.00     0.045 A 
HETATM   16  C20 UNL     1      24.039  11.348   6.691  1.00  0.00     0.006 A 
HETATM   17  C21 UNL     1      24.166  11.735   8.008  1.00  0.00     0.045 A 
HETATM   18  C22 UNL     1      23.125  11.581   8.902  1.00  0.00     0.146 A 
HETATM   19  F2  UNL     1      23.251  11.967  10.211  1.00  0.00    -0.204 F 
ENDBRANCH  10  12
ENDBRANCH   5   8
ENDBRANCH   3   4
ENDBRANCH   1   3
BRANCH   1  20
HETATM   20  C3  UNL     1      15.330  11.489  11.875  1.00  0.00     0.041 A 
HETATM   21  C4  UNL     1      15.683  12.786  11.561  1.00  0.00     0.018 A 
HETATM   22  C5  UNL     1      14.742  13.787  11.597  1.00  0.00     0.018 A 
HETATM   23  C6  UNL     1      13.424  13.565  11.938  1.00  0.00     0.032 A 
HETATM   24  C14 UNL     1      13.078  12.281  12.247  1.00  0.00     0.018 A 
HETATM   25  C15 UNL     1      14.018  11.249  12.218  1.00  0.00     0.018 A 
BRANCH  23  26
HETATM   26  C7  UNL     1      12.447  14.687  11.959  1.00  0.00     0.256 C 
HETATM   27  O4  UNL     1      12.906  15.831  11.720  1.00  0.00    -0.267 OA
HETATM   28  N2  UNL     1      11.105  14.483  12.229  1.00  0.00    -0.323 N 
ATOM     29  H2  UNL     1      10.827  13.520  12.417  1.00  0.00     0.169 HD
BRANCH  28  30
HETATM   30  C8  UNL     1      10.082  15.435  12.277  1.00  0.00     0.035 A 
HETATM   31  C9  UNL     1       9.503  15.900  11.081  1.00  0.00     0.031 A 
HETATM   32  C10 UNL     1       8.505  16.845  11.050  1.00  0.00     0.026 A 
HETATM   33  C11 UNL     1       8.025  17.379  12.214  1.00  0.00     0.034 A 
HETATM   34 CL1  UNL     1       6.746  18.584  12.110  1.00  0.00    -0.084 Cl
HETATM   35  C12 UNL     1       8.552  16.962  13.385  1.00  0.00     0.026 A 
HETATM   36  C13 UNL     1       9.570  16.000  13.414  1.00  0.00     0.031 A 
ENDBRANCH  28  30
ENDBRANCH  23  26
ENDBRANCH   1  20
TORSDOF 7
ENDMDL
MODEL 3
REMARK VINA RESULT: -8.648676696      5.013     10.825
REMARK  7 active torsions:
REMARK  status: ('A' for Active; 'I' for Inactive)
REMARK       I    between atoms: C1_2  and  N1_3 
REMARK    1  A    between atoms: C1_2  and  C16_25 
REMARK    2  A    between atoms: N1_3  and  O2_5 
REMARK    3  A    between atoms: O2_5  and  C2_6 
REMARK    4  A    between atoms: C2_6  and  C3_8 
REMARK    5  A    between atoms: C6_11  and  C7_12 
REMARK       I    between atoms: C7_12  and  N2_14 
REMARK    6  A    between atoms: N2_14  and  C8_16 
REMARK       I    between atoms: C16_25  and  N3_27 
REMARK    7  A    between atoms: N3_27  and  C17_29 
ROOT
HETATM    1  C2  UNL     1      16.196  10.280  11.933  1.00  0.00     0.315 C 
HETATM    2  O3  UNL     1      15.792   9.126  11.689  1.00  0.00    -0.257 OA
ENDROOT
BRANCH   1   3
HETATM    3  O2  UNL     1      17.529  10.487  12.201  1.00  0.00    -0.192 OA
BRANCH   3   4
HETATM    4  N1  UNL     1      18.514  10.620  11.292  1.00  0.00    -0.217 N 
HETATM    5  C1  UNL     1      19.505   9.607  11.184  1.00  0.00     0.333 C 
HETATM    6  O1  UNL     1      19.459   8.581  11.945  1.00  0.00    -0.260 OA
ATOM      7  H1  UNL     1      18.549  11.441  10.687  1.00  0.00     0.198 HD
BRANCH   5   8
HETATM    8  C16 UNL     1      20.588   9.682  10.234  1.00  0.00     0.316 C 
HETATM    9  O5  UNL     1      21.329   8.695  10.044  1.00  0.00    -0.262 OA
HETATM   10  N3  UNL     1      20.822  10.869   9.510  1.00  0.00    -0.314 N 
ATOM     11  H3  UNL     1      20.202  11.660   9.682  1.00  0.00     0.169 HD
BRANCH  10  12
HETATM   12  C17 UNL     1      21.855  11.038   8.561  1.00  0.00     0.113 A 
HETATM   13  C18 UNL     1      23.099  11.550   8.920  1.00  0.00     0.146 A 
HETATM   14  F1  UNL     1      23.303  11.887  10.212  1.00  0.00    -0.204 F 
HETATM   15  C19 UNL     1      24.072  11.696   7.961  1.00  0.00     0.045 A 
HETATM   16  C20 UNL     1      23.862  11.349   6.635  1.00  0.00     0.006 A 
HETATM   17  C21 UNL     1      22.622  10.844   6.306  1.00  0.00     0.045 A 
HETATM   18  C22 UNL     1      21.636  10.694   7.262  1.00  0.00     0.146 A 
HETATM   19  F2  UNL     1      20.404  10.191   6.935  1.00  0.00    -0.204 F 
ENDBRANCH  10  12
ENDBRANCH   5   8
ENDBRANCH   3   4
ENDBRANCH   1   3
BRANCH   1  20
HETATM   20  C3  UNL     1      15.278  11.388  11.933  1.00  0.00     0.041 A 
HETATM   21  C4  UNL     1      15.682  12.707  11.900  1.00  0.00     0.018 A 
HETATM   22  C5  UNL     1      14.748  13.716  11.910  1.00  0.00     0.018 A 
HETATM   23  C6  UNL     1      13.390  13.480  11.952  1.00  0.00     0.032 A 
HETATM   24  C14 UNL     1      12.994  12.173  11.984  1.00  0.00     0.018 A 
HETATM   25  C15 UNL     1      13.926  11.133  11.975  1.00  0.00     0.018 A 
BRANCH  23  26
HETATM   26  C7  UNL     1      12.423  14.611  11.960  1.00  0.00     0.256 C 
HETATM   27  O4  UNL     1      12.876  15.735  11.628  1.00  0.00    -0.267 OA
HETATM   28  N2  UNL     1      11.096  14.437  12.315  1.00  0.00    -0.323 N 
ATOM     29  H2  UNL     1      10.823  13.490  12.575  1.00  0.00     0.169 HD
BRANCH  28  30
HETATM   30  C8  UNL     1      10.085  15.401  12.362  1.00  0.00     0.035 A 
HETATM   31  C9  UNL     1       9.518  15.878  11.165  1.00  0.00     0.031 A 
HETATM   32  C10 UNL     1       8.531  16.835  11.133  1.00  0.00     0.026 A 
HETATM   33  C11 UNL     1       8.051  17.369  12.298  1.00  0.00     0.034 A 
HETATM   34 CL1  UNL     1       6.786  18.590  12.192  1.00  0.00    -0.084 Cl
HETATM   35  C12 UNL     1       8.567  16.940  13.470  1.00  0.00     0.026 A 
HETATM   36  C13 UNL     1       9.573  15.966  13.499  1.00  0.00     0.031 A 
ENDBRANCH  28  30
ENDBRANCH  23  26
ENDBRANCH   1  20
TORSDOF 7
ENDMDL
MODEL 4
REMARK VINA RESULT: -8.538187646      6.767     11.777
REMARK  7 active torsions:
REMARK  status: ('A' for Active; 'I' for Inactive)
REMARK       I    between atoms: C1_2  and  N1_3 
REMARK    1  A    between atoms: C1_2  and  C16_25 
REMARK    2  A    between atoms: N1_3  and  O2_5 
REMARK    3  A    between atoms: O2_5  and  C2_6 
REMARK    4  A    between atoms: C2_6  and  C3_8 
REMARK    5  A    between atoms: C6_11  and  C7_12 
REMARK       I    between atoms: C7_12  and  N2_14 
REMARK    6  A    between atoms: N2_14  and  C8_16 
REMARK       I    between atoms: C16_25  and  N3_27 
REMARK    7  A    between atoms: N3_27  and  C17_29 
ROOT
HETATM    1  C2  UNL     1      16.819   7.782   6.017  1.00  0.00     0.315 C 
HETATM    2  O3  UNL     1      16.990   6.620   5.601  1.00  0.00    -0.257 OA
ENDROOT
BRANCH   1   3
HETATM    3  O2  UNL     1      17.816   8.397   6.736  1.00  0.00    -0.192 OA
BRANCH   3   4
HETATM    4  N1  UNL     1      18.599   9.409   6.311  1.00  0.00    -0.217 N 
HETATM    5  C1  UNL     1      19.917   9.535   6.826  1.00  0.00     0.333 C 
HETATM    6  O1  UNL     1      20.352   8.695   7.687  1.00  0.00    -0.260 OA
ATOM      7  H1  UNL     1      18.248  10.078   5.626  1.00  0.00     0.198 HD
BRANCH   5   8
HETATM    8  C16 UNL     1      20.811  10.590   6.418  1.00  0.00     0.316 C 
HETATM    9  O5  UNL     1      20.610  11.210   5.353  1.00  0.00    -0.262 OA
HETATM   10  N3  UNL     1      21.921  10.935   7.217  1.00  0.00    -0.314 N 
ATOM     11  H3  UNL     1      22.062  10.414   8.082  1.00  0.00     0.169 HD
BRANCH  10  12
HETATM   12  C17 UNL     1      22.850  11.951   6.901  1.00  0.00     0.113 A 
HETATM   13  C18 UNL     1      24.021  11.676   6.199  1.00  0.00     0.146 A 
HETATM   14  F1  UNL     1      24.255  10.401   5.820  1.00  0.00    -0.204 F 
HETATM   15  C19 UNL     1      24.894  12.699   5.916  1.00  0.00     0.045 A 
HETATM   16  C20 UNL     1      24.653  14.008   6.305  1.00  0.00     0.006 A 
HETATM   17  C21 UNL     1      23.486  14.252   6.997  1.00  0.00     0.045 A 
HETATM   18  C22 UNL     1      22.601  13.232   7.288  1.00  0.00     0.146 A 
HETATM   19  F2  UNL     1      21.441  13.476   7.976  1.00  0.00    -0.204 F 
ENDBRANCH  10  12
ENDBRANCH   5   8
ENDBRANCH   3   4
ENDBRANCH   1   3
BRANCH   1  20
HETATM   20  C3  UNL     1      15.588   8.478   5.747  1.00  0.00     0.041 A 
HETATM   21  C4  UNL     1      14.609   8.685   6.697  1.00  0.00     0.018 A 
HETATM   22  C5  UNL     1      13.454   9.352   6.366  1.00  0.00     0.018 A 
HETATM   23  C6  UNL     1      13.208   9.842   5.101  1.00  0.00     0.032 A 
HETATM   24  C14 UNL     1      14.179   9.637   4.163  1.00  0.00     0.018 A 
HETATM   25  C15 UNL     1      15.360   8.961   4.478  1.00  0.00     0.018 A 
BRANCH  23  26
HETATM   26  C7  UNL     1      11.939  10.558   4.797  1.00  0.00     0.256 C 
HETATM   27  O4  UNL     1      11.944  11.296   3.781  1.00  0.00    -0.267 OA
HETATM   28  N2  UNL     1      10.813  10.419   5.590  1.00  0.00    -0.323 N 
ATOM     29  H2  UNL     1      10.907   9.802   6.397  1.00  0.00     0.169 HD
BRANCH  28  30
HETATM   30  C8  UNL     1       9.563  11.022   5.422  1.00  0.00     0.035 A 
HETATM   31  C9  UNL     1       9.030  11.826   6.447  1.00  0.00     0.031 A 
HETATM   32  C10 UNL     1       7.802  12.438   6.358  1.00  0.00     0.026 A 
HETATM   33  C11 UNL     1       7.035  12.282   5.236  1.00  0.00     0.034 A 
HETATM   34 CL1  UNL     1       5.472  13.091   5.180  1.00  0.00    -0.084 Cl
HETATM   35  C12 UNL     1       7.507  11.518   4.227  1.00  0.00     0.026 A 
HETATM   36  C13 UNL     1       8.758  10.896   4.321  1.00  0.00     0.031 A 
ENDBRANCH  28  30
ENDBRANCH  23  26
ENDBRANCH   1  20
TORSDOF 7
ENDMDL
MODEL 5
REMARK VINA RESULT: -8.500001003      4.824     10.620
REMARK  7 active torsions:
REMARK  status: ('A' for Active; 'I' for Inactive)
REMARK       I    between atoms: C1_2  and  N1_3 
REMARK    1  A    between atoms: C1_2  and  C16_25 
REMARK    2  A    between atoms: N1_3  and  O2_5 
REMARK    3  A    between atoms: O2_5  and  C2_6 
REMARK    4  A    between atoms: C2_6  and  C3_8 
REMARK    5  A    between atoms: C6_11  and  C7_12 
REMARK       I    between atoms: C7_12  and  N2_14 
REMARK    6  A    between atoms: N2_14  and  C8_16 
REMARK       I    between atoms: C16_25  and  N3_27 
REMARK    7  A    between atoms: N3_27  and  C17_29 
ROOT
HETATM    1  C2  UNL     1      14.546   9.749  12.125  1.00  0.00     0.315 C 
HETATM    2  O3  UNL     1      13.955   8.684  11.859  1.00  0.00    -0.257 OA
ENDROOT
BRANCH   1   3
HETATM    3  O2  UNL     1      15.879   9.717  12.460  1.00  0.00    -0.192 OA
BRANCH   3   4
HETATM    4  N1  UNL     1      16.906  10.116  11.685  1.00  0.00    -0.217 N 
HETATM    5  C1  UNL     1      18.159   9.453  11.791  1.00  0.00     0.333 C 
HETATM    6  O1  UNL     1      18.306   8.489  12.618  1.00  0.00    -0.260 OA
ATOM      7  H1  UNL     1      16.786  10.887  11.028  1.00  0.00     0.198 HD
BRANCH   5   8
HETATM    8  C16 UNL     1      19.302   9.825  10.994  1.00  0.00     0.316 C 
HETATM    9  O5  UNL     1      19.594   9.175   9.969  1.00  0.00    -0.262 OA
HETATM   10  N3  UNL     1      20.102  10.926  11.363  1.00  0.00    -0.314 N 
ATOM     11  H3  UNL     1      19.841  11.441  12.204  1.00  0.00     0.169 HD
BRANCH  10  12
HETATM   12  C17 UNL     1      21.238  11.365  10.648  1.00  0.00     0.113 A 
HETATM   13  C18 UNL     1      22.476  10.742  10.790  1.00  0.00     0.146 A 
HETATM   14  F1  UNL     1      22.570   9.694  11.636  1.00  0.00    -0.204 F 
HETATM   15  C19 UNL     1      23.552  11.206  10.073  1.00  0.00     0.045 A 
HETATM   16  C20 UNL     1      23.454  12.282   9.204  1.00  0.00     0.006 A 
HETATM   17  C21 UNL     1      22.218  12.881   9.082  1.00  0.00     0.045 A 
HETATM   18  C22 UNL     1      21.129  12.423   9.798  1.00  0.00     0.146 A 
HETATM   19  F2  UNL     1      19.900  13.017   9.675  1.00  0.00    -0.204 F 
ENDBRANCH  10  12
ENDBRANCH   5   8
ENDBRANCH   3   4
ENDBRANCH   1   3
BRANCH   1  20
HETATM   20  C3  UNL     1      13.841  11.003  12.081  1.00  0.00     0.041 A 
HETATM   21  C4  UNL     1      14.432  12.216  12.373  1.00  0.00     0.018 A 
HETATM   22  C5  UNL     1      13.695  13.375  12.319  1.00  0.00     0.018 A 
HETATM   23  C6  UNL     1      12.359  13.398  11.978  1.00  0.00     0.032 A 
HETATM   24  C14 UNL     1      11.778  12.196  11.689  1.00  0.00     0.018 A 
HETATM   25  C15 UNL     1      12.508  11.007  11.739  1.00  0.00     0.018 A 
BRANCH  23  26
HETATM   26  C7  UNL     1      11.609  14.682  11.934  1.00  0.00     0.256 C 
HETATM   27  O4  UNL     1      12.295  15.723  11.777  1.00  0.00    -0.267 OA
HETATM   28  N2  UNL     1      10.232  14.731  12.060  1.00  0.00    -0.323 N 
ATOM     29  H2  UNL     1       9.763  13.834  12.190  1.00  0.00     0.169 HD
BRANCH  28  30
HETATM   30  C8  UNL     1       9.404  15.857  12.032  1.00  0.00     0.035 A 
HETATM   31  C9  UNL     1       9.090  16.524  13.230  1.00  0.00     0.031 A 
HETATM   32  C10 UNL     1       8.272  17.628  13.281  1.00  0.00     0.026 A 
HETATM   33  C11 UNL     1       7.721  18.131  12.134  1.00  0.00     0.034 A 
HETATM   34 CL1  UNL     1       6.683  19.547  12.263  1.00  0.00    -0.084 Cl
HETATM   35  C12 UNL     1       7.995  17.522  10.961  1.00  0.00     0.026 A 
HETATM   36  C13 UNL     1       8.829  16.396  10.912  1.00  0.00     0.031 A 
ENDBRANCH  28  30
ENDBRANCH  23  26
ENDBRANCH   1  20
TORSDOF 7
ENDMDL
