MODEL 1
REMARK VINA RESULT: -7.441746398      0.000      0.000
REMARK  5 active torsions:
REMARK  status: ('A' for Active; 'I' for Inactive)
REMARK    1  A    between atoms: C3_3  and  C4_4 
REMARK    2  A    between atoms: N1_5  and  N2_7 
REMARK       I    between atoms: N2_7  and  C5_9 
REMARK    3  A    between atoms: C5_9  and  C6_11 
REMARK    4  A    between atoms: C6_11  and  N3_12 
REMARK       I    between atoms: N3_12  and  C7_14 
REMARK       I    between atoms: C7_14  and  N4_16 
REMARK    5  A    between atoms: N4_16  and  C8_18 
ROOT
HETATM    1  N2  UNL     1      20.431  10.205  11.217  1.00  0.00    -0.269 N 
ATOM      2  H2  UNL     1      19.590  10.617  11.622  1.00  0.00     0.190 HD
HETATM    3  C5  UNL     1      20.577   8.818  11.196  1.00  0.00     0.253 C 
HETATM    4  O1  UNL     1      21.639   8.317  10.697  1.00  0.00    -0.270 OA
ENDROOT
BRANCH   3   5
HETATM    5  C6  UNL     1      19.593   7.867  11.715  1.00  0.00     0.228 C 
BRANCH   5   6
HETATM    6  N3  UNL     1      18.443   8.460  12.329  1.00  0.00    -0.334 N 
HETATM    7  C7  UNL     1      17.108   8.299  11.807  1.00  0.00     0.321 C 
HETATM    8  O2  UNL     1      17.015   7.592  10.781  1.00  0.00    -0.247 OA
HETATM    9  N4  UNL     1      16.048   8.929  12.468  1.00  0.00    -0.307 N 
ATOM     10  H4  UNL     1      16.303   9.470  13.294  1.00  0.00     0.170 HD
ATOM     11  H3  UNL     1      18.574   9.020  13.172  1.00  0.00     0.164 HD
BRANCH   9  12
HETATM   12  C8  UNL     1      14.674   8.918  12.149  1.00  0.00     0.058 A 
HETATM   13  C9  UNL     1      14.026   9.915  11.488  1.00  0.00     0.031 A 
HETATM   14  C10 UNL     1      12.660   9.810  11.219  1.00  0.00     0.002 A 
HETATM   15  C11 UNL     1      11.927   8.709  11.606  1.00  0.00     0.002 A 
HETATM   16  C12 UNL     1      12.571   7.704  12.270  1.00  0.00     0.026 A 
HETATM   17  C13 UNL     1      13.909   7.808  12.533  1.00  0.00     0.060 A 
HETATM   18 CL1  UNL     1      14.704   6.487  13.393  1.00  0.00    -0.082 Cl
ENDBRANCH   9  12
ENDBRANCH   5   6
ENDBRANCH   3   5
BRANCH   1  19
HETATM   19  N1  UNL     1      21.433  11.045  10.685  1.00  0.00    -0.308 N 
HETATM   20  C4  UNL     1      21.387  11.485   9.483  1.00  0.00     0.126 C 
ATOM     21  H1  UNL     1      22.220  11.311  11.277  1.00  0.00     0.186 HD
BRANCH  20  22
HETATM   22  C3  UNL     1      22.448  12.358   8.966  1.00  0.00     0.030 A 
HETATM   23  C2  UNL     1      23.127  12.288   7.780  1.00  0.00    -0.024 A 
HETATM   24  C1  UNL     1      22.795  11.179   6.797  1.00  0.00     0.051 C 
HETATM   25  C15 UNL     1      24.066  13.230   7.557  1.00  0.00     0.047 A 
HETATM   26  C14 UNL     1      24.255  14.167   8.533  1.00  0.00     0.093 A 
HETATM   27 BR1  UNL     1      25.162  13.340   5.950  1.00  0.00    -0.048 Br
HETATM   28  S1  UNL     1      23.134  13.722   9.728  1.00  0.00    -0.075 SA
HETATM   29 CL2  UNL     1      25.378  15.531   8.593  1.00  0.00    -0.075 Cl
ENDBRANCH  20  22
ENDBRANCH   1  19
TORSDOF 5
ENDMDL
MODEL 2
REMARK VINA RESULT: -7.380572998      1.441      1.775
REMARK  5 active torsions:
REMARK  status: ('A' for Active; 'I' for Inactive)
REMARK    1  A    between atoms: C3_3  and  C4_4 
REMARK    2  A    between atoms: N1_5  and  N2_7 
REMARK       I    between atoms: N2_7  and  C5_9 
REMARK    3  A    between atoms: C5_9  and  C6_11 
REMARK    4  A    between atoms: C6_11  and  N3_12 
REMARK       I    between atoms: N3_12  and  C7_14 
REMARK       I    between atoms: C7_14  and  N4_16 
REMARK    5  A    between atoms: N4_16  and  C8_18 
ROOT
HETATM    1  N2  UNL     1      20.576  10.406  11.217  1.00  0.00    -0.269 N 
ATOM      2  H2  UNL     1      20.192  10.731  12.105  1.00  0.00     0.190 HD
HETATM    3  C5  UNL     1      20.377   9.083  10.824  1.00  0.00     0.253 C 
HETATM    4  O1  UNL     1      20.873   8.687   9.717  1.00  0.00    -0.270 OA
ENDROOT
BRANCH   3   5
HETATM    5  C6  UNL     1      19.633   8.086  11.595  1.00  0.00     0.228 C 
BRANCH   5   6
HETATM    6  N3  UNL     1      18.469   8.584  12.266  1.00  0.00    -0.334 N 
HETATM    7  C7  UNL     1      17.133   8.395  11.758  1.00  0.00     0.321 C 
HETATM    8  O2  UNL     1      17.051   7.751  10.689  1.00  0.00    -0.247 OA
HETATM    9  N4  UNL     1      16.059   8.931  12.476  1.00  0.00    -0.307 N 
ATOM     10  H4  UNL     1      16.306   9.430  13.330  1.00  0.00     0.170 HD
ATOM     11  H3  UNL     1      18.591   9.094  13.141  1.00  0.00     0.164 HD
BRANCH   9  12
HETATM   12  C8  UNL     1      14.681   8.877  12.181  1.00  0.00     0.058 A 
HETATM   13  C9  UNL     1      13.993   9.847  11.520  1.00  0.00     0.031 A 
HETATM   14  C10 UNL     1      12.626   9.699  11.275  1.00  0.00     0.002 A 
HETATM   15  C11 UNL     1      11.932   8.582  11.687  1.00  0.00     0.002 A 
HETATM   16  C12 UNL     1      12.616   7.603  12.351  1.00  0.00     0.026 A 
HETATM   17  C13 UNL     1      13.955   7.750  12.589  1.00  0.00     0.060 A 
HETATM   18 CL1  UNL     1      14.803   6.462  13.450  1.00  0.00    -0.082 Cl
ENDBRANCH   9  12
ENDBRANCH   5   6
ENDBRANCH   3   5
BRANCH   1  19
HETATM   19  N1  UNL     1      21.304  11.300  10.402  1.00  0.00    -0.308 N 
HETATM   20  C4  UNL     1      22.543  11.552  10.603  1.00  0.00     0.126 C 
ATOM     21  H1  UNL     1      20.827  11.761   9.627  1.00  0.00     0.186 HD
BRANCH  20  22
HETATM   22  C3  UNL     1      23.265  12.488   9.732  1.00  0.00     0.030 A 
HETATM   23  C2  UNL     1      23.573  13.806   9.941  1.00  0.00    -0.024 A 
HETATM   24  C1  UNL     1      23.143  14.473  11.235  1.00  0.00     0.051 C 
HETATM   25  C15 UNL     1      24.252  14.437   8.961  1.00  0.00     0.047 A 
HETATM   26  C14 UNL     1      24.572  13.706   7.852  1.00  0.00     0.093 A 
HETATM   27 BR1  UNL     1      24.800  16.305   9.025  1.00  0.00    -0.048 Br
HETATM   28  S1  UNL     1      23.927  12.173   8.192  1.00  0.00    -0.075 SA
HETATM   29 CL2  UNL     1      25.442  14.187   6.391  1.00  0.00    -0.075 Cl
ENDBRANCH  20  22
ENDBRANCH   1  19
TORSDOF 5
ENDMDL
MODEL 3
REMARK VINA RESULT: -7.299367408      7.621     10.821
REMARK  5 active torsions:
REMARK  status: ('A' for Active; 'I' for Inactive)
REMARK    1  A    between atoms: C3_3  and  C4_4 
REMARK    2  A    between atoms: N1_5  and  N2_7 
REMARK       I    between atoms: N2_7  and  C5_9 
REMARK    3  A    between atoms: C5_9  and  C6_11 
REMARK    4  A    between atoms: C6_11  and  N3_12 
REMARK       I    between atoms: N3_12  and  C7_14 
REMARK       I    between atoms: C7_14  and  N4_16 
REMARK    5  A    between atoms: N4_16  and  C8_18 
ROOT
HETATM    1  N2  UNL     1      10.955  11.829   9.127  1.00  0.00    -0.269 N 
ATOM      2  H2  UNL     1      11.833  12.046   8.655  1.00  0.00     0.190 HD
HETATM    3  C5  UNL     1      10.532  10.503   9.220  1.00  0.00     0.253 C 
HETATM    4  O1  UNL     1       9.425  10.248   9.802  1.00  0.00    -0.270 OA
ENDROOT
BRANCH   3   5
HETATM    5  C6  UNL     1      11.264   9.354   8.688  1.00  0.00     0.228 C 
BRANCH   5   6
HETATM    6  N3  UNL     1      11.892   8.527   9.675  1.00  0.00    -0.334 N 
HETATM    7  C7  UNL     1      13.300   8.606   9.980  1.00  0.00     0.321 C 
HETATM    8  O2  UNL     1      13.942   9.459   9.331  1.00  0.00    -0.247 OA
HETATM    9  N4  UNL     1      13.826   7.746  10.951  1.00  0.00    -0.307 N 
ATOM     10  H4  UNL     1      13.157   7.110  11.384  1.00  0.00     0.170 HD
ATOM     11  H3  UNL     1      11.319   7.854  10.184  1.00  0.00     0.164 HD
BRANCH   9  12
HETATM   12  C8  UNL     1      15.154   7.640  11.413  1.00  0.00     0.058 A 
HETATM   13  C9  UNL     1      16.244   8.103  10.744  1.00  0.00     0.031 A 
HETATM   14  C10 UNL     1      17.522   7.948  11.286  1.00  0.00     0.002 A 
HETATM   15  C11 UNL     1      17.724   7.331  12.502  1.00  0.00     0.002 A 
HETATM   16  C12 UNL     1      16.634   6.864  13.180  1.00  0.00     0.026 A 
HETATM   17  C13 UNL     1      15.383   7.016  12.647  1.00  0.00     0.060 A 
HETATM   18 CL1  UNL     1      14.000   6.398  13.554  1.00  0.00    -0.082 Cl
ENDBRANCH   9  12
ENDBRANCH   5   6
ENDBRANCH   3   5
BRANCH   1  19
HETATM   19  N1  UNL     1      10.182  12.874   9.678  1.00  0.00    -0.308 N 
HETATM   20  C4  UNL     1      10.477  14.107   9.498  1.00  0.00     0.126 C 
ATOM     21  H1  UNL     1       9.362  12.640  10.238  1.00  0.00     0.186 HD
BRANCH  20  22
HETATM   22  C3  UNL     1       9.648  15.166  10.087  1.00  0.00     0.030 A 
HETATM   23  C2  UNL     1       9.647  15.658  11.366  1.00  0.00    -0.024 A 
HETATM   24  C1  UNL     1      10.614  15.080  12.384  1.00  0.00     0.051 C 
HETATM   25  C15 UNL     1       8.769  16.643  11.641  1.00  0.00     0.047 A 
HETATM   26  C14 UNL     1       7.961  17.062  10.622  1.00  0.00     0.093 A 
HETATM   27 BR1  UNL     1       8.578  17.499  13.380  1.00  0.00    -0.048 Br
HETATM   28  S1  UNL     1       8.435  16.086   9.316  1.00  0.00    -0.075 SA
HETATM   29 CL2  UNL     1       6.709  18.311  10.608  1.00  0.00    -0.075 Cl
ENDBRANCH  20  22
ENDBRANCH   1  19
TORSDOF 5
ENDMDL
MODEL 4
REMARK VINA RESULT: -7.254641982      3.485      4.059
REMARK  5 active torsions:
REMARK  status: ('A' for Active; 'I' for Inactive)
REMARK    1  A    between atoms: C3_3  and  C4_4 
REMARK    2  A    between atoms: N1_5  and  N2_7 
REMARK       I    between atoms: N2_7  and  C5_9 
REMARK    3  A    between atoms: C5_9  and  C6_11 
REMARK    4  A    between atoms: C6_11  and  N3_12 
REMARK       I    between atoms: N3_12  and  C7_14 
REMARK       I    between atoms: C7_14  and  N4_16 
REMARK    5  A    between atoms: N4_16  and  C8_18 
ROOT
HETATM    1  N2  UNL     1      18.244   8.781   6.613  1.00  0.00    -0.269 N 
ATOM      2  H2  UNL     1      18.314   7.879   7.086  1.00  0.00     0.190 HD
HETATM    3  C5  UNL     1      17.020   9.186   6.082  1.00  0.00     0.253 C 
HETATM    4  O1  UNL     1      16.950  10.311   5.483  1.00  0.00    -0.270 OA
ENDROOT
BRANCH   3   5
HETATM    5  C6  UNL     1      15.782   8.410   6.150  1.00  0.00     0.228 C 
BRANCH   5   6
HETATM    6  N3  UNL     1      15.024   8.585   7.353  1.00  0.00    -0.334 N 
HETATM    7  C7  UNL     1      15.375   7.947   8.598  1.00  0.00     0.321 C 
HETATM    8  O2  UNL     1      16.402   7.234   8.565  1.00  0.00    -0.247 OA
HETATM    9  N4  UNL     1      14.566   8.166   9.718  1.00  0.00    -0.307 N 
ATOM     10  H4  UNL     1      13.764   8.778   9.568  1.00  0.00     0.170 HD
ATOM     11  H3  UNL     1      14.200   9.186   7.328  1.00  0.00     0.164 HD
BRANCH   9  12
HETATM   12  C8  UNL     1      14.706   7.656  11.025  1.00  0.00     0.058 A 
HETATM   13  C9  UNL     1      15.894   7.485  11.665  1.00  0.00     0.031 A 
HETATM   14  C10 UNL     1      15.928   6.972  12.963  1.00  0.00     0.002 A 
HETATM   15  C11 UNL     1      14.777   6.625  13.636  1.00  0.00     0.002 A 
HETATM   16  C12 UNL     1      13.579   6.795  13.001  1.00  0.00     0.026 A 
HETATM   17  C13 UNL     1      13.548   7.298  11.729  1.00  0.00     0.060 A 
HETATM   18 CL1  UNL     1      11.980   7.502  10.943  1.00  0.00    -0.082 Cl
ENDBRANCH   9  12
ENDBRANCH   5   6
ENDBRANCH   3   5
BRANCH   1  19
HETATM   19  N1  UNL     1      19.387   9.602   6.505  1.00  0.00    -0.308 N 
HETATM   20  C4  UNL     1      20.107   9.907   7.519  1.00  0.00     0.126 C 
ATOM     21  H1  UNL     1      19.649   9.965   5.588  1.00  0.00     0.186 HD
BRANCH  20  22
HETATM   22  C3  UNL     1      21.289  10.764   7.365  1.00  0.00     0.030 A 
HETATM   23  C2  UNL     1      21.876  11.603   8.274  1.00  0.00    -0.024 A 
HETATM   24  C1  UNL     1      21.284  11.722   9.667  1.00  0.00     0.051 C 
HETATM   25  C15 UNL     1      22.966  12.282   7.863  1.00  0.00     0.047 A 
HETATM   26  C14 UNL     1      23.385  12.073   6.580  1.00  0.00     0.093 A 
HETATM   27 BR1  UNL     1      23.971  13.532   8.969  1.00  0.00    -0.048 Br
HETATM   28  S1  UNL     1      22.266  10.947   5.979  1.00  0.00    -0.075 SA
HETATM   29 CL2  UNL     1      24.752  12.775   5.705  1.00  0.00    -0.075 Cl
ENDBRANCH  20  22
ENDBRANCH   1  19
TORSDOF 5
ENDMDL
MODEL 5
REMARK VINA RESULT: -7.190879141      2.490      3.440
REMARK  5 active torsions:
REMARK  status: ('A' for Active; 'I' for Inactive)
REMARK    1  A    between atoms: C3_3  and  C4_4 
REMARK    2  A    between atoms: N1_5  and  N2_7 
REMARK       I    between atoms: N2_7  and  C5_9 
REMARK    3  A    between atoms: C5_9  and  C6_11 
REMARK    4  A    between atoms: C6_11  and  N3_12 
REMARK       I    between atoms: N3_12  and  C7_14 
REMARK       I    between atoms: C7_14  and  N4_16 
REMARK    5  A    between atoms: N4_16  and  C8_18 
ROOT
HETATM    1  N2  UNL     1      17.834   8.860  12.328  1.00  0.00    -0.269 N 
ATOM      2  H2  UNL     1      17.200   9.591  12.650  1.00  0.00     0.190 HD
HETATM    3  C5  UNL     1      17.600   7.534  12.693  1.00  0.00     0.253 C 
HETATM    4  O1  UNL     1      18.408   6.632  12.293  1.00  0.00    -0.270 OA
ENDROOT
BRANCH   3   5
HETATM    5  C6  UNL     1      16.480   7.082  13.520  1.00  0.00     0.228 C 
BRANCH   5   6
HETATM    6  N3  UNL     1      15.307   6.698  12.793  1.00  0.00    -0.334 N 
HETATM    7  C7  UNL     1      14.322   7.649  12.340  1.00  0.00     0.321 C 
HETATM    8  O2  UNL     1      14.565   8.844  12.615  1.00  0.00    -0.247 OA
HETATM    9  N4  UNL     1      13.200   7.178  11.649  1.00  0.00    -0.307 N 
ATOM     10  H4  UNL     1      13.161   6.169  11.511  1.00  0.00     0.170 HD
ATOM     11  H3  UNL     1      15.163   5.710  12.585  1.00  0.00     0.164 HD
BRANCH   9  12
HETATM   12  C8  UNL     1      12.117   7.908  11.117  1.00  0.00     0.058 A 
HETATM   13  C9  UNL     1      10.953   8.154  11.776  1.00  0.00     0.031 A 
HETATM   14  C10 UNL     1       9.937   8.889  11.161  1.00  0.00     0.002 A 
HETATM   15  C11 UNL     1      10.073   9.385   9.883  1.00  0.00     0.002 A 
HETATM   16  C12 UNL     1      11.240   9.143   9.215  1.00  0.00     0.026 A 
HETATM   17  C13 UNL     1      12.234   8.423   9.819  1.00  0.00     0.060 A 
HETATM   18 CL1  UNL     1      13.726   8.132   8.922  1.00  0.00    -0.082 Cl
ENDBRANCH   9  12
ENDBRANCH   5   6
ENDBRANCH   3   5
BRANCH   1  19
HETATM   19  N1  UNL     1      18.940   9.202  11.519  1.00  0.00    -0.308 N 
HETATM   20  C4  UNL     1      19.137  10.397  11.104  1.00  0.00     0.126 C 
ATOM     21  H1  UNL     1      19.603   8.473  11.256  1.00  0.00     0.186 HD
BRANCH  20  22
HETATM   22  C3  UNL     1      20.299  10.713  10.265  1.00  0.00     0.030 A 
HETATM   23  C2  UNL     1      20.447  10.597   8.908  1.00  0.00    -0.024 A 
HETATM   24  C1  UNL     1      19.289  10.075   8.076  1.00  0.00     0.051 C 
HETATM   25  C15 UNL     1      21.638  10.962   8.390  1.00  0.00     0.047 A 
HETATM   26  C14 UNL     1      22.586  11.414   9.263  1.00  0.00     0.093 A 
HETATM   27 BR1  UNL     1      22.088  10.886   6.497  1.00  0.00    -0.048 Br
HETATM   28  S1  UNL     1      21.810  11.323  10.770  1.00  0.00    -0.075 SA
HETATM   29 CL2  UNL     1      24.236  11.971   8.956  1.00  0.00    -0.075 Cl
ENDBRANCH  20  22
ENDBRANCH   1  19
TORSDOF 5
ENDMDL
