MODEL 1
REMARK VINA RESULT: -7.657764202      0.000      0.000
REMARK  9 active torsions:
REMARK  status: ('A' for Active; 'I' for Inactive)
REMARK    1  A    between atoms: C2_2  and  C3_3 
REMARK    2  A    between atoms: C5_6  and  C6_7 
REMARK    3  A    between atoms: C6_7  and  C7_9 
REMARK    4  A    between atoms: C7_9  and  C8_10 
REMARK    5  A    between atoms: C8_10  and  N1_11 
REMARK    6  A    between atoms: N1_11  and  C9_14 
REMARK    7  A    between atoms: C12_18  and  O4_19 
REMARK    8  A    between atoms: C17_28  and  C19_30 
REMARK    9  A    between atoms: C19_30  and  O6_32 
ROOT
HETATM    1  C3  UNL     1      24.328 -38.308  -6.189  1.00  0.00     0.181 C 
HETATM    2  C4  UNL     1      24.694 -37.335  -7.260  1.00  0.00     0.084 C 
HETATM    3  O1  UNL     1      23.117 -37.902  -5.624  1.00  0.00    -0.336 OA
HETATM    4  C5  UNL     1      22.445 -39.086  -5.302  1.00  0.00     0.234 C 
HETATM    5  C11 UNL     1      22.873 -40.016  -6.383  1.00  0.00     0.156 C 
HETATM    6  O3  UNL     1      24.194 -39.608  -6.595  1.00  0.00    -0.333 OA
HETATM    7  C12 UNL     1      22.112 -40.030  -7.636  1.00  0.00     0.187 C 
HETATM    8  C13 UNL     1      21.102 -41.077  -7.527  1.00  0.00    -0.049 C 
HETATM    9  C14 UNL     1      19.977 -41.146  -8.214  1.00  0.00     0.017 C 
HETATM   10  C15 UNL     1      21.565 -42.054  -6.507  1.00  0.00     0.096 C 
HETATM   11  C16 UNL     1      22.799 -41.438  -5.899  1.00  0.00     0.239 C 
HETATM   12  N2  UNL     1      23.642 -42.353  -6.677  1.00  0.00    -0.048 N 
ATOM     13  H21 UNL     1      24.449 -42.799  -6.240  1.00  0.00     0.279 HD
ATOM     14  H22 UNL     1      24.244 -41.989  -7.416  1.00  0.00     0.279 HD
HETATM   15  C17 UNL     1      22.488 -43.132  -7.011  1.00  0.00     0.218 C 
HETATM   16  C18 UNL     1      22.366 -43.471  -8.475  1.00  0.00     0.058 C 
ENDROOT
BRANCH   4  17
HETATM   17  C6  UNL     1      21.022 -38.802  -5.185  1.00  0.00     0.160 C 
HETATM   18  O2  UNL     1      20.562 -37.842  -5.779  1.00  0.00    -0.295 OA
BRANCH  17  19
HETATM   19  C7  UNL     1      20.045 -39.591  -4.387  1.00  0.00     0.108 C 
BRANCH  19  20
HETATM   20  C8  UNL     1      19.111 -38.739  -3.599  1.00  0.00     0.239 C 
BRANCH  20  21
HETATM   21  N1  UNL     1      18.802 -39.335  -2.316  1.00  0.00    -0.075 N 
ATOM     22  H12 UNL     1      19.650 -39.620  -1.828  1.00  0.00     0.277 HD
ATOM     23  H11 UNL     1      18.463 -38.634  -1.656  1.00  0.00     0.277 HD
BRANCH  21  24
HETATM   24  C9  UNL     1      17.871 -40.434  -2.434  1.00  0.00     0.228 C 
HETATM   25  C10 UNL     1      17.915 -41.358  -1.250  1.00  0.00     0.034 C 
ENDBRANCH  21  24
ENDBRANCH  20  21
ENDBRANCH  19  20
ENDBRANCH  17  19
ENDBRANCH   4  17
BRANCH   7  26
HETATM   26  O4  UNL     1      21.625 -38.808  -8.055  1.00  0.00    -0.388 OA
ATOM     27  H4  UNL     1      20.843 -38.500  -7.611  1.00  0.00     0.210 HD
ENDBRANCH   7  26
BRANCH   1  28
HETATM   28  C2  UNL     1      25.315 -38.308  -5.056  1.00  0.00     0.030 C 
HETATM   29  C1  UNL     1      26.139 -39.299  -4.833  1.00  0.00     0.012 C 
ENDBRANCH   1  28
BRANCH  15  30
HETATM   30  C19 UNL     1      22.329 -44.365  -6.198  1.00  0.00     0.295 C 
HETATM   31  O5  UNL     1      22.940 -44.433  -5.107  1.00  0.00    -0.262 OA
BRANCH  30  32
HETATM   32  O6  UNL     1      21.550 -45.426  -6.580  1.00  0.00    -0.325 OA
HETATM   33  C20 UNL     1      20.146 -45.515  -6.302  1.00  0.00     0.213 C 
ENDBRANCH  30  32
ENDBRANCH  15  30
TORSDOF 9
ENDMDL
MODEL 2
REMARK VINA RESULT: -7.545614920      0.989      1.115
REMARK  9 active torsions:
REMARK  status: ('A' for Active; 'I' for Inactive)
REMARK    1  A    between atoms: C2_2  and  C3_3 
REMARK    2  A    between atoms: C5_6  and  C6_7 
REMARK    3  A    between atoms: C6_7  and  C7_9 
REMARK    4  A    between atoms: C7_9  and  C8_10 
REMARK    5  A    between atoms: C8_10  and  N1_11 
REMARK    6  A    between atoms: N1_11  and  C9_14 
REMARK    7  A    between atoms: C12_18  and  O4_19 
REMARK    8  A    between atoms: C17_28  and  C19_30 
REMARK    9  A    between atoms: C19_30  and  O6_32 
ROOT
HETATM    1  C3  UNL     1      24.360 -38.325  -6.164  1.00  0.00     0.181 C 
HETATM    2  C4  UNL     1      24.737 -37.345  -7.224  1.00  0.00     0.084 C 
HETATM    3  O1  UNL     1      23.157 -37.909  -5.591  1.00  0.00    -0.336 OA
HETATM    4  C5  UNL     1      22.469 -39.087  -5.281  1.00  0.00     0.234 C 
HETATM    5  C11 UNL     1      22.882 -40.011  -6.373  1.00  0.00     0.156 C 
HETATM    6  O3  UNL     1      24.208 -39.619  -6.583  1.00  0.00    -0.333 OA
HETATM    7  C12 UNL     1      22.118 -40.000  -7.624  1.00  0.00     0.187 C 
HETATM    8  C13 UNL     1      21.094 -41.034  -7.525  1.00  0.00    -0.049 C 
HETATM    9  C14 UNL     1      19.967 -41.080  -8.210  1.00  0.00     0.017 C 
HETATM   10  C15 UNL     1      21.546 -42.029  -6.517  1.00  0.00     0.096 C 
HETATM   11  C16 UNL     1      22.789 -41.436  -5.904  1.00  0.00     0.239 C 
HETATM   12  N2  UNL     1      23.618 -42.355  -6.694  1.00  0.00    -0.048 N 
ATOM     13  H21 UNL     1      24.420 -42.816  -6.264  1.00  0.00     0.279 HD
ATOM     14  H22 UNL     1      24.223 -41.991  -7.431  1.00  0.00     0.279 HD
HETATM   15  C17 UNL     1      22.453 -43.114  -7.035  1.00  0.00     0.218 C 
HETATM   16  C18 UNL     1      22.323 -43.435  -8.502  1.00  0.00     0.058 C 
ENDROOT
BRANCH   4  17
HETATM   17  C6  UNL     1      21.050 -38.784  -5.157  1.00  0.00     0.160 C 
HETATM   18  O2  UNL     1      20.596 -37.831  -5.766  1.00  0.00    -0.295 OA
BRANCH  17  19
HETATM   19  C7  UNL     1      20.072 -39.547  -4.336  1.00  0.00     0.108 C 
BRANCH  19  20
HETATM   20  C8  UNL     1      18.701 -38.963  -4.370  1.00  0.00     0.239 C 
BRANCH  20  21
HETATM   21  N1  UNL     1      18.596 -37.801  -3.514  1.00  0.00    -0.075 N 
ATOM     22  H12 UNL     1      19.027 -37.972  -2.606  1.00  0.00     0.277 HD
ATOM     23  H11 UNL     1      19.201 -37.046  -3.840  1.00  0.00     0.277 HD
BRANCH  21  24
HETATM   24  C9  UNL     1      17.231 -37.350  -3.368  1.00  0.00     0.228 C 
HETATM   25  C10 UNL     1      16.237 -38.319  -3.944  1.00  0.00     0.034 C 
ENDBRANCH  21  24
ENDBRANCH  20  21
ENDBRANCH  19  20
ENDBRANCH  17  19
ENDBRANCH   4  17
BRANCH   7  26
HETATM   26  O4  UNL     1      21.648 -38.767  -8.029  1.00  0.00    -0.388 OA
ATOM     27  H4  UNL     1      21.022 -38.778  -8.745  1.00  0.00     0.210 HD
ENDBRANCH   7  26
BRANCH   1  28
HETATM   28  C2  UNL     1      25.350 -38.351  -5.033  1.00  0.00     0.030 C 
HETATM   29  C1  UNL     1      26.194 -39.333  -4.851  1.00  0.00     0.012 C 
ENDBRANCH   1  28
BRANCH  15  30
HETATM   30  C19 UNL     1      22.278 -44.354  -6.235  1.00  0.00     0.295 C 
HETATM   31  O5  UNL     1      22.909 -44.452  -5.158  1.00  0.00    -0.262 OA
BRANCH  30  32
HETATM   32  O6  UNL     1      21.464 -45.389  -6.614  1.00  0.00    -0.325 OA
HETATM   33  C20 UNL     1      20.058 -45.430  -6.337  1.00  0.00     0.213 C 
ENDBRANCH  30  32
ENDBRANCH  15  30
TORSDOF 9
ENDMDL
MODEL 3
REMARK VINA RESULT: -7.355976575      1.583      1.983
REMARK  9 active torsions:
REMARK  status: ('A' for Active; 'I' for Inactive)
REMARK    1  A    between atoms: C2_2  and  C3_3 
REMARK    2  A    between atoms: C5_6  and  C6_7 
REMARK    3  A    between atoms: C6_7  and  C7_9 
REMARK    4  A    between atoms: C7_9  and  C8_10 
REMARK    5  A    between atoms: C8_10  and  N1_11 
REMARK    6  A    between atoms: N1_11  and  C9_14 
REMARK    7  A    between atoms: C12_18  and  O4_19 
REMARK    8  A    between atoms: C17_28  and  C19_30 
REMARK    9  A    between atoms: C19_30  and  O6_32 
ROOT
HETATM    1  C3  UNL     1      23.385 -38.233  -6.046  1.00  0.00     0.181 C 
HETATM    2  C4  UNL     1      23.572 -36.964  -6.808  1.00  0.00     0.084 C 
HETATM    3  O1  UNL     1      22.493 -37.988  -5.000  1.00  0.00    -0.336 OA
HETATM    4  C5  UNL     1      21.755 -39.169  -4.861  1.00  0.00     0.234 C 
HETATM    5  C11 UNL     1      21.667 -39.673  -6.258  1.00  0.00     0.156 C 
HETATM    6  O3  UNL     1      22.911 -39.292  -6.771  1.00  0.00    -0.333 OA
HETATM    7  C12 UNL     1      20.571 -39.194  -7.107  1.00  0.00     0.187 C 
HETATM    8  C13 UNL     1      19.476 -40.151  -6.996  1.00  0.00    -0.049 C 
HETATM    9  C14 UNL     1      18.202 -39.907  -7.237  1.00  0.00     0.017 C 
HETATM   10  C15 UNL     1      20.050 -41.454  -6.565  1.00  0.00     0.096 C 
HETATM   11  C16 UNL     1      21.497 -41.167  -6.257  1.00  0.00     0.239 C 
HETATM   12  N2  UNL     1      21.893 -41.790  -7.526  1.00  0.00    -0.048 N 
ATOM     13  H21 UNL     1      22.704 -42.408  -7.560  1.00  0.00     0.279 HD
ATOM     14  H22 UNL     1      22.295 -41.220  -8.271  1.00  0.00     0.279 HD
HETATM   15  C17 UNL     1      20.575 -42.331  -7.672  1.00  0.00     0.218 C 
HETATM   16  C18 UNL     1      19.958 -42.116  -9.030  1.00  0.00     0.058 C 
ENDROOT
BRANCH   4  17
HETATM   17  C6  UNL     1      20.506 -38.864  -4.176  1.00  0.00     0.160 C 
HETATM   18  O2  UNL     1      20.073 -37.726  -4.221  1.00  0.00    -0.295 OA
BRANCH  17  19
HETATM   19  C7  UNL     1      19.684 -39.835  -3.405  1.00  0.00     0.108 C 
BRANCH  19  20
HETATM   20  C8  UNL     1      18.221 -39.570  -3.505  1.00  0.00     0.239 C 
BRANCH  20  21
HETATM   21  N1  UNL     1      17.808 -38.520  -2.597  1.00  0.00    -0.075 N 
ATOM     22  H12 UNL     1      17.471 -38.906  -1.716  1.00  0.00     0.277 HD
ATOM     23  H11 UNL     1      18.612 -37.997  -2.248  1.00  0.00     0.277 HD
BRANCH  21  24
HETATM   24  C9  UNL     1      16.829 -37.638  -3.191  1.00  0.00     0.228 C 
HETATM   25  C10 UNL     1      16.305 -38.155  -4.501  1.00  0.00     0.034 C 
ENDBRANCH  21  24
ENDBRANCH  20  21
ENDBRANCH  19  20
ENDBRANCH  17  19
ENDBRANCH   4  17
BRANCH   7  26
HETATM   26  O4  UNL     1      20.201 -37.877  -6.921  1.00  0.00    -0.388 OA
ATOM     27  H4  UNL     1      20.412 -37.505  -6.073  1.00  0.00     0.210 HD
ENDBRANCH   7  26
BRANCH   1  28
HETATM   28  C2  UNL     1      24.654 -38.695  -5.385  1.00  0.00     0.030 C 
HETATM   29  C1  UNL     1      25.390 -39.665  -5.863  1.00  0.00     0.012 C 
ENDBRANCH   1  28
BRANCH  15  30
HETATM   30  C19 UNL     1      20.458 -43.762  -7.291  1.00  0.00     0.295 C 
HETATM   31  O5  UNL     1      21.397 -44.531  -7.599  1.00  0.00    -0.262 OA
BRANCH  30  32
HETATM   32  O6  UNL     1      19.380 -44.280  -6.621  1.00  0.00    -0.325 OA
HETATM   33  C20 UNL     1      19.117 -45.686  -6.516  1.00  0.00     0.213 C 
ENDBRANCH  30  32
ENDBRANCH  15  30
TORSDOF 9
ENDMDL
MODEL 4
REMARK VINA RESULT: -7.174739528      2.485      5.976
REMARK  9 active torsions:
REMARK  status: ('A' for Active; 'I' for Inactive)
REMARK    1  A    between atoms: C2_2  and  C3_3 
REMARK    2  A    between atoms: C5_6  and  C6_7 
REMARK    3  A    between atoms: C6_7  and  C7_9 
REMARK    4  A    between atoms: C7_9  and  C8_10 
REMARK    5  A    between atoms: C8_10  and  N1_11 
REMARK    6  A    between atoms: N1_11  and  C9_14 
REMARK    7  A    between atoms: C12_18  and  O4_19 
REMARK    8  A    between atoms: C17_28  and  C19_30 
REMARK    9  A    between atoms: C19_30  and  O6_32 
ROOT
HETATM    1  C3  UNL     1      22.260 -43.651  -9.341  1.00  0.00     0.181 C 
HETATM    2  C4  UNL     1      22.860 -43.173 -10.621  1.00  0.00     0.084 C 
HETATM    3  O1  UNL     1      23.235 -43.572  -8.344  1.00  0.00    -0.336 OA
HETATM    4  C5  UNL     1      22.543 -43.226  -7.179  1.00  0.00     0.234 C 
HETATM    5  C11 UNL     1      21.447 -42.357  -7.687  1.00  0.00     0.156 C 
HETATM    6  O3  UNL     1      21.157 -42.962  -8.914  1.00  0.00    -0.333 OA
HETATM    7  C12 UNL     1      21.709 -40.923  -7.849  1.00  0.00     0.187 C 
HETATM    8  C13 UNL     1      21.284 -40.255  -6.624  1.00  0.00    -0.049 C 
HETATM    9  C14 UNL     1      21.712 -39.086  -6.187  1.00  0.00     0.017 C 
HETATM   10  C15 UNL     1      20.280 -41.124  -5.955  1.00  0.00     0.096 C 
HETATM   11  C16 UNL     1      20.273 -42.406  -6.748  1.00  0.00     0.239 C 
HETATM   12  N2  UNL     1      19.012 -42.006  -7.386  1.00  0.00    -0.048 N 
ATOM     13  H21 UNL     1      18.268 -42.691  -7.517  1.00  0.00     0.279 HD
ATOM     14  H22 UNL     1      18.991 -41.792  -8.383  1.00  0.00     0.279 HD
HETATM   15  C17 UNL     1      18.859 -40.956  -6.424  1.00  0.00     0.218 C 
HETATM   16  C18 UNL     1      18.516 -39.613  -7.015  1.00  0.00     0.058 C 
ENDROOT
BRANCH   4  17
HETATM   17  C6  UNL     1      23.482 -42.640  -6.231  1.00  0.00     0.160 C 
HETATM   18  O2  UNL     1      23.140 -42.507  -5.069  1.00  0.00    -0.295 OA
BRANCH  17  19
HETATM   19  C7  UNL     1      24.857 -42.174  -6.554  1.00  0.00     0.108 C 
BRANCH  19  20
HETATM   20  C8  UNL     1      25.176 -40.844  -5.961  1.00  0.00     0.239 C 
BRANCH  20  21
HETATM   21  N1  UNL     1      25.406 -39.846  -6.984  1.00  0.00    -0.075 N 
ATOM     22  H12 UNL     1      26.330 -39.952  -7.401  1.00  0.00     0.277 HD
ATOM     23  H11 UNL     1      24.834 -40.027  -7.810  1.00  0.00     0.277 HD
BRANCH  21  24
HETATM   24  C9  UNL     1      25.203 -38.502  -6.493  1.00  0.00     0.228 C 
HETATM   25  C10 UNL     1      24.963 -37.513  -7.599  1.00  0.00     0.034 C 
ENDBRANCH  21  24
ENDBRANCH  20  21
ENDBRANCH  19  20
ENDBRANCH  17  19
ENDBRANCH   4  17
BRANCH   7  26
HETATM   26  O4  UNL     1      22.982 -40.590  -8.269  1.00  0.00    -0.388 OA
ATOM     27  H4  UNL     1      23.369 -41.172  -8.913  1.00  0.00     0.210 HD
ENDBRANCH   7  26
BRANCH   1  28
HETATM   28  C2  UNL     1      21.869 -45.101  -9.400  1.00  0.00     0.030 C 
HETATM   29  C1  UNL     1      21.109 -45.593 -10.343  1.00  0.00     0.012 C 
ENDBRANCH   1  28
BRANCH  15  30
HETATM   30  C19 UNL     1      17.914 -41.273  -5.323  1.00  0.00     0.295 C 
HETATM   31  O5  UNL     1      17.057 -42.164  -5.521  1.00  0.00    -0.262 OA
BRANCH  30  32
HETATM   32  O6  UNL     1      17.934 -40.643  -4.105  1.00  0.00    -0.325 OA
HETATM   33  C20 UNL     1      16.916 -39.732  -3.671  1.00  0.00     0.213 C 
ENDBRANCH  30  32
ENDBRANCH  15  30
TORSDOF 9
ENDMDL
MODEL 5
REMARK VINA RESULT: -7.154323673      1.166      1.342
REMARK  9 active torsions:
REMARK  status: ('A' for Active; 'I' for Inactive)
REMARK    1  A    between atoms: C2_2  and  C3_3 
REMARK    2  A    between atoms: C5_6  and  C6_7 
REMARK    3  A    between atoms: C6_7  and  C7_9 
REMARK    4  A    between atoms: C7_9  and  C8_10 
REMARK    5  A    between atoms: C8_10  and  N1_11 
REMARK    6  A    between atoms: N1_11  and  C9_14 
REMARK    7  A    between atoms: C12_18  and  O4_19 
REMARK    8  A    between atoms: C17_28  and  C19_30 
REMARK    9  A    between atoms: C19_30  and  O6_32 
ROOT
HETATM    1  C3  UNL     1      24.448 -39.208  -6.519  1.00  0.00     0.181 C 
HETATM    2  C4  UNL     1      24.877 -38.092  -7.411  1.00  0.00     0.084 C 
HETATM    3  O1  UNL     1      23.607 -38.685  -5.535  1.00  0.00    -0.336 OA
HETATM    4  C5  UNL     1      22.660 -39.684  -5.288  1.00  0.00     0.234 C 
HETATM    5  C11 UNL     1      22.493 -40.321  -6.623  1.00  0.00     0.156 C 
HETATM    6  O3  UNL     1      23.791 -40.238  -7.137  1.00  0.00    -0.333 OA
HETATM    7  C12 UNL     1      21.514 -39.748  -7.553  1.00  0.00     0.187 C 
HETATM    8  C13 UNL     1      20.258 -40.467  -7.371  1.00  0.00    -0.049 C 
HETATM    9  C14 UNL     1      19.055 -40.020  -7.676  1.00  0.00     0.017 C 
HETATM   10  C15 UNL     1      20.574 -41.795  -6.780  1.00  0.00     0.096 C 
HETATM   11  C16 UNL     1      22.046 -41.748  -6.461  1.00  0.00     0.239 C 
HETATM   12  N2  UNL     1      22.330 -42.574  -7.641  1.00  0.00    -0.048 N 
ATOM     13  H21 UNL     1      23.012 -43.331  -7.581  1.00  0.00     0.279 HD
ATOM     14  H22 UNL     1      22.839 -42.178  -8.431  1.00  0.00     0.279 HD
HETATM   15  C17 UNL     1      20.936 -42.875  -7.766  1.00  0.00     0.218 C 
HETATM   16  C18 UNL     1      20.383 -42.707  -9.158  1.00  0.00     0.058 C 
ENDROOT
BRANCH   4  17
HETATM   17  C6  UNL     1      21.484 -39.078  -4.680  1.00  0.00     0.160 C 
HETATM   18  O2  UNL     1      21.369 -37.865  -4.702  1.00  0.00    -0.295 OA
BRANCH  17  19
HETATM   19  C7  UNL     1      20.376 -39.816  -4.016  1.00  0.00     0.108 C 
BRANCH  19  20
HETATM   20  C8  UNL     1      19.261 -38.928  -3.583  1.00  0.00     0.239 C 
BRANCH  20  21
HETATM   21  N1  UNL     1      18.731 -39.329  -2.297  1.00  0.00    -0.075 N 
ATOM     22  H12 UNL     1      19.480 -39.497  -1.626  1.00  0.00     0.277 HD
ATOM     23  H11 UNL     1      18.267 -38.549  -1.830  1.00  0.00     0.277 HD
BRANCH  21  24
HETATM   24  C9  UNL     1      17.854 -40.473  -2.399  1.00  0.00     0.228 C 
HETATM   25  C10 UNL     1      17.919 -41.361  -1.188  1.00  0.00     0.034 C 
ENDBRANCH  21  24
ENDBRANCH  20  21
ENDBRANCH  19  20
ENDBRANCH  17  19
ENDBRANCH   4  17
BRANCH   7  26
HETATM   26  O4  UNL     1      21.395 -38.373  -7.526  1.00  0.00    -0.388 OA
ATOM     27  H4  UNL     1      21.542 -37.930  -8.354  1.00  0.00     0.210 HD
ENDBRANCH   7  26
BRANCH   1  28
HETATM   28  C2  UNL     1      25.601 -39.818  -5.772  1.00  0.00     0.030 C 
HETATM   29  C1  UNL     1      25.933 -41.078  -5.885  1.00  0.00     0.012 C 
ENDBRANCH   1  28
BRANCH  15  30
HETATM   30  C19 UNL     1      20.549 -44.206  -7.233  1.00  0.00     0.295 C 
HETATM   31  O5  UNL     1      21.408 -45.118  -7.250  1.00  0.00    -0.262 OA
BRANCH  30  32
HETATM   32  O6  UNL     1      19.308 -44.485  -6.723  1.00  0.00    -0.325 OA
HETATM   33  C20 UNL     1      18.914 -45.788  -6.272  1.00  0.00     0.213 C 
ENDBRANCH  30  32
ENDBRANCH  15  30
TORSDOF 9
ENDMDL
