MODEL 1
REMARK VINA RESULT: -7.188584667      0.000      0.000
REMARK  10 active torsions:
REMARK  status: ('A' for Active; 'I' for Inactive)
REMARK    1  A    between atoms: C2_2  and  C3_3 
REMARK    2  A    between atoms: C4_4  and  C5_5 
REMARK    3  A    between atoms: N2_8  and  C6_9 
REMARK    4  A    between atoms: C6_9  and  C7_13 
REMARK    5  A    between atoms: C7_13  and  N4_14 
REMARK    6  A    between atoms: C7_13  and  C13_23 
REMARK       I    between atoms: N4_14  and  C8_16 
REMARK    7  A    between atoms: C8_16  and  O3_18 
REMARK    8  A    between atoms: O3_18  and  C9_19 
REMARK    9  A    between atoms: C16_26  and  C17_27 
REMARK   10  A    between atoms: C17_27  and  O5_29 
ROOT
HETATM    1  C6  UNL     1      21.122 -42.036  -7.904  1.00  0.00     0.098 C 
HETATM    2  N3  UNL     1      20.379 -41.357  -8.659  1.00  0.00    -0.387 N 
ATOM      3  H31 UNL     1      20.427 -40.339  -8.708  1.00  0.00     0.157 HD
ATOM      4  H32 UNL     1      19.688 -41.816  -9.252  1.00  0.00     0.157 HD
ENDROOT
BRANCH   1   5
HETATM    5  N2  UNL     1      21.056 -43.437  -7.837  1.00  0.00    -0.341 N 
HETATM    6  C4  UNL     1      21.733 -44.468  -8.670  1.00  0.00     0.182 C 
HETATM    7  C3  UNL     1      20.514 -45.290  -8.480  1.00  0.00     0.050 C 
HETATM    8  C16 UNL     1      20.480 -44.543  -7.127  1.00  0.00     0.192 C 
BRANCH   6   9
HETATM    9  C5  UNL     1      22.083 -43.986 -10.005  1.00  0.00     0.254 C 
HETATM   10  N1  UNL     1      23.424 -43.991 -10.443  1.00  0.00    -0.060 NA
HETATM   11  O1  UNL     1      21.224 -43.540 -10.832  1.00  0.00    -0.275 OA
ENDBRANCH   6   9
BRANCH   7  12
HETATM   12  C2  UNL     1      20.660 -46.763  -8.254  1.00  0.00     0.005 C 
HETATM   13  C1  UNL     1      20.077 -47.532  -9.389  1.00  0.00     0.005 C 
ENDBRANCH   7  12
BRANCH   8  14
HETATM   14  C17 UNL     1      19.120 -44.398  -6.590  1.00  0.00     0.282 C 
HETATM   15  O4  UNL     1      18.591 -43.276  -6.465  1.00  0.00    -0.263 OA
BRANCH  14  16
HETATM   16  O5  UNL     1      18.351 -45.486  -6.195  1.00  0.00    -0.325 OA
HETATM   17  C18 UNL     1      17.011 -45.350  -5.755  1.00  0.00     0.213 C 
ENDBRANCH  14  16
ENDBRANCH   8  14
ENDBRANCH   1   5
BRANCH   1  18
HETATM   18  C7  UNL     1      22.128 -41.368  -7.041  1.00  0.00     0.157 C 
BRANCH  18  19
HETATM   19  N4  UNL     1      21.481 -41.020  -5.809  1.00  0.00    -0.325 N 
HETATM   20  C8  UNL     1      20.845 -39.818  -5.506  1.00  0.00     0.362 C 
HETATM   21  O2  UNL     1      20.808 -38.913  -6.372  1.00  0.00    -0.238 OA
ATOM     22  H4  UNL     1      21.487 -41.729  -5.076  1.00  0.00     0.165 HD
BRANCH  20  23
HETATM   23  O3  UNL     1      20.256 -39.590  -4.290  1.00  0.00    -0.294 OA
BRANCH  23  24
HETATM   24  C9  UNL     1      18.876 -39.393  -4.081  1.00  0.00     0.061 C 
HETATM   25  C10 UNL     1      18.027 -40.150  -5.085  1.00  0.00     0.046 C 
HETATM   26  C11 UNL     1      18.543 -39.941  -2.709  1.00  0.00     0.046 C 
HETATM   27  C12 UNL     1      18.489 -37.939  -4.108  1.00  0.00     0.046 C 
ENDBRANCH  23  24
ENDBRANCH  20  23
ENDBRANCH  18  19
BRANCH  18  28
HETATM   28  C13 UNL     1      23.289 -42.286  -6.895  1.00  0.00     0.008 C 
HETATM   29  C14 UNL     1      24.587 -41.691  -7.395  1.00  0.00     0.012 C 
HETATM   30  C15 UNL     1      23.439 -42.766  -5.459  1.00  0.00     0.012 C 
ENDBRANCH  18  28
ENDBRANCH   1  18
TORSDOF 10
ENDMDL
MODEL 2
REMARK VINA RESULT: -7.137324673      2.608      7.383
REMARK  10 active torsions:
REMARK  status: ('A' for Active; 'I' for Inactive)
REMARK    1  A    between atoms: C2_2  and  C3_3 
REMARK    2  A    between atoms: C4_4  and  C5_5 
REMARK    3  A    between atoms: N2_8  and  C6_9 
REMARK    4  A    between atoms: C6_9  and  C7_13 
REMARK    5  A    between atoms: C7_13  and  N4_14 
REMARK    6  A    between atoms: C7_13  and  C13_23 
REMARK       I    between atoms: N4_14  and  C8_16 
REMARK    7  A    between atoms: C8_16  and  O3_18 
REMARK    8  A    between atoms: O3_18  and  C9_19 
REMARK    9  A    between atoms: C16_26  and  C17_27 
REMARK   10  A    between atoms: C17_27  and  O5_29 
ROOT
HETATM    1  C6  UNL     1      20.063 -43.822  -8.659  1.00  0.00     0.098 C 
HETATM    2  N3  UNL     1      19.603 -43.360  -9.737  1.00  0.00    -0.387 N 
ATOM      3  H31 UNL     1      18.946 -43.877 -10.320  1.00  0.00     0.157 HD
ATOM      4  H32 UNL     1      19.888 -42.438 -10.066  1.00  0.00     0.157 HD
ENDROOT
BRANCH   1   5
HETATM    5  N2  UNL     1      20.967 -43.109  -7.856  1.00  0.00    -0.341 N 
HETATM    6  C4  UNL     1      20.713 -42.098  -6.794  1.00  0.00     0.182 C 
HETATM    7  C3  UNL     1      21.973 -41.453  -7.234  1.00  0.00     0.050 C 
HETATM    8  C16 UNL     1      22.358 -42.915  -7.558  1.00  0.00     0.192 C 
BRANCH   6   9
HETATM    9  C5  UNL     1      19.441 -41.397  -6.964  1.00  0.00     0.254 C 
HETATM   10  N1  UNL     1      18.455 -41.443  -5.957  1.00  0.00    -0.060 NA
HETATM   11  O1  UNL     1      19.151 -40.722  -8.004  1.00  0.00    -0.275 OA
ENDBRANCH   6   9
BRANCH   7  12
HETATM   12  C2  UNL     1      22.901 -40.891  -6.201  1.00  0.00     0.005 C 
HETATM   13  C1  UNL     1      23.337 -39.517  -6.575  1.00  0.00     0.005 C 
ENDBRANCH   7  12
BRANCH   8  14
HETATM   14  C17 UNL     1      23.329 -43.020  -8.654  1.00  0.00     0.282 C 
HETATM   15  O4  UNL     1      24.266 -42.204  -8.767  1.00  0.00    -0.263 OA
BRANCH  14  16
HETATM   16  O5  UNL     1      23.266 -44.018  -9.619  1.00  0.00    -0.325 OA
HETATM   17  C18 UNL     1      22.995 -43.741 -10.983  1.00  0.00     0.213 C 
ENDBRANCH  14  16
ENDBRANCH   8  14
ENDBRANCH   1   5
BRANCH   1  18
HETATM   18  C7  UNL     1      19.649 -45.163  -8.180  1.00  0.00     0.157 C 
BRANCH  18  19
HETATM   19  N4  UNL     1      20.530 -46.127  -8.773  1.00  0.00    -0.325 N 
HETATM   20  C8  UNL     1      20.407 -46.713 -10.031  1.00  0.00     0.362 C 
HETATM   21  O2  UNL     1      19.439 -46.395 -10.760  1.00  0.00    -0.238 OA
ATOM     22  H4  UNL     1      21.333 -46.415  -8.213  1.00  0.00     0.165 HD
BRANCH  20  23
HETATM   23  O3  UNL     1      21.313 -47.629 -10.501  1.00  0.00    -0.294 OA
BRANCH  23  24
HETATM   24  C9  UNL     1      21.010 -48.958 -10.857  1.00  0.00     0.061 C 
HETATM   25  C10 UNL     1      19.951 -49.570  -9.959  1.00  0.00     0.046 C 
HETATM   26  C11 UNL     1      20.444 -48.932 -12.263  1.00  0.00     0.046 C 
HETATM   27  C12 UNL     1      22.224 -49.846 -10.861  1.00  0.00     0.046 C 
ENDBRANCH  23  24
ENDBRANCH  20  23
ENDBRANCH  18  19
BRANCH  18  28
HETATM   28  C13 UNL     1      19.661 -45.143  -6.693  1.00  0.00     0.008 C 
HETATM   29  C14 UNL     1      18.276 -45.099  -6.085  1.00  0.00     0.012 C 
HETATM   30  C15 UNL     1      20.456 -46.311  -6.130  1.00  0.00     0.012 C 
ENDBRANCH  18  28
ENDBRANCH   1  18
TORSDOF 10
ENDMDL
MODEL 3
REMARK VINA RESULT: -7.086990967      1.896      6.941
REMARK  10 active torsions:
REMARK  status: ('A' for Active; 'I' for Inactive)
REMARK    1  A    between atoms: C2_2  and  C3_3 
REMARK    2  A    between atoms: C4_4  and  C5_5 
REMARK    3  A    between atoms: N2_8  and  C6_9 
REMARK    4  A    between atoms: C6_9  and  C7_13 
REMARK    5  A    between atoms: C7_13  and  N4_14 
REMARK    6  A    between atoms: C7_13  and  C13_23 
REMARK       I    between atoms: N4_14  and  C8_16 
REMARK    7  A    between atoms: C8_16  and  O3_18 
REMARK    8  A    between atoms: O3_18  and  C9_19 
REMARK    9  A    between atoms: C16_26  and  C17_27 
REMARK   10  A    between atoms: C17_27  and  O5_29 
ROOT
HETATM    1  C6  UNL     1      20.556 -41.269  -7.261  1.00  0.00     0.098 C 
HETATM    2  N3  UNL     1      20.337 -40.911  -8.447  1.00  0.00    -0.387 N 
ATOM      3  H31 UNL     1      20.539 -41.510  -9.248  1.00  0.00     0.157 HD
ATOM      4  H32 UNL     1      19.948 -39.989  -8.646  1.00  0.00     0.157 HD
ENDROOT
BRANCH   1   5
HETATM    5  N2  UNL     1      20.277 -40.444  -6.159  1.00  0.00    -0.341 N 
HETATM    6  C4  UNL     1      19.025 -40.297  -5.367  1.00  0.00     0.182 C 
HETATM    7  C3  UNL     1      19.404 -38.873  -5.206  1.00  0.00     0.050 C 
HETATM    8  C16 UNL     1      20.830 -39.466  -5.266  1.00  0.00     0.192 C 
BRANCH   6   9
HETATM    9  C5  UNL     1      17.824 -40.648  -6.123  1.00  0.00     0.254 C 
HETATM   10  N1  UNL     1      16.987 -41.699  -5.694  1.00  0.00    -0.060 NA
HETATM   11  O1  UNL     1      17.471 -40.046  -7.188  1.00  0.00    -0.275 OA
ENDBRANCH   6   9
BRANCH   7  12
HETATM   12  C2  UNL     1      19.177 -38.206  -3.884  1.00  0.00     0.005 C 
HETATM   13  C1  UNL     1      17.852 -37.526  -3.856  1.00  0.00     0.005 C 
ENDBRANCH   7  12
BRANCH   8  14
HETATM   14  C17 UNL     1      21.820 -38.518  -5.794  1.00  0.00     0.282 C 
HETATM   15  O4  UNL     1      22.660 -37.978  -5.047  1.00  0.00    -0.263 OA
BRANCH  14  16
HETATM   16  O5  UNL     1      21.881 -38.169  -7.138  1.00  0.00    -0.325 OA
HETATM   17  C18 UNL     1      23.079 -38.249  -7.890  1.00  0.00     0.213 C 
ENDBRANCH  14  16
ENDBRANCH   8  14
ENDBRANCH   1   5
BRANCH   1  18
HETATM   18  C7  UNL     1      21.121 -42.610  -6.972  1.00  0.00     0.157 C 
BRANCH  18  19
HETATM   19  N4  UNL     1      20.525 -43.539  -7.888  1.00  0.00    -0.325 N 
HETATM   20  C8  UNL     1      20.186 -44.866  -7.633  1.00  0.00     0.362 C 
HETATM   21  O2  UNL     1      20.408 -45.344  -6.496  1.00  0.00    -0.238 OA
ATOM     22  H4  UNL     1      20.328 -43.191  -8.826  1.00  0.00     0.165 HD
BRANCH  20  23
HETATM   23  O3  UNL     1      19.617 -45.670  -8.586  1.00  0.00    -0.294 OA
BRANCH  23  24
HETATM   24  C9  UNL     1      20.325 -46.528  -9.451  1.00  0.00     0.061 C 
HETATM   25  C10 UNL     1      20.621 -47.873  -8.815  1.00  0.00     0.046 C 
HETATM   26  C11 UNL     1      19.443 -46.786 -10.655  1.00  0.00     0.046 C 
HETATM   27  C12 UNL     1      21.613 -45.922  -9.940  1.00  0.00     0.046 C 
ENDBRANCH  23  24
ENDBRANCH  20  23
ENDBRANCH  18  19
BRANCH  18  28
HETATM   28  C13 UNL     1      22.603 -42.512  -7.065  1.00  0.00     0.008 C 
HETATM   29  C14 UNL     1      23.318 -43.158  -5.898  1.00  0.00     0.012 C 
HETATM   30  C15 UNL     1      23.114 -43.074  -8.383  1.00  0.00     0.012 C 
ENDBRANCH  18  28
ENDBRANCH   1  18
TORSDOF 10
ENDMDL
MODEL 4
REMARK VINA RESULT: -7.052705165      2.432      5.662
REMARK  10 active torsions:
REMARK  status: ('A' for Active; 'I' for Inactive)
REMARK    1  A    between atoms: C2_2  and  C3_3 
REMARK    2  A    between atoms: C4_4  and  C5_5 
REMARK    3  A    between atoms: N2_8  and  C6_9 
REMARK    4  A    between atoms: C6_9  and  C7_13 
REMARK    5  A    between atoms: C7_13  and  N4_14 
REMARK    6  A    between atoms: C7_13  and  C13_23 
REMARK       I    between atoms: N4_14  and  C8_16 
REMARK    7  A    between atoms: C8_16  and  O3_18 
REMARK    8  A    between atoms: O3_18  and  C9_19 
REMARK    9  A    between atoms: C16_26  and  C17_27 
REMARK   10  A    between atoms: C17_27  and  O5_29 
ROOT
HETATM    1  C6  UNL     1      20.733 -41.376  -7.274  1.00  0.00     0.098 C 
HETATM    2  N3  UNL     1      20.362 -41.001  -8.416  1.00  0.00    -0.387 N 
ATOM      3  H31 UNL     1      19.523 -41.364  -8.868  1.00  0.00     0.157 HD
ATOM      4  H32 UNL     1      20.905 -40.311  -8.935  1.00  0.00     0.157 HD
ENDROOT
BRANCH   1   5
HETATM    5  N2  UNL     1      21.888 -40.875  -6.651  1.00  0.00    -0.341 N 
HETATM    6  C4  UNL     1      22.037 -39.794  -5.639  1.00  0.00     0.182 C 
HETATM    7  C3  UNL     1      23.334 -39.490  -6.289  1.00  0.00     0.050 C 
HETATM    8  C16 UNL     1      23.314 -41.013  -6.557  1.00  0.00     0.192 C 
BRANCH   6   9
HETATM    9  C5  UNL     1      20.954 -38.813  -5.686  1.00  0.00     0.254 C 
HETATM   10  N1  UNL     1      20.214 -38.504  -4.525  1.00  0.00    -0.060 NA
HETATM   11  O1  UNL     1      20.618 -38.196  -6.747  1.00  0.00    -0.275 OA
ENDBRANCH   6   9
BRANCH   7  12
HETATM   12  C2  UNL     1      24.509 -39.132  -5.432  1.00  0.00     0.005 C 
HETATM   13  C1  UNL     1      24.941 -37.729  -5.687  1.00  0.00     0.005 C 
ENDBRANCH   7  12
BRANCH   8  14
HETATM   14  C17 UNL     1      24.061 -41.389  -7.764  1.00  0.00     0.282 C 
HETATM   15  O4  UNL     1      25.305 -41.306  -7.806  1.00  0.00    -0.263 OA
BRANCH  14  16
HETATM   16  O5  UNL     1      23.439 -41.852  -8.917  1.00  0.00    -0.325 OA
HETATM   17  C18 UNL     1      23.701 -43.135  -9.460  1.00  0.00     0.213 C 
ENDBRANCH  14  16
ENDBRANCH   8  14
ENDBRANCH   1   5
BRANCH   1  18
HETATM   18  C7  UNL     1      19.943 -42.379  -6.519  1.00  0.00     0.157 C 
BRANCH  18  19
HETATM   19  N4  UNL     1      18.561 -42.007  -6.618  1.00  0.00    -0.325 N 
HETATM   20  C8  UNL     1      17.761 -41.477  -5.607  1.00  0.00     0.362 C 
HETATM   21  O2  UNL     1      18.258 -41.288  -4.473  1.00  0.00    -0.238 OA
ATOM     22  H4  UNL     1      18.116 -42.145  -7.525  1.00  0.00     0.165 HD
BRANCH  20  23
HETATM   23  O3  UNL     1      16.445 -41.155  -5.812  1.00  0.00    -0.294 OA
BRANCH  23  24
HETATM   24  C9  UNL     1      15.961 -39.863  -6.097  1.00  0.00     0.061 C 
HETATM   25  C10 UNL     1      17.073 -38.832  -6.163  1.00  0.00     0.046 C 
HETATM   26  C11 UNL     1      15.316 -39.914  -7.467  1.00  0.00     0.046 C 
HETATM   27  C12 UNL     1      14.923 -39.403  -5.111  1.00  0.00     0.046 C 
ENDBRANCH  23  24
ENDBRANCH  20  23
ENDBRANCH  18  19
BRANCH  18  28
HETATM   28  C13 UNL     1      20.263 -43.724  -7.067  1.00  0.00     0.008 C 
HETATM   29  C14 UNL     1      21.625 -44.232  -6.645  1.00  0.00     0.012 C 
HETATM   30  C15 UNL     1      19.183 -44.737  -6.720  1.00  0.00     0.012 C 
ENDBRANCH  18  28
ENDBRANCH   1  18
TORSDOF 10
ENDMDL
MODEL 5
REMARK VINA RESULT: -7.050457380      2.012      6.792
REMARK  10 active torsions:
REMARK  status: ('A' for Active; 'I' for Inactive)
REMARK    1  A    between atoms: C2_2  and  C3_3 
REMARK    2  A    between atoms: C4_4  and  C5_5 
REMARK    3  A    between atoms: N2_8  and  C6_9 
REMARK    4  A    between atoms: C6_9  and  C7_13 
REMARK    5  A    between atoms: C7_13  and  N4_14 
REMARK    6  A    between atoms: C7_13  and  C13_23 
REMARK       I    between atoms: N4_14  and  C8_16 
REMARK    7  A    between atoms: C8_16  and  O3_18 
REMARK    8  A    between atoms: O3_18  and  C9_19 
REMARK    9  A    between atoms: C16_26  and  C17_27 
REMARK   10  A    between atoms: C17_27  and  O5_29 
ROOT
HETATM    1  C6  UNL     1      21.047 -41.340  -7.068  1.00  0.00     0.098 C 
HETATM    2  N3  UNL     1      20.773 -41.173  -8.285  1.00  0.00    -0.387 N 
ATOM      3  H31 UNL     1      21.041 -41.843  -9.005  1.00  0.00     0.157 HD
ATOM      4  H32 UNL     1      20.269 -40.342  -8.592  1.00  0.00     0.157 HD
ENDROOT
BRANCH   1   5
HETATM    5  N2  UNL     1      20.677 -40.417  -6.076  1.00  0.00    -0.341 N 
HETATM    6  C4  UNL     1      19.380 -40.244  -5.366  1.00  0.00     0.182 C 
HETATM    7  C3  UNL     1      19.692 -38.795  -5.342  1.00  0.00     0.050 C 
HETATM    8  C16 UNL     1      21.143 -39.326  -5.269  1.00  0.00     0.192 C 
BRANCH   6   9
HETATM    9  C5  UNL     1      18.236 -40.727  -6.137  1.00  0.00     0.254 C 
HETATM   10  N1  UNL     1      17.493 -41.843  -5.698  1.00  0.00    -0.060 NA
HETATM   11  O1  UNL     1      17.851 -40.189  -7.225  1.00  0.00    -0.275 OA
ENDBRANCH   6   9
BRANCH   7  12
HETATM   12  C2  UNL     1      19.369 -38.003  -4.112  1.00  0.00     0.005 C 
HETATM   13  C1  UNL     1      17.942 -37.576  -4.119  1.00  0.00     0.005 C 
ENDBRANCH   7  12
BRANCH   8  14
HETATM   14  C17 UNL     1      22.120 -38.395  -5.847  1.00  0.00     0.282 C 
HETATM   15  O4  UNL     1      23.009 -37.872  -5.145  1.00  0.00    -0.263 OA
BRANCH  14  16
HETATM   16  O5  UNL     1      22.115 -38.043  -7.192  1.00  0.00    -0.325 OA
HETATM   17  C18 UNL     1      23.258 -38.184  -8.018  1.00  0.00     0.213 C 
ENDBRANCH  14  16
ENDBRANCH   8  14
ENDBRANCH   1   5
BRANCH   1  18
HETATM   18  C7  UNL     1      21.780 -42.550  -6.622  1.00  0.00     0.157 C 
BRANCH  18  19
HETATM   19  N4  UNL     1      21.590 -43.565  -7.617  1.00  0.00    -0.325 N 
HETATM   20  C8  UNL     1      21.239 -44.896  -7.400  1.00  0.00     0.362 C 
HETATM   21  O2  UNL     1      21.061 -45.296  -6.226  1.00  0.00    -0.238 OA
ATOM     22  H4  UNL     1      21.725 -43.282  -8.587  1.00  0.00     0.165 HD
BRANCH  20  23
HETATM   23  O3  UNL     1      21.082 -45.787  -8.430  1.00  0.00    -0.294 OA
BRANCH  23  24
HETATM   24  C9  UNL     1      21.047 -45.447  -9.797  1.00  0.00     0.061 C 
HETATM   25  C10 UNL     1      22.388 -44.950 -10.303  1.00  0.00     0.046 C 
HETATM   26  C11 UNL     1      20.717 -46.709 -10.568  1.00  0.00     0.046 C 
HETATM   27  C12 UNL     1      19.992 -44.422 -10.111  1.00  0.00     0.046 C 
ENDBRANCH  23  24
ENDBRANCH  20  23
ENDBRANCH  18  19
BRANCH  18  28
HETATM   28  C13 UNL     1      23.199 -42.167  -6.390  1.00  0.00     0.008 C 
HETATM   29  C14 UNL     1      23.918 -43.091  -5.431  1.00  0.00     0.012 C 
HETATM   30  C15 UNL     1      23.964 -42.056  -7.700  1.00  0.00     0.012 C 
ENDBRANCH  18  28
ENDBRANCH   1  18
TORSDOF 10
ENDMDL
