MODEL 1
REMARK VINA RESULT: -9.519853372      0.000      0.000
REMARK  10 active torsions:
REMARK  status: ('A' for Active; 'I' for Inactive)
REMARK    1  A    between atoms: C2_2  and  O1_3 
REMARK    2  A    between atoms: C3_5  and  C4_6 
REMARK    3  A    between atoms: C4_6  and  C5_7 
REMARK    4  A    between atoms: C5_7  and  C7_9 
REMARK    5  A    between atoms: C7_9  and  O2_10 
REMARK    6  A    between atoms: C7_9  and  C8_12 
REMARK    7  A    between atoms: C8_12  and  O3_13 
REMARK    8  A    between atoms: C8_12  and  C9_15 
REMARK    9  A    between atoms: C12_21  and  C13_22 
REMARK   10  A    between atoms: C14_23  and  C15_24 
ROOT
HETATM    1  C9  UNL     1      20.484 -47.689  -9.736  1.00  0.00     0.228 A 
HETATM    2  O4  UNL     1      19.551 -48.837  -9.862  1.00  0.00    -0.332 OA
HETATM    3  C10 UNL     1      20.920 -48.980 -10.072  1.00  0.00     0.272 A 
HETATM    4  O5  UNL     1      21.539 -49.822  -9.099  1.00  0.00    -0.271 OA
HETATM    5  C11 UNL     1      22.055 -51.070  -9.413  1.00  0.00     0.277 C 
HETATM    6  O6  UNL     1      21.766 -52.128  -8.790  1.00  0.00    -0.264 OA
HETATM    7  C12 UNL     1      22.997 -51.188 -10.540  1.00  0.00     0.186 C 
HETATM    8  C18 UNL     1      22.635 -50.174 -11.562  1.00  0.00     0.217 C 
HETATM    9  O7  UNL     1      23.414 -49.979 -12.530  1.00  0.00    -0.288 OA
HETATM   10  C19 UNL     1      21.388 -49.448 -11.395  1.00  0.00     0.261 C 
HETATM   11  O8  UNL     1      20.704 -49.223 -12.431  1.00  0.00    -0.283 OA
ENDROOT
BRANCH   1  12
HETATM   12  C8  UNL     1      20.150 -46.620 -10.721  1.00  0.00     0.182 C 
BRANCH  12  13
HETATM   13  C7  UNL     1      20.512 -45.267 -10.116  1.00  0.00     0.153 C 
BRANCH  13  14
HETATM   14  C5  UNL     1      20.778 -45.342  -8.638  1.00  0.00     0.016 C 
HETATM   15  C6  UNL     1      19.674 -44.724  -7.839  1.00  0.00     0.013 C 
BRANCH  14  16
HETATM   16  C4  UNL     1      22.052 -44.558  -8.378  1.00  0.00     0.036 C 
BRANCH  16  17
HETATM   17  C3  UNL     1      22.607 -44.137  -9.682  1.00  0.00     0.005 C 
HETATM   18  C2  UNL     1      23.467 -43.162  -9.743  1.00  0.00     0.035 C 
HETATM   19  C1  UNL     1      23.893 -42.468  -8.513  1.00  0.00     0.075 C 
BRANCH  18  20
HETATM   20  O1  UNL     1      23.990 -42.763 -10.954  1.00  0.00    -0.366 OA
ATOM     21  H1  UNL     1      24.601 -43.335 -11.403  1.00  0.00     0.217 HD
ENDBRANCH  18  20
ENDBRANCH  16  17
ENDBRANCH  14  16
ENDBRANCH  13  14
BRANCH  13  22
HETATM   22  O2  UNL     1      19.525 -44.353 -10.390  1.00  0.00    -0.393 OA
ATOM     23  H2  UNL     1      18.860 -44.731 -10.953  1.00  0.00     0.210 HD
ENDBRANCH  13  22
ENDBRANCH  12  13
BRANCH  12  24
HETATM   24  O3  UNL     1      18.789 -46.556 -11.012  1.00  0.00    -0.390 OA
ATOM     25  H3  UNL     1      18.364 -47.145 -10.399  1.00  0.00     0.210 HD
ENDBRANCH  12  24
ENDBRANCH   1  12
BRANCH   7  26
HETATM   26  C13 UNL     1      24.405 -51.092 -10.137  1.00  0.00    -0.008 C 
HETATM   27  C14 UNL     1      25.341 -51.859 -10.645  1.00  0.00    -0.026 C 
BRANCH  27  28
HETATM   28  C15 UNL     1      26.773 -51.792 -10.264  1.00  0.00    -0.001 C 
HETATM   29  C16 UNL     1      27.682 -51.672 -11.465  1.00  0.00     0.013 C 
HETATM   30  C17 UNL     1      27.069 -50.696  -9.282  1.00  0.00     0.013 C 
ENDBRANCH  27  28
ENDBRANCH   7  26
TORSDOF 10
ENDMDL
MODEL 2
REMARK VINA RESULT: -9.383355324      1.098      1.228
REMARK  10 active torsions:
REMARK  status: ('A' for Active; 'I' for Inactive)
REMARK    1  A    between atoms: C2_2  and  O1_3 
REMARK    2  A    between atoms: C3_5  and  C4_6 
REMARK    3  A    between atoms: C4_6  and  C5_7 
REMARK    4  A    between atoms: C5_7  and  C7_9 
REMARK    5  A    between atoms: C7_9  and  O2_10 
REMARK    6  A    between atoms: C7_9  and  C8_12 
REMARK    7  A    between atoms: C8_12  and  O3_13 
REMARK    8  A    between atoms: C8_12  and  C9_15 
REMARK    9  A    between atoms: C12_21  and  C13_22 
REMARK   10  A    between atoms: C14_23  and  C15_24 
ROOT
HETATM    1  C9  UNL     1      20.449 -47.751  -9.814  1.00  0.00     0.228 A 
HETATM    2  O4  UNL     1      19.552 -48.932  -9.887  1.00  0.00    -0.332 OA
HETATM    3  C10 UNL     1      20.919 -49.035 -10.134  1.00  0.00     0.272 A 
HETATM    4  O5  UNL     1      21.593 -49.833  -9.161  1.00  0.00    -0.271 OA
HETATM    5  C11 UNL     1      22.142 -51.070  -9.462  1.00  0.00     0.277 C 
HETATM    6  O6  UNL     1      21.906 -52.122  -8.807  1.00  0.00    -0.264 OA
HETATM    7  C12 UNL     1      23.055 -51.183 -10.613  1.00  0.00     0.186 C 
HETATM    8  C18 UNL     1      22.631 -50.206 -11.646  1.00  0.00     0.217 C 
HETATM    9  O7  UNL     1      23.375 -50.008 -12.641  1.00  0.00    -0.288 OA
HETATM   10  C19 UNL     1      21.365 -49.518 -11.459  1.00  0.00     0.261 C 
HETATM   11  O8  UNL     1      20.645 -49.339 -12.479  1.00  0.00    -0.283 OA
ENDROOT
BRANCH   1  12
HETATM   12  C8  UNL     1      20.052 -46.717 -10.813  1.00  0.00     0.182 C 
BRANCH  12  13
HETATM   13  C7  UNL     1      20.506 -45.351 -10.309  1.00  0.00     0.153 C 
BRANCH  13  14
HETATM   14  C5  UNL     1      21.016 -45.391  -8.895  1.00  0.00     0.016 C 
HETATM   15  C6  UNL     1      19.959 -45.006  -7.908  1.00  0.00     0.013 C 
BRANCH  14  16
HETATM   16  C4  UNL     1      22.145 -44.380  -8.804  1.00  0.00     0.036 C 
BRANCH  16  17
HETATM   17  C3  UNL     1      22.168 -43.837  -7.429  1.00  0.00     0.005 C 
HETATM   18  C2  UNL     1      22.965 -42.854  -7.127  1.00  0.00     0.035 C 
HETATM   19  C1  UNL     1      23.853 -42.274  -8.153  1.00  0.00     0.075 C 
BRANCH  18  20
HETATM   20  O1  UNL     1      22.992 -42.341  -5.849  1.00  0.00    -0.366 OA
ATOM     21  H1  UNL     1      22.297 -42.570  -5.244  1.00  0.00     0.217 HD
ENDBRANCH  18  20
ENDBRANCH  16  17
ENDBRANCH  14  16
ENDBRANCH  13  14
BRANCH  13  22
HETATM   22  O2  UNL     1      19.484 -44.442 -10.436  1.00  0.00    -0.393 OA
ATOM     23  H2  UNL     1      19.495 -43.819  -9.719  1.00  0.00     0.210 HD
ENDBRANCH  13  22
ENDBRANCH  12  13
BRANCH  12  24
HETATM   24  O3  UNL     1      18.671 -46.624 -10.977  1.00  0.00    -0.390 OA
ATOM     25  H3  UNL     1      18.531 -45.926 -11.607  1.00  0.00     0.210 HD
ENDBRANCH  12  24
ENDBRANCH   1  12
BRANCH   7  26
HETATM   26  C13 UNL     1      24.470 -51.031 -10.253  1.00  0.00    -0.008 C 
HETATM   27  C14 UNL     1      25.389 -51.897 -10.612  1.00  0.00    -0.026 C 
BRANCH  27  28
HETATM   28  C15 UNL     1      26.826 -51.779 -10.269  1.00  0.00    -0.001 C 
HETATM   29  C16 UNL     1      27.704 -51.683 -11.495  1.00  0.00     0.013 C 
HETATM   30  C17 UNL     1      27.116 -50.637  -9.338  1.00  0.00     0.013 C 
ENDBRANCH  27  28
ENDBRANCH   7  26
TORSDOF 10
ENDMDL
MODEL 3
REMARK VINA RESULT: -9.286029963      0.931      1.124
REMARK  10 active torsions:
REMARK  status: ('A' for Active; 'I' for Inactive)
REMARK    1  A    between atoms: C2_2  and  O1_3 
REMARK    2  A    between atoms: C3_5  and  C4_6 
REMARK    3  A    between atoms: C4_6  and  C5_7 
REMARK    4  A    between atoms: C5_7  and  C7_9 
REMARK    5  A    between atoms: C7_9  and  O2_10 
REMARK    6  A    between atoms: C7_9  and  C8_12 
REMARK    7  A    between atoms: C8_12  and  O3_13 
REMARK    8  A    between atoms: C8_12  and  C9_15 
REMARK    9  A    between atoms: C12_21  and  C13_22 
REMARK   10  A    between atoms: C14_23  and  C15_24 
ROOT
HETATM    1  C9  UNL     1      20.312 -47.282  -9.618  1.00  0.00     0.228 A 
HETATM    2  O4  UNL     1      19.163 -48.205  -9.789  1.00  0.00    -0.332 OA
HETATM    3  C10 UNL     1      20.473 -48.619 -10.013  1.00  0.00     0.272 A 
HETATM    4  O5  UNL     1      20.901 -49.613  -9.083  1.00  0.00    -0.271 OA
HETATM    5  C11 UNL     1      21.148 -50.926  -9.455  1.00  0.00     0.277 C 
HETATM    6  O6  UNL     1      20.644 -51.928  -8.878  1.00  0.00    -0.264 OA
HETATM    7  C12 UNL     1      22.049 -51.185 -10.591  1.00  0.00     0.186 C 
HETATM    8  C18 UNL     1      21.909 -50.074 -11.565  1.00  0.00     0.217 C 
HETATM    9  O7  UNL     1      22.715 -50.001 -12.528  1.00  0.00    -0.288 OA
HETATM   10  C19 UNL     1      20.839 -49.114 -11.359  1.00  0.00     0.261 C 
HETATM   11  O8  UNL     1      20.220 -48.706 -12.379  1.00  0.00    -0.283 OA
ENDROOT
BRANCH   1  12
HETATM   12  C8  UNL     1      20.211 -46.124 -10.553  1.00  0.00     0.182 C 
BRANCH  12  13
HETATM   13  C7  UNL     1      20.488 -44.842  -9.775  1.00  0.00     0.153 C 
BRANCH  13  14
HETATM   14  C5  UNL     1      20.794 -45.094  -8.324  1.00  0.00     0.016 C 
HETATM   15  C6  UNL     1      19.673 -44.664  -7.432  1.00  0.00     0.013 C 
BRANCH  14  16
HETATM   16  C4  UNL     1      22.021 -44.268  -7.982  1.00  0.00     0.036 C 
BRANCH  16  17
HETATM   17  C3  UNL     1      22.729 -43.952  -9.241  1.00  0.00     0.005 C 
HETATM   18  C2  UNL     1      23.591 -42.978  -9.280  1.00  0.00     0.035 C 
HETATM   19  C1  UNL     1      23.868 -42.180  -8.070  1.00  0.00     0.075 C 
BRANCH  18  20
HETATM   20  O1  UNL     1      24.256 -42.677 -10.448  1.00  0.00    -0.366 OA
ATOM     21  H1  UNL     1      24.818 -43.333 -10.841  1.00  0.00     0.217 HD
ENDBRANCH  18  20
ENDBRANCH  16  17
ENDBRANCH  14  16
ENDBRANCH  13  14
BRANCH  13  22
HETATM   22  O2  UNL     1      19.430 -43.975  -9.908  1.00  0.00    -0.393 OA
ATOM     23  H2  UNL     1      18.653 -44.433 -10.207  1.00  0.00     0.210 HD
ENDBRANCH  13  22
ENDBRANCH  12  13
BRANCH  12  24
HETATM   24  O3  UNL     1      18.935 -45.974 -11.094  1.00  0.00    -0.390 OA
ATOM     25  H3  UNL     1      18.585 -46.853 -11.183  1.00  0.00     0.210 HD
ENDBRANCH  12  24
ENDBRANCH   1  12
BRANCH   7  26
HETATM   26  C13 UNL     1      23.446 -51.401 -10.192  1.00  0.00    -0.008 C 
HETATM   27  C14 UNL     1      23.812 -51.533  -8.938  1.00  0.00    -0.026 C 
BRANCH  27  28
HETATM   28  C15 UNL     1      25.210 -51.753  -8.497  1.00  0.00    -0.001 C 
HETATM   29  C16 UNL     1      26.215 -51.386  -9.565  1.00  0.00     0.013 C 
HETATM   30  C17 UNL     1      25.540 -51.045  -7.215  1.00  0.00     0.013 C 
ENDBRANCH  27  28
ENDBRANCH   7  26
TORSDOF 10
ENDMDL
MODEL 4
REMARK VINA RESULT: -9.206270642      1.427      1.689
REMARK  10 active torsions:
REMARK  status: ('A' for Active; 'I' for Inactive)
REMARK    1  A    between atoms: C2_2  and  O1_3 
REMARK    2  A    between atoms: C3_5  and  C4_6 
REMARK    3  A    between atoms: C4_6  and  C5_7 
REMARK    4  A    between atoms: C5_7  and  C7_9 
REMARK    5  A    between atoms: C7_9  and  O2_10 
REMARK    6  A    between atoms: C7_9  and  C8_12 
REMARK    7  A    between atoms: C8_12  and  O3_13 
REMARK    8  A    between atoms: C8_12  and  C9_15 
REMARK    9  A    between atoms: C12_21  and  C13_22 
REMARK   10  A    between atoms: C14_23  and  C15_24 
ROOT
HETATM    1  C9  UNL     1      20.528 -47.439  -9.737  1.00  0.00     0.228 A 
HETATM    2  O4  UNL     1      19.351 -48.296 -10.022  1.00  0.00    -0.332 OA
HETATM    3  C10 UNL     1      20.652 -48.772 -10.158  1.00  0.00     0.272 A 
HETATM    4  O5  UNL     1      20.957 -49.810  -9.227  1.00  0.00    -0.271 OA
HETATM    5  C11 UNL     1      21.166 -51.125  -9.618  1.00  0.00     0.277 C 
HETATM    6  O6  UNL     1      20.569 -52.113  -9.111  1.00  0.00    -0.264 OA
HETATM    7  C12 UNL     1      22.139 -51.401 -10.690  1.00  0.00     0.186 C 
HETATM    8  C18 UNL     1      22.130 -50.260 -11.638  1.00  0.00     0.217 C 
HETATM    9  O7  UNL     1      23.011 -50.205 -12.534  1.00  0.00    -0.288 OA
HETATM   10  C19 UNL     1      21.096 -49.251 -11.486  1.00  0.00     0.261 C 
HETATM   11  O8  UNL     1      20.580 -48.785 -12.538  1.00  0.00    -0.283 OA
ENDROOT
BRANCH   1  12
HETATM   12  C8  UNL     1      20.558 -46.254 -10.642  1.00  0.00     0.182 C 
BRANCH  12  13
HETATM   13  C7  UNL     1      21.591 -45.262 -10.116  1.00  0.00     0.153 C 
BRANCH  13  14
HETATM   14  C5  UNL     1      21.007 -44.272  -9.146  1.00  0.00     0.016 C 
HETATM   15  C6  UNL     1      20.764 -42.941  -9.784  1.00  0.00     0.013 C 
BRANCH  14  16
HETATM   16  C4  UNL     1      22.026 -44.090  -8.035  1.00  0.00     0.036 C 
BRANCH  16  17
HETATM   17  C3  UNL     1      22.971 -43.030  -8.446  1.00  0.00     0.005 C 
HETATM   18  C2  UNL     1      23.702 -42.425  -7.556  1.00  0.00     0.035 C 
HETATM   19  C1  UNL     1      23.594 -42.790  -6.130  1.00  0.00     0.075 C 
BRANCH  18  20
HETATM   20  O1  UNL     1      24.585 -41.436  -7.929  1.00  0.00    -0.366 OA
ATOM     21  H1  UNL     1      25.147 -41.578  -8.681  1.00  0.00     0.217 HD
ENDBRANCH  18  20
ENDBRANCH  16  17
ENDBRANCH  14  16
ENDBRANCH  13  14
BRANCH  13  22
HETATM   22  O2  UNL     1      22.199 -44.619 -11.166  1.00  0.00    -0.393 OA
ATOM     23  H2  UNL     1      21.847 -44.918 -11.996  1.00  0.00     0.210 HD
ENDBRANCH  13  22
ENDBRANCH  12  13
BRANCH  12  24
HETATM   24  O3  UNL     1      19.347 -45.564 -10.672  1.00  0.00    -0.390 OA
ATOM     25  H3  UNL     1      19.334 -45.027  -9.888  1.00  0.00     0.210 HD
ENDBRANCH  12  24
ENDBRANCH   1  12
BRANCH   7  26
HETATM   26  C13 UNL     1      23.487 -51.700 -10.192  1.00  0.00    -0.008 C 
HETATM   27  C14 UNL     1      23.885 -51.374  -8.984  1.00  0.00    -0.026 C 
BRANCH  27  28
HETATM   28  C15 UNL     1      25.237 -51.659  -8.446  1.00  0.00    -0.001 C 
HETATM   29  C16 UNL     1      26.334 -51.205  -9.380  1.00  0.00     0.013 C 
HETATM   30  C17 UNL     1      25.457 -51.087  -7.075  1.00  0.00     0.013 C 
ENDBRANCH  27  28
ENDBRANCH   7  26
TORSDOF 10
ENDMDL
MODEL 5
REMARK VINA RESULT: -9.096066662      1.416      1.876
REMARK  10 active torsions:
REMARK  status: ('A' for Active; 'I' for Inactive)
REMARK    1  A    between atoms: C2_2  and  O1_3 
REMARK    2  A    between atoms: C3_5  and  C4_6 
REMARK    3  A    between atoms: C4_6  and  C5_7 
REMARK    4  A    between atoms: C5_7  and  C7_9 
REMARK    5  A    between atoms: C7_9  and  O2_10 
REMARK    6  A    between atoms: C7_9  and  C8_12 
REMARK    7  A    between atoms: C8_12  and  O3_13 
REMARK    8  A    between atoms: C8_12  and  C9_15 
REMARK    9  A    between atoms: C12_21  and  C13_22 
REMARK   10  A    between atoms: C14_23  and  C15_24 
ROOT
HETATM    1  C9  UNL     1      20.781 -47.412  -9.248  1.00  0.00     0.228 A 
HETATM    2  O4  UNL     1      19.513 -48.118  -9.556  1.00  0.00    -0.332 OA
HETATM    3  C10 UNL     1      20.753 -48.698  -9.811  1.00  0.00     0.272 A 
HETATM    4  O5  UNL     1      20.992 -49.855  -9.011  1.00  0.00    -0.271 OA
HETATM    5  C11 UNL     1      21.052 -51.133  -9.545  1.00  0.00     0.277 C 
HETATM    6  O6  UNL     1      20.382 -52.109  -9.112  1.00  0.00    -0.264 OA
HETATM    7  C12 UNL     1      21.944 -51.383 -10.691  1.00  0.00     0.186 C 
HETATM    8  C18 UNL     1      22.008 -50.150 -11.515  1.00  0.00     0.217 C 
HETATM    9  O7  UNL     1      22.850 -50.082 -12.447  1.00  0.00    -0.288 OA
HETATM   10  C19 UNL     1      21.088 -49.070 -11.203  1.00  0.00     0.261 C 
HETATM   11  O8  UNL     1      20.575 -48.446 -12.172  1.00  0.00    -0.283 OA
ENDROOT
BRANCH   1  12
HETATM   12  C8  UNL     1      20.889 -46.144 -10.026  1.00  0.00     0.182 C 
BRANCH  12  13
HETATM   13  C7  UNL     1      20.889 -44.971  -9.052  1.00  0.00     0.153 C 
BRANCH  13  14
HETATM   14  C5  UNL     1      21.914 -43.926  -9.397  1.00  0.00     0.016 C 
HETATM   15  C6  UNL     1      22.967 -44.457 -10.317  1.00  0.00     0.013 C 
BRANCH  14  16
HETATM   16  C4  UNL     1      22.581 -43.515  -8.095  1.00  0.00     0.036 C 
BRANCH  16  17
HETATM   17  C3  UNL     1      23.544 -42.434  -8.393  1.00  0.00     0.005 C 
HETATM   18  C2  UNL     1      24.296 -41.950  -7.448  1.00  0.00     0.035 C 
HETATM   19  C1  UNL     1      24.193 -42.474  -6.073  1.00  0.00     0.075 C 
BRANCH  18  20
HETATM   20  O1  UNL     1      25.197 -40.943  -7.716  1.00  0.00    -0.366 OA
ATOM     21  H1  UNL     1      24.872 -40.074  -7.921  1.00  0.00     0.217 HD
ENDBRANCH  18  20
ENDBRANCH  16  17
ENDBRANCH  14  16
ENDBRANCH  13  14
BRANCH  13  22
HETATM   22  O2  UNL     1      21.069 -45.428  -7.769  1.00  0.00    -0.393 OA
ATOM     23  H2  UNL     1      20.405 -46.068  -7.542  1.00  0.00     0.210 HD
ENDBRANCH  13  22
ENDBRANCH  12  13
BRANCH  12  24
HETATM   24  O3  UNL     1      19.804 -45.935 -10.876  1.00  0.00    -0.390 OA
ATOM     25  H3  UNL     1      19.051 -46.309 -10.432  1.00  0.00     0.210 HD
ENDBRANCH  12  24
ENDBRANCH   1  12
BRANCH   7  26
HETATM   26  C13 UNL     1      23.276 -51.860 -10.301  1.00  0.00    -0.008 C 
HETATM   27  C14 UNL     1      24.013 -51.248  -9.403  1.00  0.00    -0.026 C 
BRANCH  27  28
HETATM   28  C15 UNL     1      25.362 -51.699  -8.982  1.00  0.00    -0.001 C 
HETATM   29  C16 UNL     1      26.373 -51.609 -10.101  1.00  0.00     0.013 C 
HETATM   30  C17 UNL     1      25.871 -50.978  -7.768  1.00  0.00     0.013 C 
ENDBRANCH  27  28
ENDBRANCH   7  26
TORSDOF 10
ENDMDL
