MODEL 1
REMARK VINA RESULT: -6.505127411      0.000      0.000
REMARK  6 active torsions:
REMARK  status: ('A' for Active; 'I' for Inactive)
REMARK    1  A    between atoms: C5_7  and  N2_8 
REMARK    2  A    between atoms: N2_8  and  C6_10 
REMARK    3  A    between atoms: C10_16  and  N4_17 
REMARK    4  A    between atoms: N4_17  and  C11_19 
REMARK    5  A    between atoms: C17_28  and  O1_29 
REMARK    6  A    between atoms: O1_29  and  C18_30 
ROOT
HETATM    1  C6  UNL     1      15.613   8.791 -21.393  1.00  0.00     0.684 A 
HETATM    2  N3  UNL     1      14.967   9.959 -21.518  1.00  0.00    -0.196 N 
ATOM      3  H3  UNL     1      13.950   9.989 -21.447  1.00  0.00     0.184 HD
HETATM    4  C7  UNL     1      15.660  11.092 -21.738  1.00  0.00     0.026 A 
HETATM    5  C8  UNL     1      14.851  12.346 -21.865  1.00  0.00     0.069 C 
HETATM    6  C9  UNL     1      17.028  11.087 -21.839  1.00  0.00     0.074 A 
HETATM    7  C10 UNL     1      17.684   9.887 -21.709  1.00  0.00     0.123 A 
HETATM    8  N5  UNL     1      16.959   8.775 -21.490  1.00  0.00    -0.176 N 
ATOM      9  H5  UNL     1      17.445   7.884 -21.394  1.00  0.00     0.186 HD
ENDROOT
BRANCH   1  10
HETATM   10  N2  UNL     1      14.910   7.731 -21.183  1.00  0.00    -0.189 N 
ATOM     11  H2  UNL     1      14.265   7.366 -21.884  1.00  0.00     0.184 HD
BRANCH  10  12
HETATM   12  C5  UNL     1      15.085   7.092 -19.909  1.00  0.00     0.086 A 
HETATM   13  C4  UNL     1      14.840   7.832 -18.664  1.00  0.00     0.050 A 
HETATM   14  C3  UNL     1      15.004   7.222 -17.505  1.00  0.00     0.090 A 
HETATM   15  N1  UNL     1      15.415   5.862 -17.446  1.00  0.00    -0.364 N 
HETATM   16  C2  UNL     1      15.658   5.123 -18.634  1.00  0.00     0.058 A 
ATOM     17  H1  UNL     1      15.535   5.411 -16.539  1.00  0.00     0.165 HD
HETATM   18  C1  UNL     1      16.039   3.859 -18.603  1.00  0.00     0.046 C 
HETATM   19  C17 UNL     1      15.466   5.834 -19.909  1.00  0.00     0.121 A 
BRANCH  19  20
HETATM   20  O1  UNL     1      15.707   5.101 -21.048  1.00  0.00    -0.347 OA
BRANCH  20  21
HETATM   21  C18 UNL     1      16.926   5.220 -21.715  1.00  0.00     0.171 C 
HETATM   22  C19 UNL     1      17.752   3.954 -21.739  1.00  0.00     0.034 C 
ENDBRANCH  20  21
ENDBRANCH  19  20
ENDBRANCH  10  12
ENDBRANCH   1  10
BRANCH   7  23
HETATM   23  N4  UNL     1      18.961   9.868 -21.801  1.00  0.00    -0.341 N 
ATOM     24  H4  UNL     1      19.413  10.005 -22.706  1.00  0.00     0.167 HD
BRANCH  23  25
HETATM   25  C11 UNL     1      19.742   9.657 -20.638  1.00  0.00     0.055 A 
HETATM   26  C12 UNL     1      19.946  10.659 -19.695  1.00  0.00     0.031 A 
HETATM   27  C13 UNL     1      20.701  10.439 -18.583  1.00  0.00     0.002 A 
HETATM   28  C14 UNL     1      21.298   9.230 -18.326  1.00  0.00     0.002 A 
HETATM   29  C15 UNL     1      21.112   8.216 -19.245  1.00  0.00     0.026 A 
HETATM   30  C16 UNL     1      20.351   8.437 -20.370  1.00  0.00     0.060 A 
HETATM   31 CL1  UNL     1      20.122   7.131 -21.538  1.00  0.00    -0.082 Cl
ENDBRANCH  23  25
ENDBRANCH   7  23
TORSDOF 6
ENDMDL
MODEL 2
REMARK VINA RESULT: -6.423445461      2.988      6.718
REMARK  6 active torsions:
REMARK  status: ('A' for Active; 'I' for Inactive)
REMARK    1  A    between atoms: C5_7  and  N2_8 
REMARK    2  A    between atoms: N2_8  and  C6_10 
REMARK    3  A    between atoms: C10_16  and  N4_17 
REMARK    4  A    between atoms: N4_17  and  C11_19 
REMARK    5  A    between atoms: C17_28  and  O1_29 
REMARK    6  A    between atoms: O1_29  and  C18_30 
ROOT
HETATM    1  C6  UNL     1      18.236   6.190 -20.138  1.00  0.00     0.684 A 
HETATM    2  N3  UNL     1      17.199   5.637 -19.496  1.00  0.00    -0.196 N 
ATOM      3  H3  UNL     1      17.012   5.880 -18.523  1.00  0.00     0.184 HD
HETATM    4  C7  UNL     1      16.403   4.758 -20.134  1.00  0.00     0.026 A 
HETATM    5  C8  UNL     1      15.270   4.192 -19.334  1.00  0.00     0.069 C 
HETATM    6  C9  UNL     1      16.626   4.407 -21.441  1.00  0.00     0.074 A 
HETATM    7  C10 UNL     1      17.691   4.979 -22.094  1.00  0.00     0.123 A 
HETATM    8  N5  UNL     1      18.465   5.853 -21.425  1.00  0.00    -0.176 N 
ATOM      9  H5  UNL     1      19.256   6.277 -21.909  1.00  0.00     0.186 HD
ENDROOT
BRANCH   1  10
HETATM   10  N2  UNL     1      18.973   7.027 -19.489  1.00  0.00    -0.189 N 
ATOM     11  H2  UNL     1      19.593   6.726 -18.737  1.00  0.00     0.184 HD
BRANCH  10  12
HETATM   12  C5  UNL     1      18.872   8.404 -19.882  1.00  0.00     0.086 A 
HETATM   13  C4  UNL     1      17.564   8.995 -20.198  1.00  0.00     0.050 A 
HETATM   14  C3  UNL     1      17.496  10.264 -20.555  1.00  0.00     0.090 A 
HETATM   15  N1  UNL     1      18.669  11.065 -20.636  1.00  0.00    -0.364 N 
HETATM   16  C2  UNL     1      19.945  10.519 -20.336  1.00  0.00     0.058 A 
ATOM     17  H1  UNL     1      18.592  12.043 -20.914  1.00  0.00     0.165 HD
HETATM   18  C1  UNL     1      21.047  11.244 -20.404  1.00  0.00     0.046 C 
HETATM   19  C17 UNL     1      19.985   9.101 -19.943  1.00  0.00     0.121 A 
BRANCH  19  20
HETATM   20  O1  UNL     1      21.230   8.590 -19.656  1.00  0.00    -0.347 OA
BRANCH  20  21
HETATM   21  C18 UNL     1      21.666   8.503 -18.334  1.00  0.00     0.171 C 
HETATM   22  C19 UNL     1      23.033   9.099 -18.086  1.00  0.00     0.034 C 
ENDBRANCH  20  21
ENDBRANCH  19  20
ENDBRANCH  10  12
ENDBRANCH   1  10
BRANCH   7  23
HETATM   23  N4  UNL     1      17.910   4.661 -23.315  1.00  0.00    -0.341 N 
ATOM     24  H4  UNL     1      17.450   5.171 -24.069  1.00  0.00     0.167 HD
BRANCH  23  25
HETATM   25  C11 UNL     1      18.795   3.594 -23.611  1.00  0.00     0.055 A 
HETATM   26  C12 UNL     1      19.498   2.923 -22.615  1.00  0.00     0.031 A 
HETATM   27  C13 UNL     1      20.345   1.900 -22.918  1.00  0.00     0.002 A 
HETATM   28  C14 UNL     1      20.553   1.473 -24.205  1.00  0.00     0.002 A 
HETATM   29  C15 UNL     1      19.868   2.120 -25.213  1.00  0.00     0.026 A 
HETATM   30  C16 UNL     1      19.012   3.155 -24.910  1.00  0.00     0.060 A 
HETATM   31 CL1  UNL     1      18.141   3.975 -26.211  1.00  0.00    -0.082 Cl
ENDBRANCH  23  25
ENDBRANCH   7  23
TORSDOF 6
ENDMDL
MODEL 3
REMARK VINA RESULT: -6.329201191      2.075      4.258
REMARK  6 active torsions:
REMARK  status: ('A' for Active; 'I' for Inactive)
REMARK    1  A    between atoms: C5_7  and  N2_8 
REMARK    2  A    between atoms: N2_8  and  C6_10 
REMARK    3  A    between atoms: C10_16  and  N4_17 
REMARK    4  A    between atoms: N4_17  and  C11_19 
REMARK    5  A    between atoms: C17_28  and  O1_29 
REMARK    6  A    between atoms: O1_29  and  C18_30 
ROOT
HETATM    1  C6  UNL     1      17.563   5.428 -22.230  1.00  0.00     0.684 A 
HETATM    2  N3  UNL     1      17.853   4.325 -22.933  1.00  0.00    -0.196 N 
ATOM      3  H3  UNL     1      17.126   3.634 -23.122  1.00  0.00     0.184 HD
HETATM    4  C7  UNL     1      19.103   4.127 -23.391  1.00  0.00     0.026 A 
HETATM    5  C8  UNL     1      19.330   2.865 -24.166  1.00  0.00     0.069 C 
HETATM    6  C9  UNL     1      20.105   5.034 -23.155  1.00  0.00     0.074 A 
HETATM    7  C10 UNL     1      19.801   6.164 -22.433  1.00  0.00     0.123 A 
HETATM    8  N5  UNL     1      18.540   6.327 -21.991  1.00  0.00    -0.176 N 
ATOM      9  H5  UNL     1      18.315   7.165 -21.455  1.00  0.00     0.186 HD
ENDROOT
BRANCH   1  10
HETATM   10  N2  UNL     1      16.353   5.577 -21.810  1.00  0.00    -0.189 N 
ATOM     11  H2  UNL     1      15.584   5.787 -22.446  1.00  0.00     0.184 HD
BRANCH  10  12
HETATM   12  C5  UNL     1      16.146   5.431 -20.395  1.00  0.00     0.086 A 
HETATM   13  C4  UNL     1      16.495   4.176 -19.717  1.00  0.00     0.050 A 
HETATM   14  C3  UNL     1      16.299   4.067 -18.416  1.00  0.00     0.090 A 
HETATM   15  N1  UNL     1      15.757   5.146 -17.665  1.00  0.00    -0.364 N 
HETATM   16  C2  UNL     1      15.411   6.370 -18.297  1.00  0.00     0.058 A 
ATOM     17  H1  UNL     1      15.614   5.039 -16.661  1.00  0.00     0.165 HD
HETATM   18  C1  UNL     1      14.907   7.385 -17.619  1.00  0.00     0.046 C 
HETATM   19  C17 UNL     1      15.642   6.457 -19.748  1.00  0.00     0.121 A 
BRANCH  19  20
HETATM   20  O1  UNL     1      15.300   7.651 -20.341  1.00  0.00    -0.347 OA
BRANCH  20  21
HETATM   21  C18 UNL     1      16.244   8.671 -20.459  1.00  0.00     0.171 C 
HETATM   22  C19 UNL     1      16.353   9.264 -21.846  1.00  0.00     0.034 C 
ENDBRANCH  20  21
ENDBRANCH  19  20
ENDBRANCH  10  12
ENDBRANCH   1  10
BRANCH   7  23
HETATM   23  N4  UNL     1      20.726   7.018 -22.207  1.00  0.00    -0.341 N 
ATOM     24  H4  UNL     1      21.621   6.948 -22.692  1.00  0.00     0.167 HD
BRANCH  23  25
HETATM   25  C11 UNL     1      20.500   8.063 -21.276  1.00  0.00     0.055 A 
HETATM   26  C12 UNL     1      20.734   7.900 -19.915  1.00  0.00     0.031 A 
HETATM   27  C13 UNL     1      20.510   8.914 -19.034  1.00  0.00     0.002 A 
HETATM   28  C14 UNL     1      20.047  10.144 -19.430  1.00  0.00     0.002 A 
HETATM   29  C15 UNL     1      19.806  10.335 -20.775  1.00  0.00     0.026 A 
HETATM   30  C16 UNL     1      20.031   9.311 -21.667  1.00  0.00     0.060 A 
HETATM   31 CL1  UNL     1      19.717   9.568 -23.387  1.00  0.00    -0.082 Cl
ENDBRANCH  23  25
ENDBRANCH   7  23
TORSDOF 6
ENDMDL
MODEL 4
REMARK VINA RESULT: -6.309786650      2.132      4.185
REMARK  6 active torsions:
REMARK  status: ('A' for Active; 'I' for Inactive)
REMARK    1  A    between atoms: C5_7  and  N2_8 
REMARK    2  A    between atoms: N2_8  and  C6_10 
REMARK    3  A    between atoms: C10_16  and  N4_17 
REMARK    4  A    between atoms: N4_17  and  C11_19 
REMARK    5  A    between atoms: C17_28  and  O1_29 
REMARK    6  A    between atoms: O1_29  and  C18_30 
ROOT
HETATM    1  C6  UNL     1      17.557   5.566 -22.363  1.00  0.00     0.684 A 
HETATM    2  N3  UNL     1      17.889   4.705 -23.336  1.00  0.00    -0.196 N 
ATOM      3  H3  UNL     1      17.200   4.040 -23.685  1.00  0.00     0.184 HD
HETATM    4  C7  UNL     1      19.133   4.720 -23.852  1.00  0.00     0.026 A 
HETATM    5  C8  UNL     1      19.409   3.721 -24.934  1.00  0.00     0.069 C 
HETATM    6  C9  UNL     1      20.084   5.601 -23.405  1.00  0.00     0.074 A 
HETATM    7  C10 UNL     1      19.737   6.480 -22.407  1.00  0.00     0.123 A 
HETATM    8  N5  UNL     1      18.486   6.437 -21.916  1.00  0.00    -0.176 N 
ATOM      9  H5  UNL     1      18.228   7.089 -21.175  1.00  0.00     0.186 HD
ENDROOT
BRANCH   1  10
HETATM   10  N2  UNL     1      16.356   5.517 -21.897  1.00  0.00    -0.189 N 
ATOM     11  H2  UNL     1      15.541   5.667 -22.493  1.00  0.00     0.184 HD
BRANCH  10  12
HETATM   12  C5  UNL     1      16.227   5.241 -20.494  1.00  0.00     0.086 A 
HETATM   13  C4  UNL     1      16.733   3.982 -19.932  1.00  0.00     0.050 A 
HETATM   14  C3  UNL     1      16.606   3.752 -18.639  1.00  0.00     0.090 A 
HETATM   15  N1  UNL     1      15.987   4.706 -17.784  1.00  0.00    -0.364 N 
HETATM   16  C2  UNL     1      15.490   5.931 -18.301  1.00  0.00     0.058 A 
ATOM     17  H1  UNL     1      15.900   4.506 -16.787  1.00  0.00     0.165 HD
HETATM   18  C1  UNL     1      14.913   6.831 -17.526  1.00  0.00     0.046 C 
HETATM   19  C17 UNL     1      15.647   6.154 -19.747  1.00  0.00     0.121 A 
BRANCH  19  20
HETATM   20  O1  UNL     1      15.158   7.347 -20.228  1.00  0.00    -0.347 OA
BRANCH  20  21
HETATM   21  C18 UNL     1      15.940   8.501 -20.169  1.00  0.00     0.171 C 
HETATM   22  C19 UNL     1      16.179   9.163 -21.507  1.00  0.00     0.034 C 
ENDBRANCH  20  21
ENDBRANCH  19  20
ENDBRANCH  10  12
ENDBRANCH   1  10
BRANCH   7  23
HETATM   23  N4  UNL     1      20.616   7.308 -21.981  1.00  0.00    -0.341 N 
ATOM     24  H4  UNL     1      21.599   7.037 -21.941  1.00  0.00     0.167 HD
BRANCH  23  25
HETATM   25  C11 UNL     1      20.214   8.602 -21.566  1.00  0.00     0.055 A 
HETATM   26  C12 UNL     1      19.904   9.605 -22.479  1.00  0.00     0.031 A 
HETATM   27  C13 UNL     1      19.520  10.843 -22.063  1.00  0.00     0.002 A 
HETATM   28  C14 UNL     1      19.415  11.174 -20.735  1.00  0.00     0.002 A 
HETATM   29  C15 UNL     1      19.715  10.198 -19.807  1.00  0.00     0.026 A 
HETATM   30  C16 UNL     1      20.105   8.946 -20.225  1.00  0.00     0.060 A 
HETATM   31 CL1  UNL     1      20.488   7.706 -19.025  1.00  0.00    -0.082 Cl
ENDBRANCH  23  25
ENDBRANCH   7  23
TORSDOF 6
ENDMDL
MODEL 5
REMARK VINA RESULT: -6.288279373      3.501      6.173
REMARK  6 active torsions:
REMARK  status: ('A' for Active; 'I' for Inactive)
REMARK    1  A    between atoms: C5_7  and  N2_8 
REMARK    2  A    between atoms: N2_8  and  C6_10 
REMARK    3  A    between atoms: C10_16  and  N4_17 
REMARK    4  A    between atoms: N4_17  and  C11_19 
REMARK    5  A    between atoms: C17_28  and  O1_29 
REMARK    6  A    between atoms: O1_29  and  C18_30 
ROOT
HETATM    1  C6  UNL     1      17.531   5.467 -22.395  1.00  0.00     0.684 A 
HETATM    2  N3  UNL     1      18.388   6.403 -21.964  1.00  0.00    -0.196 N 
ATOM      3  H3  UNL     1      18.092   7.081 -21.262  1.00  0.00     0.184 HD
HETATM    4  C7  UNL     1      19.640   6.448 -22.459  1.00  0.00     0.026 A 
HETATM    5  C8  UNL     1      20.523   7.530 -21.917  1.00  0.00     0.069 C 
HETATM    6  C9  UNL     1      20.070   5.552 -23.404  1.00  0.00     0.074 A 
HETATM    7  C10 UNL     1      19.186   4.595 -23.841  1.00  0.00     0.123 A 
HETATM    8  N5  UNL     1      17.943   4.580 -23.325  1.00  0.00    -0.176 N 
ATOM      9  H5  UNL     1      17.287   3.870 -23.650  1.00  0.00     0.186 HD
ENDROOT
BRANCH   1  10
HETATM   10  N2  UNL     1      16.342   5.460 -21.896  1.00  0.00    -0.189 N 
ATOM     11  H2  UNL     1      15.514   5.603 -22.474  1.00  0.00     0.184 HD
BRANCH  10  12
HETATM   12  C5  UNL     1      16.247   5.241 -20.479  1.00  0.00     0.086 A 
HETATM   13  C4  UNL     1      16.830   4.038 -19.871  1.00  0.00     0.050 A 
HETATM   14  C3  UNL     1      16.732   3.860 -18.566  1.00  0.00     0.090 A 
HETATM   15  N1  UNL     1      16.073   4.816 -17.745  1.00  0.00    -0.364 N 
HETATM   16  C2  UNL     1      15.501   5.988 -18.308  1.00  0.00     0.058 A 
ATOM     17  H1  UNL     1      16.010   4.658 -16.739  1.00  0.00     0.165 HD
HETATM   18  C1  UNL     1      14.885   6.889 -17.564  1.00  0.00     0.046 C 
HETATM   19  C17 UNL     1      15.627   6.154 -19.765  1.00  0.00     0.121 A 
BRANCH  19  20
HETATM   20  O1  UNL     1      15.066   7.295 -20.291  1.00  0.00    -0.347 OA
BRANCH  20  21
HETATM   21  C18 UNL     1      15.808   8.474 -20.360  1.00  0.00     0.171 C 
HETATM   22  C19 UNL     1      14.978   9.737 -20.329  1.00  0.00     0.034 C 
ENDBRANCH  20  21
ENDBRANCH  19  20
ENDBRANCH  10  12
ENDBRANCH   1  10
BRANCH   7  23
HETATM   23  N4  UNL     1      19.575   3.753 -24.723  1.00  0.00    -0.341 N 
ATOM     24  H4  UNL     1      19.497   3.975 -25.715  1.00  0.00     0.167 HD
BRANCH  23  25
HETATM   25  C11 UNL     1      20.115   2.509 -24.310  1.00  0.00     0.055 A 
HETATM   26  C12 UNL     1      20.866   2.382 -23.146  1.00  0.00     0.031 A 
HETATM   27  C13 UNL     1      21.378   1.179 -22.765  1.00  0.00     0.002 A 
HETATM   28  C14 UNL     1      21.187   0.033 -23.495  1.00  0.00     0.002 A 
HETATM   29  C15 UNL     1      20.445   0.129 -24.655  1.00  0.00     0.026 A 
HETATM   30  C16 UNL     1      19.927   1.344 -25.042  1.00  0.00     0.060 A 
HETATM   31 CL1  UNL     1      18.980   1.453 -26.531  1.00  0.00    -0.082 Cl
ENDBRANCH  23  25
ENDBRANCH   7  23
TORSDOF 6
ENDMDL
