MODEL 1
REMARK VINA RESULT: -7.103723716      0.000      0.000
REMARK  7 active torsions:
REMARK  status: ('A' for Active; 'I' for Inactive)
REMARK    1  A    between atoms: N1_2  and  C2_4 
REMARK    2  A    between atoms: C3_7  and  N3_8 
REMARK    3  A    between atoms: N3_8  and  C4_10 
REMARK    4  A    between atoms: C4_10  and  C5_11 
REMARK    5  A    between atoms: C11_21  and  N6_22 
REMARK    6  A    between atoms: N6_22  and  C12_23 
REMARK    7  A    between atoms: C12_23  and  C13_24 
ROOT
HETATM    1  C2  UNL     1      13.919  10.702 -19.885  1.00  0.00     0.699 A 
HETATM    2  N2  UNL     1      13.630   9.437 -19.587  1.00  0.00    -0.022 N 
ATOM      3  H2  UNL     1      12.703   9.228 -19.216  1.00  0.00     0.203 HD
HETATM    4  C3  UNL     1      14.515   8.396 -19.752  1.00  0.00     0.700 A 
HETATM    5  N5  UNL     1      15.733   8.740 -20.260  1.00  0.00    -0.148 N 
ATOM      6  H5  UNL     1      16.424   8.004 -20.408  1.00  0.00     0.188 HD
HETATM    7  C11 UNL     1      16.071  10.030 -20.580  1.00  0.00     0.287 A 
HETATM    8  N7  UNL     1      15.134  10.979 -20.380  1.00  0.00    -0.148 N 
ATOM      9  H7  UNL     1      15.359  11.945 -20.615  1.00  0.00     0.188 HD
ENDROOT
BRANCH   4  10
HETATM   10  N3  UNL     1      14.169   7.305 -19.308  1.00  0.00    -0.199 N 
ATOM     11  H3  UNL     1      13.158   7.228 -19.422  1.00  0.00     0.183 HD
BRANCH  10  12
HETATM   12  C4  UNL     1      14.616   6.146 -18.715  1.00  0.00     0.135 C 
BRANCH  12  13
HETATM   13  C5  UNL     1      15.782   5.622 -19.523  1.00  0.00     0.048 A 
HETATM   14  C6  UNL     1      15.406   4.937 -20.684  1.00  0.00     0.031 A 
HETATM   15  C7  UNL     1      16.397   4.322 -21.406  1.00  0.00     0.010 A 
HETATM   16  C8  UNL     1      17.729   4.399 -20.986  1.00  0.00    -0.047 A 
HETATM   17  C9  UNL     1      18.713   3.688 -21.838  1.00  0.00     0.049 C 
HETATM   18  C10 UNL     1      18.045   5.077 -19.841  1.00  0.00     0.095 A 
HETATM   19  N4  UNL     1      17.033   5.676 -19.135  1.00  0.00    -0.364 N 
ATOM     20  H4  UNL     1      17.261   6.181 -18.278  1.00  0.00     0.165 HD
ENDBRANCH  12  13
ENDBRANCH  10  12
ENDBRANCH   4  10
BRANCH   1  21
HETATM   21  N1  UNL     1      13.194  11.615 -19.510  1.00  0.00    -0.211 N 
HETATM   22  C1  UNL     1      12.569  12.809 -19.516  1.00  0.00     0.137 C 
ATOM     23  H1  UNL     1      12.834  11.222 -18.640  1.00  0.00     0.182 HD
ENDBRANCH   1  21
BRANCH   7  24
HETATM   24  N6  UNL     1      17.190  10.272 -20.889  1.00  0.00    -0.382 NA
BRANCH  24  25
HETATM   25  C12 UNL     1      18.453  10.514 -21.235  1.00  0.00     0.199 C 
BRANCH  25  26
HETATM   26  C13 UNL     1      19.524   9.930 -20.442  1.00  0.00     0.015 A 
HETATM   27  C14 UNL     1      20.140  10.568 -19.433  1.00  0.00     0.022 A 
HETATM   28  C15 UNL     1      20.975   9.890 -18.537  1.00  0.00    -0.061 A 
HETATM   29  C16 UNL     1      21.584  10.553 -17.386  1.00  0.00     0.048 C 
HETATM   30  C17 UNL     1      21.151   8.506 -18.722  1.00  0.00     0.008 A 
HETATM   31  C18 UNL     1      20.530   7.857 -19.745  1.00  0.00     0.025 A 
HETATM   32  C19 UNL     1      19.730   8.572 -20.583  1.00  0.00     0.046 A 
HETATM   33 CL1  UNL     1      18.995   7.795 -21.954  1.00  0.00    -0.083 Cl
ENDBRANCH  25  26
ENDBRANCH  24  25
ENDBRANCH   7  24
TORSDOF 7
ENDMDL
MODEL 2
REMARK VINA RESULT: -6.994461840      3.792      7.227
REMARK  7 active torsions:
REMARK  status: ('A' for Active; 'I' for Inactive)
REMARK    1  A    between atoms: N1_2  and  C2_4 
REMARK    2  A    between atoms: C3_7  and  N3_8 
REMARK    3  A    between atoms: N3_8  and  C4_10 
REMARK    4  A    between atoms: C4_10  and  C5_11 
REMARK    5  A    between atoms: C11_21  and  N6_22 
REMARK    6  A    between atoms: N6_22  and  C12_23 
REMARK    7  A    between atoms: C12_23  and  C13_24 
ROOT
HETATM    1  C2  UNL     1      15.144  10.102 -20.165  1.00  0.00     0.699 A 
HETATM    2  N2  UNL     1      15.153   8.821 -19.807  1.00  0.00    -0.022 N 
ATOM      3  H2  UNL     1      16.040   8.318 -19.836  1.00  0.00     0.203 HD
HETATM    4  C3  UNL     1      14.030   8.136 -19.402  1.00  0.00     0.700 A 
HETATM    5  N5  UNL     1      12.879   8.867 -19.378  1.00  0.00    -0.148 N 
ATOM      6  H5  UNL     1      12.018   8.409 -19.078  1.00  0.00     0.188 HD
HETATM    7  C11 UNL     1      12.826  10.190 -19.738  1.00  0.00     0.287 A 
HETATM    8  N7  UNL     1      13.981  10.769 -20.122  1.00  0.00    -0.148 N 
ATOM      9  H7  UNL     1      13.970  11.752 -20.390  1.00  0.00     0.188 HD
ENDROOT
BRANCH   4  10
HETATM   10  N3  UNL     1      14.154   6.926 -19.236  1.00  0.00    -0.199 N 
ATOM     11  H3  UNL     1      13.445   6.459 -19.802  1.00  0.00     0.183 HD
BRANCH  10  12
HETATM   12  C4  UNL     1      14.880   5.956 -18.583  1.00  0.00     0.135 C 
BRANCH  12  13
HETATM   13  C5  UNL     1      15.941   5.442 -19.530  1.00  0.00     0.048 A 
HETATM   14  C6  UNL     1      15.475   4.483 -20.437  1.00  0.00     0.031 A 
HETATM   15  C7  UNL     1      16.401   3.875 -21.246  1.00  0.00     0.010 A 
HETATM   16  C8  UNL     1      17.753   4.223 -21.160  1.00  0.00    -0.047 A 
HETATM   17  C9  UNL     1      18.663   3.493 -22.076  1.00  0.00     0.049 C 
HETATM   18  C10 UNL     1      18.159   5.163 -20.254  1.00  0.00     0.095 A 
HETATM   19  N4  UNL     1      17.213   5.750 -19.452  1.00  0.00    -0.364 N 
ATOM     20  H4  UNL     1      17.509   6.450 -18.771  1.00  0.00     0.165 HD
ENDBRANCH  12  13
ENDBRANCH  10  12
ENDBRANCH   4  10
BRANCH   1  21
HETATM   21  N1  UNL     1      16.109  10.601 -20.733  1.00  0.00    -0.211 N 
HETATM   22  C1  UNL     1      17.292  10.674 -21.374  1.00  0.00     0.137 C 
ATOM     23  H1  UNL     1      15.855  11.588 -20.699  1.00  0.00     0.182 HD
ENDBRANCH   1  21
BRANCH   7  24
HETATM   24  N6  UNL     1      11.769  10.722 -19.820  1.00  0.00    -0.382 NA
BRANCH  24  25
HETATM   25  C12 UNL     1      10.570  11.292 -19.914  1.00  0.00     0.199 C 
BRANCH  25  26
HETATM   26  C13 UNL     1       9.395  10.443 -20.050  1.00  0.00     0.015 A 
HETATM   27  C14 UNL     1       9.321   9.401 -20.893  1.00  0.00     0.022 A 
HETATM   28  C15 UNL     1       8.285   8.463 -20.810  1.00  0.00    -0.061 A 
HETATM   29  C16 UNL     1       8.237   7.279 -21.665  1.00  0.00     0.048 C 
HETATM   30  C17 UNL     1       7.315   8.643 -19.806  1.00  0.00     0.008 A 
HETATM   31  C18 UNL     1       7.387   9.700 -18.952  1.00  0.00     0.025 A 
HETATM   32  C19 UNL     1       8.419  10.578 -19.084  1.00  0.00     0.046 A 
HETATM   33 CL1  UNL     1       8.492  11.988 -18.070  1.00  0.00    -0.083 Cl
ENDBRANCH  25  26
ENDBRANCH  24  25
ENDBRANCH   7  24
TORSDOF 7
ENDMDL
MODEL 3
REMARK VINA RESULT: -6.935330459      3.520      7.644
REMARK  7 active torsions:
REMARK  status: ('A' for Active; 'I' for Inactive)
REMARK    1  A    between atoms: N1_2  and  C2_4 
REMARK    2  A    between atoms: C3_7  and  N3_8 
REMARK    3  A    between atoms: N3_8  and  C4_10 
REMARK    4  A    between atoms: C4_10  and  C5_11 
REMARK    5  A    between atoms: C11_21  and  N6_22 
REMARK    6  A    between atoms: N6_22  and  C12_23 
REMARK    7  A    between atoms: C12_23  and  C13_24 
ROOT
HETATM    1  C2  UNL     1      19.916   3.198 -22.859  1.00  0.00     0.699 A 
HETATM    2  N2  UNL     1      20.575   4.338 -23.054  1.00  0.00    -0.022 N 
ATOM      3  H2  UNL     1      21.532   4.288 -23.406  1.00  0.00     0.203 HD
HETATM    4  C3  UNL     1      20.036   5.580 -22.807  1.00  0.00     0.700 A 
HETATM    5  N5  UNL     1      18.752   5.578 -22.348  1.00  0.00    -0.148 N 
ATOM      6  H5  UNL     1      18.303   6.473 -22.155  1.00  0.00     0.188 HD
HETATM    7  C11 UNL     1      18.038   4.426 -22.134  1.00  0.00     0.287 A 
HETATM    8  N7  UNL     1      18.656   3.260 -22.405  1.00  0.00    -0.148 N 
ATOM      9  H7  UNL     1      18.144   2.390 -22.259  1.00  0.00     0.188 HD
ENDROOT
BRANCH   4  10
HETATM   10  N3  UNL     1      20.799   6.537 -22.897  1.00  0.00    -0.199 N 
ATOM     11  H3  UNL     1      21.690   6.194 -23.255  1.00  0.00     0.183 HD
BRANCH  10  12
HETATM   12  C4  UNL     1      20.918   7.894 -22.701  1.00  0.00     0.135 C 
BRANCH  12  13
HETATM   13  C5  UNL     1      21.455   8.125 -21.305  1.00  0.00     0.048 A 
HETATM   14  C6  UNL     1      20.497   7.969 -20.296  1.00  0.00     0.031 A 
HETATM   15  C7  UNL     1      20.871   8.283 -19.015  1.00  0.00     0.010 A 
HETATM   16  C8  UNL     1      22.169   8.730 -18.746  1.00  0.00    -0.047 A 
HETATM   17  C9  UNL     1      22.458   9.050 -17.326  1.00  0.00     0.049 C 
HETATM   18  C10 UNL     1      23.068   8.869 -19.768  1.00  0.00     0.095 A 
HETATM   19  N4  UNL     1      22.664   8.555 -21.041  1.00  0.00    -0.364 N 
ATOM     20  H4  UNL     1      23.329   8.660 -21.809  1.00  0.00     0.165 HD
ENDBRANCH  12  13
ENDBRANCH  10  12
ENDBRANCH   4  10
BRANCH   1  21
HETATM   21  N1  UNL     1      20.505   2.124 -22.871  1.00  0.00    -0.211 N 
HETATM   22  C1  UNL     1      20.829   0.871 -23.247  1.00  0.00     0.137 C 
ATOM     23  H1  UNL     1      21.177   2.271 -22.118  1.00  0.00     0.182 HD
ENDBRANCH   1  21
BRANCH   7  24
HETATM   24  N6  UNL     1      16.976   4.497 -21.608  1.00  0.00    -0.382 NA
BRANCH  24  25
HETATM   25  C12 UNL     1      15.798   4.594 -20.997  1.00  0.00     0.199 C 
BRANCH  25  26
HETATM   26  C13 UNL     1      15.591   5.663 -20.031  1.00  0.00     0.015 A 
HETATM   27  C14 UNL     1      15.223   6.911 -20.364  1.00  0.00     0.022 A 
HETATM   28  C15 UNL     1      14.787   7.829 -19.401  1.00  0.00    -0.061 A 
HETATM   29  C16 UNL     1      14.304   9.161 -19.758  1.00  0.00     0.048 C 
HETATM   30  C17 UNL     1      14.743   7.403 -18.061  1.00  0.00     0.008 A 
HETATM   31  C18 UNL     1      15.118   6.140 -17.720  1.00  0.00     0.025 A 
HETATM   32  C19 UNL     1      15.533   5.293 -18.703  1.00  0.00     0.046 A 
HETATM   33 CL1  UNL     1      16.105   3.704 -18.293  1.00  0.00    -0.083 Cl
ENDBRANCH  25  26
ENDBRANCH  24  25
ENDBRANCH   7  24
TORSDOF 7
ENDMDL
MODEL 4
REMARK VINA RESULT: -6.799611722      4.114      7.276
REMARK  7 active torsions:
REMARK  status: ('A' for Active; 'I' for Inactive)
REMARK    1  A    between atoms: N1_2  and  C2_4 
REMARK    2  A    between atoms: C3_7  and  N3_8 
REMARK    3  A    between atoms: N3_8  and  C4_10 
REMARK    4  A    between atoms: C4_10  and  C5_11 
REMARK    5  A    between atoms: C11_21  and  N6_22 
REMARK    6  A    between atoms: N6_22  and  C12_23 
REMARK    7  A    between atoms: C12_23  and  C13_24 
ROOT
HETATM    1  C2  UNL     1      14.573  10.424 -20.320  1.00  0.00     0.699 A 
HETATM    2  N2  UNL     1      14.772   9.226 -19.775  1.00  0.00    -0.022 N 
ATOM      3  H2  UNL     1      15.732   8.927 -19.602  1.00  0.00     0.203 HD
HETATM    4  C3  UNL     1      13.751   8.368 -19.432  1.00  0.00     0.700 A 
HETATM    5  N5  UNL     1      12.493   8.830 -19.681  1.00  0.00    -0.148 N 
ATOM      6  H5  UNL     1      11.699   8.236 -19.439  1.00  0.00     0.188 HD
HETATM    7  C11 UNL     1      12.245  10.058 -20.241  1.00  0.00     0.287 A 
HETATM    8  N7  UNL     1      13.312  10.823 -20.542  1.00  0.00    -0.148 N 
ATOM      9  H7  UNL     1      13.155  11.742 -20.955  1.00  0.00     0.188 HD
ENDROOT
BRANCH   4  10
HETATM   10  N3  UNL     1      14.079   7.242 -19.069  1.00  0.00    -0.199 N 
ATOM     11  H3  UNL     1      13.383   6.585 -19.422  1.00  0.00     0.183 HD
BRANCH  10  12
HETATM   12  C4  UNL     1      15.023   6.523 -18.371  1.00  0.00     0.135 C 
BRANCH  12  13
HETATM   13  C5  UNL     1      15.957   5.877 -19.370  1.00  0.00     0.048 A 
HETATM   14  C6  UNL     1      15.354   4.885 -20.152  1.00  0.00     0.031 A 
HETATM   15  C7  UNL     1      16.162   4.163 -20.993  1.00  0.00     0.010 A 
HETATM   16  C8  UNL     1      17.533   4.432 -21.059  1.00  0.00    -0.047 A 
HETATM   17  C9  UNL     1      18.309   3.582 -21.995  1.00  0.00     0.049 C 
HETATM   18  C10 UNL     1      18.076   5.408 -20.271  1.00  0.00     0.095 A 
HETATM   19  N4  UNL     1      17.246   6.110 -19.433  1.00  0.00    -0.364 N 
ATOM     20  H4  UNL     1      17.645   6.837 -18.840  1.00  0.00     0.165 HD
ENDBRANCH  12  13
ENDBRANCH  10  12
ENDBRANCH   4  10
BRANCH   1  21
HETATM   21  N1  UNL     1      15.504  11.048 -20.816  1.00  0.00    -0.211 N 
HETATM   22  C1  UNL     1      16.506  11.350 -21.666  1.00  0.00     0.137 C 
ATOM     23  H1  UNL     1      15.549  11.848 -20.185  1.00  0.00     0.182 HD
ENDBRANCH   1  21
BRANCH   7  24
HETATM   24  N6  UNL     1      11.133  10.335 -20.550  1.00  0.00    -0.382 NA
BRANCH  24  25
HETATM   25  C12 UNL     1       9.880  10.617 -20.897  1.00  0.00     0.199 C 
BRANCH  25  26
HETATM   26  C13 UNL     1       9.096   9.604 -21.588  1.00  0.00     0.015 A 
HETATM   27  C14 UNL     1       9.065   9.464 -22.923  1.00  0.00     0.022 A 
HETATM   28  C15 UNL     1       8.512   8.329 -23.529  1.00  0.00    -0.061 A 
HETATM   29  C16 UNL     1       8.547   8.125 -24.976  1.00  0.00     0.048 C 
HETATM   30  C17 UNL     1       7.987   7.328 -22.692  1.00  0.00     0.008 A 
HETATM   31  C18 UNL     1       8.015   7.468 -21.338  1.00  0.00     0.025 A 
HETATM   32  C19 UNL     1       8.566   8.595 -20.809  1.00  0.00     0.046 A 
HETATM   33 CL1  UNL     1       8.536   8.848 -19.089  1.00  0.00    -0.083 Cl
ENDBRANCH  25  26
ENDBRANCH  24  25
ENDBRANCH   7  24
TORSDOF 7
ENDMDL
MODEL 5
REMARK VINA RESULT: -6.687554056      3.407      7.266
REMARK  7 active torsions:
REMARK  status: ('A' for Active; 'I' for Inactive)
REMARK    1  A    between atoms: N1_2  and  C2_4 
REMARK    2  A    between atoms: C3_7  and  N3_8 
REMARK    3  A    between atoms: N3_8  and  C4_10 
REMARK    4  A    between atoms: C4_10  and  C5_11 
REMARK    5  A    between atoms: C11_21  and  N6_22 
REMARK    6  A    between atoms: N6_22  and  C12_23 
REMARK    7  A    between atoms: C12_23  and  C13_24 
ROOT
HETATM    1  C2  UNL     1      14.635  10.211 -20.168  1.00  0.00     0.699 A 
HETATM    2  N2  UNL     1      14.824   8.963 -19.748  1.00  0.00    -0.022 N 
ATOM      3  H2  UNL     1      15.781   8.612 -19.691  1.00  0.00     0.203 HD
HETATM    4  C3  UNL     1      13.799   8.118 -19.387  1.00  0.00     0.700 A 
HETATM    5  N5  UNL     1      12.547   8.650 -19.477  1.00  0.00    -0.148 N 
ATOM      6  H5  UNL     1      11.751   8.068 -19.215  1.00  0.00     0.188 HD
HETATM    7  C11 UNL     1      12.308   9.931 -19.905  1.00  0.00     0.287 A 
HETATM    8  N7  UNL     1      13.380  10.678 -20.237  1.00  0.00    -0.148 N 
ATOM      9  H7  UNL     1      13.230  11.636 -20.554  1.00  0.00     0.188 HD
ENDROOT
BRANCH   4  10
HETATM   10  N3  UNL     1      14.104   6.953 -19.153  1.00  0.00    -0.199 N 
ATOM     11  H3  UNL     1      13.446   6.352 -19.650  1.00  0.00     0.183 HD
BRANCH  10  12
HETATM   12  C4  UNL     1      14.991   6.142 -18.481  1.00  0.00     0.135 C 
BRANCH  12  13
HETATM   13  C5  UNL     1      16.000   5.618 -19.478  1.00  0.00     0.048 A 
HETATM   14  C6  UNL     1      15.500   4.617 -20.319  1.00  0.00     0.031 A 
HETATM   15  C7  UNL     1      16.385   4.000 -21.166  1.00  0.00     0.010 A 
HETATM   16  C8  UNL     1      17.731   4.380 -21.180  1.00  0.00    -0.047 A 
HETATM   17  C9  UNL     1      18.598   3.638 -22.129  1.00  0.00     0.049 C 
HETATM   18  C10 UNL     1      18.172   5.361 -20.336  1.00  0.00     0.095 A 
HETATM   19  N4  UNL     1      17.267   5.956 -19.494  1.00  0.00    -0.364 N 
ATOM     20  H4  UNL     1      17.590   6.686 -18.858  1.00  0.00     0.165 HD
ENDBRANCH  12  13
ENDBRANCH  10  12
ENDBRANCH   4  10
BRANCH   1  21
HETATM   21  N1  UNL     1      15.547  10.840 -20.693  1.00  0.00    -0.211 N 
HETATM   22  C1  UNL     1      16.497  11.165 -21.592  1.00  0.00     0.137 C 
ATOM     23  H1  UNL     1      15.655  11.603 -20.024  1.00  0.00     0.182 HD
ENDBRANCH   1  21
BRANCH   7  24
HETATM   24  N6  UNL     1      11.188  10.279 -20.085  1.00  0.00    -0.382 NA
BRANCH  24  25
HETATM   25  C12 UNL     1       9.933  10.657 -20.315  1.00  0.00     0.199 C 
BRANCH  25  26
HETATM   26  C13 UNL     1       9.257  11.489 -19.329  1.00  0.00     0.015 A 
HETATM   27  C14 UNL     1       9.540  12.786 -19.126  1.00  0.00     0.022 A 
HETATM   28  C15 UNL     1       8.704  13.609 -18.363  1.00  0.00    -0.061 A 
HETATM   29  C16 UNL     1       8.954  15.040 -18.202  1.00  0.00     0.048 C 
HETATM   30  C17 UNL     1       7.543  13.034 -17.812  1.00  0.00     0.008 A 
HETATM   31  C18 UNL     1       7.255  11.720 -18.015  1.00  0.00     0.025 A 
HETATM   32  C19 UNL     1       8.108  10.972 -18.766  1.00  0.00     0.046 A 
HETATM   33 CL1  UNL     1       7.819   9.269 -18.969  1.00  0.00    -0.083 Cl
ENDBRANCH  25  26
ENDBRANCH  24  25
ENDBRANCH   7  24
TORSDOF 7
ENDMDL
