MODEL 1
REMARK VINA RESULT: -7.508637772      0.000      0.000
REMARK  6 active torsions:
REMARK  status: ('A' for Active; 'I' for Inactive)
REMARK    1  A    between atoms: C3_7  and  N3_8 
REMARK    2  A    between atoms: N3_8  and  C4_10 
REMARK    3  A    between atoms: C4_10  and  C5_11 
REMARK    4  A    between atoms: C10_20  and  N6_21 
REMARK    5  A    between atoms: N6_21  and  C11_23 
REMARK    6  A    between atoms: C14_26  and  C15_27 
ROOT
HETATM    1  C1  UNL     1      14.865   5.877 -17.924  1.00  0.00     0.165 C 
HETATM    2  N1  UNL     1      15.638   5.245 -18.954  1.00  0.00    -0.229 N 
ATOM      3  H1  UNL     1      15.414   4.279 -19.193  1.00  0.00     0.177 HD
HETATM    4  C2  UNL     1      16.589   5.815 -19.590  1.00  0.00     0.706 A 
HETATM    5  N2  UNL     1      16.920   7.081 -19.329  1.00  0.00    -0.021 N 
ATOM      6  H2  UNL     1      16.385   7.620 -18.647  1.00  0.00     0.203 HD
HETATM    7  C3  UNL     1      17.956   7.643 -19.962  1.00  0.00     0.711 A 
HETATM    8  N5  UNL     1      18.678   6.927 -20.879  1.00  0.00    -0.021 N 
ATOM      9  H5  UNL     1      19.467   7.360 -21.360  1.00  0.00     0.203 HD
HETATM   10  C10 UNL     1      18.340   5.629 -21.150  1.00  0.00     0.711 A 
HETATM   11  N7  UNL     1      17.315   5.084 -20.512  1.00  0.00    -0.021 N 
ATOM     12  H7  UNL     1      17.058   4.115 -20.704  1.00  0.00     0.203 HD
ENDROOT
BRANCH  10  13
HETATM   13  N6  UNL     1      19.043   5.034 -21.980  1.00  0.00    -0.191 N 
ATOM     14  H6  UNL     1      20.003   5.305 -21.766  1.00  0.00     0.184 HD
BRANCH  13  15
HETATM   15  C11 UNL     1      19.136   4.197 -23.032  1.00  0.00     0.051 A 
HETATM   16  C12 UNL     1      18.596   4.334 -24.303  1.00  0.00     0.031 A 
HETATM   17  C13 UNL     1      18.739   3.396 -25.292  1.00  0.00     0.015 A 
HETATM   18  C14 UNL     1      19.459   2.206 -25.066  1.00  0.00    -0.013 A 
HETATM   19  C18 UNL     1      20.005   2.038 -23.816  1.00  0.00     0.046 A 
HETATM   20 CL1  UNL     1      20.827   0.500 -23.445  1.00  0.00    -0.083 Cl
HETATM   21  C19 UNL     1      19.852   2.984 -22.850  1.00  0.00     0.054 A 
BRANCH  18  22
HETATM   22  C15 UNL     1      19.741   1.325 -26.188  1.00  0.00    -0.076 C 
HETATM   23  C16 UNL     1      20.563   1.869 -27.302  1.00  0.00     0.044 C 
HETATM   24  C17 UNL     1      18.871   0.202 -26.530  1.00  0.00     0.044 C 
ENDBRANCH  18  22
ENDBRANCH  13  15
ENDBRANCH  10  13
BRANCH   7  25
HETATM   25  N3  UNL     1      18.354   8.814 -19.762  1.00  0.00    -0.199 N 
ATOM     26  H3  UNL     1      17.711   9.334 -19.165  1.00  0.00     0.183 HD
BRANCH  25  27
HETATM   27  C4  UNL     1      19.442   9.588 -20.143  1.00  0.00     0.135 C 
BRANCH  27  28
HETATM   28  C5  UNL     1      20.466   9.640 -19.032  1.00  0.00     0.048 A 
HETATM   29  C6  UNL     1      21.244   8.516 -18.791  1.00  0.00     0.031 A 
HETATM   30  C7  UNL     1      22.221   8.547 -17.818  1.00  0.00     0.004 A 
HETATM   31  C8  UNL     1      22.433   9.696 -17.079  1.00  0.00     0.017 A 
HETATM   32  C9  UNL     1      21.640  10.790 -17.349  1.00  0.00     0.088 A 
HETATM   33  N4  UNL     1      20.680  10.724 -18.317  1.00  0.00    -0.365 N 
ATOM     34  H4  UNL     1      20.107  11.548 -18.494  1.00  0.00     0.165 HD
ENDBRANCH  27  28
ENDBRANCH  25  27
ENDBRANCH   7  25
TORSDOF 6
ENDMDL
MODEL 2
REMARK VINA RESULT: -7.414585598      6.090      9.574
REMARK  6 active torsions:
REMARK  status: ('A' for Active; 'I' for Inactive)
REMARK    1  A    between atoms: C3_7  and  N3_8 
REMARK    2  A    between atoms: N3_8  and  C4_10 
REMARK    3  A    between atoms: C4_10  and  C5_11 
REMARK    4  A    between atoms: C10_20  and  N6_21 
REMARK    5  A    between atoms: N6_21  and  C11_23 
REMARK    6  A    between atoms: C14_26  and  C15_27 
ROOT
HETATM    1  C1  UNL     1      12.431  14.593 -20.054  1.00  0.00     0.165 C 
HETATM    2  N1  UNL     1      13.013  13.453 -19.409  1.00  0.00    -0.229 N 
ATOM      3  H1  UNL     1      13.710  13.620 -18.682  1.00  0.00     0.177 HD
HETATM    4  C2  UNL     1      12.716  12.241 -19.685  1.00  0.00     0.706 A 
HETATM    5  N2  UNL     1      11.804  11.959 -20.619  1.00  0.00    -0.021 N 
ATOM      6  H2  UNL     1      11.303  12.714 -21.089  1.00  0.00     0.203 HD
HETATM    7  C3  UNL     1      11.547  10.685 -20.937  1.00  0.00     0.711 A 
HETATM    8  N5  UNL     1      12.214   9.667 -20.310  1.00  0.00    -0.021 N 
ATOM      9  H5  UNL     1      12.015   8.697 -20.555  1.00  0.00     0.203 HD
HETATM   10  C10 UNL     1      13.149   9.952 -19.352  1.00  0.00     0.711 A 
HETATM   11  N7  UNL     1      13.396  11.219 -19.049  1.00  0.00    -0.021 N 
ATOM     12  H7  UNL     1      14.094  11.441 -18.340  1.00  0.00     0.203 HD
ENDROOT
BRANCH  10  13
HETATM   13  N6  UNL     1      13.725   8.985 -18.833  1.00  0.00    -0.191 N 
ATOM     14  H6  UNL     1      13.601   9.103 -17.827  1.00  0.00     0.184 HD
BRANCH  13  15
HETATM   15  C11 UNL     1      14.439   7.850 -18.973  1.00  0.00     0.051 A 
HETATM   16  C12 UNL     1      14.032   6.538 -18.786  1.00  0.00     0.031 A 
HETATM   17  C13 UNL     1      14.863   5.458 -18.937  1.00  0.00     0.015 A 
HETATM   18  C14 UNL     1      16.216   5.626 -19.298  1.00  0.00    -0.013 A 
HETATM   19  C18 UNL     1      16.651   6.915 -19.489  1.00  0.00     0.046 A 
HETATM   20 CL1  UNL     1      18.379   7.188 -19.834  1.00  0.00    -0.083 Cl
HETATM   21  C19 UNL     1      15.807   7.972 -19.336  1.00  0.00     0.054 A 
BRANCH  18  22
HETATM   22  C15 UNL     1      17.013   4.455 -19.624  1.00  0.00    -0.076 C 
HETATM   23  C16 UNL     1      16.951   3.946 -21.021  1.00  0.00     0.044 C 
HETATM   24  C17 UNL     1      17.412   3.481 -18.611  1.00  0.00     0.044 C 
ENDBRANCH  18  22
ENDBRANCH  13  15
ENDBRANCH  10  13
BRANCH   7  25
HETATM   25  N3  UNL     1      10.729  10.329 -21.817  1.00  0.00    -0.199 N 
ATOM     26  H3  UNL     1       9.825  10.787 -21.698  1.00  0.00     0.183 HD
BRANCH  25  27
HETATM   27  C4  UNL     1      10.734   9.473 -22.910  1.00  0.00     0.135 C 
BRANCH  27  28
HETATM   28  C5  UNL     1       9.516   8.578 -22.883  1.00  0.00     0.048 A 
HETATM   29  C6  UNL     1       8.738   8.480 -24.028  1.00  0.00     0.031 A 
HETATM   30  C7  UNL     1       7.648   7.634 -24.053  1.00  0.00     0.004 A 
HETATM   31  C8  UNL     1       7.326   6.878 -22.942  1.00  0.00     0.017 A 
HETATM   32  C9  UNL     1       8.124   7.004 -21.825  1.00  0.00     0.088 A 
HETATM   33  N4  UNL     1       9.193   7.853 -21.833  1.00  0.00    -0.365 N 
ATOM     34  H4  UNL     1       9.765   7.928 -20.992  1.00  0.00     0.165 HD
ENDBRANCH  27  28
ENDBRANCH  25  27
ENDBRANCH   7  25
TORSDOF 6
ENDMDL
MODEL 3
REMARK VINA RESULT: -7.393415157      1.195      1.641
REMARK  6 active torsions:
REMARK  status: ('A' for Active; 'I' for Inactive)
REMARK    1  A    between atoms: C3_7  and  N3_8 
REMARK    2  A    between atoms: N3_8  and  C4_10 
REMARK    3  A    between atoms: C4_10  and  C5_11 
REMARK    4  A    between atoms: C10_20  and  N6_21 
REMARK    5  A    between atoms: N6_21  and  C11_23 
REMARK    6  A    between atoms: C14_26  and  C15_27 
ROOT
HETATM    1  C1  UNL     1      14.249   5.883 -18.646  1.00  0.00     0.165 C 
HETATM    2  N1  UNL     1      15.106   5.123 -19.508  1.00  0.00    -0.229 N 
ATOM      3  H1  UNL     1      14.796   4.193 -19.791  1.00  0.00     0.177 HD
HETATM    4  C2  UNL     1      16.234   5.537 -19.945  1.00  0.00     0.706 A 
HETATM    5  N2  UNL     1      16.689   6.748 -19.619  1.00  0.00    -0.021 N 
ATOM      6  H2  UNL     1      16.116   7.374 -19.052  1.00  0.00     0.203 HD
HETATM    7  C3  UNL     1      17.897   7.142 -20.037  1.00  0.00     0.711 A 
HETATM    8  N5  UNL     1      18.671   6.309 -20.800  1.00  0.00    -0.021 N 
ATOM      9  H5  UNL     1      19.591   6.614 -21.116  1.00  0.00     0.203 HD
HETATM   10  C10 UNL     1      18.208   5.066 -21.137  1.00  0.00     0.711 A 
HETATM   11  N7  UNL     1      17.011   4.688 -20.713  1.00  0.00    -0.021 N 
ATOM     12  H7  UNL     1      16.659   3.762 -20.955  1.00  0.00     0.203 HD
ENDROOT
BRANCH  10  13
HETATM   13  N6  UNL     1      18.964   4.358 -21.818  1.00  0.00    -0.191 N 
ATOM     14  H6  UNL     1      19.847   4.336 -21.307  1.00  0.00     0.184 HD
BRANCH  13  15
HETATM   15  C11 UNL     1      19.168   3.603 -22.916  1.00  0.00     0.051 A 
HETATM   16  C12 UNL     1      19.910   2.439 -23.045  1.00  0.00     0.031 A 
HETATM   17  C13 UNL     1      20.065   1.766 -24.230  1.00  0.00     0.015 A 
HETATM   18  C14 UNL     1      19.465   2.236 -25.416  1.00  0.00    -0.013 A 
HETATM   19  C18 UNL     1      18.724   3.389 -25.322  1.00  0.00     0.046 A 
HETATM   20 CL1  UNL     1      18.040   4.086 -26.813  1.00  0.00    -0.083 Cl
HETATM   21  C19 UNL     1      18.582   4.038 -24.134  1.00  0.00     0.054 A 
BRANCH  18  22
HETATM   22  C15 UNL     1      19.502   1.403 -26.606  1.00  0.00    -0.076 C 
HETATM   23  C16 UNL     1      18.904   0.044 -26.515  1.00  0.00     0.044 C 
HETATM   24  C17 UNL     1      20.507   1.585 -27.650  1.00  0.00     0.044 C 
ENDBRANCH  18  22
ENDBRANCH  13  15
ENDBRANCH  10  13
BRANCH   7  25
HETATM   25  N3  UNL     1      18.414   8.249 -19.758  1.00  0.00    -0.199 N 
ATOM     26  H3  UNL     1      17.929   8.708 -18.987  1.00  0.00     0.183 HD
BRANCH  25  27
HETATM   27  C4  UNL     1      19.475   9.012 -20.226  1.00  0.00     0.135 C 
BRANCH  27  28
HETATM   28  C5  UNL     1      20.450   9.301 -19.108  1.00  0.00     0.048 A 
HETATM   29  C6  UNL     1      21.290   8.283 -18.678  1.00  0.00     0.031 A 
HETATM   30  C7  UNL     1      22.225   8.528 -17.693  1.00  0.00     0.004 A 
HETATM   31  C8  UNL     1      22.333   9.786 -17.132  1.00  0.00     0.017 A 
HETATM   32  C9  UNL     1      21.482  10.769 -17.586  1.00  0.00     0.088 A 
HETATM   33  N4  UNL     1      20.566  10.493 -18.560  1.00  0.00    -0.365 N 
ATOM     34  H4  UNL     1      19.947  11.239 -18.876  1.00  0.00     0.165 HD
ENDBRANCH  27  28
ENDBRANCH  25  27
ENDBRANCH   7  25
TORSDOF 6
ENDMDL
MODEL 4
REMARK VINA RESULT: -7.350959245      1.429      1.856
REMARK  6 active torsions:
REMARK  status: ('A' for Active; 'I' for Inactive)
REMARK    1  A    between atoms: C3_7  and  N3_8 
REMARK    2  A    between atoms: N3_8  and  C4_10 
REMARK    3  A    between atoms: C4_10  and  C5_11 
REMARK    4  A    between atoms: C10_20  and  N6_21 
REMARK    5  A    between atoms: N6_21  and  C11_23 
REMARK    6  A    between atoms: C14_26  and  C15_27 
ROOT
HETATM    1  C1  UNL     1      14.483   5.824 -18.572  1.00  0.00     0.165 C 
HETATM    2  N1  UNL     1      15.057   5.211 -19.733  1.00  0.00    -0.229 N 
ATOM      3  H1  UNL     1      14.507   4.502 -20.220  1.00  0.00     0.177 HD
HETATM    4  C2  UNL     1      16.213   5.495 -20.198  1.00  0.00     0.706 A 
HETATM    5  N2  UNL     1      16.975   6.421 -19.612  1.00  0.00    -0.021 N 
ATOM      6  H2  UNL     1      16.619   6.943 -18.811  1.00  0.00     0.203 HD
HETATM    7  C3  UNL     1      18.206   6.664 -20.076  1.00  0.00     0.711 A 
HETATM    8  N5  UNL     1      18.689   5.968 -21.152  1.00  0.00    -0.021 N 
ATOM      9  H5  UNL     1      19.628   6.157 -21.503  1.00  0.00     0.203 HD
HETATM   10  C10 UNL     1      17.911   5.019 -21.756  1.00  0.00     0.711 A 
HETATM   11  N7  UNL     1      16.695   4.786 -21.283  1.00  0.00    -0.021 N 
ATOM     12  H7  UNL     1      16.109   4.076 -21.724  1.00  0.00     0.203 HD
ENDROOT
BRANCH  10  13
HETATM   13  N6  UNL     1      18.415   4.416 -22.716  1.00  0.00    -0.191 N 
ATOM     14  H6  UNL     1      18.204   4.988 -23.535  1.00  0.00     0.184 HD
BRANCH  13  15
HETATM   15  C11 UNL     1      19.109   3.362 -23.186  1.00  0.00     0.051 A 
HETATM   16  C12 UNL     1      19.925   2.479 -22.494  1.00  0.00     0.031 A 
HETATM   17  C13 UNL     1      20.605   1.449 -23.090  1.00  0.00     0.015 A 
HETATM   18  C14 UNL     1      20.514   1.225 -24.479  1.00  0.00    -0.013 A 
HETATM   19  C18 UNL     1      19.715   2.084 -25.194  1.00  0.00     0.046 A 
HETATM   20 CL1  UNL     1      19.655   1.914 -26.968  1.00  0.00    -0.083 Cl
HETATM   21  C19 UNL     1      19.047   3.098 -24.581  1.00  0.00     0.054 A 
BRANCH  18  22
HETATM   22  C15 UNL     1      21.101   0.021 -25.042  1.00  0.00    -0.076 C 
HETATM   23  C16 UNL     1      20.497  -1.284 -24.661  1.00  0.00     0.044 C 
HETATM   24  C17 UNL     1      22.492  -0.029 -25.488  1.00  0.00     0.044 C 
ENDBRANCH  18  22
ENDBRANCH  13  15
ENDBRANCH  10  13
BRANCH   7  25
HETATM   25  N3  UNL     1      18.998   7.495 -19.574  1.00  0.00    -0.199 N 
ATOM     26  H3  UNL     1      19.357   7.177 -18.674  1.00  0.00     0.183 HD
BRANCH  25  27
HETATM   27  C4  UNL     1      19.511   8.736 -19.925  1.00  0.00     0.135 C 
BRANCH  27  28
HETATM   28  C5  UNL     1      20.538   9.187 -18.912  1.00  0.00     0.048 A 
HETATM   29  C6  UNL     1      21.552   8.309 -18.555  1.00  0.00     0.031 A 
HETATM   30  C7  UNL     1      22.532   8.708 -17.670  1.00  0.00     0.004 A 
HETATM   31  C8  UNL     1      22.513   9.982 -17.135  1.00  0.00     0.017 A 
HETATM   32  C9  UNL     1      21.490  10.823 -17.514  1.00  0.00     0.088 A 
HETATM   33  N4  UNL     1      20.534  10.396 -18.390  1.00  0.00    -0.365 N 
ATOM     34  H4  UNL     1      19.787  11.039 -18.652  1.00  0.00     0.165 HD
ENDBRANCH  27  28
ENDBRANCH  25  27
ENDBRANCH   7  25
TORSDOF 6
ENDMDL
MODEL 5
REMARK VINA RESULT: -7.227676244      2.210      2.871
REMARK  6 active torsions:
REMARK  status: ('A' for Active; 'I' for Inactive)
REMARK    1  A    between atoms: C3_7  and  N3_8 
REMARK    2  A    between atoms: N3_8  and  C4_10 
REMARK    3  A    between atoms: C4_10  and  C5_11 
REMARK    4  A    between atoms: C10_20  and  N6_21 
REMARK    5  A    between atoms: N6_21  and  C11_23 
REMARK    6  A    between atoms: C14_26  and  C15_27 
ROOT
HETATM    1  C1  UNL     1      12.940   9.742 -18.944  1.00  0.00     0.165 C 
HETATM    2  N1  UNL     1      13.399   8.673 -19.782  1.00  0.00    -0.229 N 
ATOM      3  H1  UNL     1      12.742   7.925 -20.005  1.00  0.00     0.177 HD
HETATM    4  C2  UNL     1      14.580   8.596 -20.266  1.00  0.00     0.706 A 
HETATM    5  N2  UNL     1      15.481   9.549 -20.018  1.00  0.00    -0.021 N 
ATOM      6  H2  UNL     1      15.219  10.372 -19.474  1.00  0.00     0.203 HD
HETATM    7  C3  UNL     1      16.730   9.424 -20.484  1.00  0.00     0.711 A 
HETATM    8  N5  UNL     1      17.087   8.324 -21.215  1.00  0.00    -0.021 N 
ATOM      9  H5  UNL     1      18.040   8.233 -21.569  1.00  0.00     0.203 HD
HETATM   10  C10 UNL     1      16.166   7.345 -21.472  1.00  0.00     0.711 A 
HETATM   11  N7  UNL     1      14.935   7.480 -21.001  1.00  0.00    -0.021 N 
ATOM     12  H7  UNL     1      14.242   6.754 -21.184  1.00  0.00     0.203 HD
ENDROOT
BRANCH  10  13
HETATM   13  N6  UNL     1      16.560   6.370 -22.129  1.00  0.00    -0.191 N 
ATOM     14  H6  UNL     1      15.844   6.214 -22.839  1.00  0.00     0.184 HD
BRANCH  13  15
HETATM   15  C11 UNL     1      17.490   5.418 -22.345  1.00  0.00     0.051 A 
HETATM   16  C12 UNL     1      17.569   4.141 -21.810  1.00  0.00     0.031 A 
HETATM   17  C13 UNL     1      18.585   3.264 -22.088  1.00  0.00     0.015 A 
HETATM   18  C14 UNL     1      19.636   3.622 -22.957  1.00  0.00    -0.013 A 
HETATM   19  C18 UNL     1      19.588   4.882 -23.503  1.00  0.00     0.046 A 
HETATM   20 CL1  UNL     1      20.952   5.423 -24.516  1.00  0.00    -0.083 Cl
HETATM   21  C19 UNL     1      18.569   5.735 -23.213  1.00  0.00     0.054 A 
BRANCH  18  22
HETATM   22  C15 UNL     1      20.591   2.607 -23.368  1.00  0.00    -0.076 C 
HETATM   23  C16 UNL     1      20.211   1.720 -24.501  1.00  0.00     0.044 C 
HETATM   24  C17 UNL     1      21.597   2.071 -22.453  1.00  0.00     0.044 C 
ENDBRANCH  18  22
ENDBRANCH  13  15
ENDBRANCH  10  13
BRANCH   7  25
HETATM   25  N3  UNL     1      17.645  10.254 -20.278  1.00  0.00    -0.199 N 
ATOM     26  H3  UNL     1      17.362  10.971 -19.610  1.00  0.00     0.183 HD
BRANCH  25  27
HETATM   27  C4  UNL     1      18.944  10.451 -20.725  1.00  0.00     0.135 C 
BRANCH  27  28
HETATM   28  C5  UNL     1      19.936  10.045 -19.659  1.00  0.00     0.048 A 
HETATM   29  C6  UNL     1      20.358   8.724 -19.611  1.00  0.00     0.031 A 
HETATM   30  C7  UNL     1      21.299   8.332 -18.682  1.00  0.00     0.004 A 
HETATM   31  C8  UNL     1      21.829   9.251 -17.796  1.00  0.00     0.017 A 
HETATM   32  C9  UNL     1      21.384  10.552 -17.875  1.00  0.00     0.088 A 
HETATM   33  N4  UNL     1      20.450  10.906 -18.806  1.00  0.00    -0.365 N 
ATOM     34  H4  UNL     1      20.137  11.876 -18.841  1.00  0.00     0.165 HD
ENDBRANCH  27  28
ENDBRANCH  25  27
ENDBRANCH   7  25
TORSDOF 6
ENDMDL
