MODEL 1
REMARK VINA RESULT: -6.919590884      0.000      0.000
REMARK  8 active torsions:
REMARK  status: ('A' for Active; 'I' for Inactive)
REMARK    1  A    between atoms: C2_2  and  N1_3 
REMARK    2  A    between atoms: N1_3  and  C3_5 
REMARK    3  A    between atoms: C6_12  and  N4_13 
REMARK    4  A    between atoms: N4_13  and  C7_15 
REMARK    5  A    between atoms: C7_15  and  C9_17 
REMARK    6  A    between atoms: C10_18  and  C11_19 
REMARK    7  A    between atoms: C12_20  and  O1_21 
REMARK    8  A    between atoms: C16_25  and  C17_26 
ROOT
HETATM    1  C9  UNL     1      18.237   5.071 -23.017  1.00  0.00    -0.076 C 
HETATM    2  C10 UNL     1      18.630   4.134 -23.652  1.00  0.00    -0.059 C 
ENDROOT
BRANCH   1   3
HETATM    3  C7  UNL     1      17.736   6.265 -22.241  1.00  0.00     0.159 C 
HETATM    4  C8  UNL     1      18.662   6.305 -21.038  1.00  0.00     0.046 C 
BRANCH   3   5
HETATM    5  N4  UNL     1      16.381   6.104 -21.932  1.00  0.00    -0.358 N 
ATOM      6  H4  UNL     1      15.895   5.449 -22.545  1.00  0.00     0.162 HD
BRANCH   5   7
HETATM    7  C6  UNL     1      15.654   6.603 -21.057  1.00  0.00     0.146 A 
HETATM    8  C3  UNL     1      15.031   5.930 -20.037  1.00  0.00     0.145 A 
HETATM    9  N2  UNL     1      14.264   6.631 -19.155  1.00  0.00    -0.348 N 
HETATM   10  C4  UNL     1      14.091   7.959 -19.243  1.00  0.00     0.107 A 
ATOM     11  H2  UNL     1      13.802   6.126 -18.398  1.00  0.00     0.167 HD
HETATM   12  C5  UNL     1      14.733   8.610 -20.283  1.00  0.00     0.107 A 
HETATM   13  N3  UNL     1      15.479   7.970 -21.151  1.00  0.00    -0.348 N 
ATOM     14  H3  UNL     1      15.934   8.486 -21.903  1.00  0.00     0.167 HD
BRANCH   8  15
HETATM   15  N1  UNL     1      15.135   4.666 -19.872  1.00  0.00    -0.374 N 
ATOM     16  H1  UNL     1      14.866   4.069 -20.654  1.00  0.00     0.161 HD
BRANCH  15  17
HETATM   17  C2  UNL     1      15.597   4.023 -18.687  1.00  0.00     0.117 C 
HETATM   18  C1  UNL     1      17.116   3.946 -18.712  1.00  0.00     0.026 C 
ENDBRANCH  15  17
ENDBRANCH   8  15
ENDBRANCH   5   7
ENDBRANCH   3   5
ENDBRANCH   1   3
BRANCH   2  19
HETATM   19  C11 UNL     1      19.121   3.027 -24.420  1.00  0.00     0.090 A 
HETATM   20  C12 UNL     1      18.705   2.846 -25.728  1.00  0.00     0.090 A 
HETATM   21  C14 UNL     1      19.212   1.765 -26.411  1.00  0.00     0.039 A 
HETATM   22  C15 UNL     1      20.107   0.875 -25.834  1.00  0.00     0.018 A 
HETATM   23  C16 UNL     1      20.521   1.056 -24.528  1.00  0.00     0.017 A 
HETATM   24  C20 UNL     1      20.016   2.136 -23.842  1.00  0.00     0.149 A 
HETATM   25  F1  UNL     1      20.404   2.335 -22.567  1.00  0.00    -0.203 F 
BRANCH  20  26
HETATM   26  O1  UNL     1      17.806   3.748 -26.297  1.00  0.00    -0.354 OA
HETATM   27  C13 UNL     1      18.303   4.603 -27.312  1.00  0.00     0.210 C 
ENDBRANCH  20  26
BRANCH  23  28
HETATM   28  C17 UNL     1      21.463   0.103 -23.947  1.00  0.00     0.011 A 
HETATM   29  C18 UNL     1      21.295  -1.270 -23.885  1.00  0.00     0.120 A 
HETATM   30  N5  UNL     1      22.373  -1.810 -23.278  1.00  0.00    -0.311 N 
HETATM   31  N6  UNL     1      23.196  -0.825 -22.966  1.00  0.00    -0.311 N 
ATOM     32  H5  UNL     1      22.525  -2.802 -23.094  1.00  0.00     0.186 HD
HETATM   33  C19 UNL     1      22.685   0.357 -23.352  1.00  0.00     0.120 A 
ATOM     34  H6  UNL     1      24.095  -0.945 -22.498  1.00  0.00     0.186 HD
ENDBRANCH  23  28
ENDBRANCH   2  19
TORSDOF 8
ENDMDL
MODEL 2
REMARK VINA RESULT: -6.732096532      0.796      1.093
REMARK  8 active torsions:
REMARK  status: ('A' for Active; 'I' for Inactive)
REMARK    1  A    between atoms: C2_2  and  N1_3 
REMARK    2  A    between atoms: N1_3  and  C3_5 
REMARK    3  A    between atoms: C6_12  and  N4_13 
REMARK    4  A    between atoms: N4_13  and  C7_15 
REMARK    5  A    between atoms: C7_15  and  C9_17 
REMARK    6  A    between atoms: C10_18  and  C11_19 
REMARK    7  A    between atoms: C12_20  and  O1_21 
REMARK    8  A    between atoms: C16_25  and  C17_26 
ROOT
HETATM    1  C9  UNL     1      18.227   5.304 -22.791  1.00  0.00    -0.076 C 
HETATM    2  C10 UNL     1      18.602   4.498 -23.595  1.00  0.00    -0.059 C 
ENDROOT
BRANCH   1   3
HETATM    3  C7  UNL     1      17.749   6.338 -21.800  1.00  0.00     0.159 C 
HETATM    4  C8  UNL     1      18.653   6.106 -20.601  1.00  0.00     0.046 C 
BRANCH   3   5
HETATM    5  N4  UNL     1      16.384   6.166 -21.546  1.00  0.00    -0.358 N 
ATOM      6  H4  UNL     1      15.973   5.369 -22.034  1.00  0.00     0.162 HD
BRANCH   5   7
HETATM    7  C6  UNL     1      15.575   6.793 -20.843  1.00  0.00     0.146 A 
HETATM    8  C3  UNL     1      14.874   6.298 -19.772  1.00  0.00     0.145 A 
HETATM    9  N2  UNL     1      14.022   7.125 -19.103  1.00  0.00    -0.348 N 
HETATM   10  C4  UNL     1      13.837   8.408 -19.449  1.00  0.00     0.107 A 
ATOM     11  H2  UNL     1      13.503   6.752 -18.307  1.00  0.00     0.167 HD
HETATM   12  C5  UNL     1      14.558   8.878 -20.533  1.00  0.00     0.107 A 
HETATM   13  N3  UNL     1      15.388   8.114 -21.202  1.00  0.00    -0.348 N 
ATOM     14  H3  UNL     1      15.900   8.498 -21.995  1.00  0.00     0.167 HD
BRANCH   8  15
HETATM   15  N1  UNL     1      14.983   5.090 -19.368  1.00  0.00    -0.374 N 
ATOM     16  H1  UNL     1      14.534   4.367 -19.930  1.00  0.00     0.161 HD
BRANCH  15  17
HETATM   17  C2  UNL     1      15.681   4.669 -18.198  1.00  0.00     0.117 C 
HETATM   18  C1  UNL     1      16.812   3.732 -18.594  1.00  0.00     0.026 C 
ENDBRANCH  15  17
ENDBRANCH   8  15
ENDBRANCH   5   7
ENDBRANCH   3   5
ENDBRANCH   1   3
BRANCH   2  19
HETATM   19  C11 UNL     1      19.070   3.548 -24.561  1.00  0.00     0.090 A 
HETATM   20  C12 UNL     1      18.992   3.833 -25.914  1.00  0.00     0.090 A 
HETATM   21  C14 UNL     1      19.458   2.880 -26.791  1.00  0.00     0.039 A 
HETATM   22  C15 UNL     1      19.990   1.673 -26.361  1.00  0.00     0.018 A 
HETATM   23  C16 UNL     1      20.067   1.389 -25.012  1.00  0.00     0.017 A 
HETATM   24  C20 UNL     1      19.603   2.339 -24.132  1.00  0.00     0.149 A 
HETATM   25  F1  UNL     1      19.666   2.087 -22.809  1.00  0.00    -0.203 F 
BRANCH  20  26
HETATM   26  O1  UNL     1      18.456   5.051 -26.332  1.00  0.00    -0.354 OA
HETATM   27  C13 UNL     1      17.516   5.013 -27.392  1.00  0.00     0.210 C 
ENDBRANCH  20  26
BRANCH  23  28
HETATM   28  C17 UNL     1      20.632   0.110 -24.589  1.00  0.00     0.011 A 
HETATM   29  C18 UNL     1      21.714  -0.060 -23.744  1.00  0.00     0.120 A 
HETATM   30  N5  UNL     1      21.938  -1.382 -23.589  1.00  0.00    -0.311 N 
HETATM   31  N6  UNL     1      21.037  -2.031 -24.304  1.00  0.00    -0.311 N 
ATOM     32  H5  UNL     1      22.672  -1.805 -23.021  1.00  0.00     0.186 HD
HETATM   33  C19 UNL     1      20.221  -1.166 -24.931  1.00  0.00     0.120 A 
ATOM     34  H6  UNL     1      20.969  -3.047 -24.372  1.00  0.00     0.186 HD
ENDBRANCH  23  28
ENDBRANCH   2  19
TORSDOF 8
ENDMDL
MODEL 3
REMARK VINA RESULT: -6.715531029      1.052      1.413
REMARK  8 active torsions:
REMARK  status: ('A' for Active; 'I' for Inactive)
REMARK    1  A    between atoms: C2_2  and  N1_3 
REMARK    2  A    between atoms: N1_3  and  C3_5 
REMARK    3  A    between atoms: C6_12  and  N4_13 
REMARK    4  A    between atoms: N4_13  and  C7_15 
REMARK    5  A    between atoms: C7_15  and  C9_17 
REMARK    6  A    between atoms: C10_18  and  C11_19 
REMARK    7  A    between atoms: C12_20  and  O1_21 
REMARK    8  A    between atoms: C16_25  and  C17_26 
ROOT
HETATM    1  C9  UNL     1      18.421   4.757 -22.896  1.00  0.00    -0.076 C 
HETATM    2  C10 UNL     1      18.800   3.876 -23.614  1.00  0.00    -0.059 C 
ENDROOT
BRANCH   1   3
HETATM    3  C7  UNL     1      17.925   5.848 -21.978  1.00  0.00     0.159 C 
HETATM    4  C8  UNL     1      18.411   5.394 -20.612  1.00  0.00     0.046 C 
BRANCH   3   5
HETATM    5  N4  UNL     1      16.537   5.979 -22.091  1.00  0.00    -0.358 N 
ATOM      6  H4  UNL     1      16.054   5.097 -22.264  1.00  0.00     0.162 HD
BRANCH   5   7
HETATM    7  C6  UNL     1      15.777   6.960 -22.024  1.00  0.00     0.146 A 
HETATM    8  C3  UNL     1      15.179   7.448 -20.890  1.00  0.00     0.145 A 
HETATM    9  N2  UNL     1      14.369   8.540 -20.990  1.00  0.00    -0.348 N 
HETATM   10  C4  UNL     1      14.130   9.160 -22.156  1.00  0.00     0.107 A 
ATOM     11  H2  UNL     1      13.927   8.900 -20.144  1.00  0.00     0.167 HD
HETATM   12  C5  UNL     1      14.748   8.644 -23.282  1.00  0.00     0.107 A 
HETATM   13  N3  UNL     1      15.534   7.596 -23.226  1.00  0.00    -0.348 N 
ATOM     14  H3  UNL     1      15.969   7.246 -24.079  1.00  0.00     0.167 HD
BRANCH   8  15
HETATM   15  N1  UNL     1      15.346   6.925 -19.736  1.00  0.00    -0.374 N 
ATOM     16  H1  UNL     1      16.187   7.188 -19.221  1.00  0.00     0.161 HD
BRANCH  15  17
HETATM   17  C2  UNL     1      14.456   6.006 -19.107  1.00  0.00     0.117 C 
HETATM   18  C1  UNL     1      15.107   4.633 -19.045  1.00  0.00     0.026 C 
ENDBRANCH  15  17
ENDBRANCH   8  15
ENDBRANCH   5   7
ENDBRANCH   3   5
ENDBRANCH   1   3
BRANCH   2  19
HETATM   19  C11 UNL     1      19.230   2.822 -24.486  1.00  0.00     0.090 A 
HETATM   20  C12 UNL     1      18.725   2.730 -25.771  1.00  0.00     0.090 A 
HETATM   21  C14 UNL     1      19.178   1.696 -26.558  1.00  0.00     0.039 A 
HETATM   22  C15 UNL     1      20.104   0.768 -26.104  1.00  0.00     0.018 A 
HETATM   23  C16 UNL     1      20.607   0.860 -24.821  1.00  0.00     0.017 A 
HETATM   24  C20 UNL     1      20.157   1.892 -24.031  1.00  0.00     0.149 A 
HETATM   25  F1  UNL     1      20.632   2.005 -22.774  1.00  0.00    -0.203 F 
BRANCH  20  26
HETATM   26  O1  UNL     1      17.795   3.670 -26.216  1.00  0.00    -0.354 OA
HETATM   27  C13 UNL     1      18.205   4.544 -27.253  1.00  0.00     0.210 C 
ENDBRANCH  20  26
BRANCH  23  28
HETATM   28  C17 UNL     1      21.580  -0.132 -24.370  1.00  0.00     0.011 A 
HETATM   29  C18 UNL     1      21.317  -1.211 -23.544  1.00  0.00     0.120 A 
HETATM   30  N5  UNL     1      22.462  -1.897 -23.351  1.00  0.00    -0.311 N 
HETATM   31  N6  UNL     1      23.419  -1.284 -24.025  1.00  0.00    -0.311 N 
ATOM     32  H5  UNL     1      22.571  -2.740 -22.786  1.00  0.00     0.186 HD
HETATM   33  C19 UNL     1      22.930  -0.205 -24.660  1.00  0.00     0.120 A 
ATOM     34  H6  UNL     1      24.392  -1.588 -24.060  1.00  0.00     0.186 HD
ENDBRANCH  23  28
ENDBRANCH   2  19
TORSDOF 8
ENDMDL
MODEL 4
REMARK VINA RESULT: -6.704495780      1.680      2.736
REMARK  8 active torsions:
REMARK  status: ('A' for Active; 'I' for Inactive)
REMARK    1  A    between atoms: C2_2  and  N1_3 
REMARK    2  A    between atoms: N1_3  and  C3_5 
REMARK    3  A    between atoms: C6_12  and  N4_13 
REMARK    4  A    between atoms: N4_13  and  C7_15 
REMARK    5  A    between atoms: C7_15  and  C9_17 
REMARK    6  A    between atoms: C10_18  and  C11_19 
REMARK    7  A    between atoms: C12_20  and  O1_21 
REMARK    8  A    between atoms: C16_25  and  C17_26 
ROOT
HETATM    1  C9  UNL     1      18.277   4.460 -21.130  1.00  0.00    -0.076 C 
HETATM    2  C10 UNL     1      18.594   4.114 -22.233  1.00  0.00    -0.059 C 
ENDROOT
BRANCH   1   3
HETATM    3  C7  UNL     1      17.881   4.868 -19.732  1.00  0.00     0.159 C 
HETATM    4  C8  UNL     1      16.750   3.909 -19.402  1.00  0.00     0.046 C 
BRANCH   3   5
HETATM    5  N4  UNL     1      17.526   6.221 -19.708  1.00  0.00    -0.358 N 
ATOM      6  H4  UNL     1      18.318   6.855 -19.816  1.00  0.00     0.162 HD
BRANCH   5   7
HETATM    7  C6  UNL     1      16.435   6.801 -19.580  1.00  0.00     0.146 A 
HETATM    8  C3  UNL     1      15.587   7.170 -20.593  1.00  0.00     0.145 A 
HETATM    9  N2  UNL     1      14.420   7.802 -20.280  1.00  0.00    -0.348 N 
HETATM   10  C4  UNL     1      14.066   8.081 -19.017  1.00  0.00     0.107 A 
ATOM     11  H2  UNL     1      13.793   8.074 -21.037  1.00  0.00     0.167 HD
HETATM   12  C5  UNL     1      14.942   7.697 -18.016  1.00  0.00     0.107 A 
HETATM   13  N3  UNL     1      16.073   7.088 -18.278  1.00  0.00    -0.348 N 
ATOM     14  H3  UNL     1      16.692   6.822 -17.513  1.00  0.00     0.167 HD
BRANCH   8  15
HETATM   15  N1  UNL     1      15.839   6.947 -21.827  1.00  0.00    -0.374 N 
ATOM     16  H1  UNL     1      16.071   5.989 -22.090  1.00  0.00     0.161 HD
BRANCH  15  17
HETATM   17  C2  UNL     1      15.821   7.924 -22.864  1.00  0.00     0.117 C 
HETATM   18  C1  UNL     1      17.017   8.850 -22.708  1.00  0.00     0.026 C 
ENDBRANCH  15  17
ENDBRANCH   8  15
ENDBRANCH   5   7
ENDBRANCH   3   5
ENDBRANCH   1   3
BRANCH   2  19
HETATM   19  C11 UNL     1      18.950   3.687 -23.554  1.00  0.00     0.090 A 
HETATM   20  C12 UNL     1      18.722   4.514 -24.640  1.00  0.00     0.090 A 
HETATM   21  C14 UNL     1      19.086   4.046 -25.882  1.00  0.00     0.039 A 
HETATM   22  C15 UNL     1      19.662   2.797 -26.065  1.00  0.00     0.018 A 
HETATM   23  C16 UNL     1      19.889   1.972 -24.981  1.00  0.00     0.017 A 
HETATM   24  C20 UNL     1      19.526   2.436 -23.738  1.00  0.00     0.149 A 
HETATM   25  F1  UNL     1      19.737   1.650 -22.663  1.00  0.00    -0.203 F 
BRANCH  20  26
HETATM   26  O1  UNL     1      18.143   5.768 -24.442  1.00  0.00    -0.354 OA
HETATM   27  C13 UNL     1      18.166   6.670 -25.534  1.00  0.00     0.210 C 
ENDBRANCH  20  26
BRANCH  23  28
HETATM   28  C17 UNL     1      20.496   0.662 -25.204  1.00  0.00     0.011 A 
HETATM   29  C18 UNL     1      21.832   0.346 -25.028  1.00  0.00     0.120 A 
HETATM   30  N5  UNL     1      22.011  -0.957 -25.333  1.00  0.00    -0.311 N 
HETATM   31  N6  UNL     1      20.840  -1.453 -25.688  1.00  0.00    -0.311 N 
ATOM     32  H5  UNL     1      22.894  -1.467 -25.295  1.00  0.00     0.186 HD
HETATM   33  C19 UNL     1      19.888  -0.506 -25.627  1.00  0.00     0.120 A 
ATOM     34  H6  UNL     1      20.680  -2.421 -25.970  1.00  0.00     0.186 HD
ENDBRANCH  23  28
ENDBRANCH   2  19
TORSDOF 8
ENDMDL
MODEL 5
REMARK VINA RESULT: -6.693473319      0.889      2.066
REMARK  8 active torsions:
REMARK  status: ('A' for Active; 'I' for Inactive)
REMARK    1  A    between atoms: C2_2  and  N1_3 
REMARK    2  A    between atoms: N1_3  and  C3_5 
REMARK    3  A    between atoms: C6_12  and  N4_13 
REMARK    4  A    between atoms: N4_13  and  C7_15 
REMARK    5  A    between atoms: C7_15  and  C9_17 
REMARK    6  A    between atoms: C10_18  and  C11_19 
REMARK    7  A    between atoms: C12_20  and  O1_21 
REMARK    8  A    between atoms: C16_25  and  C17_26 
ROOT
HETATM    1  C9  UNL     1      18.372   4.873 -23.220  1.00  0.00    -0.076 C 
HETATM    2  C10 UNL     1      18.755   3.954 -23.886  1.00  0.00    -0.059 C 
ENDROOT
BRANCH   1   3
HETATM    3  C7  UNL     1      17.874   6.013 -22.363  1.00  0.00     0.159 C 
HETATM    4  C8  UNL     1      18.750   5.918 -21.125  1.00  0.00     0.046 C 
BRANCH   3   5
HETATM    5  N4  UNL     1      16.504   5.871 -22.123  1.00  0.00    -0.358 N 
ATOM      6  H4  UNL     1      15.965   5.621 -22.953  1.00  0.00     0.162 HD
BRANCH   5   7
HETATM    7  C6  UNL     1      15.814   5.991 -21.097  1.00  0.00     0.146 A 
HETATM    8  C3  UNL     1      15.252   7.150 -20.626  1.00  0.00     0.145 A 
HETATM    9  N2  UNL     1      14.518   7.109 -19.478  1.00  0.00    -0.348 N 
HETATM   10  C4  UNL     1      14.321   5.977 -18.785  1.00  0.00     0.107 A 
ATOM     11  H2  UNL     1      14.101   7.974 -19.132  1.00  0.00     0.167 HD
HETATM   12  C5  UNL     1      14.901   4.823 -19.286  1.00  0.00     0.107 A 
HETATM   13  N3  UNL     1      15.613   4.823 -20.386  1.00  0.00    -0.348 N 
ATOM     14  H3  UNL     1      16.025   3.953 -20.721  1.00  0.00     0.167 HD
BRANCH   8  15
HETATM   15  N1  UNL     1      15.383   8.277 -21.216  1.00  0.00    -0.374 N 
ATOM     16  H1  UNL     1      15.127   8.320 -22.203  1.00  0.00     0.161 HD
BRANCH  15  17
HETATM   17  C2  UNL     1      15.858   9.477 -20.612  1.00  0.00     0.117 C 
HETATM   18  C1  UNL     1      17.370   9.406 -20.464  1.00  0.00     0.026 C 
ENDBRANCH  15  17
ENDBRANCH   8  15
ENDBRANCH   5   7
ENDBRANCH   3   5
ENDBRANCH   1   3
BRANCH   2  19
HETATM   19  C11 UNL     1      19.189   2.852 -24.694  1.00  0.00     0.090 A 
HETATM   20  C12 UNL     1      18.694   2.689 -25.977  1.00  0.00     0.090 A 
HETATM   21  C14 UNL     1      19.150   1.611 -26.700  1.00  0.00     0.039 A 
HETATM   22  C15 UNL     1      20.070   0.708 -26.187  1.00  0.00     0.018 A 
HETATM   23  C16 UNL     1      20.563   0.871 -24.908  1.00  0.00     0.017 A 
HETATM   24  C20 UNL     1      20.109   1.947 -24.181  1.00  0.00     0.149 A 
HETATM   25  F1  UNL     1      20.575   2.129 -22.929  1.00  0.00    -0.203 F 
BRANCH  20  26
HETATM   26  O1  UNL     1      17.770   3.605 -26.481  1.00  0.00    -0.354 OA
HETATM   27  C13 UNL     1      18.250   4.565 -27.405  1.00  0.00     0.210 C 
ENDBRANCH  20  26
BRANCH  23  28
HETATM   28  C17 UNL     1      21.529  -0.096 -24.394  1.00  0.00     0.011 A 
HETATM   29  C18 UNL     1      21.261  -1.113 -23.494  1.00  0.00     0.120 A 
HETATM   30  N5  UNL     1      22.402  -1.795 -23.260  1.00  0.00    -0.311 N 
HETATM   31  N6  UNL     1      23.359  -1.239 -23.980  1.00  0.00    -0.311 N 
ATOM     32  H5  UNL     1      22.506  -2.597 -22.638  1.00  0.00     0.186 HD
HETATM   33  C19 UNL     1      22.877  -0.202 -24.685  1.00  0.00     0.120 A 
ATOM     34  H6  UNL     1      24.330  -1.554 -23.998  1.00  0.00     0.186 HD
ENDBRANCH  23  28
ENDBRANCH   2  19
TORSDOF 8
ENDMDL
