MODEL 1
REMARK VINA RESULT: -7.292949525      0.000      0.000
REMARK  4 active torsions:
REMARK  status: ('A' for Active; 'I' for Inactive)
REMARK    1  A    between atoms: N1_1  and  N2_4 
REMARK       I    between atoms: N2_4  and  C1_6 
REMARK       I    between atoms: C1_6  and  N4_8 
REMARK    2  A    between atoms: N4_8  and  C2_10 
REMARK    3  A    between atoms: N8_20  and  C5_22 
REMARK    4  A    between atoms: C5_22  and  C6_23 
ROOT
HETATM    1  C2  UNL     1      39.684  13.942 -15.364  1.00  0.00     0.157 A 
HETATM    2  N5  UNL     1      39.827  13.120 -16.410  1.00  0.00    -0.290 N 
ATOM      3  H5  UNL     1      40.496  13.375 -17.137  1.00  0.00     0.172 HD
HETATM    4  C3  UNL     1      39.135  11.976 -16.556  1.00  0.00     0.340 A 
HETATM    5  O1  UNL     1      39.288  11.212 -17.557  1.00  0.00    -0.245 OA
HETATM    6  N6  UNL     1      38.260  11.673 -15.576  1.00  0.00    -0.250 N 
ATOM      7  H6  UNL     1      37.713  10.815 -15.641  1.00  0.00     0.192 HD
HETATM    8  N7  UNL     1      38.099  12.465 -14.533  1.00  0.00    -0.279 N 
ATOM      9  H7  UNL     1      37.426  12.197 -13.815  1.00  0.00     0.189 HD
HETATM   10  C4  UNL     1      38.785  13.611 -14.378  1.00  0.00     0.161 A 
HETATM   11  N8  UNL     1      38.591  14.354 -13.337  1.00  0.00    -0.366 N 
ATOM     12  H8  UNL     1      39.132  15.215 -13.256  1.00  0.00     0.161 HD
ENDROOT
BRANCH   1  13
HETATM   13  N4  UNL     1      40.349  15.027 -15.241  1.00  0.00    -0.312 N 
HETATM   14  C1  UNL     1      41.624  15.137 -14.651  1.00  0.00     0.208 C 
HETATM   15  N2  UNL     1      41.852  14.966 -13.395  1.00  0.00    -0.280 N 
HETATM   16  N3  UNL     1      42.723  15.454 -15.488  1.00  0.00    -0.062 NA
ATOM     17  H2  UNL     1      41.071  14.738 -12.778  1.00  0.00     0.189 HD
ATOM     18  H4  UNL     1      39.923  15.881 -15.600  1.00  0.00     0.170 HD
BRANCH  15  19
HETATM   19  N1  UNL     1      43.126  15.083 -12.851  1.00  0.00    -0.343 N 
ATOM     20  H12 UNL     1      43.923  15.004 -13.483  1.00  0.00     0.176 HD
ATOM     21  H11 UNL     1      43.278  15.244 -11.856  1.00  0.00     0.176 HD
ENDBRANCH  15  19
ENDBRANCH   1  13
BRANCH  11  22
HETATM   22  C5  UNL     1      37.668  14.044 -12.295  1.00  0.00     0.190 C 
BRANCH  22  23
HETATM   23  C6  UNL     1      38.318  13.488 -11.083  1.00  0.00     0.250 C 
HETATM   24  O2  UNL     1      39.507  13.601 -10.836  1.00  0.00    -0.305 OA
ENDBRANCH  22  23
ENDBRANCH  11  22
TORSDOF 4
ENDMDL
MODEL 2
REMARK VINA RESULT: -7.199242548      1.499      1.923
REMARK  4 active torsions:
REMARK  status: ('A' for Active; 'I' for Inactive)
REMARK    1  A    between atoms: N1_1  and  N2_4 
REMARK       I    between atoms: N2_4  and  C1_6 
REMARK       I    between atoms: C1_6  and  N4_8 
REMARK    2  A    between atoms: N4_8  and  C2_10 
REMARK    3  A    between atoms: N8_20  and  C5_22 
REMARK    4  A    between atoms: C5_22  and  C6_23 
ROOT
HETATM    1  C2  UNL     1      40.234  12.896 -14.693  1.00  0.00     0.157 A 
HETATM    2  N5  UNL     1      40.220  12.079 -15.752  1.00  0.00    -0.290 N 
ATOM      3  H5  UNL     1      41.108  11.863 -16.206  1.00  0.00     0.172 HD
HETATM    4  C3  UNL     1      39.100  11.527 -16.250  1.00  0.00     0.340 A 
HETATM    5  O1  UNL     1      39.111  10.755 -17.256  1.00  0.00    -0.245 OA
HETATM    6  N6  UNL     1      37.947  11.837 -15.623  1.00  0.00    -0.250 N 
ATOM      7  H6  UNL     1      37.071  11.442 -15.964  1.00  0.00     0.192 HD
HETATM    8  N7  UNL     1      37.930  12.640 -14.576  1.00  0.00    -0.279 N 
ATOM      9  H7  UNL     1      37.036  12.846 -14.132  1.00  0.00     0.189 HD
HETATM   10  C4  UNL     1      39.045  13.196 -14.070  1.00  0.00     0.161 A 
HETATM   11  N8  UNL     1      38.977  13.978 -13.042  1.00  0.00    -0.366 N 
ATOM     12  H8  UNL     1      39.846  14.380 -12.688  1.00  0.00     0.161 HD
ENDROOT
BRANCH   1  13
HETATM   13  N4  UNL     1      41.309  13.412 -14.232  1.00  0.00    -0.312 N 
HETATM   14  C1  UNL     1      42.031  14.461 -14.835  1.00  0.00     0.208 C 
HETATM   15  N2  UNL     1      42.674  14.347 -15.944  1.00  0.00    -0.280 N 
HETATM   16  N3  UNL     1      42.050  15.720 -14.183  1.00  0.00    -0.062 NA
ATOM     17  H2  UNL     1      42.671  13.447 -16.426  1.00  0.00     0.189 HD
ATOM     18  H4  UNL     1      41.673  13.036 -13.357  1.00  0.00     0.170 HD
BRANCH  15  19
HETATM   19  N1  UNL     1      43.374  15.407 -16.507  1.00  0.00    -0.343 N 
ATOM     20  H12 UNL     1      42.850  16.247 -16.754  1.00  0.00     0.176 HD
ATOM     21  H11 UNL     1      44.380  15.366 -16.675  1.00  0.00     0.176 HD
ENDBRANCH  15  19
ENDBRANCH   1  13
BRANCH  11  22
HETATM   22  C5  UNL     1      37.764  14.312 -12.371  1.00  0.00     0.190 C 
BRANCH  22  23
HETATM   23  C6  UNL     1      37.266  15.670 -12.701  1.00  0.00     0.250 C 
HETATM   24  O2  UNL     1      36.656  16.379 -11.919  1.00  0.00    -0.305 OA
ENDBRANCH  22  23
ENDBRANCH  11  22
TORSDOF 4
ENDMDL
MODEL 3
REMARK VINA RESULT: -7.072474393      2.267      5.289
REMARK  4 active torsions:
REMARK  status: ('A' for Active; 'I' for Inactive)
REMARK    1  A    between atoms: N1_1  and  N2_4 
REMARK       I    between atoms: N2_4  and  C1_6 
REMARK       I    between atoms: C1_6  and  N4_8 
REMARK    2  A    between atoms: N4_8  and  C2_10 
REMARK    3  A    between atoms: N8_20  and  C5_22 
REMARK    4  A    between atoms: C5_22  and  C6_23 
ROOT
HETATM    1  C2  UNL     1      40.474  14.566 -14.943  1.00  0.00     0.157 A 
HETATM    2  N5  UNL     1      41.313  15.192 -14.110  1.00  0.00    -0.290 N 
ATOM      3  H5  UNL     1      41.020  15.330 -13.143  1.00  0.00     0.172 HD
HETATM    4  C3  UNL     1      42.523  15.649 -14.480  1.00  0.00     0.340 A 
HETATM    5  O1  UNL     1      43.302  16.240 -13.673  1.00  0.00    -0.245 OA
HETATM    6  N6  UNL     1      42.874  15.448 -15.766  1.00  0.00    -0.250 N 
ATOM      7  H6  UNL     1      43.783  15.777 -16.093  1.00  0.00     0.192 HD
HETATM    8  N7  UNL     1      42.067  14.834 -16.609  1.00  0.00    -0.279 N 
ATOM      9  H7  UNL     1      42.374  14.703 -17.573  1.00  0.00     0.189 HD
HETATM   10  C4  UNL     1      40.856  14.373 -16.250  1.00  0.00     0.161 A 
HETATM   11  N8  UNL     1      40.099  13.777 -17.114  1.00  0.00    -0.366 N 
ATOM     12  H8  UNL     1      39.188  13.442 -16.801  1.00  0.00     0.161 HD
ENDROOT
BRANCH   1  13
HETATM   13  N4  UNL     1      39.327  14.137 -14.575  1.00  0.00    -0.312 N 
HETATM   14  C1  UNL     1      38.932  13.913 -13.242  1.00  0.00     0.208 C 
HETATM   15  N2  UNL     1      39.413  12.981 -12.495  1.00  0.00    -0.280 N 
HETATM   16  N3  UNL     1      37.944  14.766 -12.686  1.00  0.00    -0.062 NA
ATOM     17  H2  UNL     1      40.124  12.358 -12.881  1.00  0.00     0.189 HD
ATOM     18  H4  UNL     1      38.643  13.943 -15.306  1.00  0.00     0.170 HD
BRANCH  15  19
HETATM   19  N1  UNL     1      38.995  12.794 -11.183  1.00  0.00    -0.343 N 
ATOM     20  H12 UNL     1      39.712  12.696 -10.464  1.00  0.00     0.176 HD
ATOM     21  H11 UNL     1      38.009  12.752 -10.928  1.00  0.00     0.176 HD
ENDBRANCH  15  19
ENDBRANCH   1  13
BRANCH  11  22
HETATM   22  C5  UNL     1      40.461  13.560 -18.476  1.00  0.00     0.190 C 
BRANCH  22  23
HETATM   23  C6  UNL     1      41.153  12.266 -18.700  1.00  0.00     0.250 C 
HETATM   24  O2  UNL     1      42.336  12.080 -18.469  1.00  0.00    -0.305 OA
ENDBRANCH  22  23
ENDBRANCH  11  22
TORSDOF 4
ENDMDL
MODEL 4
REMARK VINA RESULT: -7.062311560      1.081      1.529
REMARK  4 active torsions:
REMARK  status: ('A' for Active; 'I' for Inactive)
REMARK    1  A    between atoms: N1_1  and  N2_4 
REMARK       I    between atoms: N2_4  and  C1_6 
REMARK       I    between atoms: C1_6  and  N4_8 
REMARK    2  A    between atoms: N4_8  and  C2_10 
REMARK    3  A    between atoms: N8_20  and  C5_22 
REMARK    4  A    between atoms: C5_22  and  C6_23 
ROOT
HETATM    1  C2  UNL     1      40.279  12.818 -14.871  1.00  0.00     0.157 A 
HETATM    2  N5  UNL     1      40.217  11.966 -15.900  1.00  0.00    -0.290 N 
ATOM      3  H5  UNL     1      41.093  11.643 -16.313  1.00  0.00     0.172 HD
HETATM    4  C3  UNL     1      39.063  11.514 -16.422  1.00  0.00     0.340 A 
HETATM    5  O1  UNL     1      39.029  10.706 -17.399  1.00  0.00    -0.245 OA
HETATM    6  N6  UNL     1      37.928  11.963 -15.850  1.00  0.00    -0.250 N 
ATOM      7  H6  UNL     1      37.028  11.647 -16.211  1.00  0.00     0.192 HD
HETATM    8  N7  UNL     1      37.958  12.804 -14.834  1.00  0.00    -0.279 N 
ATOM      9  H7  UNL     1      37.076  13.118 -14.433  1.00  0.00     0.189 HD
HETATM   10  C4  UNL     1      39.106  13.262 -14.306  1.00  0.00     0.161 A 
HETATM   11  N8  UNL     1      39.085  14.086 -13.308  1.00  0.00    -0.366 N 
ATOM     12  H8  UNL     1      39.978  14.410 -12.936  1.00  0.00     0.161 HD
ENDROOT
BRANCH   1  13
HETATM   13  N4  UNL     1      41.385  13.239 -14.387  1.00  0.00    -0.312 N 
HETATM   14  C1  UNL     1      42.118  14.339 -14.874  1.00  0.00     0.208 C 
HETATM   15  N2  UNL     1      42.719  14.356 -16.013  1.00  0.00    -0.280 N 
HETATM   16  N3  UNL     1      42.200  15.499 -14.062  1.00  0.00    -0.062 NA
ATOM     17  H2  UNL     1      42.671  13.529 -16.609  1.00  0.00     0.189 HD
ATOM     18  H4  UNL     1      41.767  12.740 -13.585  1.00  0.00     0.170 HD
BRANCH  15  19
HETATM   19  N1  UNL     1      43.433  15.463 -16.457  1.00  0.00    -0.343 N 
ATOM     20  H12 UNL     1      44.032  15.945 -15.786  1.00  0.00     0.176 HD
ATOM     21  H11 UNL     1      43.372  15.798 -17.418  1.00  0.00     0.176 HD
ENDBRANCH  15  19
ENDBRANCH   1  13
BRANCH  11  22
HETATM   22  C5  UNL     1      37.890  14.568 -12.696  1.00  0.00     0.190 C 
BRANCH  22  23
HETATM   23  C6  UNL     1      37.567  13.883 -11.421  1.00  0.00     0.250 C 
HETATM   24  O2  UNL     1      38.365  13.726 -10.513  1.00  0.00    -0.305 OA
ENDBRANCH  22  23
ENDBRANCH  11  22
TORSDOF 4
ENDMDL
MODEL 5
REMARK VINA RESULT: -6.973085500      1.710      4.255
REMARK  4 active torsions:
REMARK  status: ('A' for Active; 'I' for Inactive)
REMARK    1  A    between atoms: N1_1  and  N2_4 
REMARK       I    between atoms: N2_4  and  C1_6 
REMARK       I    between atoms: C1_6  and  N4_8 
REMARK    2  A    between atoms: N4_8  and  C2_10 
REMARK    3  A    between atoms: N8_20  and  C5_22 
REMARK    4  A    between atoms: C5_22  and  C6_23 
ROOT
HETATM    1  C2  UNL     1      40.479  13.700 -14.385  1.00  0.00     0.157 A 
HETATM    2  N5  UNL     1      39.710  13.812 -13.296  1.00  0.00    -0.290 N 
ATOM      3  H5  UNL     1      40.132  14.183 -12.445  1.00  0.00     0.172 HD
HETATM    4  C3  UNL     1      38.412  13.461 -13.263  1.00  0.00     0.340 A 
HETATM    5  O1  UNL     1      37.703  13.577 -12.219  1.00  0.00    -0.245 OA
HETATM    6  N6  UNL     1      37.892  12.975 -14.408  1.00  0.00    -0.250 N 
ATOM      7  H6  UNL     1      36.911  12.697 -14.432  1.00  0.00     0.192 HD
HETATM    8  N7  UNL     1      38.626  12.853 -15.497  1.00  0.00    -0.279 N 
ATOM      9  H7  UNL     1      38.190  12.481 -16.341  1.00  0.00     0.189 HD
HETATM   10  C4  UNL     1      39.924  13.200 -15.541  1.00  0.00     0.161 A 
HETATM   11  N8  UNL     1      40.602  13.061 -16.634  1.00  0.00    -0.366 N 
ATOM     12  H8  UNL     1      41.585  13.337 -16.625  1.00  0.00     0.161 HD
ENDROOT
BRANCH   1  13
HETATM   13  N4  UNL     1      41.712  14.037 -14.400  1.00  0.00    -0.312 N 
HETATM   14  C1  UNL     1      42.220  15.279 -13.970  1.00  0.00     0.208 C 
HETATM   15  N2  UNL     1      42.007  16.393 -14.579  1.00  0.00    -0.280 N 
HETATM   16  N3  UNL     1      43.015  15.304 -12.796  1.00  0.00    -0.062 NA
ATOM     17  H2  UNL     1      41.437  16.391 -15.426  1.00  0.00     0.189 HD
ATOM     18  H4  UNL     1      42.381  13.352 -14.750  1.00  0.00     0.170 HD
BRANCH  15  19
HETATM   19  N1  UNL     1      42.527  17.598 -14.121  1.00  0.00    -0.343 N 
ATOM     20  H12 UNL     1      42.899  17.627 -13.172  1.00  0.00     0.176 HD
ATOM     21  H11 UNL     1      42.545  18.437 -14.702  1.00  0.00     0.176 HD
ENDBRANCH  15  19
ENDBRANCH   1  13
BRANCH  11  22
HETATM   22  C5  UNL     1      40.062  12.548 -17.849  1.00  0.00     0.190 C 
BRANCH  22  23
HETATM   23  C6  UNL     1      41.089  12.305 -18.892  1.00  0.00     0.250 C 
HETATM   24  O2  UNL     1      42.217  11.908 -18.655  1.00  0.00    -0.305 OA
ENDBRANCH  22  23
ENDBRANCH  11  22
TORSDOF 4
ENDMDL
