MODEL 1
REMARK VINA RESULT: -7.049233740      0.000      0.000
REMARK  2 active torsions:
REMARK  status: ('A' for Active; 'I' for Inactive)
REMARK    1  A    between atoms: C5_11  and  C6_12 
REMARK    2  A    between atoms: C6_12  and  C7_13 
ROOT
HETATM    1  C1  UNL     1      40.484  16.284 -14.944  1.00  0.00     0.045 C 
HETATM    2  C2  UNL     1      39.405  16.206 -14.223  1.00  0.00     0.053 A 
HETATM    3  N1  UNL     1      38.601  17.265 -14.090  1.00  0.00    -0.298 N 
ATOM      4  H1  UNL     1      38.864  18.124 -14.571  1.00  0.00     0.187 HD
HETATM    5  N2  UNL     1      37.498  17.273 -13.385  1.00  0.00    -0.263 N 
ATOM      6  H2  UNL     1      36.939  18.125 -13.333  1.00  0.00     0.190 HD
HETATM    7  C3  UNL     1      37.099  16.179 -12.733  1.00  0.00     0.310 A 
HETATM    8  O1  UNL     1      36.030  16.156 -12.039  1.00  0.00    -0.262 OA
HETATM    9  C4  UNL     1      37.854  15.039 -12.804  1.00  0.00     0.253 A 
HETATM   10  O2  UNL     1      37.459  14.035 -12.187  1.00  0.00    -0.281 OA
HETATM   11  C5  UNL     1      39.029  15.047 -13.561  1.00  0.00     0.049 A 
ENDROOT
BRANCH  11  12
HETATM   12  C6  UNL     1      39.766  13.991 -13.652  1.00  0.00     0.049 C 
BRANCH  12  13
HETATM   13  C7  UNL     1      39.617  12.954 -14.661  1.00  0.00     0.052 A 
HETATM   14  C8  UNL     1      40.461  11.918 -14.974  1.00  0.00     0.122 A 
HETATM   15  N3  UNL     1      39.894  11.202 -15.947  1.00  0.00    -0.317 N 
HETATM   16  C9  UNL     1      38.720  11.781 -16.234  1.00  0.00     0.324 A 
ATOM     17  H3  UNL     1      40.282  10.369 -16.390  1.00  0.00     0.170 HD
HETATM   18  O3  UNL     1      37.913  11.376 -17.104  1.00  0.00    -0.247 OA
HETATM   19  N4  UNL     1      38.521  12.859 -15.462  1.00  0.00    -0.307 N 
ATOM     20  H4  UNL     1      37.712  13.481 -15.474  1.00  0.00     0.170 HD
ENDBRANCH  12  13
ENDBRANCH  11  12
TORSDOF 2
ENDMDL
MODEL 2
REMARK VINA RESULT: -7.047644932      3.435      4.088
REMARK  2 active torsions:
REMARK  status: ('A' for Active; 'I' for Inactive)
REMARK    1  A    between atoms: C5_11  and  C6_12 
REMARK    2  A    between atoms: C6_12  and  C7_13 
ROOT
HETATM    1  C1  UNL     1      38.699  14.441 -13.577  1.00  0.00     0.045 C 
HETATM    2  C2  UNL     1      39.930  14.790 -13.344  1.00  0.00     0.053 A 
HETATM    3  N1  UNL     1      40.377  14.903 -12.090  1.00  0.00    -0.298 N 
ATOM      4  H1  UNL     1      39.722  14.707 -11.333  1.00  0.00     0.187 HD
HETATM    5  N2  UNL     1      41.598  15.248 -11.767  1.00  0.00    -0.263 N 
ATOM      6  H2  UNL     1      41.861  15.313 -10.784  1.00  0.00     0.190 HD
HETATM    7  C3  UNL     1      42.501  15.516 -12.713  1.00  0.00     0.310 A 
HETATM    8  O1  UNL     1      43.698  15.854 -12.430  1.00  0.00    -0.262 OA
HETATM    9  C4  UNL     1      42.144  15.429 -14.031  1.00  0.00     0.253 A 
HETATM   10  O2  UNL     1      43.005  15.683 -14.891  1.00  0.00    -0.281 OA
HETATM   11  C5  UNL     1      40.835  15.059 -14.359  1.00  0.00     0.049 A 
ENDROOT
BRANCH  11  12
HETATM   12  C6  UNL     1      40.462  14.966 -15.591  1.00  0.00     0.049 C 
BRANCH  12  13
HETATM   13  C7  UNL     1      40.671  13.804 -16.440  1.00  0.00     0.052 A 
HETATM   14  C8  UNL     1      39.875  12.698 -16.611  1.00  0.00     0.122 A 
HETATM   15  N3  UNL     1      40.457  11.906 -17.514  1.00  0.00    -0.317 N 
HETATM   16  C9  UNL     1      41.592  12.507 -17.897  1.00  0.00     0.324 A 
ATOM     17  H3  UNL     1      40.103  11.010 -17.850  1.00  0.00     0.170 HD
HETATM   18  O3  UNL     1      42.398  12.047 -18.740  1.00  0.00    -0.247 OA
HETATM   19  N4  UNL     1      41.752  13.673 -17.257  1.00  0.00    -0.307 N 
ATOM     20  H4  UNL     1      42.526  14.328 -17.360  1.00  0.00     0.170 HD
ENDBRANCH  12  13
ENDBRANCH  11  12
TORSDOF 2
ENDMDL
MODEL 3
REMARK VINA RESULT: -6.980583794      1.651      2.280
REMARK  2 active torsions:
REMARK  status: ('A' for Active; 'I' for Inactive)
REMARK    1  A    between atoms: C5_11  and  C6_12 
REMARK    2  A    between atoms: C6_12  and  C7_13 
ROOT
HETATM    1  C1  UNL     1      37.369  13.577 -11.767  1.00  0.00     0.045 C 
HETATM    2  C2  UNL     1      37.623  14.689 -12.392  1.00  0.00     0.053 A 
HETATM    3  N1  UNL     1      36.799  15.734 -12.279  1.00  0.00    -0.298 N 
ATOM      4  H1  UNL     1      35.974  15.627 -11.689  1.00  0.00     0.187 HD
HETATM    5  N2  UNL     1      36.978  16.887 -12.873  1.00  0.00    -0.263 N 
ATOM      6  H2  UNL     1      36.300  17.636 -12.735  1.00  0.00     0.190 HD
HETATM    7  C3  UNL     1      38.039  17.090 -13.657  1.00  0.00     0.310 A 
HETATM    8  O1  UNL     1      38.242  18.201 -14.248  1.00  0.00    -0.262 OA
HETATM    9  C4  UNL     1      38.946  16.080 -13.840  1.00  0.00     0.253 A 
HETATM   10  O2  UNL     1      39.924  16.297 -14.575  1.00  0.00    -0.281 OA
HETATM   11  C5  UNL     1      38.739  14.855 -13.198  1.00  0.00     0.049 A 
ENDROOT
BRANCH  11  12
HETATM   12  C6  UNL     1      39.572  13.881 -13.347  1.00  0.00     0.049 C 
BRANCH  12  13
HETATM   13  C7  UNL     1      39.611  12.984 -14.491  1.00  0.00     0.052 A 
HETATM   14  C8  UNL     1      40.592  12.102 -14.872  1.00  0.00     0.122 A 
HETATM   15  N3  UNL     1      40.176  11.469 -15.971  1.00  0.00    -0.317 N 
HETATM   16  C9  UNL     1      38.961  11.949 -16.269  1.00  0.00     0.324 A 
ATOM     17  H3  UNL     1      40.687  10.754 -16.487  1.00  0.00     0.170 HD
HETATM   18  O3  UNL     1      38.263  11.582 -17.244  1.00  0.00    -0.247 OA
HETATM   19  N4  UNL     1      38.586  12.880 -15.381  1.00  0.00    -0.307 N 
ATOM     20  H4  UNL     1      37.711  13.404 -15.373  1.00  0.00     0.170 HD
ENDBRANCH  12  13
ENDBRANCH  11  12
TORSDOF 2
ENDMDL
MODEL 4
REMARK VINA RESULT: -6.963438989      2.635      5.431
REMARK  2 active torsions:
REMARK  status: ('A' for Active; 'I' for Inactive)
REMARK    1  A    between atoms: C5_11  and  C6_12 
REMARK    2  A    between atoms: C6_12  and  C7_13 
ROOT
HETATM    1  C1  UNL     1      38.704  11.488 -16.287  1.00  0.00     0.045 C 
HETATM    2  C2  UNL     1      39.848  12.104 -16.345  1.00  0.00     0.053 A 
HETATM    3  N1  UNL     1      40.567  12.094 -17.470  1.00  0.00    -0.298 N 
ATOM      4  H1  UNL     1      40.188  11.591 -18.272  1.00  0.00     0.187 HD
HETATM    5  N2  UNL     1      41.726  12.686 -17.614  1.00  0.00    -0.263 N 
ATOM      6  H2  UNL     1      42.214  12.631 -18.508  1.00  0.00     0.190 HD
HETATM    7  C3  UNL     1      42.275  13.361 -16.602  1.00  0.00     0.310 A 
HETATM    8  O1  UNL     1      43.401  13.949 -16.711  1.00  0.00    -0.262 OA
HETATM    9  C4  UNL     1      41.617  13.432 -15.403  1.00  0.00     0.253 A 
HETATM   10  O2  UNL     1      42.151  14.067 -14.478  1.00  0.00    -0.281 OA
HETATM   11  C5  UNL     1      40.381  12.793 -15.266  1.00  0.00     0.049 A 
ENDROOT
BRANCH  11  12
HETATM   12  C6  UNL     1      39.732  12.838 -14.151  1.00  0.00     0.049 C 
BRANCH  12  13
HETATM   13  C7  UNL     1      38.992  13.991 -13.663  1.00  0.00     0.052 A 
HETATM   14  C8  UNL     1      38.143  14.089 -12.588  1.00  0.00     0.122 A 
HETATM   15  N3  UNL     1      37.720  15.352 -12.509  1.00  0.00    -0.317 N 
HETATM   16  C9  UNL     1      38.294  16.027 -13.514  1.00  0.00     0.324 A 
ATOM     17  H3  UNL     1      37.080  15.732 -11.812  1.00  0.00     0.170 HD
HETATM   18  O3  UNL     1      38.124  17.247 -13.749  1.00  0.00    -0.247 OA
HETATM   19  N4  UNL     1      39.080  15.221 -14.241  1.00  0.00    -0.307 N 
ATOM     20  H4  UNL     1      39.631  15.477 -15.060  1.00  0.00     0.170 HD
ENDBRANCH  12  13
ENDBRANCH  11  12
TORSDOF 2
ENDMDL
MODEL 5
REMARK VINA RESULT: -6.956919954      3.219      5.281
REMARK  2 active torsions:
REMARK  status: ('A' for Active; 'I' for Inactive)
REMARK    1  A    between atoms: C5_11  and  C6_12 
REMARK    2  A    between atoms: C6_12  and  C7_13 
ROOT
HETATM    1  C1  UNL     1      38.453  14.051 -13.317  1.00  0.00     0.045 C 
HETATM    2  C2  UNL     1      38.688  13.300 -14.352  1.00  0.00     0.053 A 
HETATM    3  N1  UNL     1      37.711  12.569 -14.896  1.00  0.00    -0.298 N 
ATOM      4  H1  UNL     1      36.785  12.623 -14.471  1.00  0.00     0.187 HD
HETATM    5  N2  UNL     1      37.861  11.788 -15.935  1.00  0.00    -0.263 N 
ATOM      6  H2  UNL     1      37.063  11.261 -16.289  1.00  0.00     0.190 HD
HETATM    7  C3  UNL     1      39.047  11.675 -16.536  1.00  0.00     0.310 A 
HETATM    8  O1  UNL     1      39.224  10.923 -17.550  1.00  0.00    -0.262 OA
HETATM    9  C4  UNL     1      40.116  12.384 -16.056  1.00  0.00     0.253 A 
HETATM   10  O2  UNL     1      41.209  12.260 -16.634  1.00  0.00    -0.281 OA
HETATM   11  C5  UNL     1      39.939  13.213 -14.944  1.00  0.00     0.049 A 
ENDROOT
BRANCH  11  12
HETATM   12  C6  UNL     1      40.924  13.896 -14.465  1.00  0.00     0.049 C 
BRANCH  12  13
HETATM   13  C7  UNL     1      41.564  15.018 -15.133  1.00  0.00     0.052 A 
HETATM   14  C8  UNL     1      41.126  16.311 -15.275  1.00  0.00     0.122 A 
HETATM   15  N3  UNL     1      42.062  16.994 -15.937  1.00  0.00    -0.317 N 
HETATM   16  C9  UNL     1      43.063  16.144 -16.201  1.00  0.00     0.324 A 
ATOM     17  H3  UNL     1      42.023  17.981 -16.193  1.00  0.00     0.170 HD
HETATM   18  O3  UNL     1      44.116  16.441 -16.813  1.00  0.00    -0.247 OA
HETATM   19  N4  UNL     1      42.788  14.922 -15.722  1.00  0.00    -0.307 N 
ATOM     20  H4  UNL     1      43.376  14.092 -15.785  1.00  0.00     0.170 HD
ENDBRANCH  12  13
ENDBRANCH  11  12
TORSDOF 2
ENDMDL
