MODEL 1
REMARK VINA RESULT: -7.924210516      0.000      0.000
REMARK  11 active torsions:
REMARK  status: ('A' for Active; 'I' for Inactive)
REMARK    1  A    between atoms: C2_2  and  N1_3 
REMARK       I    between atoms: N1_3  and  C3_5 
REMARK       I    between atoms: C3_5  and  N2_7 
REMARK    2  A    between atoms: N2_7  and  C4_9 
REMARK    3  A    between atoms: C6_12  and  N3_13 
REMARK    4  A    between atoms: N3_13  and  C7_15 
REMARK    5  A    between atoms: C7_15  and  O2_16 
REMARK    6  A    between atoms: C7_15  and  N4_18 
REMARK       I    between atoms: N5_21  and  C10_22 
REMARK    7  A    between atoms: C10_22  and  C11_24 
REMARK    8  A    between atoms: C11_24  and  C12_25 
REMARK    9  A    between atoms: C12_25  and  C13_26 
REMARK   10  A    between atoms: C13_26  and  N6_27 
REMARK       I    between atoms: N6_27  and  C14_29 
REMARK       I    between atoms: C14_29  and  N8_33 
REMARK   11  A    between atoms: C21_42  and  C22_43 
ROOT
HETATM    1  C7  UNL     1      36.584 -21.445  25.715  1.00  0.00     0.220 C 
ENDROOT
BRANCH   1   2
HETATM    2  N3  UNL     1      36.076 -22.315  24.762  1.00  0.00    -0.321 N 
ATOM      3  H3  UNL     1      35.109 -22.136  24.490  1.00  0.00     0.169 HD
BRANCH   2   4
HETATM    4  C6  UNL     1      36.683 -23.410  24.110  1.00  0.00     0.061 A 
HETATM    5  C5  UNL     1      35.953 -24.593  23.940  1.00  0.00     0.088 A 
HETATM    6  C4  UNL     1      36.493 -25.696  23.337  1.00  0.00     0.068 A 
HETATM    7 CL1  UNL     1      34.305 -24.658  24.512  1.00  0.00    -0.079 Cl
HETATM    8  C21 UNL     1      37.805 -25.731  22.847  1.00  0.00    -0.004 A 
HETATM    9  C20 UNL     1      38.526 -24.582  23.008  1.00  0.00     0.045 A 
HETATM   10  C19 UNL     1      37.962 -23.447  23.632  1.00  0.00     0.056 A 
HETATM   11 CL2  UNL     1      40.195 -24.478  22.472  1.00  0.00    -0.084 Cl
BRANCH   6  12
HETATM   12  N2  UNL     1      35.706 -26.888  23.165  1.00  0.00    -0.307 N 
HETATM   13  C3  UNL     1      35.561 -27.723  24.317  1.00  0.00     0.320 C 
HETATM   14  N1  UNL     1      34.820 -28.940  24.280  1.00  0.00    -0.343 N 
HETATM   15  O1  UNL     1      36.095 -27.400  25.407  1.00  0.00    -0.247 OA
ATOM     16  H1  UNL     1      34.387 -29.215  23.399  1.00  0.00     0.164 HD
ATOM     17  H2  UNL     1      35.274 -27.124  22.271  1.00  0.00     0.170 HD
BRANCH  14  18
HETATM   18  C2  UNL     1      34.651 -29.794  25.414  1.00  0.00     0.120 C 
HETATM   19  C1  UNL     1      34.022 -31.119  25.150  1.00  0.00     0.026 C 
ENDBRANCH  14  18
ENDBRANCH   6  12
BRANCH   8  20
HETATM   20  C22 UNL     1      38.264 -26.989  22.250  1.00  0.00     0.014 C 
HETATM   21  C23 UNL     1      38.587 -26.975  20.784  1.00  0.00     0.015 C 
HETATM   22  C24 UNL     1      39.523 -27.506  22.942  1.00  0.00     0.015 C 
ENDBRANCH   8  20
ENDBRANCH   2   4
ENDBRANCH   1   2
BRANCH   1  23
HETATM   23  O2  UNL     1      35.735 -21.115  26.645  1.00  0.00    -0.332 OA
ATOM     24  H2  UNL     1      35.950 -20.311  27.102  1.00  0.00     0.220 HD
ENDBRANCH   1  23
BRANCH   1  25
HETATM   25  N4  UNL     1      37.852 -20.869  25.837  1.00  0.00    -0.340 N 
HETATM   26  C8  UNL     1      38.539 -21.189  27.144  1.00  0.00     0.147 C 
HETATM   27  C9  UNL     1      38.489 -19.893  27.918  1.00  0.00     0.145 C 
HETATM   28  N5  UNL     1      38.886 -18.768  27.137  1.00  0.00    -0.349 N 
HETATM   29  C10 UNL     1      38.979 -17.501  27.781  1.00  0.00     0.219 C 
HETATM   30  C16 UNL     1      39.203 -18.824  25.747  1.00  0.00     0.150 C 
HETATM   31  O3  UNL     1      38.714 -17.404  28.998  1.00  0.00    -0.273 OA
HETATM   32  C17 UNL     1      38.658 -20.045  25.029  1.00  0.00     0.101 C 
HETATM   33  C18 UNL     1      38.155 -19.579  23.713  1.00  0.00     0.034 C 
BRANCH  29  34
HETATM   34  C11 UNL     1      39.390 -16.254  27.056  1.00  0.00     0.104 C 
BRANCH  34  35
HETATM   35  C12 UNL     1      38.182 -15.446  26.661  1.00  0.00     0.029 C 
BRANCH  35  36
HETATM   36  C13 UNL     1      38.057 -14.273  27.597  1.00  0.00     0.138 C 
BRANCH  36  37
HETATM   37  N6  UNL     1      37.057 -14.592  28.596  1.00  0.00    -0.227 N 
HETATM   38  C14 UNL     1      35.745 -14.036  28.521  1.00  0.00     0.667 C 
HETATM   39  N7  UNL     1      35.610 -12.879  28.015  1.00  0.00    -0.235 N 
HETATM   40  N8  UNL     1      34.605 -14.738  28.989  1.00  0.00    -0.231 N 
ATOM     41  H72 UNL     1      36.430 -12.375  27.678  1.00  0.00     0.174 HD
ATOM     42  H71 UNL     1      34.672 -12.481  27.962  1.00  0.00     0.174 HD
HETATM   43  C15 UNL     1      33.768 -14.154  30.042  1.00  0.00     0.165 C 
ATOM     44  H8  UNL     1      34.368 -15.648  28.594  1.00  0.00     0.177 HD
ATOM     45  H6  UNL     1      37.294 -15.221  29.364  1.00  0.00     0.177 HD
ENDBRANCH  36  37
ENDBRANCH  35  36
ENDBRANCH  34  35
ENDBRANCH  29  34
ENDBRANCH   1  25
TORSDOF 11
ENDMDL
MODEL 2
REMARK VINA RESULT: -7.875872912      4.189      5.429
REMARK  11 active torsions:
REMARK  status: ('A' for Active; 'I' for Inactive)
REMARK    1  A    between atoms: C2_2  and  N1_3 
REMARK       I    between atoms: N1_3  and  C3_5 
REMARK       I    between atoms: C3_5  and  N2_7 
REMARK    2  A    between atoms: N2_7  and  C4_9 
REMARK    3  A    between atoms: C6_12  and  N3_13 
REMARK    4  A    between atoms: N3_13  and  C7_15 
REMARK    5  A    between atoms: C7_15  and  O2_16 
REMARK    6  A    between atoms: C7_15  and  N4_18 
REMARK       I    between atoms: N5_21  and  C10_22 
REMARK    7  A    between atoms: C10_22  and  C11_24 
REMARK    8  A    between atoms: C11_24  and  C12_25 
REMARK    9  A    between atoms: C12_25  and  C13_26 
REMARK   10  A    between atoms: C13_26  and  N6_27 
REMARK       I    between atoms: N6_27  and  C14_29 
REMARK       I    between atoms: C14_29  and  N8_33 
REMARK   11  A    between atoms: C21_42  and  C22_43 
ROOT
HETATM    1  C7  UNL     1      40.838 -21.241  29.766  1.00  0.00     0.220 C 
ENDROOT
BRANCH   1   2
HETATM    2  N3  UNL     1      40.156 -22.448  29.769  1.00  0.00    -0.321 N 
ATOM      3  H3  UNL     1      39.717 -22.691  30.657  1.00  0.00     0.169 HD
BRANCH   2   4
HETATM    4  C6  UNL     1      39.974 -23.396  28.738  1.00  0.00     0.061 A 
HETATM    5  C5  UNL     1      40.136 -24.758  29.026  1.00  0.00     0.088 A 
HETATM    6  C4  UNL     1      39.996 -25.721  28.066  1.00  0.00     0.068 A 
HETATM    7 CL1  UNL     1      40.526 -25.234  30.660  1.00  0.00    -0.079 Cl
HETATM    8  C21 UNL     1      39.683 -25.429  26.732  1.00  0.00    -0.004 A 
HETATM    9  C20 UNL     1      39.523 -24.105  26.441  1.00  0.00     0.045 A 
HETATM   10  C19 UNL     1      39.669 -23.114  27.437  1.00  0.00     0.056 A 
HETATM   11 CL2  UNL     1      39.155 -23.575  24.807  1.00  0.00    -0.084 Cl
BRANCH   6  12
HETATM   12  N2  UNL     1      40.154 -27.111  28.404  1.00  0.00    -0.307 N 
HETATM   13  C3  UNL     1      41.498 -27.586  28.520  1.00  0.00     0.320 C 
HETATM   14  N1  UNL     1      41.796 -28.943  28.836  1.00  0.00    -0.343 N 
HETATM   15  O1  UNL     1      42.465 -26.805  28.342  1.00  0.00    -0.247 OA
ATOM     16  H1  UNL     1      41.018 -29.588  28.977  1.00  0.00     0.164 HD
ATOM     17  H2  UNL     1      39.352 -27.724  28.553  1.00  0.00     0.170 HD
BRANCH  14  18
HETATM   18  C2  UNL     1      43.127 -29.449  28.964  1.00  0.00     0.120 C 
HETATM   19  C1  UNL     1      43.472 -30.063  30.278  1.00  0.00     0.026 C 
ENDBRANCH  14  18
ENDBRANCH   6  12
BRANCH   8  20
HETATM   20  C22 UNL     1      39.592 -26.559  25.802  1.00  0.00     0.014 C 
HETATM   21  C23 UNL     1      38.391 -26.611  24.903  1.00  0.00     0.015 C 
HETATM   22  C24 UNL     1      40.803 -26.613  24.873  1.00  0.00     0.015 C 
ENDBRANCH   8  20
ENDBRANCH   2   4
ENDBRANCH   1   2
BRANCH   1  23
HETATM   23  O2  UNL     1      41.648 -21.082  30.774  1.00  0.00    -0.332 OA
ATOM     24  H2  UNL     1      42.564 -21.023  30.531  1.00  0.00     0.220 HD
ENDBRANCH   1  23
BRANCH   1  25
HETATM   25  N4  UNL     1      40.798 -20.176  28.863  1.00  0.00    -0.340 N 
HETATM   26  C8  UNL     1      39.745 -19.142  29.192  1.00  0.00     0.147 C 
HETATM   27  C9  UNL     1      38.682 -19.346  28.139  1.00  0.00     0.145 C 
HETATM   28  N5  UNL     1      39.220 -19.450  26.823  1.00  0.00    -0.349 N 
HETATM   29  C10 UNL     1      38.312 -19.543  25.729  1.00  0.00     0.219 C 
HETATM   30  C16 UNL     1      40.615 -19.465  26.523  1.00  0.00     0.150 C 
HETATM   31  O3  UNL     1      37.082 -19.531  25.943  1.00  0.00    -0.273 OA
HETATM   32  C17 UNL     1      41.505 -19.825  27.698  1.00  0.00     0.101 C 
HETATM   33  C18 UNL     1      42.563 -20.725  27.175  1.00  0.00     0.034 C 
BRANCH  29  34
HETATM   34  C11 UNL     1      38.771 -19.653  24.306  1.00  0.00     0.104 C 
BRANCH  34  35
HETATM   35  C12 UNL     1      38.289 -18.475  23.499  1.00  0.00     0.029 C 
BRANCH  35  36
HETATM   36  C13 UNL     1      38.922 -17.223  24.045  1.00  0.00     0.138 C 
BRANCH  36  37
HETATM   37  N6  UNL     1      37.939 -16.531  24.854  1.00  0.00    -0.227 N 
HETATM   38  C14 UNL     1      38.344 -15.659  25.909  1.00  0.00     0.667 C 
HETATM   39  N7  UNL     1      39.420 -15.924  26.529  1.00  0.00    -0.235 N 
HETATM   40  N8  UNL     1      37.583 -14.518  26.273  1.00  0.00    -0.231 N 
ATOM     41  H72 UNL     1      39.967 -16.744  26.267  1.00  0.00     0.174 HD
ATOM     42  H71 UNL     1      39.710 -15.301  27.283  1.00  0.00     0.174 HD
HETATM   43  C15 UNL     1      37.066 -14.389  27.639  1.00  0.00     0.165 C 
ATOM     44  H8  UNL     1      37.396 -13.789  25.584  1.00  0.00     0.177 HD
ATOM     45  H6  UNL     1      36.945 -16.669  24.668  1.00  0.00     0.177 HD
ENDBRANCH  36  37
ENDBRANCH  35  36
ENDBRANCH  34  35
ENDBRANCH  29  34
ENDBRANCH   1  25
TORSDOF 11
ENDMDL
MODEL 3
REMARK VINA RESULT: -7.820138147      3.361      9.364
REMARK  11 active torsions:
REMARK  status: ('A' for Active; 'I' for Inactive)
REMARK    1  A    between atoms: C2_2  and  N1_3 
REMARK       I    between atoms: N1_3  and  C3_5 
REMARK       I    between atoms: C3_5  and  N2_7 
REMARK    2  A    between atoms: N2_7  and  C4_9 
REMARK    3  A    between atoms: C6_12  and  N3_13 
REMARK    4  A    between atoms: N3_13  and  C7_15 
REMARK    5  A    between atoms: C7_15  and  O2_16 
REMARK    6  A    between atoms: C7_15  and  N4_18 
REMARK       I    between atoms: N5_21  and  C10_22 
REMARK    7  A    between atoms: C10_22  and  C11_24 
REMARK    8  A    between atoms: C11_24  and  C12_25 
REMARK    9  A    between atoms: C12_25  and  C13_26 
REMARK   10  A    between atoms: C13_26  and  N6_27 
REMARK       I    between atoms: N6_27  and  C14_29 
REMARK       I    between atoms: C14_29  and  N8_33 
REMARK   11  A    between atoms: C21_42  and  C22_43 
ROOT
HETATM    1  C7  UNL     1      42.398 -21.066  28.813  1.00  0.00     0.220 C 
ENDROOT
BRANCH   1   2
HETATM    2  N3  UNL     1      41.898 -19.952  28.156  1.00  0.00    -0.321 N 
ATOM      3  H3  UNL     1      42.489 -19.123  28.206  1.00  0.00     0.169 HD
BRANCH   2   4
HETATM    4  C6  UNL     1      40.700 -19.784  27.427  1.00  0.00     0.061 A 
HETATM    5  C5  UNL     1      39.570 -19.274  28.080  1.00  0.00     0.088 A 
HETATM    6  C4  UNL     1      38.375 -19.109  27.436  1.00  0.00     0.068 A 
HETATM    7 CL1  UNL     1      39.696 -18.833  29.765  1.00  0.00    -0.079 Cl
HETATM    8  C21 UNL     1      38.185 -19.435  26.086  1.00  0.00    -0.004 A 
HETATM    9  C20 UNL     1      39.281 -19.933  25.441  1.00  0.00     0.045 A 
HETATM   10  C19 UNL     1      40.512 -20.100  26.112  1.00  0.00     0.056 A 
HETATM   11 CL2  UNL     1      39.196 -20.415  23.753  1.00  0.00    -0.084 Cl
BRANCH   6  12
HETATM   12  N2  UNL     1      37.241 -18.566  28.136  1.00  0.00    -0.307 N 
HETATM   13  C3  UNL     1      37.146 -17.140  28.176  1.00  0.00     0.320 C 
HETATM   14  N1  UNL     1      36.080 -16.472  28.848  1.00  0.00    -0.343 N 
HETATM   15  O1  UNL     1      38.014 -16.428  27.612  1.00  0.00    -0.247 OA
ATOM     16  H1  UNL     1      35.373 -17.040  29.314  1.00  0.00     0.164 HD
ATOM     17  H2  UNL     1      36.544 -19.166  28.578  1.00  0.00     0.170 HD
BRANCH  14  18
HETATM   18  C2  UNL     1      35.952 -15.050  28.903  1.00  0.00     0.120 C 
HETATM   19  C1  UNL     1      34.618 -14.526  29.313  1.00  0.00     0.026 C 
ENDBRANCH  14  18
ENDBRANCH   6  12
BRANCH   8  20
HETATM   20  C22 UNL     1      36.843 -19.236  25.531  1.00  0.00     0.014 C 
HETATM   21  C23 UNL     1      36.729 -18.373  24.307  1.00  0.00     0.015 C 
HETATM   22  C24 UNL     1      36.193 -20.566  25.158  1.00  0.00     0.015 C 
ENDBRANCH   8  20
ENDBRANCH   2   4
ENDBRANCH   1   2
BRANCH   1  23
HETATM   23  O2  UNL     1      43.183 -20.787  29.814  1.00  0.00    -0.332 OA
ATOM     24  H2  UNL     1      42.758 -20.323  30.525  1.00  0.00     0.220 HD
ENDBRANCH   1  23
BRANCH   1  25
HETATM   25  N4  UNL     1      42.197 -22.428  28.577  1.00  0.00    -0.340 N 
HETATM   26  C8  UNL     1      43.003 -22.968  27.419  1.00  0.00     0.147 C 
HETATM   27  C9  UNL     1      41.982 -23.199  26.330  1.00  0.00     0.145 C 
HETATM   28  N5  UNL     1      40.822 -23.883  26.798  1.00  0.00    -0.349 N 
HETATM   29  C10 UNL     1      39.827 -24.252  25.846  1.00  0.00     0.219 C 
HETATM   30  C16 UNL     1      40.586 -24.231  28.161  1.00  0.00     0.150 C 
HETATM   31  O3  UNL     1      39.991 -23.970  24.640  1.00  0.00    -0.273 OA
HETATM   32  C17 UNL     1      41.409 -23.438  29.161  1.00  0.00     0.101 C 
HETATM   33  C18 UNL     1      40.509 -23.113  30.295  1.00  0.00     0.034 C 
BRANCH  29  34
HETATM   34  C11 UNL     1      38.572 -24.976  26.228  1.00  0.00     0.104 C 
BRANCH  34  35
HETATM   35  C12 UNL     1      38.456 -26.275  25.475  1.00  0.00     0.029 C 
BRANCH  35  36
HETATM   36  C13 UNL     1      37.012 -26.501  25.117  1.00  0.00     0.138 C 
BRANCH  36  37
HETATM   37  N6  UNL     1      36.595 -25.447  24.214  1.00  0.00    -0.227 N 
HETATM   38  C14 UNL     1      35.220 -25.083  24.100  1.00  0.00     0.667 C 
HETATM   39  N7  UNL     1      34.343 -25.986  24.270  1.00  0.00    -0.235 N 
HETATM   40  N8  UNL     1      34.817 -23.755  23.808  1.00  0.00    -0.231 N 
ATOM     41  H72 UNL     1      34.633 -26.941  24.480  1.00  0.00     0.174 HD
ATOM     42  H71 UNL     1      33.360 -25.727  24.188  1.00  0.00     0.174 HD
HETATM   43  C15 UNL     1      34.011 -23.481  22.614  1.00  0.00     0.165 C 
ATOM     44  H8  UNL     1      35.088 -22.992  24.428  1.00  0.00     0.177 HD
ATOM     45  H6  UNL     1      37.293 -24.959  23.652  1.00  0.00     0.177 HD
ENDBRANCH  36  37
ENDBRANCH  35  36
ENDBRANCH  34  35
ENDBRANCH  29  34
ENDBRANCH   1  25
TORSDOF 11
ENDMDL
MODEL 4
REMARK VINA RESULT: -7.810107377      6.470     11.066
REMARK  11 active torsions:
REMARK  status: ('A' for Active; 'I' for Inactive)
REMARK    1  A    between atoms: C2_2  and  N1_3 
REMARK       I    between atoms: N1_3  and  C3_5 
REMARK       I    between atoms: C3_5  and  N2_7 
REMARK    2  A    between atoms: N2_7  and  C4_9 
REMARK    3  A    between atoms: C6_12  and  N3_13 
REMARK    4  A    between atoms: N3_13  and  C7_15 
REMARK    5  A    between atoms: C7_15  and  O2_16 
REMARK    6  A    between atoms: C7_15  and  N4_18 
REMARK       I    between atoms: N5_21  and  C10_22 
REMARK    7  A    between atoms: C10_22  and  C11_24 
REMARK    8  A    between atoms: C11_24  and  C12_25 
REMARK    9  A    between atoms: C12_25  and  C13_26 
REMARK   10  A    between atoms: C13_26  and  N6_27 
REMARK       I    between atoms: N6_27  and  C14_29 
REMARK       I    between atoms: C14_29  and  N8_33 
REMARK   11  A    between atoms: C21_42  and  C22_43 
ROOT
HETATM    1  C7  UNL     1      40.576 -20.733  29.048  1.00  0.00     0.220 C 
ENDROOT
BRANCH   1   2
HETATM    2  N3  UNL     1      39.626 -20.077  28.281  1.00  0.00    -0.321 N 
ATOM      3  H3  UNL     1      38.665 -20.383  28.432  1.00  0.00     0.169 HD
BRANCH   2   4
HETATM    4  C6  UNL     1      39.778 -19.051  27.322  1.00  0.00     0.061 A 
HETATM    5  C5  UNL     1      39.478 -17.730  27.683  1.00  0.00     0.088 A 
HETATM    6  C4  UNL     1      39.583 -16.697  26.794  1.00  0.00     0.068 A 
HETATM    7 CL1  UNL     1      38.961 -17.398  29.317  1.00  0.00    -0.079 Cl
HETATM    8  C21 UNL     1      39.992 -16.872  25.465  1.00  0.00    -0.004 A 
HETATM    9  C20 UNL     1      40.285 -18.156  25.103  1.00  0.00     0.045 A 
HETATM   10  C19 UNL     1      40.176 -19.219  26.027  1.00  0.00     0.056 A 
HETATM   11 CL2  UNL     1      40.785 -18.543  23.464  1.00  0.00    -0.084 Cl
BRANCH   6  12
HETATM   12  N2  UNL     1      39.283 -15.351  27.206  1.00  0.00    -0.307 N 
HETATM   13  C3  UNL     1      37.910 -14.957  27.132  1.00  0.00     0.320 C 
HETATM   14  N1  UNL     1      37.479 -13.649  27.497  1.00  0.00    -0.343 N 
HETATM   15  O1  UNL     1      37.037 -15.768  26.737  1.00  0.00    -0.247 OA
ATOM     16  H1  UNL     1      38.180 -12.980  27.815  1.00  0.00     0.164 HD
ATOM     17  H2  UNL     1      40.010 -14.713  27.532  1.00  0.00     0.170 HD
BRANCH  14  18
HETATM   18  C2  UNL     1      36.115 -13.224  27.441  1.00  0.00     0.120 C 
HETATM   19  C1  UNL     1      35.296 -13.483  28.659  1.00  0.00     0.026 C 
ENDBRANCH  14  18
ENDBRANCH   6  12
BRANCH   8  20
HETATM   20  C22 UNL     1      40.030 -15.680  24.612  1.00  0.00     0.014 C 
HETATM   21  C23 UNL     1      41.382 -15.201  24.165  1.00  0.00     0.015 C 
HETATM   22  C24 UNL     1      39.223 -15.885  23.332  1.00  0.00     0.015 C 
ENDBRANCH   8  20
ENDBRANCH   2   4
ENDBRANCH   1   2
BRANCH   1  23
HETATM   23  O2  UNL     1      40.579 -20.389  30.305  1.00  0.00    -0.332 OA
ATOM     24  H2  UNL     1      40.023 -20.925  30.857  1.00  0.00     0.220 HD
ENDBRANCH   1  23
BRANCH   1  25
HETATM   25  N4  UNL     1      41.522 -21.698  28.695  1.00  0.00    -0.340 N 
HETATM   26  C8  UNL     1      41.324 -23.025  29.392  1.00  0.00     0.147 C 
HETATM   27  C9  UNL     1      42.452 -23.091  30.394  1.00  0.00     0.145 C 
HETATM   28  N5  UNL     1      43.713 -22.740  29.830  1.00  0.00    -0.349 N 
HETATM   29  C10 UNL     1      44.874 -22.861  30.648  1.00  0.00     0.219 C 
HETATM   30  C16 UNL     1      43.897 -22.277  28.493  1.00  0.00     0.150 C 
HETATM   31  O3  UNL     1      44.762 -23.265  31.824  1.00  0.00    -0.273 OA
HETATM   32  C17 UNL     1      42.638 -21.737  27.839  1.00  0.00     0.101 C 
HETATM   33  C18 UNL     1      43.035 -20.523  27.084  1.00  0.00     0.034 C 
BRANCH  29  34
HETATM   34  C11 UNL     1      46.249 -22.522  30.155  1.00  0.00     0.104 C 
BRANCH  34  35
HETATM   35  C12 UNL     1      46.689 -21.183  30.684  1.00  0.00     0.029 C 
BRANCH  35  36
HETATM   36  C13 UNL     1      47.982 -21.359  31.434  1.00  0.00     0.138 C 
BRANCH  36  37
HETATM   37  N6  UNL     1      48.871 -20.274  31.071  1.00  0.00    -0.227 N 
HETATM   38  C14 UNL     1      50.225 -20.532  30.700  1.00  0.00     0.667 C 
HETATM   39  N7  UNL     1      50.817 -21.520  31.234  1.00  0.00    -0.235 N 
HETATM   40  N8  UNL     1      50.912 -19.722  29.760  1.00  0.00    -0.231 N 
ATOM     41  H72 UNL     1      50.322 -22.103  31.910  1.00  0.00     0.174 HD
ATOM     42  H71 UNL     1      51.785 -21.705  30.970  1.00  0.00     0.174 HD
HETATM   43  C15 UNL     1      52.145 -19.031  30.154  1.00  0.00     0.165 C 
ATOM     44  H8  UNL     1      50.550 -19.620  28.813  1.00  0.00     0.177 HD
ATOM     45  H6  UNL     1      48.526 -19.314  31.081  1.00  0.00     0.177 HD
ENDBRANCH  36  37
ENDBRANCH  35  36
ENDBRANCH  34  35
ENDBRANCH  29  34
ENDBRANCH   1  25
TORSDOF 11
ENDMDL
MODEL 5
REMARK VINA RESULT: -7.714255746      6.908     11.308
REMARK  11 active torsions:
REMARK  status: ('A' for Active; 'I' for Inactive)
REMARK    1  A    between atoms: C2_2  and  N1_3 
REMARK       I    between atoms: N1_3  and  C3_5 
REMARK       I    between atoms: C3_5  and  N2_7 
REMARK    2  A    between atoms: N2_7  and  C4_9 
REMARK    3  A    between atoms: C6_12  and  N3_13 
REMARK    4  A    between atoms: N3_13  and  C7_15 
REMARK    5  A    between atoms: C7_15  and  O2_16 
REMARK    6  A    between atoms: C7_15  and  N4_18 
REMARK       I    between atoms: N5_21  and  C10_22 
REMARK    7  A    between atoms: C10_22  and  C11_24 
REMARK    8  A    between atoms: C11_24  and  C12_25 
REMARK    9  A    between atoms: C12_25  and  C13_26 
REMARK   10  A    between atoms: C13_26  and  N6_27 
REMARK       I    between atoms: N6_27  and  C14_29 
REMARK       I    between atoms: C14_29  and  N8_33 
REMARK   11  A    between atoms: C21_42  and  C22_43 
ROOT
HETATM    1  C7  UNL     1      40.646 -20.840  28.969  1.00  0.00     0.220 C 
ENDROOT
BRANCH   1   2
HETATM    2  N3  UNL     1      39.712 -20.256  28.127  1.00  0.00    -0.321 N 
ATOM      3  H3  UNL     1      38.776 -20.658  28.179  1.00  0.00     0.169 HD
BRANCH   2   4
HETATM    4  C6  UNL     1      39.850 -19.192  27.208  1.00  0.00     0.061 A 
HETATM    5  C5  UNL     1      39.546 -17.889  27.622  1.00  0.00     0.088 A 
HETATM    6  C4  UNL     1      39.638 -16.821  26.774  1.00  0.00     0.068 A 
HETATM    7 CL1  UNL     1      39.039 -17.624  29.272  1.00  0.00    -0.079 Cl
HETATM    8  C21 UNL     1      40.037 -16.942  25.436  1.00  0.00    -0.004 A 
HETATM    9  C20 UNL     1      40.336 -18.209  25.022  1.00  0.00     0.045 A 
HETATM   10  C19 UNL     1      40.239 -19.308  25.904  1.00  0.00     0.056 A 
HETATM   11 CL2  UNL     1      40.825 -18.528  23.366  1.00  0.00    -0.084 Cl
BRANCH   6  12
HETATM   12  N2  UNL     1      39.334 -15.494  27.240  1.00  0.00    -0.307 N 
HETATM   13  C3  UNL     1      37.965 -15.089  27.150  1.00  0.00     0.320 C 
HETATM   14  N1  UNL     1      37.530 -13.797  27.565  1.00  0.00    -0.343 N 
HETATM   15  O1  UNL     1      37.098 -15.876  26.695  1.00  0.00    -0.247 OA
ATOM     16  H1  UNL     1      38.226 -13.148  27.931  1.00  0.00     0.164 HD
ATOM     17  H2  UNL     1      40.055 -14.877  27.615  1.00  0.00     0.170 HD
BRANCH  14  18
HETATM   18  C2  UNL     1      36.170 -13.363  27.494  1.00  0.00     0.120 C 
HETATM   19  C1  UNL     1      35.315 -13.684  28.672  1.00  0.00     0.026 C 
ENDBRANCH  14  18
ENDBRANCH   6  12
BRANCH   8  20
HETATM   20  C22 UNL     1      40.063 -15.717  24.630  1.00  0.00     0.014 C 
HETATM   21  C23 UNL     1      41.409 -15.200  24.212  1.00  0.00     0.015 C 
HETATM   22  C24 UNL     1      39.267 -15.885  23.338  1.00  0.00     0.015 C 
ENDBRANCH   8  20
ENDBRANCH   2   4
ENDBRANCH   1   2
BRANCH   1  23
HETATM   23  O2  UNL     1      40.521 -20.502  30.221  1.00  0.00    -0.332 OA
ATOM     24  H2  UNL     1      41.100 -20.971  30.810  1.00  0.00     0.220 HD
ENDBRANCH   1  23
BRANCH   1  25
HETATM   25  N4  UNL     1      41.690 -21.726  28.694  1.00  0.00    -0.340 N 
HETATM   26  C8  UNL     1      41.509 -23.090  29.319  1.00  0.00     0.147 C 
HETATM   27  C9  UNL     1      42.520 -23.123  30.441  1.00  0.00     0.145 C 
HETATM   28  N5  UNL     1      43.809 -22.668  30.036  1.00  0.00    -0.349 N 
HETATM   29  C10 UNL     1      44.877 -22.746  30.976  1.00  0.00     0.219 C 
HETATM   30  C16 UNL     1      44.108 -22.140  28.744  1.00  0.00     0.150 C 
HETATM   31  O3  UNL     1      44.663 -23.203  32.118  1.00  0.00    -0.273 OA
HETATM   32  C17 UNL     1      42.895 -21.657  27.969  1.00  0.00     0.101 C 
HETATM   33  C18 UNL     1      43.287 -20.390  27.304  1.00  0.00     0.034 C 
BRANCH  29  34
HETATM   34  C11 UNL     1      46.271 -22.299  30.653  1.00  0.00     0.104 C 
BRANCH  34  35
HETATM   35  C12 UNL     1      46.954 -21.759  31.882  1.00  0.00     0.029 C 
BRANCH  35  36
HETATM   36  C13 UNL     1      48.348 -22.323  31.949  1.00  0.00     0.138 C 
BRANCH  36  37
HETATM   37  N6  UNL     1      48.653 -22.624  33.333  1.00  0.00    -0.227 N 
HETATM   38  C14 UNL     1      49.829 -22.105  33.952  1.00  0.00     0.667 C 
HETATM   39  N7  UNL     1      50.859 -21.924  33.231  1.00  0.00    -0.235 N 
HETATM   40  N8  UNL     1      49.872 -21.789  35.334  1.00  0.00    -0.231 N 
ATOM     41  H72 UNL     1      50.827 -22.151  32.237  1.00  0.00     0.174 HD
ATOM     42  H71 UNL     1      51.700 -21.553  33.673  1.00  0.00     0.174 HD
HETATM   43  C15 UNL     1      50.849 -22.451  36.206  1.00  0.00     0.165 C 
ATOM     44  H8  UNL     1      49.225 -21.102  35.721  1.00  0.00     0.177 HD
ATOM     45  H6  UNL     1      48.019 -23.215  33.872  1.00  0.00     0.177 HD
ENDBRANCH  36  37
ENDBRANCH  35  36
ENDBRANCH  34  35
ENDBRANCH  29  34
ENDBRANCH   1  25
TORSDOF 11
ENDMDL
