MODEL 1
REMARK VINA RESULT: -9.019928234      0.000      0.000
REMARK  9 active torsions:
REMARK  status: ('A' for Active; 'I' for Inactive)
REMARK    1  A    between atoms: C4_11  and  C5_12 
REMARK    2  A    between atoms: C11_20  and  C12_21 
REMARK       I    between atoms: C12_21  and  N4_23 
REMARK    3  A    between atoms: N4_23  and  C13_25 
REMARK    4  A    between atoms: C13_25  and  C14_26 
REMARK    5  A    between atoms: C13_25  and  C21_33 
REMARK    6  A    between atoms: C14_26  and  C15_27 
REMARK       I    between atoms: C21_33  and  N5_35 
REMARK    7  A    between atoms: N5_35  and  C22_37 
REMARK    8  A    between atoms: C22_37  and  C23_38 
REMARK    9  A    between atoms: C26_41  and  N6_42 
ROOT
HETATM    1  C12 UNL     1      42.605 -21.122  29.140  1.00  0.00     0.226 C 
HETATM    2  O1  UNL     1      42.841 -21.240  27.892  1.00  0.00    -0.273 OA
HETATM    3  N4  UNL     1      41.327 -20.633  29.488  1.00  0.00    -0.347 N 
ATOM      4  H4  UNL     1      41.088 -20.520  30.473  1.00  0.00     0.163 HD
ENDROOT
BRANCH   3   5
HETATM    5  C13 UNL     1      40.316 -20.278  28.450  1.00  0.00     0.177 C 
BRANCH   5   6
HETATM    6  C14 UNL     1      39.517 -21.521  28.284  1.00  0.00     0.039 C 
BRANCH   6   7
HETATM    7  C15 UNL     1      39.328 -22.101  26.941  1.00  0.00    -0.012 C 
HETATM    8  C16 UNL     1      38.042 -21.878  26.247  1.00  0.00     0.005 C 
HETATM    9  C17 UNL     1      37.649 -23.117  25.454  1.00  0.00     0.000 C 
HETATM   10  C18 UNL     1      38.827 -23.747  24.739  1.00  0.00     0.000 C 
HETATM   11  C19 UNL     1      39.892 -24.161  25.741  1.00  0.00     0.000 C 
HETATM   12  C20 UNL     1      39.528 -23.622  27.110  1.00  0.00     0.005 C 
ENDBRANCH   6   7
ENDBRANCH   5   6
BRANCH   5  13
HETATM   13  C21 UNL     1      39.508 -19.220  29.090  1.00  0.00     0.240 C 
HETATM   14  O2  UNL     1      39.851 -18.921  30.292  1.00  0.00    -0.271 OA
HETATM   15  N5  UNL     1      38.426 -18.547  28.470  1.00  0.00    -0.359 N 
ATOM     16  H5  UNL     1      38.155 -18.785  27.515  1.00  0.00     0.162 HD
BRANCH  15  17
HETATM   17  C22 UNL     1      37.714 -17.529  29.183  1.00  0.00     0.127 C 
BRANCH  17  18
HETATM   18  C23 UNL     1      37.911 -16.196  28.541  1.00  0.00     0.003 C 
HETATM   19  C24 UNL     1      37.175 -15.100  29.301  1.00  0.00     0.008 C 
HETATM   20  C25 UNL     1      36.125 -14.427  28.463  1.00  0.00     0.033 C 
HETATM   21  C26 UNL     1      36.711 -13.903  27.157  1.00  0.00     0.183 C 
HETATM   22  C27 UNL     1      37.640 -14.885  26.523  1.00  0.00     0.033 C 
HETATM   23  C28 UNL     1      37.345 -16.267  27.120  1.00  0.00     0.008 C 
BRANCH  21  24
HETATM   24  N6  UNL     1      37.393 -12.633  27.449  1.00  0.00    -0.075 N 
ATOM     25  H63 UNL     1      37.852 -12.630  28.360  1.00  0.00     0.274 HD
ATOM     26  H62 UNL     1      38.227 -12.490  26.878  1.00  0.00     0.274 HD
ATOM     27  H61 UNL     1      36.710 -11.882  27.347  1.00  0.00     0.274 HD
ENDBRANCH  21  24
ENDBRANCH  17  18
ENDBRANCH  15  17
ENDBRANCH   5  13
ENDBRANCH   3   5
BRANCH   1  28
HETATM   28  C11 UNL     1      43.672 -21.502  30.071  1.00  0.00     0.128 C 
HETATM   29  C2  UNL     1      45.026 -21.555  29.462  1.00  0.00     0.110 C 
HETATM   30  C1  UNL     1      45.392 -20.274  28.730  1.00  0.00     0.034 C 
HETATM   31  N1  UNL     1      45.995 -21.633  30.562  1.00  0.00    -0.222 N 
HETATM   32  C3  UNL     1      45.578 -22.196  31.816  1.00  0.00     0.668 C 
ATOM     33  H1  UNL     1      46.948 -21.293  30.438  1.00  0.00     0.178 HD
HETATM   34  N2  UNL     1      46.270 -22.013  32.895  1.00  0.00    -0.235 N 
HETATM   35  N3  UNL     1      44.387 -22.960  31.837  1.00  0.00    -0.217 N 
ATOM     36  H22 UNL     1      47.129 -21.463  32.880  1.00  0.00     0.174 HD
ATOM     37  H21 UNL     1      45.974 -22.414  33.786  1.00  0.00     0.174 HD
HETATM   38  C4  UNL     1      43.368 -22.750  30.827  1.00  0.00     0.147 C 
ATOM     39  H3  UNL     1      44.245 -23.660  32.565  1.00  0.00     0.178 HD
BRANCH  38  40
HETATM   40  C5  UNL     1      43.229 -23.987  30.023  1.00  0.00    -0.032 A 
HETATM   41  C6  UNL     1      44.338 -24.537  29.367  1.00  0.00     0.012 A 
HETATM   42  C7  UNL     1      44.229 -25.668  28.587  1.00  0.00     0.044 A 
HETATM   43  C8  UNL     1      43.015 -26.299  28.428  1.00  0.00     0.138 A 
HETATM   44  F1  UNL     1      42.875 -27.419  27.663  1.00  0.00    -0.204 F 
HETATM   45  C9  UNL     1      41.894 -25.784  29.061  1.00  0.00     0.073 A 
HETATM   46 CL1  UNL     1      40.324 -26.541  28.895  1.00  0.00    -0.081 Cl
HETATM   47  C10 UNL     1      42.034 -24.645  29.838  1.00  0.00     0.036 A 
ENDBRANCH  38  40
ENDBRANCH   1  28
TORSDOF 9
ENDMDL
MODEL 2
REMARK VINA RESULT: -9.003460648      3.668      5.092
REMARK  9 active torsions:
REMARK  status: ('A' for Active; 'I' for Inactive)
REMARK    1  A    between atoms: C4_11  and  C5_12 
REMARK    2  A    between atoms: C11_20  and  C12_21 
REMARK       I    between atoms: C12_21  and  N4_23 
REMARK    3  A    between atoms: N4_23  and  C13_25 
REMARK    4  A    between atoms: C13_25  and  C14_26 
REMARK    5  A    between atoms: C13_25  and  C21_33 
REMARK    6  A    between atoms: C14_26  and  C15_27 
REMARK       I    between atoms: C21_33  and  N5_35 
REMARK    7  A    between atoms: N5_35  and  C22_37 
REMARK    8  A    between atoms: C22_37  and  C23_38 
REMARK    9  A    between atoms: C26_41  and  N6_42 
ROOT
HETATM    1  C12 UNL     1      39.220 -23.023  26.249  1.00  0.00     0.226 C 
HETATM    2  O1  UNL     1      39.184 -23.039  24.973  1.00  0.00    -0.273 OA
HETATM    3  N4  UNL     1      38.550 -21.951  26.876  1.00  0.00    -0.347 N 
ATOM      4  H4  UNL     1      38.550 -21.893  27.895  1.00  0.00     0.163 HD
ENDROOT
BRANCH   3   5
HETATM    5  C13 UNL     1      37.843 -20.901  26.088  1.00  0.00     0.177 C 
BRANCH   5   6
HETATM    6  C14 UNL     1      36.402 -21.169  26.341  1.00  0.00     0.039 C 
BRANCH   6   7
HETATM    7  C15 UNL     1      35.561 -21.745  25.275  1.00  0.00    -0.012 C 
HETATM    8  C16 UNL     1      35.739 -23.170  24.924  1.00  0.00     0.005 C 
HETATM    9  C17 UNL     1      35.567 -23.369  23.424  1.00  0.00     0.000 C 
HETATM   10  C18 UNL     1      34.419 -22.559  22.859  1.00  0.00     0.000 C 
HETATM   11  C19 UNL     1      34.648 -21.077  23.104  1.00  0.00     0.000 C 
HETATM   12  C20 UNL     1      35.844 -20.898  24.017  1.00  0.00     0.005 C 
ENDBRANCH   6   7
ENDBRANCH   5   6
BRANCH   5  13
HETATM   13  C21 UNL     1      38.259 -19.637  26.728  1.00  0.00     0.240 C 
HETATM   14  O2  UNL     1      39.528 -19.493  26.881  1.00  0.00    -0.271 OA
HETATM   15  N5  UNL     1      37.370 -18.620  27.157  1.00  0.00    -0.359 N 
ATOM     16  H5  UNL     1      36.364 -18.736  27.034  1.00  0.00     0.162 HD
BRANCH  15  17
HETATM   17  C22 UNL     1      37.885 -17.428  27.761  1.00  0.00     0.127 C 
BRANCH  17  18
HETATM   18  C23 UNL     1      36.892 -16.317  27.672  1.00  0.00     0.003 C 
HETATM   19  C24 UNL     1      37.457 -15.128  26.906  1.00  0.00     0.008 C 
HETATM   20  C25 UNL     1      37.533 -13.887  27.748  1.00  0.00     0.033 C 
HETATM   21  C26 UNL     1      36.182 -13.557  28.372  1.00  0.00     0.183 C 
HETATM   22  C27 UNL     1      35.500 -14.770  28.911  1.00  0.00     0.033 C 
HETATM   23  C28 UNL     1      36.560 -15.864  29.096  1.00  0.00     0.008 C 
BRANCH  21  24
HETATM   24  N6  UNL     1      35.363 -12.894  27.345  1.00  0.00    -0.075 N 
ATOM     25  H63 UNL     1      34.422 -13.283  27.278  1.00  0.00     0.274 HD
ATOM     26  H62 UNL     1      35.098 -11.943  27.602  1.00  0.00     0.274 HD
ATOM     27  H61 UNL     1      35.873 -12.939  26.463  1.00  0.00     0.274 HD
ENDBRANCH  21  24
ENDBRANCH  17  18
ENDBRANCH  15  17
ENDBRANCH   5  13
ENDBRANCH   3   5
BRANCH   1  28
HETATM   28  C11 UNL     1      39.945 -24.108  26.920  1.00  0.00     0.128 C 
HETATM   29  C2  UNL     1      41.274 -24.412  26.331  1.00  0.00     0.110 C 
HETATM   30  C1  UNL     1      42.158 -23.181  26.207  1.00  0.00     0.034 C 
HETATM   31  N1  UNL     1      41.985 -25.274  27.284  1.00  0.00    -0.222 N 
HETATM   32  C3  UNL     1      41.220 -26.090  28.185  1.00  0.00     0.668 C 
ATOM     33  H1  UNL     1      43.004 -25.292  27.306  1.00  0.00     0.178 HD
HETATM   34  N2  UNL     1      41.765 -26.621  29.234  1.00  0.00    -0.235 N 
HETATM   35  N3  UNL     1      39.852 -26.298  27.894  1.00  0.00    -0.217 N 
ATOM     36  H22 UNL     1      42.752 -26.471  29.444  1.00  0.00     0.174 HD
ATOM     37  H21 UNL     1      41.222 -27.201  29.874  1.00  0.00     0.174 HD
HETATM   38  C4  UNL     1      39.126 -25.343  27.078  1.00  0.00     0.147 C 
ATOM     39  H3  UNL     1      39.374 -27.122  28.258  1.00  0.00     0.178 HD
BRANCH  38  40
HETATM   40  C5  UNL     1      38.696 -26.011  25.828  1.00  0.00    -0.032 A 
HETATM   41  C6  UNL     1      39.643 -26.458  24.898  1.00  0.00     0.012 A 
HETATM   42  C7  UNL     1      39.268 -27.053  23.713  1.00  0.00     0.044 A 
HETATM   43  C8  UNL     1      37.938 -27.229  23.403  1.00  0.00     0.138 A 
HETATM   44  F1  UNL     1      37.536 -27.813  22.239  1.00  0.00    -0.204 F 
HETATM   45  C9  UNL     1      36.970 -26.798  24.298  1.00  0.00     0.073 A 
HETATM   46 CL1  UNL     1      35.264 -26.993  23.960  1.00  0.00    -0.081 Cl
HETATM   47  C10 UNL     1      37.377 -26.203  25.482  1.00  0.00     0.036 A 
ENDBRANCH  38  40
ENDBRANCH   1  28
TORSDOF 9
ENDMDL
MODEL 3
REMARK VINA RESULT: -8.977015122      3.783      5.117
REMARK  9 active torsions:
REMARK  status: ('A' for Active; 'I' for Inactive)
REMARK    1  A    between atoms: C4_11  and  C5_12 
REMARK    2  A    between atoms: C11_20  and  C12_21 
REMARK       I    between atoms: C12_21  and  N4_23 
REMARK    3  A    between atoms: N4_23  and  C13_25 
REMARK    4  A    between atoms: C13_25  and  C14_26 
REMARK    5  A    between atoms: C13_25  and  C21_33 
REMARK    6  A    between atoms: C14_26  and  C15_27 
REMARK       I    between atoms: C21_33  and  N5_35 
REMARK    7  A    between atoms: N5_35  and  C22_37 
REMARK    8  A    between atoms: C22_37  and  C23_38 
REMARK    9  A    between atoms: C26_41  and  N6_42 
ROOT
HETATM    1  C12 UNL     1      39.433 -22.911  26.389  1.00  0.00     0.226 C 
HETATM    2  O1  UNL     1      39.361 -22.741  25.126  1.00  0.00    -0.273 OA
HETATM    3  N4  UNL     1      38.886 -21.883  27.187  1.00  0.00    -0.347 N 
ATOM      4  H4  UNL     1      38.918 -21.971  28.202  1.00  0.00     0.163 HD
ENDROOT
BRANCH   3   5
HETATM    5  C13 UNL     1      38.263 -20.671  26.582  1.00  0.00     0.177 C 
BRANCH   5   6
HETATM    6  C14 UNL     1      36.821 -21.019  26.480  1.00  0.00     0.039 C 
BRANCH   6   7
HETATM    7  C15 UNL     1      36.100 -20.807  25.211  1.00  0.00    -0.012 C 
HETATM    8  C16 UNL     1      35.698 -21.988  24.418  1.00  0.00     0.005 C 
HETATM    9  C17 UNL     1      35.828 -21.692  22.930  1.00  0.00     0.000 C 
HETATM   10  C18 UNL     1      35.342 -20.304  22.570  1.00  0.00     0.000 C 
HETATM   11  C19 UNL     1      36.144 -19.253  23.319  1.00  0.00     0.000 C 
HETATM   12  C20 UNL     1      37.030 -19.935  24.342  1.00  0.00     0.005 C 
ENDBRANCH   6   7
ENDBRANCH   5   6
BRANCH   5  13
HETATM   13  C21 UNL     1      38.476 -19.619  27.597  1.00  0.00     0.240 C 
HETATM   14  O2  UNL     1      39.670 -19.545  28.066  1.00  0.00    -0.271 OA
HETATM   15  N5  UNL     1      37.474 -18.725  28.053  1.00  0.00    -0.359 N 
ATOM     16  H5  UNL     1      36.527 -18.785  27.680  1.00  0.00     0.162 HD
BRANCH  15  17
HETATM   17  C22 UNL     1      37.794 -17.737  29.039  1.00  0.00     0.127 C 
BRANCH  17  18
HETATM   18  C23 UNL     1      38.000 -16.402  28.403  1.00  0.00     0.003 C 
HETATM   19  C24 UNL     1      37.420 -15.284  29.259  1.00  0.00     0.008 C 
HETATM   20  C25 UNL     1      36.327 -14.531  28.555  1.00  0.00     0.033 C 
HETATM   21  C26 UNL     1      36.796 -14.011  27.201  1.00  0.00     0.183 C 
HETATM   22  C27 UNL     1      37.588 -15.029  26.451  1.00  0.00     0.033 C 
HETATM   23  C28 UNL     1      37.278 -16.406  27.053  1.00  0.00     0.008 C 
BRANCH  21  24
HETATM   24  N6  UNL     1      37.581 -12.790  27.437  1.00  0.00    -0.075 N 
ATOM     25  H63 UNL     1      37.735 -12.603  28.428  1.00  0.00     0.274 HD
ATOM     26  H62 UNL     1      38.560 -12.889  27.166  1.00  0.00     0.274 HD
ATOM     27  H61 UNL     1      37.114 -12.021  26.957  1.00  0.00     0.274 HD
ENDBRANCH  21  24
ENDBRANCH  17  18
ENDBRANCH  15  17
ENDBRANCH   5  13
ENDBRANCH   3   5
BRANCH   1  28
HETATM   28  C11 UNL     1      40.067 -24.142  26.873  1.00  0.00     0.128 C 
HETATM   29  C2  UNL     1      41.246 -24.576  26.079  1.00  0.00     0.110 C 
HETATM   30  C1  UNL     1      42.281 -23.475  25.917  1.00  0.00     0.034 C 
HETATM   31  N1  UNL     1      41.937 -25.611  26.859  1.00  0.00    -0.222 N 
HETATM   32  C3  UNL     1      41.183 -26.389  27.802  1.00  0.00     0.668 C 
ATOM     33  H1  UNL     1      42.935 -25.774  26.734  1.00  0.00     0.178 HD
HETATM   34  N2  UNL     1      41.773 -27.084  28.722  1.00  0.00    -0.235 N 
HETATM   35  N3  UNL     1      39.772 -26.376  27.695  1.00  0.00    -0.217 N 
ATOM     36  H22 UNL     1      42.791 -27.093  28.799  1.00  0.00     0.174 HD
ATOM     37  H21 UNL     1      41.238 -27.637  29.391  1.00  0.00     0.174 HD
HETATM   38  C4  UNL     1      39.099 -25.260  27.060  1.00  0.00     0.147 C 
ATOM     39  H3  UNL     1      39.227 -27.155  28.066  1.00  0.00     0.178 HD
BRANCH  38  40
HETATM   40  C5  UNL     1      38.412 -25.746  25.842  1.00  0.00    -0.032 A 
HETATM   41  C6  UNL     1      39.095 -26.533  24.905  1.00  0.00     0.012 A 
HETATM   42  C7  UNL     1      38.489 -26.971  23.748  1.00  0.00     0.044 A 
HETATM   43  C8  UNL     1      37.179 -26.645  23.472  1.00  0.00     0.138 A 
HETATM   44  F1  UNL     1      36.552 -27.063  22.337  1.00  0.00    -0.204 F 
HETATM   45  C9  UNL     1      36.469 -25.867  24.375  1.00  0.00     0.073 A 
HETATM   46 CL1  UNL     1      34.803 -25.419  24.079  1.00  0.00    -0.081 Cl
HETATM   47  C10 UNL     1      37.106 -25.440  25.530  1.00  0.00     0.036 A 
ENDBRANCH  38  40
ENDBRANCH   1  28
TORSDOF 9
ENDMDL
MODEL 4
REMARK VINA RESULT: -8.827892549      3.445      8.544
REMARK  9 active torsions:
REMARK  status: ('A' for Active; 'I' for Inactive)
REMARK    1  A    between atoms: C4_11  and  C5_12 
REMARK    2  A    between atoms: C11_20  and  C12_21 
REMARK       I    between atoms: C12_21  and  N4_23 
REMARK    3  A    between atoms: N4_23  and  C13_25 
REMARK    4  A    between atoms: C13_25  and  C14_26 
REMARK    5  A    between atoms: C13_25  and  C21_33 
REMARK    6  A    between atoms: C14_26  and  C15_27 
REMARK       I    between atoms: C21_33  and  N5_35 
REMARK    7  A    between atoms: N5_35  and  C22_37 
REMARK    8  A    between atoms: C22_37  and  C23_38 
REMARK    9  A    between atoms: C26_41  and  N6_42 
ROOT
HETATM    1  C12 UNL     1      39.231 -17.937  28.607  1.00  0.00     0.226 C 
HETATM    2  O1  UNL     1      39.510 -18.051  29.847  1.00  0.00    -0.273 OA
HETATM    3  N4  UNL     1      39.507 -19.063  27.802  1.00  0.00    -0.347 N 
ATOM      4  H4  UNL     1      39.303 -19.023  26.803  1.00  0.00     0.163 HD
ENDROOT
BRANCH   3   5
HETATM    5  C13 UNL     1      40.091 -20.311  28.374  1.00  0.00     0.177 C 
BRANCH   5   6
HETATM    6  C14 UNL     1      39.188 -21.388  27.890  1.00  0.00     0.039 C 
BRANCH   6   7
HETATM    7  C15 UNL     1      38.477 -21.231  26.607  1.00  0.00    -0.012 C 
HETATM    8  C16 UNL     1      37.043 -20.871  26.631  1.00  0.00     0.005 C 
HETATM    9  C17 UNL     1      36.303 -21.583  25.506  1.00  0.00     0.000 C 
HETATM   10  C18 UNL     1      37.087 -21.594  24.211  1.00  0.00     0.000 C 
HETATM   11  C19 UNL     1      38.417 -22.303  24.406  1.00  0.00     0.000 C 
HETATM   12  C20 UNL     1      38.623 -22.585  25.880  1.00  0.00     0.005 C 
ENDBRANCH   6   7
ENDBRANCH   5   6
BRANCH   5  13
HETATM   13  C21 UNL     1      41.416 -20.410  27.728  1.00  0.00     0.240 C 
HETATM   14  O2  UNL     1      41.402 -20.373  26.443  1.00  0.00    -0.271 OA
HETATM   15  N5  UNL     1      42.645 -20.534  28.425  1.00  0.00    -0.359 N 
ATOM     16  H5  UNL     1      42.653 -20.563  29.445  1.00  0.00     0.162 HD
BRANCH  15  17
HETATM   17  C22 UNL     1      43.874 -20.617  27.695  1.00  0.00     0.127 C 
BRANCH  17  18
HETATM   18  C23 UNL     1      45.036 -20.302  28.579  1.00  0.00     0.003 C 
HETATM   19  C24 UNL     1      46.226 -21.200  28.271  1.00  0.00     0.008 C 
HETATM   20  C25 UNL     1      46.622 -22.051  29.444  1.00  0.00     0.033 C 
HETATM   21  C26 UNL     1      46.870 -21.202  30.686  1.00  0.00     0.183 C 
HETATM   22  C27 UNL     1      45.831 -20.145  30.861  1.00  0.00     0.033 C 
HETATM   23  C28 UNL     1      44.606 -20.544  30.028  1.00  0.00     0.008 C 
BRANCH  21  24
HETATM   24  N6  UNL     1      48.215 -20.617  30.568  1.00  0.00    -0.075 N 
ATOM     25  H63 UNL     1      48.910 -21.104  31.134  1.00  0.00     0.274 HD
ATOM     26  H62 UNL     1      48.641 -20.784  29.657  1.00  0.00     0.274 HD
ATOM     27  H61 UNL     1      48.143 -19.625  30.795  1.00  0.00     0.274 HD
ENDBRANCH  21  24
ENDBRANCH  17  18
ENDBRANCH  15  17
ENDBRANCH   5  13
ENDBRANCH   3   5
BRANCH   1  28
HETATM   28  C11 UNL     1      38.659 -16.665  28.154  1.00  0.00     0.128 C 
HETATM   29  C2  UNL     1      37.177 -16.664  28.047  1.00  0.00     0.110 C 
HETATM   30  C1  UNL     1      36.495 -17.127  29.324  1.00  0.00     0.034 C 
HETATM   31  N1  UNL     1      36.754 -15.266  27.897  1.00  0.00    -0.222 N 
HETATM   32  C3  UNL     1      37.672 -14.319  27.329  1.00  0.00     0.668 C 
ATOM     33  H1  UNL     1      35.823 -14.971  28.192  1.00  0.00     0.178 HD
HETATM   34  N2  UNL     1      37.484 -13.044  27.454  1.00  0.00    -0.235 N 
HETATM   35  N3  UNL     1      38.792 -14.822  26.625  1.00  0.00    -0.217 N 
ATOM     36  H22 UNL     1      36.676 -12.682  27.962  1.00  0.00     0.174 HD
ATOM     37  H21 UNL     1      38.136 -12.372  27.050  1.00  0.00     0.174 HD
HETATM   38  C4  UNL     1      39.293 -16.153  26.907  1.00  0.00     0.147 C 
ATOM     39  H3  UNL     1      39.248 -14.246  25.918  1.00  0.00     0.178 HD
BRANCH  38  40
HETATM   40  C5  UNL     1      39.132 -16.991  25.697  1.00  0.00    -0.032 A 
HETATM   41  C6  UNL     1      40.255 -17.496  25.026  1.00  0.00     0.012 A 
HETATM   42  C7  UNL     1      40.133 -18.251  23.880  1.00  0.00     0.044 A 
HETATM   43  C8  UNL     1      38.894 -18.537  23.353  1.00  0.00     0.138 A 
HETATM   44  F1  UNL     1      38.742 -19.281  22.221  1.00  0.00    -0.204 F 
HETATM   45  C9  UNL     1      37.759 -18.055  23.987  1.00  0.00     0.073 A 
HETATM   46 CL1  UNL     1      36.156 -18.383  23.364  1.00  0.00    -0.081 Cl
HETATM   47  C10 UNL     1      37.911 -17.297  25.138  1.00  0.00     0.036 A 
ENDBRANCH  38  40
ENDBRANCH   1  28
TORSDOF 9
ENDMDL
MODEL 5
REMARK VINA RESULT: -8.797794237      2.705      5.433
REMARK  9 active torsions:
REMARK  status: ('A' for Active; 'I' for Inactive)
REMARK    1  A    between atoms: C4_11  and  C5_12 
REMARK    2  A    between atoms: C11_20  and  C12_21 
REMARK       I    between atoms: C12_21  and  N4_23 
REMARK    3  A    between atoms: N4_23  and  C13_25 
REMARK    4  A    between atoms: C13_25  and  C14_26 
REMARK    5  A    between atoms: C13_25  and  C21_33 
REMARK    6  A    between atoms: C14_26  and  C15_27 
REMARK       I    between atoms: C21_33  and  N5_35 
REMARK    7  A    between atoms: N5_35  and  C22_37 
REMARK    8  A    between atoms: C22_37  and  C23_38 
REMARK    9  A    between atoms: C26_41  and  N6_42 
ROOT
HETATM    1  C12 UNL     1      41.121 -23.630  29.785  1.00  0.00     0.226 C 
HETATM    2  O1  UNL     1      40.331 -23.199  30.690  1.00  0.00    -0.273 OA
HETATM    3  N4  UNL     1      41.872 -22.651  29.099  1.00  0.00    -0.347 N 
ATOM      4  H4  UNL     1      42.518 -22.943  28.366  1.00  0.00     0.163 HD
ENDROOT
BRANCH   3   5
HETATM    5  C13 UNL     1      41.743 -21.200  29.418  1.00  0.00     0.177 C 
BRANCH   5   6
HETATM    6  C14 UNL     1      43.109 -20.658  29.192  1.00  0.00     0.039 C 
BRANCH   6   7
HETATM    7  C15 UNL     1      44.251 -21.195  29.956  1.00  0.00    -0.012 C 
HETATM    8  C16 UNL     1      43.996 -21.803  31.279  1.00  0.00     0.005 C 
HETATM    9  C17 UNL     1      45.135 -21.479  32.236  1.00  0.00     0.000 C 
HETATM   10  C18 UNL     1      46.494 -21.580  31.576  1.00  0.00     0.000 C 
HETATM   11  C19 UNL     1      46.586 -20.613  30.408  1.00  0.00     0.000 C 
HETATM   12  C20 UNL     1      45.220 -20.010  30.147  1.00  0.00     0.005 C 
ENDBRANCH   6   7
ENDBRANCH   5   6
BRANCH   5  13
HETATM   13  C21 UNL     1      40.805 -20.694  28.396  1.00  0.00     0.240 C 
HETATM   14  O2  UNL     1      41.267 -20.662  27.197  1.00  0.00    -0.271 OA
HETATM   15  N5  UNL     1      39.479 -20.266  28.660  1.00  0.00    -0.359 N 
ATOM     16  H5  UNL     1      39.114 -20.292  29.613  1.00  0.00     0.162 HD
BRANCH  15  17
HETATM   17  C22 UNL     1      38.652 -19.798  27.589  1.00  0.00     0.127 C 
BRANCH  17  18
HETATM   18  C23 UNL     1      38.529 -18.311  27.626  1.00  0.00     0.003 C 
HETATM   19  C24 UNL     1      38.251 -17.812  29.038  1.00  0.00     0.008 C 
HETATM   20  C25 UNL     1      36.934 -17.098  29.145  1.00  0.00     0.033 C 
HETATM   21  C26 UNL     1      36.831 -15.970  28.125  1.00  0.00     0.183 C 
HETATM   22  C27 UNL     1      37.338 -16.378  26.782  1.00  0.00     0.033 C 
HETATM   23  C28 UNL     1      37.354 -17.912  26.729  1.00  0.00     0.008 C 
BRANCH  21  24
HETATM   24  N6  UNL     1      37.578 -14.818  28.652  1.00  0.00    -0.075 N 
ATOM     25  H63 UNL     1      37.605 -14.033  28.002  1.00  0.00     0.274 HD
ATOM     26  H62 UNL     1      37.091 -14.345  29.414  1.00  0.00     0.274 HD
ATOM     27  H61 UNL     1      38.507 -15.144  28.919  1.00  0.00     0.274 HD
ENDBRANCH  21  24
ENDBRANCH  17  18
ENDBRANCH  15  17
ENDBRANCH   5  13
ENDBRANCH   3   5
BRANCH   1  28
HETATM   28  C11 UNL     1      41.167 -25.078  29.557  1.00  0.00     0.128 C 
HETATM   29  C2  UNL     1      42.415 -25.556  28.908  1.00  0.00     0.110 C 
HETATM   30  C1  UNL     1      43.669 -25.094  29.633  1.00  0.00     0.034 C 
HETATM   31  N1  UNL     1      42.439 -27.018  29.039  1.00  0.00    -0.222 N 
HETATM   32  C3  UNL     1      41.196 -27.725  29.169  1.00  0.00     0.668 C 
ATOM     33  H1  UNL     1      43.324 -27.524  29.037  1.00  0.00     0.178 HD
HETATM   34  N2  UNL     1      41.161 -28.948  29.592  1.00  0.00    -0.235 N 
HETATM   35  N3  UNL     1      40.006 -27.043  28.820  1.00  0.00    -0.217 N 
ATOM     36  H22 UNL     1      42.019 -29.440  29.843  1.00  0.00     0.174 HD
ATOM     37  H21 UNL     1      40.277 -29.450  29.684  1.00  0.00     0.174 HD
HETATM   38  C4  UNL     1      39.958 -25.594  28.855  1.00  0.00     0.147 C 
ATOM     39  H3  UNL     1      39.179 -27.573  28.544  1.00  0.00     0.178 HD
BRANCH  38  40
HETATM   40  C5  UNL     1      39.731 -25.090  27.481  1.00  0.00    -0.032 A 
HETATM   41  C6  UNL     1      39.297 -23.775  27.268  1.00  0.00     0.012 A 
HETATM   42  C7  UNL     1      39.048 -23.291  26.002  1.00  0.00     0.044 A 
HETATM   43  C8  UNL     1      39.220 -24.092  24.896  1.00  0.00     0.138 A 
HETATM   44  F1  UNL     1      38.981 -23.643  23.631  1.00  0.00    -0.204 F 
HETATM   45  C9  UNL     1      39.648 -25.401  25.065  1.00  0.00     0.073 A 
HETATM   46 CL1  UNL     1      39.883 -26.468  23.698  1.00  0.00    -0.081 Cl
HETATM   47  C10 UNL     1      39.890 -25.860  26.350  1.00  0.00     0.036 A 
ENDBRANCH  38  40
ENDBRANCH   1  28
TORSDOF 9
ENDMDL
