MODEL 1
REMARK VINA RESULT: -8.548559610      0.000      0.000
REMARK  13 active torsions:
REMARK  status: ('A' for Active; 'I' for Inactive)
REMARK    1  A    between atoms: N1_4  and  C4_5 
REMARK    2  A    between atoms: C6_7  and  N2_8 
REMARK    3  A    between atoms: N2_8  and  C7_10 
REMARK    4  A    between atoms: C11_14  and  C12_15 
REMARK    5  A    between atoms: C12_15  and  C13_17 
REMARK    6  A    between atoms: C13_17  and  C14_18 
REMARK    7  A    between atoms: C17_21  and  C18_22 
REMARK    8  A    between atoms: C18_22  and  O2_23 
REMARK    9  A    between atoms: C18_22  and  N3_25 
REMARK   10  A    between atoms: N3_25  and  O3_27 
REMARK   11  A    between atoms: C19_29  and  O4_30 
REMARK   12  A    between atoms: C22_38  and  N6_39 
REMARK   13  A    between atoms: N6_39  and  C23_41 
ROOT
HETATM    1  C4  UNL     1      43.169 -21.073  28.282  1.00  0.00     0.123 C 
HETATM    2  C5  UNL     1      42.974 -20.922  26.798  1.00  0.00     0.055 C 
HETATM    3  C6  UNL     1      41.502 -21.306  27.113  1.00  0.00     0.109 C 
HETATM    4  C19 UNL     1      42.160 -22.203  28.153  1.00  0.00     0.163 C 
ENDROOT
BRANCH   1   5
HETATM    5  N1  UNL     1      44.441 -21.384  28.802  1.00  0.00    -0.335 N 
HETATM    6  C3  UNL     1      45.547 -21.464  28.001  1.00  0.00     0.101 A 
HETATM    7  C2  UNL     1      46.650 -21.779  28.752  1.00  0.00    -0.029 A 
HETATM    8  C1  UNL     1      48.052 -21.968  28.305  1.00  0.00     0.050 C 
HETATM    9  C29 UNL     1      46.225 -21.897  30.051  1.00  0.00     0.059 A 
HETATM   10  C20 UNL     1      44.868 -21.647  30.027  1.00  0.00     0.123 A 
HETATM   11  C22 UNL     1      46.908 -22.199  31.226  1.00  0.00     0.121 A 
HETATM   12  N4  UNL     1      44.220 -21.708  31.203  1.00  0.00    -0.338 N 
HETATM   13  C21 UNL     1      44.879 -22.000  32.337  1.00  0.00     0.183 A 
ATOM     14  H4  UNL     1      43.216 -21.531  31.235  1.00  0.00     0.168 HD
HETATM   15  N5  UNL     1      46.217 -22.247  32.375  1.00  0.00    -0.338 N 
ATOM     16  H5  UNL     1      46.683 -22.465  33.256  1.00  0.00     0.168 HD
BRANCH  11  17
HETATM   17  N6  UNL     1      48.148 -22.415  31.153  1.00  0.00    -0.342 N 
ATOM     18  H6  UNL     1      48.422 -23.175  30.530  1.00  0.00     0.167 HD
BRANCH  17  19
HETATM   19  C23 UNL     1      49.202 -21.766  31.799  1.00  0.00     0.035 A 
HETATM   20  C24 UNL     1      49.627 -20.555  31.266  1.00  0.00     0.032 A 
HETATM   21  C25 UNL     1      50.663 -19.851  31.844  1.00  0.00     0.046 A 
HETATM   22  C26 UNL     1      51.322 -20.323  32.981  1.00  0.00     0.138 A 
HETATM   23  F1  UNL     1      52.341 -19.620  33.541  1.00  0.00    -0.204 F 
HETATM   24  C27 UNL     1      50.903 -21.523  33.513  1.00  0.00     0.074 A 
HETATM   25 CL1  UNL     1      51.713 -22.143  34.944  1.00  0.00    -0.081 Cl
HETATM   26  C28 UNL     1      49.866 -22.201  32.912  1.00  0.00     0.056 A 
ENDBRANCH  17  19
ENDBRANCH  11  17
ENDBRANCH   1   5
BRANCH   4  27
HETATM   27  O4  UNL     1      42.659 -23.333  27.510  1.00  0.00    -0.391 OA
ATOM     28  H4  UNL     1      42.821 -23.208  26.582  1.00  0.00     0.210 HD
ENDBRANCH   4  27
BRANCH   3  29
HETATM   29  N2  UNL     1      40.858 -20.138  27.555  1.00  0.00    -0.410 N 
ATOM     30  H2  UNL     1      41.068 -19.765  28.481  1.00  0.00     0.154 HD
BRANCH  29  31
HETATM   31  C7  UNL     1      39.918 -19.475  26.728  1.00  0.00     0.089 C 
HETATM   32  C8  UNL     1      40.116 -19.602  25.252  1.00  0.00     0.026 C 
HETATM   33  C9  UNL     1      40.834 -18.441  24.609  1.00  0.00     0.003 C 
HETATM   34  C10 UNL     1      40.259 -17.136  25.029  1.00  0.00     0.013 C 
HETATM   35  C11 UNL     1      39.078 -17.300  26.030  1.00  0.00     0.069 C 
HETATM   36  C17 UNL     1      39.617 -18.048  27.200  1.00  0.00     0.095 C 
BRANCH  35  37
HETATM   37  C12 UNL     1      38.589 -15.927  26.261  1.00  0.00     0.132 C 
HETATM   38  O1  UNL     1      39.260 -14.943  26.199  1.00  0.00    -0.298 OA
BRANCH  37  39
HETATM   39  C13 UNL     1      37.131 -15.732  26.597  1.00  0.00     0.082 C 
BRANCH  39  40
HETATM   40  C14 UNL     1      36.917 -14.940  27.847  1.00  0.00    -0.016 C 
HETATM   41  C15 UNL     1      36.354 -13.586  27.412  1.00  0.00     0.010 C 
HETATM   42  C16 UNL     1      35.964 -15.585  28.816  1.00  0.00     0.010 C 
ENDBRANCH  39  40
ENDBRANCH  37  39
ENDBRANCH  35  37
BRANCH  36  43
HETATM   43  C18 UNL     1      38.687 -18.202  28.339  1.00  0.00     0.142 C 
BRANCH  43  44
HETATM   44  O2  UNL     1      37.403 -18.687  28.164  1.00  0.00    -0.348 OA
ATOM     45  H2  UNL     1      36.986 -19.235  28.819  1.00  0.00     0.219 HD
ENDBRANCH  43  44
BRANCH  43  46
HETATM   46  N3  UNL     1      38.997 -17.902  29.565  1.00  0.00    -0.251 N 
ATOM     47  H3  UNL     1      38.649 -17.020  29.941  1.00  0.00     0.196 HD
BRANCH  46  48
HETATM   48  O3  UNL     1      39.750 -18.682  30.377  1.00  0.00    -0.288 OA
ATOM     49  H3  UNL     1      39.777 -19.631  30.338  1.00  0.00     0.244 HD
ENDBRANCH  46  48
ENDBRANCH  43  46
ENDBRANCH  36  43
ENDBRANCH  29  31
ENDBRANCH   3  29
TORSDOF 13
ENDMDL
MODEL 2
REMARK VINA RESULT: -8.410016743      1.589      2.104
REMARK  13 active torsions:
REMARK  status: ('A' for Active; 'I' for Inactive)
REMARK    1  A    between atoms: N1_4  and  C4_5 
REMARK    2  A    between atoms: C6_7  and  N2_8 
REMARK    3  A    between atoms: N2_8  and  C7_10 
REMARK    4  A    between atoms: C11_14  and  C12_15 
REMARK    5  A    between atoms: C12_15  and  C13_17 
REMARK    6  A    between atoms: C13_17  and  C14_18 
REMARK    7  A    between atoms: C17_21  and  C18_22 
REMARK    8  A    between atoms: C18_22  and  O2_23 
REMARK    9  A    between atoms: C18_22  and  N3_25 
REMARK   10  A    between atoms: N3_25  and  O3_27 
REMARK   11  A    between atoms: C19_29  and  O4_30 
REMARK   12  A    between atoms: C22_38  and  N6_39 
REMARK   13  A    between atoms: N6_39  and  C23_41 
ROOT
HETATM    1  C4  UNL     1      42.101 -21.735  28.796  1.00  0.00     0.123 C 
HETATM    2  C5  UNL     1      41.616 -21.935  27.386  1.00  0.00     0.055 C 
HETATM    3  C6  UNL     1      40.260 -22.265  28.069  1.00  0.00     0.109 C 
HETATM    4  C19 UNL     1      41.163 -22.884  29.128  1.00  0.00     0.163 C 
ENDROOT
BRANCH   1   5
HETATM    5  N1  UNL     1      43.467 -21.893  29.105  1.00  0.00    -0.335 N 
HETATM    6  C3  UNL     1      44.416 -22.021  28.128  1.00  0.00     0.101 A 
HETATM    7  C2  UNL     1      45.657 -22.158  28.694  1.00  0.00    -0.029 A 
HETATM    8  C1  UNL     1      46.969 -22.326  28.021  1.00  0.00     0.050 C 
HETATM    9  C29 UNL     1      45.481 -22.114  30.053  1.00  0.00     0.059 A 
HETATM   10  C20 UNL     1      44.125 -21.952  30.252  1.00  0.00     0.123 A 
HETATM   11  C22 UNL     1      46.384 -22.204  31.109  1.00  0.00     0.121 A 
HETATM   12  N4  UNL     1      43.703 -21.882  31.526  1.00  0.00    -0.338 N 
HETATM   13  C21 UNL     1      44.575 -21.968  32.545  1.00  0.00     0.183 A 
ATOM     14  H4  UNL     1      42.710 -21.761  31.722  1.00  0.00     0.168 HD
HETATM   15  N5  UNL     1      45.914 -22.128  32.363  1.00  0.00    -0.338 N 
ATOM     16  H5  UNL     1      46.546 -22.189  33.162  1.00  0.00     0.168 HD
BRANCH  11  17
HETATM   17  N6  UNL     1      47.606 -22.354  30.834  1.00  0.00    -0.342 N 
ATOM     18  H6  UNL     1      47.803 -22.987  30.059  1.00  0.00     0.167 HD
BRANCH  17  19
HETATM   19  C23 UNL     1      48.729 -21.780  31.434  1.00  0.00     0.035 A 
HETATM   20  C24 UNL     1      49.142 -20.542  30.957  1.00  0.00     0.032 A 
HETATM   21  C25 UNL     1      50.243 -19.908  31.494  1.00  0.00     0.046 A 
HETATM   22  C26 UNL     1      50.981 -20.479  32.534  1.00  0.00     0.138 A 
HETATM   23  F1  UNL     1      52.062 -19.844  33.055  1.00  0.00    -0.204 F 
HETATM   24  C27 UNL     1      50.572 -21.706  33.010  1.00  0.00     0.074 A 
HETATM   25 CL1  UNL     1      51.480 -22.451  34.318  1.00  0.00    -0.081 Cl
HETATM   26  C28 UNL     1      49.469 -22.313  32.451  1.00  0.00     0.056 A 
ENDBRANCH  17  19
ENDBRANCH  11  17
ENDBRANCH   1   5
BRANCH   4  27
HETATM   27  O4  UNL     1      41.601 -24.122  28.665  1.00  0.00    -0.391 OA
ATOM     28  H4  UNL     1      41.676 -24.782  29.344  1.00  0.00     0.210 HD
ENDBRANCH   4  27
BRANCH   3  29
HETATM   29  N2  UNL     1      39.637 -21.039  28.361  1.00  0.00    -0.410 N 
ATOM     30  H2  UNL     1      39.963 -20.483  29.152  1.00  0.00     0.154 HD
BRANCH  29  31
HETATM   31  C7  UNL     1      38.562 -20.569  27.568  1.00  0.00     0.089 C 
HETATM   32  C8  UNL     1      38.110 -21.458  26.455  1.00  0.00     0.026 C 
HETATM   33  C9  UNL     1      38.676 -21.112  25.100  1.00  0.00     0.003 C 
HETATM   34  C10 UNL     1      38.546 -19.660  24.803  1.00  0.00     0.013 C 
HETATM   35  C11 UNL     1      37.873 -18.872  25.965  1.00  0.00     0.069 C 
HETATM   36  C17 UNL     1      38.717 -19.097  27.172  1.00  0.00     0.095 C 
BRANCH  35  37
HETATM   37  C12 UNL     1      37.753 -17.491  25.461  1.00  0.00     0.132 C 
HETATM   38  O1  UNL     1      37.051 -16.650  25.934  1.00  0.00    -0.298 OA
BRANCH  37  39
HETATM   39  C13 UNL     1      38.577 -17.090  24.263  1.00  0.00     0.082 C 
BRANCH  39  40
HETATM   40  C14 UNL     1      39.331 -15.816  24.468  1.00  0.00    -0.016 C 
HETATM   41  C15 UNL     1      40.355 -16.091  25.572  1.00  0.00     0.010 C 
HETATM   42  C16 UNL     1      40.048 -15.332  23.237  1.00  0.00     0.010 C 
ENDBRANCH  39  40
ENDBRANCH  37  39
ENDBRANCH  35  37
BRANCH  36  43
HETATM   43  C18 UNL     1      38.329 -18.326  28.372  1.00  0.00     0.142 C 
BRANCH  43  44
HETATM   44  O2  UNL     1      37.007 -18.004  28.628  1.00  0.00    -0.348 OA
ATOM     45  H2  UNL     1      36.535 -18.389  29.358  1.00  0.00     0.219 HD
ENDBRANCH  43  44
BRANCH  43  46
HETATM   46  N3  UNL     1      39.178 -17.902  29.259  1.00  0.00    -0.251 N 
ATOM     47  H3  UNL     1      39.541 -16.955  29.155  1.00  0.00     0.196 HD
BRANCH  46  48
HETATM   48  O3  UNL     1      39.613 -18.633  30.314  1.00  0.00    -0.288 OA
ATOM     49  H3  UNL     1      39.823 -19.559  30.276  1.00  0.00     0.244 HD
ENDBRANCH  46  48
ENDBRANCH  43  46
ENDBRANCH  36  43
ENDBRANCH  29  31
ENDBRANCH   3  29
TORSDOF 13
ENDMDL
MODEL 3
REMARK VINA RESULT: -8.385754468      1.009      1.141
REMARK  13 active torsions:
REMARK  status: ('A' for Active; 'I' for Inactive)
REMARK    1  A    between atoms: N1_4  and  C4_5 
REMARK    2  A    between atoms: C6_7  and  N2_8 
REMARK    3  A    between atoms: N2_8  and  C7_10 
REMARK    4  A    between atoms: C11_14  and  C12_15 
REMARK    5  A    between atoms: C12_15  and  C13_17 
REMARK    6  A    between atoms: C13_17  and  C14_18 
REMARK    7  A    between atoms: C17_21  and  C18_22 
REMARK    8  A    between atoms: C18_22  and  O2_23 
REMARK    9  A    between atoms: C18_22  and  N3_25 
REMARK   10  A    between atoms: N3_25  and  O3_27 
REMARK   11  A    between atoms: C19_29  and  O4_30 
REMARK   12  A    between atoms: C22_38  and  N6_39 
REMARK   13  A    between atoms: N6_39  and  C23_41 
ROOT
HETATM    1  C4  UNL     1      43.831 -21.056  27.794  1.00  0.00     0.123 C 
HETATM    2  C5  UNL     1      43.656 -21.454  26.353  1.00  0.00     0.055 C 
HETATM    3  C6  UNL     1      42.140 -21.345  26.673  1.00  0.00     0.109 C 
HETATM    4  C19 UNL     1      42.581 -21.891  28.024  1.00  0.00     0.163 C 
ENDROOT
BRANCH   1   5
HETATM    5  N1  UNL     1      45.000 -21.417  28.493  1.00  0.00    -0.335 N 
HETATM    6  C3  UNL     1      46.192 -21.610  27.850  1.00  0.00     0.101 A 
HETATM    7  C2  UNL     1      47.164 -21.951  28.756  1.00  0.00    -0.029 A 
HETATM    8  C1  UNL     1      48.596 -22.251  28.509  1.00  0.00     0.050 C 
HETATM    9  C29 UNL     1      46.567 -21.970  29.990  1.00  0.00     0.059 A 
HETATM   10  C20 UNL     1      45.245 -21.639  29.774  1.00  0.00     0.123 A 
HETATM   11  C22 UNL     1      47.069 -22.250  31.259  1.00  0.00     0.121 A 
HETATM   12  N4  UNL     1      44.447 -21.594  30.855  1.00  0.00    -0.338 N 
HETATM   13  C21 UNL     1      44.931 -21.864  32.079  1.00  0.00     0.183 A 
ATOM     14  H4  UNL     1      43.462 -21.353  30.745  1.00  0.00     0.168 HD
HETATM   15  N5  UNL     1      46.232 -22.192  32.306  1.00  0.00    -0.338 N 
ATOM     16  H5  UNL     1      46.564 -22.389  33.251  1.00  0.00     0.168 HD
BRANCH  11  17
HETATM   17  N6  UNL     1      48.290 -22.546  31.362  1.00  0.00    -0.342 N 
ATOM     18  H6  UNL     1      48.602 -23.318  30.772  1.00  0.00     0.167 HD
BRANCH  17  19
HETATM   19  C23 UNL     1      49.278 -21.973  32.165  1.00  0.00     0.035 A 
HETATM   20  C24 UNL     1      49.940 -20.860  31.662  1.00  0.00     0.032 A 
HETATM   21  C25 UNL     1      50.931 -20.236  32.391  1.00  0.00     0.046 A 
HETATM   22  C26 UNL     1      51.305 -20.693  33.657  1.00  0.00     0.138 A 
HETATM   23  F1  UNL     1      52.281 -20.069  34.365  1.00  0.00    -0.204 F 
HETATM   24  C27 UNL     1      50.650 -21.797  34.159  1.00  0.00     0.074 A 
HETATM   25 CL1  UNL     1      51.098 -22.396  35.749  1.00  0.00    -0.081 Cl
HETATM   26  C28 UNL     1      49.666 -22.397  33.405  1.00  0.00     0.056 A 
ENDBRANCH  17  19
ENDBRANCH  11  17
ENDBRANCH   1   5
BRANCH   4  27
HETATM   27  O4  UNL     1      42.788 -23.263  27.901  1.00  0.00    -0.391 OA
ATOM     28  H4  UNL     1      42.097 -23.792  28.281  1.00  0.00     0.210 HD
ENDBRANCH   4  27
BRANCH   3  29
HETATM   29  N2  UNL     1      41.797 -19.985  26.585  1.00  0.00    -0.410 N 
ATOM     30  H2  UNL     1      42.511 -19.274  26.736  1.00  0.00     0.154 HD
BRANCH  29  31
HETATM   31  C7  UNL     1      40.468 -19.594  26.289  1.00  0.00     0.089 C 
HETATM   32  C8  UNL     1      40.222 -19.028  24.928  1.00  0.00     0.026 C 
HETATM   33  C9  UNL     1      40.207 -17.521  24.864  1.00  0.00     0.003 C 
HETATM   34  C10 UNL     1      39.347 -16.932  25.925  1.00  0.00     0.013 C 
HETATM   35  C11 UNL     1      38.696 -18.016  26.834  1.00  0.00     0.069 C 
HETATM   36  C17 UNL     1      39.817 -18.799  27.426  1.00  0.00     0.095 C 
BRANCH  35  37
HETATM   37  C12 UNL     1      37.827 -17.260  27.755  1.00  0.00     0.132 C 
HETATM   38  O1  UNL     1      37.686 -17.503  28.915  1.00  0.00    -0.298 OA
BRANCH  37  39
HETATM   39  C13 UNL     1      37.056 -16.084  27.211  1.00  0.00     0.082 C 
BRANCH  39  40
HETATM   40  C14 UNL     1      36.877 -14.986  28.210  1.00  0.00    -0.016 C 
HETATM   41  C15 UNL     1      36.979 -13.671  27.432  1.00  0.00     0.010 C 
HETATM   42  C16 UNL     1      35.559 -15.033  28.932  1.00  0.00     0.010 C 
ENDBRANCH  39  40
ENDBRANCH  37  39
ENDBRANCH  35  37
BRANCH  36  43
HETATM   43  C18 UNL     1      39.425 -19.807  28.433  1.00  0.00     0.142 C 
BRANCH  43  44
HETATM   44  O2  UNL     1      38.639 -20.897  28.099  1.00  0.00    -0.348 OA
ATOM     45  H2  UNL     1      39.022 -21.743  27.901  1.00  0.00     0.219 HD
ENDBRANCH  43  44
BRANCH  43  46
HETATM   46  N3  UNL     1      39.781 -19.752  29.682  1.00  0.00    -0.251 N 
ATOM     47  H3  UNL     1      40.160 -20.599  30.106  1.00  0.00     0.196 HD
BRANCH  46  48
HETATM   48  O3  UNL     1      39.681 -18.647  30.459  1.00  0.00    -0.288 OA
ATOM     49  H3  UNL     1      39.982 -18.593  31.359  1.00  0.00     0.244 HD
ENDBRANCH  46  48
ENDBRANCH  43  46
ENDBRANCH  36  43
ENDBRANCH  29  31
ENDBRANCH   3  29
TORSDOF 13
ENDMDL
MODEL 4
REMARK VINA RESULT: -8.364692209      1.218      1.517
REMARK  13 active torsions:
REMARK  status: ('A' for Active; 'I' for Inactive)
REMARK    1  A    between atoms: N1_4  and  C4_5 
REMARK    2  A    between atoms: C6_7  and  N2_8 
REMARK    3  A    between atoms: N2_8  and  C7_10 
REMARK    4  A    between atoms: C11_14  and  C12_15 
REMARK    5  A    between atoms: C12_15  and  C13_17 
REMARK    6  A    between atoms: C13_17  and  C14_18 
REMARK    7  A    between atoms: C17_21  and  C18_22 
REMARK    8  A    between atoms: C18_22  and  O2_23 
REMARK    9  A    between atoms: C18_22  and  N3_25 
REMARK   10  A    between atoms: N3_25  and  O3_27 
REMARK   11  A    between atoms: C19_29  and  O4_30 
REMARK   12  A    between atoms: C22_38  and  N6_39 
REMARK   13  A    between atoms: N6_39  and  C23_41 
ROOT
HETATM    1  C4  UNL     1      43.905 -21.136  27.885  1.00  0.00     0.123 C 
HETATM    2  C5  UNL     1      43.771 -21.527  26.438  1.00  0.00     0.055 C 
HETATM    3  C6  UNL     1      42.246 -21.419  26.716  1.00  0.00     0.109 C 
HETATM    4  C19 UNL     1      42.650 -21.971  28.076  1.00  0.00     0.163 C 
ENDROOT
BRANCH   1   5
HETATM    5  N1  UNL     1      45.054 -21.501  28.614  1.00  0.00    -0.335 N 
HETATM    6  C3  UNL     1      46.262 -21.698  28.003  1.00  0.00     0.101 A 
HETATM    7  C2  UNL     1      47.209 -22.042  28.934  1.00  0.00    -0.029 A 
HETATM    8  C1  UNL     1      48.646 -22.347  28.725  1.00  0.00     0.050 C 
HETATM    9  C29 UNL     1      46.580 -22.060  30.152  1.00  0.00     0.059 A 
HETATM   10  C20 UNL     1      45.265 -21.724  29.902  1.00  0.00     0.123 A 
HETATM   11  C22 UNL     1      47.047 -22.341  31.433  1.00  0.00     0.121 A 
HETATM   12  N4  UNL     1      44.439 -21.677  30.961  1.00  0.00    -0.338 N 
HETATM   13  C21 UNL     1      44.890 -21.948  32.197  1.00  0.00     0.183 A 
ATOM     14  H4  UNL     1      43.458 -21.432  30.825  1.00  0.00     0.168 HD
HETATM   15  N5  UNL     1      46.183 -22.280  32.459  1.00  0.00    -0.338 N 
ATOM     16  H5  UNL     1      46.490 -22.478  33.411  1.00  0.00     0.168 HD
BRANCH  11  17
HETATM   17  N6  UNL     1      48.264 -22.641  31.568  1.00  0.00    -0.342 N 
ATOM     18  H6  UNL     1      48.596 -23.394  30.966  1.00  0.00     0.167 HD
BRANCH  17  19
HETATM   19  C23 UNL     1      49.225 -22.094  32.422  1.00  0.00     0.035 A 
HETATM   20  C24 UNL     1      49.255 -22.564  33.729  1.00  0.00     0.032 A 
HETATM   21  C25 UNL     1      50.171 -22.074  34.637  1.00  0.00     0.046 A 
HETATM   22  C26 UNL     1      51.101 -21.095  34.280  1.00  0.00     0.138 A 
HETATM   23  F1  UNL     1      51.999 -20.621  35.183  1.00  0.00    -0.204 F 
HETATM   24  C27 UNL     1      51.074 -20.627  32.984  1.00  0.00     0.074 A 
HETATM   25 CL1  UNL     1      52.231 -19.395  32.505  1.00  0.00    -0.081 Cl
HETATM   26  C28 UNL     1      50.146 -21.137  32.103  1.00  0.00     0.056 A 
ENDBRANCH  17  19
ENDBRANCH  11  17
ENDBRANCH   1   5
BRANCH   4  27
HETATM   27  O4  UNL     1      42.860 -23.343  27.952  1.00  0.00    -0.391 OA
ATOM     28  H4  UNL     1      42.602 -23.697  27.109  1.00  0.00     0.210 HD
ENDBRANCH   4  27
BRANCH   3  29
HETATM   29  N2  UNL     1      41.906 -20.059  26.625  1.00  0.00    -0.410 N 
ATOM     30  H2  UNL     1      42.622 -19.348  26.776  1.00  0.00     0.154 HD
BRANCH  29  31
HETATM   31  C7  UNL     1      40.578 -19.665  26.325  1.00  0.00     0.089 C 
HETATM   32  C8  UNL     1      40.325 -19.154  24.944  1.00  0.00     0.026 C 
HETATM   33  C9  UNL     1      40.327 -17.651  24.817  1.00  0.00     0.003 C 
HETATM   34  C10 UNL     1      39.484 -17.009  25.861  1.00  0.00     0.013 C 
HETATM   35  C11 UNL     1      38.830 -18.046  26.820  1.00  0.00     0.069 C 
HETATM   36  C17 UNL     1      39.948 -18.816  27.434  1.00  0.00     0.095 C 
BRANCH  35  37
HETATM   37  C12 UNL     1      37.978 -17.243  27.717  1.00  0.00     0.132 C 
HETATM   38  O1  UNL     1      37.872 -17.414  28.893  1.00  0.00    -0.298 OA
BRANCH  37  39
HETATM   39  C13 UNL     1      37.177 -16.111  27.123  1.00  0.00     0.082 C 
BRANCH  39  40
HETATM   40  C14 UNL     1      36.923 -15.000  28.091  1.00  0.00    -0.016 C 
HETATM   41  C15 UNL     1      36.950 -13.703  27.279  1.00  0.00     0.010 C 
HETATM   42  C16 UNL     1      35.604 -15.110  28.805  1.00  0.00     0.010 C 
ENDBRANCH  39  40
ENDBRANCH  37  39
ENDBRANCH  35  37
BRANCH  36  43
HETATM   43  C18 UNL     1      39.555 -19.778  28.486  1.00  0.00     0.142 C 
BRANCH  43  44
HETATM   44  O2  UNL     1      38.716 -20.844  28.215  1.00  0.00    -0.348 OA
ATOM     45  H2  UNL     1      38.982 -21.741  28.384  1.00  0.00     0.219 HD
ENDBRANCH  43  44
BRANCH  43  46
HETATM   46  N3  UNL     1      39.958 -19.699  29.719  1.00  0.00    -0.251 N 
ATOM     47  H3  UNL     1      40.462 -20.496  30.106  1.00  0.00     0.196 HD
BRANCH  46  48
HETATM   48  O3  UNL     1      39.754 -18.629  30.525  1.00  0.00    -0.288 OA
ATOM     49  H3  UNL     1      40.162 -18.511  31.375  1.00  0.00     0.244 HD
ENDBRANCH  46  48
ENDBRANCH  43  46
ENDBRANCH  36  43
ENDBRANCH  29  31
ENDBRANCH   3  29
TORSDOF 13
ENDMDL
MODEL 5
REMARK VINA RESULT: -8.261736474      2.343      3.370
REMARK  13 active torsions:
REMARK  status: ('A' for Active; 'I' for Inactive)
REMARK    1  A    between atoms: N1_4  and  C4_5 
REMARK    2  A    between atoms: C6_7  and  N2_8 
REMARK    3  A    between atoms: N2_8  and  C7_10 
REMARK    4  A    between atoms: C11_14  and  C12_15 
REMARK    5  A    between atoms: C12_15  and  C13_17 
REMARK    6  A    between atoms: C13_17  and  C14_18 
REMARK    7  A    between atoms: C17_21  and  C18_22 
REMARK    8  A    between atoms: C18_22  and  O2_23 
REMARK    9  A    between atoms: C18_22  and  N3_25 
REMARK   10  A    between atoms: N3_25  and  O3_27 
REMARK   11  A    between atoms: C19_29  and  O4_30 
REMARK   12  A    between atoms: C22_38  and  N6_39 
REMARK   13  A    between atoms: N6_39  and  C23_41 
ROOT
HETATM    1  C4  UNL     1      41.357 -21.303  28.946  1.00  0.00     0.123 C 
HETATM    2  C5  UNL     1      41.133 -20.999  27.489  1.00  0.00     0.055 C 
HETATM    3  C6  UNL     1      39.817 -21.800  27.689  1.00  0.00     0.109 C 
HETATM    4  C19 UNL     1      40.688 -22.629  28.622  1.00  0.00     0.163 C 
ENDROOT
BRANCH   1   5
HETATM    5  N1  UNL     1      42.665 -21.337  29.470  1.00  0.00    -0.335 N 
HETATM    6  C3  UNL     1      42.914 -21.727  30.757  1.00  0.00     0.101 A 
HETATM    7  C2  UNL     1      44.261 -21.672  31.012  1.00  0.00    -0.029 A 
HETATM    8  C1  UNL     1      44.981 -22.001  32.267  1.00  0.00     0.050 C 
HETATM    9  C29 UNL     1      44.866 -21.240  29.859  1.00  0.00     0.059 A 
HETATM   10  C20 UNL     1      43.847 -21.049  28.949  1.00  0.00     0.123 A 
HETATM   11  C22 UNL     1      46.201 -21.002  29.546  1.00  0.00     0.121 A 
HETATM   12  N4  UNL     1      44.200 -20.618  27.725  1.00  0.00    -0.338 N 
HETATM   13  C21 UNL     1      45.489 -20.388  27.423  1.00  0.00     0.183 A 
ATOM     14  H4  UNL     1      43.481 -20.463  27.018  1.00  0.00     0.168 HD
HETATM   15  N5  UNL     1      46.504 -20.573  28.311  1.00  0.00    -0.338 N 
ATOM     16  H5  UNL     1      47.471 -20.389  28.044  1.00  0.00     0.168 HD
BRANCH  11  17
HETATM   17  N6  UNL     1      47.066 -21.201  30.442  1.00  0.00    -0.342 N 
ATOM     18  H6  UNL     1      46.926 -20.677  31.306  1.00  0.00     0.167 HD
BRANCH  17  19
HETATM   19  C23 UNL     1      48.186 -22.035  30.426  1.00  0.00     0.035 A 
HETATM   20  C24 UNL     1      49.298 -21.621  31.148  1.00  0.00     0.032 A 
HETATM   21  C25 UNL     1      50.445 -22.386  31.183  1.00  0.00     0.046 A 
HETATM   22  C26 UNL     1      50.535 -23.600  30.498  1.00  0.00     0.138 A 
HETATM   23  F1  UNL     1      51.670 -24.344  30.540  1.00  0.00    -0.204 F 
HETATM   24  C27 UNL     1      49.434 -24.014  29.780  1.00  0.00     0.074 A 
HETATM   25 CL1  UNL     1      49.516 -25.537  28.909  1.00  0.00    -0.081 Cl
HETATM   26  C28 UNL     1      48.304 -23.227  29.767  1.00  0.00     0.056 A 
ENDBRANCH  17  19
ENDBRANCH  11  17
ENDBRANCH   1   5
BRANCH   4  27
HETATM   27  O4  UNL     1      41.473 -23.484  27.851  1.00  0.00    -0.391 OA
ATOM     28  H4  UNL     1      40.978 -24.154  27.395  1.00  0.00     0.210 HD
ENDBRANCH   4  27
BRANCH   3  29
HETATM   29  N2  UNL     1      38.882 -20.920  28.260  1.00  0.00    -0.410 N 
ATOM     30  H2  UNL     1      38.908 -20.737  29.263  1.00  0.00     0.154 HD
BRANCH  29  31
HETATM   31  C7  UNL     1      37.903 -20.285  27.455  1.00  0.00     0.089 C 
HETATM   32  C8  UNL     1      37.318 -21.096  26.345  1.00  0.00     0.026 C 
HETATM   33  C9  UNL     1      37.942 -20.859  24.993  1.00  0.00     0.003 C 
HETATM   34  C10 UNL     1      38.055 -19.408  24.684  1.00  0.00     0.013 C 
HETATM   35  C11 UNL     1      37.515 -18.510  25.836  1.00  0.00     0.069 C 
HETATM   36  C17 UNL     1      38.303 -18.862  27.050  1.00  0.00     0.095 C 
BRANCH  35  37
HETATM   37  C12 UNL     1      37.628 -17.132  25.321  1.00  0.00     0.132 C 
HETATM   38  O1  UNL     1      37.119 -16.174  25.818  1.00  0.00    -0.298 OA
BRANCH  37  39
HETATM   39  C13 UNL     1      38.450 -16.896  24.079  1.00  0.00     0.082 C 
BRANCH  39  40
HETATM   40  C14 UNL     1      39.431 -15.778  24.229  1.00  0.00    -0.016 C 
HETATM   41  C15 UNL     1      40.478 -16.251  25.239  1.00  0.00     0.010 C 
HETATM   42  C16 UNL     1      40.118 -15.399  22.945  1.00  0.00     0.010 C 
ENDBRANCH  39  40
ENDBRANCH  37  39
ENDBRANCH  35  37
BRANCH  36  43
HETATM   43  C18 UNL     1      38.040 -18.028  28.242  1.00  0.00     0.142 C 
BRANCH  43  44
HETATM   44  O2  UNL     1      36.760 -17.616  28.568  1.00  0.00    -0.348 OA
ATOM     45  H2  UNL     1      36.508 -16.700  28.530  1.00  0.00     0.219 HD
ENDBRANCH  43  44
BRANCH  43  46
HETATM   46  N3  UNL     1      38.969 -17.628  29.058  1.00  0.00    -0.251 N 
ATOM     47  H3  UNL     1      39.313 -16.673  28.954  1.00  0.00     0.196 HD
BRANCH  46  48
HETATM   48  O3  UNL     1      39.511 -18.392  30.037  1.00  0.00    -0.288 OA
ATOM     49  H3  UNL     1      40.167 -18.089  30.653  1.00  0.00     0.244 HD
ENDBRANCH  46  48
ENDBRANCH  43  46
ENDBRANCH  36  43
ENDBRANCH  29  31
ENDBRANCH   3  29
TORSDOF 13
ENDMDL
