MODEL 1
REMARK VINA RESULT: -8.370318999      0.000      0.000
REMARK  10 active torsions:
REMARK  status: ('A' for Active; 'I' for Inactive)
REMARK    1  A    between atoms: N1_2  and  C2_5 
REMARK    2  A    between atoms: C2_5  and  C3_6 
REMARK    3  A    between atoms: C3_6  and  N2_7 
REMARK    4  A    between atoms: N2_7  and  C4_10 
REMARK    5  A    between atoms: C4_10  and  C5_11 
REMARK    6  A    between atoms: C11_17  and  N3_18 
REMARK       I    between atoms: N3_18  and  C12_20 
REMARK    7  A    between atoms: C12_20  and  C13_22 
REMARK    8  A    between atoms: C23_35  and  O3_36 
REMARK    9  A    between atoms: C25_38  and  O4_39 
REMARK   10  A    between atoms: C29_44  and  O5_45 
ROOT
HETATM    1  C5  UNL     1      35.652 -19.838  22.495  1.00  0.00     0.040 C 
HETATM    2  C6  UNL     1      36.305 -19.936  23.849  1.00  0.00     0.009 C 
HETATM    3  C7  UNL     1      37.228 -18.792  24.182  1.00  0.00     0.001 C 
HETATM    4  C8  UNL     1      38.288 -19.213  25.183  1.00  0.00     0.005 C 
HETATM    5  C9  UNL     1      37.752 -20.075  26.264  1.00  0.00     0.044 C 
HETATM    6  C10 UNL     1      38.760 -20.337  27.320  1.00  0.00     0.002 A 
HETATM    7  C11 UNL     1      38.989 -19.308  28.245  1.00  0.00     0.044 A 
HETATM    8  C17 UNL     1      39.917 -19.533  29.235  1.00  0.00     0.030 A 
HETATM    9  C18 UNL     1      40.633 -20.731  29.358  1.00  0.00     0.005 A 
HETATM   10  C19 UNL     1      40.371 -21.704  28.431  1.00  0.00     0.037 A 
HETATM   11  C20 UNL     1      39.442 -21.551  27.392  1.00  0.00     0.077 A 
HETATM   12  O2  UNL     1      39.247 -22.567  26.520  1.00  0.00    -0.343 OA
HETATM   13  C21 UNL     1      39.410 -22.799  25.177  1.00  0.00     0.156 C 
HETATM   14  C22 UNL     1      40.894 -22.765  24.754  1.00  0.00     0.042 C 
HETATM   15  C23 UNL     1      38.933 -24.221  24.881  1.00  0.00     0.178 C 
HETATM   16  C25 UNL     1      37.741 -24.245  23.951  1.00  0.00     0.149 C 
HETATM   17  C26 UNL     1      38.013 -23.655  22.606  1.00  0.00     0.034 C 
HETATM   18  C27 UNL     1      36.883 -22.776  22.076  1.00  0.00     0.005 C 
HETATM   19  C28 UNL     1      37.471 -21.444  21.752  1.00  0.00     0.032 C 
HETATM   20  C29 UNL     1      36.516 -20.364  21.393  1.00  0.00     0.123 C 
ENDROOT
BRANCH   1  21
HETATM   21  C4  UNL     1      35.339 -18.385  22.161  1.00  0.00     0.239 C 
BRANCH  21  22
HETATM   22  N2  UNL     1      34.873 -18.289  20.799  1.00  0.00    -0.073 N 
ATOM     23  H22 UNL     1      33.857 -18.366  20.767  1.00  0.00     0.277 HD
ATOM     24  H21 UNL     1      35.130 -19.128  20.278  1.00  0.00     0.277 HD
BRANCH  22  25
HETATM   25  C3  UNL     1      35.302 -17.123  20.100  1.00  0.00     0.259 C 
BRANCH  25  26
HETATM   26  C2  UNL     1      36.803 -17.229  19.903  1.00  0.00     0.259 C 
BRANCH  26  27
HETATM   27  N1  UNL     1      37.497 -16.080  20.392  1.00  0.00    -0.077 N 
HETATM   28  C1  UNL     1      38.670 -16.403  21.150  1.00  0.00     0.267 C 
ATOM     29  H12 UNL     1      36.871 -15.482  20.931  1.00  0.00     0.276 HD
ATOM     30  H11 UNL     1      37.723 -15.442  19.628  1.00  0.00     0.276 HD
ENDBRANCH  26  27
ENDBRANCH  25  26
ENDBRANCH  22  25
ENDBRANCH  21  22
ENDBRANCH   1  21
BRANCH  20  31
HETATM   31  O5  UNL     1      35.805 -20.755  20.290  1.00  0.00    -0.395 OA
ATOM     32  H5  UNL     1      35.437 -21.627  20.371  1.00  0.00     0.210 HD
ENDBRANCH  20  31
BRANCH  16  33
HETATM   33  O4  UNL     1      36.593 -23.718  24.479  1.00  0.00    -0.393 OA
ATOM     34  H4  UNL     1      36.635 -22.789  24.673  1.00  0.00     0.210 HD
ENDBRANCH  16  33
BRANCH   7  35
HETATM   35  N3  UNL     1      38.265 -18.095  28.181  1.00  0.00    -0.322 N 
HETATM   36  C12 UNL     1      38.628 -16.842  27.715  1.00  0.00     0.256 C 
HETATM   37  O1  UNL     1      39.740 -16.584  27.241  1.00  0.00    -0.267 OA
ATOM     38  H3  UNL     1      37.312 -18.153  28.540  1.00  0.00     0.169 HD
BRANCH  36  39
HETATM   39  C13 UNL     1      37.654 -15.692  27.763  1.00  0.00     0.041 A 
HETATM   40  C14 UNL     1      37.837 -14.578  26.985  1.00  0.00     0.068 A 
HETATM   41  S1  UNL     1      36.507 -13.588  27.398  1.00  0.00    -0.089 SA
HETATM   42  C15 UNL     1      35.757 -14.607  28.538  1.00  0.00     0.075 A 
HETATM   43 CL1  UNL     1      34.278 -14.352  29.485  1.00  0.00    -0.076 Cl
HETATM   44  C16 UNL     1      36.578 -15.701  28.563  1.00  0.00     0.048 A 
ENDBRANCH  36  39
ENDBRANCH   7  35
BRANCH  15  45
HETATM   45  O3  UNL     1      38.715 -24.889  26.055  1.00  0.00    -0.386 OA
HETATM   46  C24 UNL     1      39.216 -26.168  26.101  1.00  0.00     0.202 C 
ENDBRANCH  15  45
TORSDOF 10
ENDMDL
MODEL 2
REMARK VINA RESULT: -7.977981266      1.949      2.722
REMARK  10 active torsions:
REMARK  status: ('A' for Active; 'I' for Inactive)
REMARK    1  A    between atoms: N1_2  and  C2_5 
REMARK    2  A    between atoms: C2_5  and  C3_6 
REMARK    3  A    between atoms: C3_6  and  N2_7 
REMARK    4  A    between atoms: N2_7  and  C4_10 
REMARK    5  A    between atoms: C4_10  and  C5_11 
REMARK    6  A    between atoms: C11_17  and  N3_18 
REMARK       I    between atoms: N3_18  and  C12_20 
REMARK    7  A    between atoms: C12_20  and  C13_22 
REMARK    8  A    between atoms: C23_35  and  O3_36 
REMARK    9  A    between atoms: C25_38  and  O4_39 
REMARK   10  A    between atoms: C29_44  and  O5_45 
ROOT
HETATM    1  C5  UNL     1      35.891 -22.720  23.847  1.00  0.00     0.040 C 
HETATM    2  C6  UNL     1      36.943 -22.443  24.890  1.00  0.00     0.009 C 
HETATM    3  C7  UNL     1      37.803 -21.239  24.606  1.00  0.00     0.001 C 
HETATM    4  C8  UNL     1      39.160 -21.362  25.271  1.00  0.00     0.005 C 
HETATM    5  C9  UNL     1      39.081 -21.912  26.646  1.00  0.00     0.044 C 
HETATM    6  C10 UNL     1      40.392 -21.868  27.340  1.00  0.00     0.002 A 
HETATM    7  C11 UNL     1      40.794 -20.626  27.853  1.00  0.00     0.044 A 
HETATM    8  C17 UNL     1      42.004 -20.565  28.504  1.00  0.00     0.030 A 
HETATM    9  C18 UNL     1      42.840 -21.676  28.676  1.00  0.00     0.005 A 
HETATM   10  C19 UNL     1      42.401 -22.865  28.159  1.00  0.00     0.037 A 
HETATM   11  C20 UNL     1      41.181 -23.009  27.481  1.00  0.00     0.077 A 
HETATM   12  O2  UNL     1      40.826 -24.223  27.002  1.00  0.00    -0.343 OA
HETATM   13  C21 UNL     1      40.581 -24.802  25.783  1.00  0.00     0.156 C 
HETATM   14  C22 UNL     1      41.845 -24.862  24.898  1.00  0.00     0.042 C 
HETATM   15  C23 UNL     1      40.182 -26.259  26.022  1.00  0.00     0.178 C 
HETATM   16  C25 UNL     1      38.766 -26.548  25.574  1.00  0.00     0.149 C 
HETATM   17  C26 UNL     1      38.541 -26.334  24.113  1.00  0.00     0.034 C 
HETATM   18  C27 UNL     1      37.219 -25.645  23.786  1.00  0.00     0.005 C 
HETATM   19  C28 UNL     1      37.536 -24.439  22.967  1.00  0.00     0.032 C 
HETATM   20  C29 UNL     1      36.412 -23.508  22.688  1.00  0.00     0.123 C 
ENDROOT
BRANCH   1  21
HETATM   21  C4  UNL     1      35.343 -21.413  23.287  1.00  0.00     0.239 C 
BRANCH  21  22
HETATM   22  N2  UNL     1      35.554 -21.371  21.861  1.00  0.00    -0.073 N 
ATOM     23  H22 UNL     1      34.724 -21.706  21.370  1.00  0.00     0.277 HD
ATOM     24  H21 UNL     1      36.225 -22.087  21.581  1.00  0.00     0.277 HD
BRANCH  22  25
HETATM   25  C3  UNL     1      35.948 -20.098  21.352  1.00  0.00     0.259 C 
BRANCH  25  26
HETATM   26  C2  UNL     1      35.227 -19.035  22.158  1.00  0.00     0.259 C 
BRANCH  26  27
HETATM   27  N1  UNL     1      36.084 -17.949  22.514  1.00  0.00    -0.077 N 
HETATM   28  C1  UNL     1      37.478 -18.259  22.385  1.00  0.00     0.267 C 
ATOM     29  H12 UNL     1      35.873 -17.615  23.455  1.00  0.00     0.276 HD
ATOM     30  H11 UNL     1      35.848 -17.112  21.981  1.00  0.00     0.276 HD
ENDBRANCH  26  27
ENDBRANCH  25  26
ENDBRANCH  22  25
ENDBRANCH  21  22
ENDBRANCH   1  21
BRANCH  20  31
HETATM   31  O5  UNL     1      35.434 -24.190  22.015  1.00  0.00    -0.395 OA
ATOM     32  H5  UNL     1      35.552 -24.180  21.072  1.00  0.00     0.210 HD
ENDBRANCH  20  31
BRANCH  16  33
HETATM   33  O4  UNL     1      37.796 -25.916  26.304  1.00  0.00    -0.393 OA
ATOM     34  H4  UNL     1      36.912 -26.041  25.981  1.00  0.00     0.210 HD
ENDBRANCH  16  33
BRANCH   7  35
HETATM   35  N3  UNL     1      39.968 -19.485  27.734  1.00  0.00    -0.322 N 
HETATM   36  C12 UNL     1      39.409 -18.663  28.700  1.00  0.00     0.256 C 
HETATM   37  O1  UNL     1      39.573 -18.823  29.914  1.00  0.00    -0.267 OA
ATOM     38  H3  UNL     1      39.745 -19.222  26.775  1.00  0.00     0.169 HD
BRANCH  36  39
HETATM   39  C13 UNL     1      38.546 -17.491  28.305  1.00  0.00     0.041 A 
HETATM   40  C14 UNL     1      38.900 -16.670  27.266  1.00  0.00     0.068 A 
HETATM   41  S1  UNL     1      37.636 -15.521  27.225  1.00  0.00    -0.089 SA
HETATM   42  C15 UNL     1      36.696 -16.108  28.518  1.00  0.00     0.075 A 
HETATM   43 CL1  UNL     1      35.168 -15.493  29.179  1.00  0.00    -0.076 Cl
HETATM   44  C16 UNL     1      37.406 -17.196  28.948  1.00  0.00     0.048 A 
ENDBRANCH  36  39
ENDBRANCH   7  35
BRANCH  15  45
HETATM   45  O3  UNL     1      40.413 -26.593  27.329  1.00  0.00    -0.386 OA
HETATM   46  C24 UNL     1      41.168 -27.725  27.517  1.00  0.00     0.202 C 
ENDBRANCH  15  45
TORSDOF 10
ENDMDL
MODEL 3
REMARK VINA RESULT: -7.766105410      3.912      6.492
REMARK  10 active torsions:
REMARK  status: ('A' for Active; 'I' for Inactive)
REMARK    1  A    between atoms: N1_2  and  C2_5 
REMARK    2  A    between atoms: C2_5  and  C3_6 
REMARK    3  A    between atoms: C3_6  and  N2_7 
REMARK    4  A    between atoms: N2_7  and  C4_10 
REMARK    5  A    between atoms: C4_10  and  C5_11 
REMARK    6  A    between atoms: C11_17  and  N3_18 
REMARK       I    between atoms: N3_18  and  C12_20 
REMARK    7  A    between atoms: C12_20  and  C13_22 
REMARK    8  A    between atoms: C23_35  and  O3_36 
REMARK    9  A    between atoms: C25_38  and  O4_39 
REMARK   10  A    between atoms: C29_44  and  O5_45 
ROOT
HETATM    1  C5  UNL     1      38.811 -18.056  25.888  1.00  0.00     0.040 C 
HETATM    2  C6  UNL     1      39.044 -19.498  26.258  1.00  0.00     0.009 C 
HETATM    3  C7  UNL     1      40.457 -19.977  26.049  1.00  0.00     0.001 C 
HETATM    4  C8  UNL     1      40.503 -21.476  25.822  1.00  0.00     0.005 C 
HETATM    5  C9  UNL     1      39.589 -22.224  26.720  1.00  0.00     0.044 C 
HETATM    6  C10 UNL     1      39.771 -23.692  26.602  1.00  0.00     0.002 A 
HETATM    7  C11 UNL     1      40.879 -24.247  27.257  1.00  0.00     0.044 A 
HETATM    8  C17 UNL     1      41.062 -25.607  27.164  1.00  0.00     0.030 A 
HETATM    9  C18 UNL     1      40.198 -26.451  26.453  1.00  0.00     0.005 A 
HETATM   10  C19 UNL     1      39.130 -25.859  25.833  1.00  0.00     0.037 A 
HETATM   11  C20 UNL     1      38.875 -24.480  25.880  1.00  0.00     0.077 A 
HETATM   12  O2  UNL     1      37.795 -23.982  25.238  1.00  0.00    -0.343 OA
HETATM   13  C21 UNL     1      37.537 -23.118  24.203  1.00  0.00     0.156 C 
HETATM   14  C22 UNL     1      38.050 -23.655  22.850  1.00  0.00     0.042 C 
HETATM   15  C23 UNL     1      36.019 -23.006  24.048  1.00  0.00     0.178 C 
HETATM   16  C25 UNL     1      35.517 -21.604  24.319  1.00  0.00     0.149 C 
HETATM   17  C26 UNL     1      36.065 -20.576  23.385  1.00  0.00     0.034 C 
HETATM   18  C27 UNL     1      36.458 -19.268  24.066  1.00  0.00     0.005 C 
HETATM   19  C28 UNL     1      37.883 -18.998  23.722  1.00  0.00     0.032 C 
HETATM   20  C29 UNL     1      38.537 -17.867  24.430  1.00  0.00     0.123 C 
ENDROOT
BRANCH   1  21
HETATM   21  C4  UNL     1      40.038 -17.217  26.224  1.00  0.00     0.239 C 
BRANCH  21  22
HETATM   22  N2  UNL     1      39.626 -15.896  26.628  1.00  0.00    -0.073 N 
ATOM     23  H22 UNL     1      39.485 -15.303  25.809  1.00  0.00     0.277 HD
ATOM     24  H21 UNL     1      40.402 -15.403  27.070  1.00  0.00     0.277 HD
BRANCH  22  25
HETATM   25  C3  UNL     1      38.474 -15.859  27.467  1.00  0.00     0.259 C 
BRANCH  25  26
HETATM   26  C2  UNL     1      37.653 -14.646  27.072  1.00  0.00     0.259 C 
BRANCH  26  27
HETATM   27  N1  UNL     1      36.991 -14.052  28.190  1.00  0.00    -0.077 N 
HETATM   28  C1  UNL     1      35.797 -13.342  27.833  1.00  0.00     0.267 C 
ATOM     29  H12 UNL     1      37.629 -13.448  28.709  1.00  0.00     0.276 HD
ATOM     30  H11 UNL     1      36.797 -14.749  28.909  1.00  0.00     0.276 HD
ENDBRANCH  26  27
ENDBRANCH  25  26
ENDBRANCH  22  25
ENDBRANCH  21  22
ENDBRANCH   1  21
BRANCH  20  31
HETATM   31  O5  UNL     1      37.845 -16.718  24.155  1.00  0.00    -0.395 OA
ATOM     32  H5  UNL     1      38.077 -16.331  23.319  1.00  0.00     0.210 HD
ENDBRANCH  20  31
BRANCH  16  33
HETATM   33  O4  UNL     1      35.651 -21.190  25.617  1.00  0.00    -0.393 OA
ATOM     34  H4  UNL     1      35.203 -20.378  25.822  1.00  0.00     0.210 HD
ENDBRANCH  16  33
BRANCH   7  35
HETATM   35  N3  UNL     1      41.758 -23.440  28.015  1.00  0.00    -0.322 N 
HETATM   36  C12 UNL     1      43.055 -23.021  27.763  1.00  0.00     0.256 C 
HETATM   37  O1  UNL     1      43.684 -23.319  26.741  1.00  0.00    -0.267 OA
ATOM     38  H3  UNL     1      41.372 -23.109  28.899  1.00  0.00     0.169 HD
BRANCH  36  39
HETATM   39  C13 UNL     1      43.789 -22.152  28.752  1.00  0.00     0.041 A 
HETATM   40  C14 UNL     1      44.340 -20.956  28.371  1.00  0.00     0.068 A 
HETATM   41  S1  UNL     1      45.047 -20.372  29.812  1.00  0.00    -0.089 SA
HETATM   42  C15 UNL     1      44.627 -21.651  30.855  1.00  0.00     0.075 A 
HETATM   43 CL1  UNL     1      44.975 -21.864  32.583  1.00  0.00    -0.076 Cl
HETATM   44  C16 UNL     1      43.940 -22.505  30.037  1.00  0.00     0.048 A 
ENDBRANCH  36  39
ENDBRANCH   7  35
BRANCH  15  45
HETATM   45  O3  UNL     1      35.404 -23.957  24.815  1.00  0.00    -0.386 OA
HETATM   46  C24 UNL     1      34.757 -24.944  24.113  1.00  0.00     0.202 C 
ENDBRANCH  15  45
TORSDOF 10
ENDMDL
MODEL 4
REMARK VINA RESULT: -7.723617154      4.467      9.411
REMARK  10 active torsions:
REMARK  status: ('A' for Active; 'I' for Inactive)
REMARK    1  A    between atoms: N1_2  and  C2_5 
REMARK    2  A    between atoms: C2_5  and  C3_6 
REMARK    3  A    between atoms: C3_6  and  N2_7 
REMARK    4  A    between atoms: N2_7  and  C4_10 
REMARK    5  A    between atoms: C4_10  and  C5_11 
REMARK    6  A    between atoms: C11_17  and  N3_18 
REMARK       I    between atoms: N3_18  and  C12_20 
REMARK    7  A    between atoms: C12_20  and  C13_22 
REMARK    8  A    between atoms: C23_35  and  O3_36 
REMARK    9  A    between atoms: C25_38  and  O4_39 
REMARK   10  A    between atoms: C29_44  and  O5_45 
ROOT
HETATM    1  C5  UNL     1      39.677 -22.727  27.765  1.00  0.00     0.040 C 
HETATM    2  C6  UNL     1      38.700 -22.157  26.769  1.00  0.00     0.009 C 
HETATM    3  C7  UNL     1      38.926 -22.601  25.347  1.00  0.00     0.001 C 
HETATM    4  C8  UNL     1      38.389 -21.582  24.360  1.00  0.00     0.005 C 
HETATM    5  C9  UNL     1      37.077 -21.022  24.765  1.00  0.00     0.044 C 
HETATM    6  C10 UNL     1      36.490 -20.158  23.710  1.00  0.00     0.002 A 
HETATM    7  C11 UNL     1      35.886 -20.808  22.625  1.00  0.00     0.044 A 
HETATM    8  C17 UNL     1      35.331 -20.025  21.639  1.00  0.00     0.030 A 
HETATM    9  C18 UNL     1      35.345 -18.624  21.674  1.00  0.00     0.005 A 
HETATM   10  C19 UNL     1      35.946 -18.039  22.756  1.00  0.00     0.037 A 
HETATM   11  C20 UNL     1      36.534 -18.767  23.801  1.00  0.00     0.077 A 
HETATM   12  O2  UNL     1      37.106 -18.106  24.832  1.00  0.00    -0.343 OA
HETATM   13  C21 UNL     1      38.355 -17.967  25.382  1.00  0.00     0.156 C 
HETATM   14  C22 UNL     1      39.340 -17.259  24.427  1.00  0.00     0.042 C 
HETATM   15  C23 UNL     1      38.237 -17.049  26.600  1.00  0.00     0.178 C 
HETATM   16  C25 UNL     1      38.597 -17.756  27.889  1.00  0.00     0.149 C 
HETATM   17  C26 UNL     1      40.004 -18.253  27.931  1.00  0.00     0.034 C 
HETATM   18  C27 UNL     1      40.150 -19.645  28.539  1.00  0.00     0.005 C 
HETATM   19  C28 UNL     1      40.861 -20.494  27.541  1.00  0.00     0.032 C 
HETATM   20  C29 UNL     1      40.950 -21.947  27.844  1.00  0.00     0.123 C 
ENDROOT
BRANCH   1  21
HETATM   21  C4  UNL     1      40.052 -24.154  27.382  1.00  0.00     0.239 C 
BRANCH  21  22
HETATM   22  N2  UNL     1      40.077 -24.982  28.562  1.00  0.00    -0.073 N 
ATOM     23  H22 UNL     1      39.164 -25.410  28.714  1.00  0.00     0.277 HD
ATOM     24  H21 UNL     1      40.142 -24.403  29.399  1.00  0.00     0.277 HD
BRANCH  22  25
HETATM   25  C3  UNL     1      41.097 -25.979  28.572  1.00  0.00     0.259 C 
BRANCH  25  26
HETATM   26  C2  UNL     1      40.463 -27.292  28.152  1.00  0.00     0.259 C 
BRANCH  26  27
HETATM   27  N1  UNL     1      40.905 -28.389  28.954  1.00  0.00    -0.077 N 
HETATM   28  C1  UNL     1      42.331 -28.474  29.064  1.00  0.00     0.267 C 
ATOM     29  H12 UNL     1      40.514 -29.267  28.612  1.00  0.00     0.276 HD
ATOM     30  H11 UNL     1      40.471 -28.359  29.877  1.00  0.00     0.276 HD
ENDBRANCH  26  27
ENDBRANCH  25  26
ENDBRANCH  22  25
ENDBRANCH  21  22
ENDBRANCH   1  21
BRANCH  20  31
HETATM   31  O5  UNL     1      41.609 -22.108  29.033  1.00  0.00    -0.395 OA
ATOM     32  H5  UNL     1      42.306 -21.475  29.164  1.00  0.00     0.210 HD
ENDBRANCH  20  31
BRANCH  16  33
HETATM   33  O4  UNL     1      37.728 -18.747  28.258  1.00  0.00    -0.393 OA
ATOM     34  H4  UNL     1      37.747 -18.967  29.182  1.00  0.00     0.210 HD
ENDBRANCH  16  33
BRANCH   7  35
HETATM   35  N3  UNL     1      35.817 -22.219  22.564  1.00  0.00    -0.322 N 
HETATM   36  C12 UNL     1      34.734 -23.081  22.630  1.00  0.00     0.256 C 
HETATM   37  O1  UNL     1      33.565 -22.702  22.760  1.00  0.00    -0.267 OA
ATOM     38  H3  UNL     1      36.719 -22.681  22.453  1.00  0.00     0.169 HD
BRANCH  36  39
HETATM   39  C13 UNL     1      34.933 -24.573  22.544  1.00  0.00     0.041 A 
HETATM   40  C14 UNL     1      34.770 -25.240  21.357  1.00  0.00     0.068 A 
HETATM   41  S1  UNL     1      35.089 -26.866  21.774  1.00  0.00    -0.089 SA
HETATM   42  C15 UNL     1      35.420 -26.659  23.431  1.00  0.00     0.075 A 
HETATM   43 CL1  UNL     1      35.856 -27.864  24.658  1.00  0.00    -0.076 Cl
HETATM   44  C16 UNL     1      35.269 -25.311  23.611  1.00  0.00     0.048 A 
ENDBRANCH  36  39
ENDBRANCH   7  35
BRANCH  15  45
HETATM   45  O3  UNL     1      36.995 -16.476  26.628  1.00  0.00    -0.386 OA
HETATM   46  C24 UNL     1      36.868 -15.401  27.474  1.00  0.00     0.202 C 
ENDBRANCH  15  45
TORSDOF 10
ENDMDL
MODEL 5
REMARK VINA RESULT: -7.672309957      4.267      9.241
REMARK  10 active torsions:
REMARK  status: ('A' for Active; 'I' for Inactive)
REMARK    1  A    between atoms: N1_2  and  C2_5 
REMARK    2  A    between atoms: C2_5  and  C3_6 
REMARK    3  A    between atoms: C3_6  and  N2_7 
REMARK    4  A    between atoms: N2_7  and  C4_10 
REMARK    5  A    between atoms: C4_10  and  C5_11 
REMARK    6  A    between atoms: C11_17  and  N3_18 
REMARK       I    between atoms: N3_18  and  C12_20 
REMARK    7  A    between atoms: C12_20  and  C13_22 
REMARK    8  A    between atoms: C23_35  and  O3_36 
REMARK    9  A    between atoms: C25_38  and  O4_39 
REMARK   10  A    between atoms: C29_44  and  O5_45 
ROOT
HETATM    1  C5  UNL     1      39.675 -22.330  27.924  1.00  0.00     0.040 C 
HETATM    2  C6  UNL     1      38.705 -21.828  26.886  1.00  0.00     0.009 C 
HETATM    3  C7  UNL     1      38.948 -22.357  25.496  1.00  0.00     0.001 C 
HETATM    4  C8  UNL     1      38.416 -21.404  24.443  1.00  0.00     0.005 C 
HETATM    5  C9  UNL     1      37.096 -20.828  24.800  1.00  0.00     0.044 C 
HETATM    6  C10 UNL     1      36.515 -20.035  23.688  1.00  0.00     0.002 A 
HETATM    7  C11 UNL     1      35.926 -20.753  22.639  1.00  0.00     0.044 A 
HETATM    8  C17 UNL     1      35.377 -20.036  21.602  1.00  0.00     0.030 A 
HETATM    9  C18 UNL     1      35.382 -18.635  21.550  1.00  0.00     0.005 A 
HETATM   10  C19 UNL     1      35.968 -17.981  22.601  1.00  0.00     0.037 A 
HETATM   11  C20 UNL     1      36.550 -18.640  23.694  1.00  0.00     0.077 A 
HETATM   12  O2  UNL     1      37.107 -17.913  24.688  1.00  0.00    -0.343 OA
HETATM   13  C21 UNL     1      38.350 -17.733  25.241  1.00  0.00     0.156 C 
HETATM   14  C22 UNL     1      39.341 -17.079  24.254  1.00  0.00     0.042 C 
HETATM   15  C23 UNL     1      38.214 -16.743  26.399  1.00  0.00     0.178 C 
HETATM   16  C25 UNL     1      38.565 -17.367  27.732  1.00  0.00     0.149 C 
HETATM   17  C26 UNL     1      39.974 -17.851  27.820  1.00  0.00     0.034 C 
HETATM   18  C27 UNL     1      40.122 -19.203  28.513  1.00  0.00     0.005 C 
HETATM   19  C28 UNL     1      40.849 -20.107  27.576  1.00  0.00     0.032 C 
HETATM   20  C29 UNL     1      40.943 -21.537  27.968  1.00  0.00     0.123 C 
ENDROOT
BRANCH   1  21
HETATM   21  C4  UNL     1      40.063 -23.775  27.633  1.00  0.00     0.239 C 
BRANCH  21  22
HETATM   22  N2  UNL     1      41.498 -23.882  27.536  1.00  0.00    -0.073 N 
ATOM     23  H22 UNL     1      41.941 -23.041  27.907  1.00  0.00     0.277 HD
ATOM     24  H21 UNL     1      41.792 -23.821  26.561  1.00  0.00     0.277 HD
BRANCH  22  25
HETATM   25  C3  UNL     1      42.054 -25.044  28.148  1.00  0.00     0.259 C 
BRANCH  25  26
HETATM   26  C2  UNL     1      41.562 -25.090  29.582  1.00  0.00     0.259 C 
BRANCH  26  27
HETATM   27  N1  UNL     1      42.268 -24.180  30.427  1.00  0.00    -0.077 N 
HETATM   28  C1  UNL     1      43.693 -24.298  30.325  1.00  0.00     0.267 C 
ATOM     29  H12 UNL     1      41.965 -24.277  31.396  1.00  0.00     0.276 HD
ATOM     30  H11 UNL     1      41.971 -23.220  30.253  1.00  0.00     0.276 HD
ENDBRANCH  26  27
ENDBRANCH  25  26
ENDBRANCH  22  25
ENDBRANCH  21  22
ENDBRANCH   1  21
BRANCH  20  31
HETATM   31  O5  UNL     1      41.591 -21.621  29.171  1.00  0.00    -0.395 OA
ATOM     32  H5  UNL     1      42.537 -21.637  29.087  1.00  0.00     0.210 HD
ENDBRANCH  20  31
BRANCH  16  33
HETATM   33  O4  UNL     1      37.698 -18.340  28.153  1.00  0.00    -0.393 OA
ATOM     34  H4  UNL     1      38.009 -19.229  28.028  1.00  0.00     0.210 HD
ENDBRANCH  16  33
BRANCH   7  35
HETATM   35  N3  UNL     1      35.866 -22.166  22.664  1.00  0.00    -0.322 N 
HETATM   36  C12 UNL     1      34.786 -23.029  22.751  1.00  0.00     0.256 C 
HETATM   37  O1  UNL     1      33.611 -22.651  22.820  1.00  0.00    -0.267 OA
ATOM     38  H3  UNL     1      36.774 -22.628  22.609  1.00  0.00     0.169 HD
BRANCH  36  39
HETATM   39  C13 UNL     1      34.995 -24.522  22.763  1.00  0.00     0.041 A 
HETATM   40  C14 UNL     1      34.811 -25.272  21.630  1.00  0.00     0.068 A 
HETATM   41  S1  UNL     1      35.152 -26.862  22.151  1.00  0.00    -0.089 SA
HETATM   42  C15 UNL     1      35.518 -26.538  23.782  1.00  0.00     0.075 A 
HETATM   43 CL1  UNL     1      35.992 -27.653  25.079  1.00  0.00    -0.076 Cl
HETATM   44  C16 UNL     1      35.361 -25.182  23.872  1.00  0.00     0.048 A 
ENDBRANCH  36  39
ENDBRANCH   7  35
BRANCH  15  45
HETATM   45  O3  UNL     1      36.969 -16.177  26.380  1.00  0.00    -0.386 OA
HETATM   46  C24 UNL     1      36.831 -15.043  27.142  1.00  0.00     0.202 C 
ENDBRANCH  15  45
TORSDOF 10
ENDMDL
