MODEL 1
REMARK VINA RESULT: -7.461791970      0.000      0.000
REMARK  14 active torsions:
REMARK  status: ('A' for Active; 'I' for Inactive)
REMARK    1  A    between atoms: O1_2  and  C2_3 
REMARK    2  A    between atoms: C4_6  and  O3_7 
REMARK    3  A    between atoms: C8_12  and  O4_13 
REMARK    4  A    between atoms: C12_19  and  O6_21 
REMARK    5  A    between atoms: C19_28  and  C20_29 
REMARK    6  A    between atoms: C20_29  and  C21_30 
REMARK    7  A    between atoms: C21_30  and  O7_31 
REMARK    8  A    between atoms: C21_30  and  C22_33 
REMARK    9  A    between atoms: C22_33  and  C23_34 
REMARK   10  A    between atoms: C23_34  and  O8_35 
REMARK   11  A    between atoms: C23_34  and  C24_37 
REMARK   12  A    between atoms: C24_37  and  C25_38 
REMARK   13  A    between atoms: C25_38  and  C26_39 
REMARK   14  A    between atoms: C26_39  and  C27_40 
ROOT
HETATM    1  C2  UNL     1      38.757 -19.400  26.107  1.00  0.00     0.096 C 
HETATM    2  C3  UNL     1      37.462 -19.232  25.867  1.00  0.00     0.175 C 
HETATM    3  O2  UNL     1      36.656 -19.882  25.023  1.00  0.00    -0.330 OA
HETATM    4  C4  UNL     1      36.366 -19.926  23.685  1.00  0.00     0.262 C 
HETATM    5  C5  UNL     1      35.181 -20.896  23.532  1.00  0.00     0.068 C 
HETATM    6  C6  UNL     1      35.158 -21.687  22.293  1.00  0.00     0.018 C 
HETATM    7  C7  UNL     1      36.181 -21.240  21.228  1.00  0.00     0.012 C 
HETATM    8  C8  UNL     1      34.837 -23.099  22.288  1.00  0.00     0.159 C 
HETATM    9  C9  UNL     1      35.368 -24.238  22.968  1.00  0.00     0.113 A 
HETATM   10  C10 UNL     1      34.521 -25.449  22.416  1.00  0.00     0.051 C 
HETATM   11  O5  UNL     1      34.977 -23.961  24.403  1.00  0.00    -0.363 OA
HETATM   12  C11 UNL     1      36.115 -24.603  24.023  1.00  0.00     0.197 A 
HETATM   13  C12 UNL     1      37.497 -24.222  24.430  1.00  0.00     0.101 C 
HETATM   14  C13 UNL     1      38.418 -23.794  23.360  1.00  0.00     0.053 C 
HETATM   15  C14 UNL     1      37.485 -23.241  25.557  1.00  0.00     0.009 C 
HETATM   16  C15 UNL     1      38.281 -22.353  26.005  1.00  0.00    -0.019 C 
HETATM   17  C16 UNL     1      39.621 -21.848  25.637  1.00  0.00     0.039 C 
HETATM   18  C17 UNL     1      40.683 -22.325  26.636  1.00  0.00     0.019 C 
HETATM   19  C18 UNL     1      39.675 -20.346  25.526  1.00  0.00    -0.019 C 
HETATM   20  C19 UNL     1      40.718 -19.894  24.854  1.00  0.00    -0.014 C 
ENDROOT
BRANCH   1  21
HETATM   21  O1  UNL     1      39.297 -18.517  27.081  1.00  0.00    -0.353 OA
HETATM   22  C1  UNL     1      39.681 -18.913  28.369  1.00  0.00     0.210 C 
ENDBRANCH   1  21
BRANCH  20  23
HETATM   23  C20 UNL     1      41.048 -18.468  24.636  1.00  0.00     0.059 C 
BRANCH  23  24
HETATM   24  C21 UNL     1      40.537 -17.932  23.310  1.00  0.00     0.124 C 
BRANCH  24  25
HETATM   25  O7  UNL     1      41.178 -18.497  22.230  1.00  0.00    -0.395 OA
ATOM     26  H7  UNL     1      41.928 -17.990  21.945  1.00  0.00     0.210 HD
ENDBRANCH  24  25
BRANCH  24  27
HETATM   27  C22 UNL     1      40.636 -16.418  23.289  1.00  0.00     0.063 C 
BRANCH  27  28
HETATM   28  C23 UNL     1      39.306 -15.792  23.691  1.00  0.00     0.120 C 
BRANCH  28  29
HETATM   29  O8  UNL     1      38.303 -16.730  23.593  1.00  0.00    -0.395 OA
ATOM     30  H8  UNL     1      38.106 -17.080  24.453  1.00  0.00     0.210 HD
ENDBRANCH  28  29
BRANCH  28  31
HETATM   31  C24 UNL     1      39.354 -15.272  25.105  1.00  0.00     0.032 C 
BRANCH  31  32
HETATM   32  C25 UNL     1      38.098 -15.463  25.876  1.00  0.00     0.007 C 
BRANCH  32  33
HETATM   33  C26 UNL     1      38.163 -15.196  27.347  1.00  0.00     0.036 C 
BRANCH  33  34
HETATM   34  C27 UNL     1      36.853 -14.742  27.884  1.00  0.00    -0.050 C 
HETATM   35  C28 UNL     1      36.306 -13.396  27.466  1.00  0.00     0.046 C 
HETATM   36  C29 UNL     1      36.158 -15.471  28.706  1.00  0.00     0.105 C 
HETATM   37 CL1  UNL     1      34.614 -14.875  29.307  1.00  0.00    -0.071 Cl
HETATM   38 CL2  UNL     1      36.681 -17.049  29.216  1.00  0.00    -0.071 Cl
ENDBRANCH  33  34
ENDBRANCH  32  33
ENDBRANCH  31  32
ENDBRANCH  28  31
ENDBRANCH  27  28
ENDBRANCH  24  27
ENDBRANCH  23  24
ENDBRANCH  20  23
BRANCH   4  39
HETATM   39  O3  UNL     1      36.069 -18.710  23.075  1.00  0.00    -0.371 OA
ATOM     40  H3  UNL     1      35.148 -18.491  22.993  1.00  0.00     0.212 HD
ENDBRANCH   4  39
BRANCH  13  41
HETATM   41  O6  UNL     1      38.102 -25.389  24.918  1.00  0.00    -0.383 OA
ATOM     42  H6  UNL     1      38.161 -25.987  24.182  1.00  0.00     0.211 HD
ENDBRANCH  13  41
BRANCH   8  43
HETATM   43  O4  UNL     1      33.424 -23.097  22.557  1.00  0.00    -0.392 OA
ATOM     44  H4  UNL     1      33.069 -22.681  21.780  1.00  0.00     0.210 HD
ENDBRANCH   8  43
TORSDOF 14
ENDMDL
MODEL 2
REMARK VINA RESULT: -7.447027870      2.634      7.783
REMARK  14 active torsions:
REMARK  status: ('A' for Active; 'I' for Inactive)
REMARK    1  A    between atoms: O1_2  and  C2_3 
REMARK    2  A    between atoms: C4_6  and  O3_7 
REMARK    3  A    between atoms: C8_12  and  O4_13 
REMARK    4  A    between atoms: C12_19  and  O6_21 
REMARK    5  A    between atoms: C19_28  and  C20_29 
REMARK    6  A    between atoms: C20_29  and  C21_30 
REMARK    7  A    between atoms: C21_30  and  O7_31 
REMARK    8  A    between atoms: C21_30  and  C22_33 
REMARK    9  A    between atoms: C22_33  and  C23_34 
REMARK   10  A    between atoms: C23_34  and  O8_35 
REMARK   11  A    between atoms: C23_34  and  C24_37 
REMARK   12  A    between atoms: C24_37  and  C25_38 
REMARK   13  A    between atoms: C25_38  and  C26_39 
REMARK   14  A    between atoms: C26_39  and  C27_40 
ROOT
HETATM    1  C2  UNL     1      40.827 -22.285  25.243  1.00  0.00     0.096 C 
HETATM    2  C3  UNL     1      41.024 -21.278  24.402  1.00  0.00     0.175 C 
HETATM    3  O2  UNL     1      40.404 -20.096  24.320  1.00  0.00    -0.330 OA
HETATM    4  C4  UNL     1      39.227 -19.568  23.860  1.00  0.00     0.262 C 
HETATM    5  C5  UNL     1      39.340 -18.043  24.039  1.00  0.00     0.068 C 
HETATM    6  C6  UNL     1      38.087 -17.342  24.356  1.00  0.00     0.018 C 
HETATM    7  C7  UNL     1      36.816 -18.203  24.209  1.00  0.00     0.012 C 
HETATM    8  C8  UNL     1      38.019 -16.307  25.367  1.00  0.00     0.159 C 
HETATM    9  C9  UNL     1      38.364 -16.252  26.752  1.00  0.00     0.113 A 
HETATM   10  C10 UNL     1      37.968 -14.789  27.192  1.00  0.00     0.051 C 
HETATM   11  O5  UNL     1      39.872 -16.375  26.709  1.00  0.00    -0.363 OA
HETATM   12  C11 UNL     1      39.085 -16.871  27.702  1.00  0.00     0.197 A 
HETATM   13  C12 UNL     1      39.082 -18.284  28.176  1.00  0.00     0.101 C 
HETATM   14  C13 UNL     1      37.835 -19.051  27.993  1.00  0.00     0.053 C 
HETATM   15  C14 UNL     1      40.262 -19.038  27.654  1.00  0.00     0.009 C 
HETATM   16  C15 UNL     1      40.538 -20.261  27.429  1.00  0.00    -0.019 C 
HETATM   17  C16 UNL     1      39.833 -21.552  27.574  1.00  0.00     0.039 C 
HETATM   18  C17 UNL     1      40.389 -22.354  28.757  1.00  0.00     0.019 C 
HETATM   19  C18 UNL     1      39.884 -22.397  26.326  1.00  0.00    -0.019 C 
HETATM   20  C19 UNL     1      38.978 -23.356  26.289  1.00  0.00    -0.014 C 
ENDROOT
BRANCH   1  21
HETATM   21  O1  UNL     1      41.679 -23.403  25.035  1.00  0.00    -0.353 OA
HETATM   22  C1  UNL     1      42.692 -23.792  25.923  1.00  0.00     0.210 C 
ENDBRANCH   1  21
BRANCH  20  23
HETATM   23  C20 UNL     1      38.834 -24.360  25.212  1.00  0.00     0.059 C 
BRANCH  23  24
HETATM   24  C21 UNL     1      38.200 -25.656  25.683  1.00  0.00     0.124 C 
BRANCH  24  25
HETATM   25  O7  UNL     1      38.734 -26.103  26.872  1.00  0.00    -0.395 OA
ATOM     26  H7  UNL     1      38.098 -26.109  27.577  1.00  0.00     0.210 HD
ENDBRANCH  24  25
BRANCH  24  27
HETATM   27  C22 UNL     1      38.299 -26.709  24.596  1.00  0.00     0.063 C 
BRANCH  27  28
HETATM   28  C23 UNL     1      36.914 -27.230  24.232  1.00  0.00     0.120 C 
BRANCH  28  29
HETATM   29  O8  UNL     1      36.143 -27.334  25.368  1.00  0.00    -0.395 OA
ATOM     30  H8  UNL     1      35.866 -26.470  25.646  1.00  0.00     0.210 HD
ENDBRANCH  28  29
BRANCH  28  31
HETATM   31  C24 UNL     1      36.226 -26.312  23.254  1.00  0.00     0.032 C 
BRANCH  31  32
HETATM   32  C25 UNL     1      34.992 -25.669  23.776  1.00  0.00     0.007 C 
BRANCH  32  33
HETATM   33  C26 UNL     1      35.149 -24.317  24.400  1.00  0.00     0.036 C 
BRANCH  33  34
HETATM   34  C27 UNL     1      34.930 -23.225  23.415  1.00  0.00    -0.050 C 
HETATM   35  C28 UNL     1      34.140 -23.510  22.157  1.00  0.00     0.046 C 
HETATM   36  C29 UNL     1      35.396 -22.027  23.601  1.00  0.00     0.105 C 
HETATM   37 CL1  UNL     1      35.103 -20.779  22.395  1.00  0.00    -0.071 Cl
HETATM   38 CL2  UNL     1      36.282 -21.589  25.032  1.00  0.00    -0.071 Cl
ENDBRANCH  33  34
ENDBRANCH  32  33
ENDBRANCH  31  32
ENDBRANCH  28  31
ENDBRANCH  27  28
ENDBRANCH  24  27
ENDBRANCH  23  24
ENDBRANCH  20  23
BRANCH   4  39
HETATM   39  O3  UNL     1      38.884 -19.870  22.545  1.00  0.00    -0.371 OA
ATOM     40  H3  UNL     1      38.316 -20.621  22.417  1.00  0.00     0.212 HD
ENDBRANCH   4  39
BRANCH  13  41
HETATM   41  O6  UNL     1      39.219 -18.234  29.570  1.00  0.00    -0.383 OA
ATOM     42  H6  UNL     1      38.547 -17.641  29.884  1.00  0.00     0.211 HD
ENDBRANCH  13  41
BRANCH   8  43
HETATM   43  O4  UNL     1      38.714 -15.215  24.739  1.00  0.00    -0.392 OA
ATOM     44  H4  UNL     1      38.104 -14.948  24.061  1.00  0.00     0.210 HD
ENDBRANCH   8  43
TORSDOF 14
ENDMDL
MODEL 3
REMARK VINA RESULT: -7.365229996      2.385      4.582
REMARK  14 active torsions:
REMARK  status: ('A' for Active; 'I' for Inactive)
REMARK    1  A    between atoms: O1_2  and  C2_3 
REMARK    2  A    between atoms: C4_6  and  O3_7 
REMARK    3  A    between atoms: C8_12  and  O4_13 
REMARK    4  A    between atoms: C12_19  and  O6_21 
REMARK    5  A    between atoms: C19_28  and  C20_29 
REMARK    6  A    between atoms: C20_29  and  C21_30 
REMARK    7  A    between atoms: C21_30  and  O7_31 
REMARK    8  A    between atoms: C21_30  and  C22_33 
REMARK    9  A    between atoms: C22_33  and  C23_34 
REMARK   10  A    between atoms: C23_34  and  O8_35 
REMARK   11  A    between atoms: C23_34  and  C24_37 
REMARK   12  A    between atoms: C24_37  and  C25_38 
REMARK   13  A    between atoms: C25_38  and  C26_39 
REMARK   14  A    between atoms: C26_39  and  C27_40 
ROOT
HETATM    1  C2  UNL     1      38.851 -21.502  24.025  1.00  0.00     0.096 C 
HETATM    2  C3  UNL     1      39.240 -22.070  22.890  1.00  0.00     0.175 C 
HETATM    3  O2  UNL     1      39.126 -23.339  22.485  1.00  0.00    -0.330 OA
HETATM    4  C4  UNL     1      39.719 -24.556  22.692  1.00  0.00     0.262 C 
HETATM    5  C5  UNL     1      39.048 -25.535  21.712  1.00  0.00     0.068 C 
HETATM    6  C6  UNL     1      38.908 -26.919  22.187  1.00  0.00     0.018 C 
HETATM    7  C7  UNL     1      39.680 -27.233  23.485  1.00  0.00     0.012 C 
HETATM    8  C8  UNL     1      37.691 -27.679  21.993  1.00  0.00     0.159 C 
HETATM    9  C9  UNL     1      36.320 -27.458  22.330  1.00  0.00     0.113 A 
HETATM   10  C10 UNL     1      35.581 -28.756  21.824  1.00  0.00     0.051 C 
HETATM   11  O5  UNL     1      35.959 -26.290  21.438  1.00  0.00    -0.363 OA
HETATM   12  C11 UNL     1      35.445 -26.500  22.680  1.00  0.00     0.197 A 
HETATM   13  C12 UNL     1      35.458 -25.513  23.796  1.00  0.00     0.101 C 
HETATM   14  C13 UNL     1      36.227 -25.875  25.003  1.00  0.00     0.053 C 
HETATM   15  C14 UNL     1      35.822 -24.147  23.314  1.00  0.00     0.009 C 
HETATM   16  C15 UNL     1      36.327 -23.098  23.833  1.00  0.00    -0.019 C 
HETATM   17  C16 UNL     1      36.804 -22.704  25.176  1.00  0.00     0.039 C 
HETATM   18  C17 UNL     1      35.823 -21.735  25.847  1.00  0.00     0.019 C 
HETATM   19  C18 UNL     1      38.181 -22.091  25.156  1.00  0.00    -0.019 C 
HETATM   20  C19 UNL     1      38.778 -22.073  26.333  1.00  0.00    -0.014 C 
ENDROOT
BRANCH   1  21
HETATM   21  O1  UNL     1      39.140 -20.114  24.119  1.00  0.00    -0.353 OA
HETATM   22  C1  UNL     1      38.165 -19.107  24.085  1.00  0.00     0.210 C 
ENDBRANCH   1  21
BRANCH  20  23
HETATM   23  C20 UNL     1      40.108 -21.487  26.613  1.00  0.00     0.059 C 
BRANCH  23  24
HETATM   24  C21 UNL     1      40.351 -21.235  28.090  1.00  0.00     0.124 C 
BRANCH  24  25
HETATM   25  O7  UNL     1      39.318 -21.688  28.881  1.00  0.00    -0.395 OA
ATOM     26  H7  UNL     1      39.617 -22.259  29.579  1.00  0.00     0.210 HD
ENDBRANCH  24  25
BRANCH  24  27
HETATM   27  C22 UNL     1      40.632 -19.763  28.328  1.00  0.00     0.063 C 
BRANCH  27  28
HETATM   28  C23 UNL     1      39.411 -19.077  28.927  1.00  0.00     0.120 C 
BRANCH  28  29
HETATM   29  O8  UNL     1      39.692 -18.668  30.211  1.00  0.00    -0.395 OA
ATOM     30  H8  UNL     1      40.137 -19.364  30.679  1.00  0.00     0.210 HD
ENDBRANCH  28  29
BRANCH  28  31
HETATM   31  C24 UNL     1      39.001 -17.880  28.109  1.00  0.00     0.032 C 
BRANCH  31  32
HETATM   32  C25 UNL     1      37.566 -17.513  28.229  1.00  0.00     0.007 C 
BRANCH  32  33
HETATM   33  C26 UNL     1      37.237 -16.365  29.132  1.00  0.00     0.036 C 
BRANCH  33  34
HETATM   34  C27 UNL     1      36.967 -15.120  28.366  1.00  0.00    -0.050 C 
HETATM   35  C28 UNL     1      38.036 -14.565  27.452  1.00  0.00     0.046 C 
HETATM   36  C29 UNL     1      35.834 -14.490  28.456  1.00  0.00     0.105 C 
HETATM   37 CL1  UNL     1      35.578 -13.019  27.524  1.00  0.00    -0.071 Cl
HETATM   38 CL2  UNL     1      34.528 -15.067  29.449  1.00  0.00    -0.071 Cl
ENDBRANCH  33  34
ENDBRANCH  32  33
ENDBRANCH  31  32
ENDBRANCH  28  31
ENDBRANCH  27  28
ENDBRANCH  24  27
ENDBRANCH  23  24
ENDBRANCH  20  23
BRANCH   4  39
HETATM   39  O3  UNL     1      41.103 -24.604  22.542  1.00  0.00    -0.371 OA
ATOM     40  H3  UNL     1      41.438 -25.214  21.896  1.00  0.00     0.212 HD
ENDBRANCH   4  39
BRANCH  13  41
HETATM   41  O6  UNL     1      34.142 -25.436  24.273  1.00  0.00    -0.383 OA
ATOM     42  H6  UNL     1      34.204 -25.245  25.201  1.00  0.00     0.211 HD
ENDBRANCH  13  41
BRANCH   8  43
HETATM   43  O4  UNL     1      37.715 -27.947  20.580  1.00  0.00    -0.392 OA
ATOM     44  H4  UNL     1      36.858 -28.327  20.429  1.00  0.00     0.210 HD
ENDBRANCH   8  43
TORSDOF 14
ENDMDL
MODEL 4
REMARK VINA RESULT: -7.359144747      2.371      4.659
REMARK  14 active torsions:
REMARK  status: ('A' for Active; 'I' for Inactive)
REMARK    1  A    between atoms: O1_2  and  C2_3 
REMARK    2  A    between atoms: C4_6  and  O3_7 
REMARK    3  A    between atoms: C8_12  and  O4_13 
REMARK    4  A    between atoms: C12_19  and  O6_21 
REMARK    5  A    between atoms: C19_28  and  C20_29 
REMARK    6  A    between atoms: C20_29  and  C21_30 
REMARK    7  A    between atoms: C21_30  and  O7_31 
REMARK    8  A    between atoms: C21_30  and  C22_33 
REMARK    9  A    between atoms: C22_33  and  C23_34 
REMARK   10  A    between atoms: C23_34  and  O8_35 
REMARK   11  A    between atoms: C23_34  and  C24_37 
REMARK   12  A    between atoms: C24_37  and  C25_38 
REMARK   13  A    between atoms: C25_38  and  C26_39 
REMARK   14  A    between atoms: C26_39  and  C27_40 
ROOT
HETATM    1  C2  UNL     1      38.666 -19.045  22.294  1.00  0.00     0.096 C 
HETATM    2  C3  UNL     1      39.383 -20.133  22.038  1.00  0.00     0.175 C 
HETATM    3  O2  UNL     1      39.186 -21.399  22.422  1.00  0.00    -0.330 OA
HETATM    4  C4  UNL     1      39.346 -22.187  23.531  1.00  0.00     0.262 C 
HETATM    5  C5  UNL     1      38.982 -23.619  23.097  1.00  0.00     0.068 C 
HETATM    6  C6  UNL     1      38.348 -24.456  24.125  1.00  0.00     0.018 C 
HETATM    7  C7  UNL     1      38.376 -23.859  25.546  1.00  0.00     0.012 C 
HETATM    8  C8  UNL     1      37.209 -25.302  23.832  1.00  0.00     0.159 C 
HETATM    9  C9  UNL     1      35.916 -25.065  23.272  1.00  0.00     0.113 A 
HETATM   10  C10 UNL     1      35.214 -26.477  23.303  1.00  0.00     0.051 C 
HETATM   11  O5  UNL     1      36.252 -24.699  21.843  1.00  0.00    -0.363 OA
HETATM   12  C11 UNL     1      35.209 -24.182  22.548  1.00  0.00     0.197 A 
HETATM   13  C12 UNL     1      34.942 -22.730  22.751  1.00  0.00     0.101 C 
HETATM   14  C13 UNL     1      34.997 -22.225  24.136  1.00  0.00     0.053 C 
HETATM   15  C14 UNL     1      35.770 -21.887  21.836  1.00  0.00     0.009 C 
HETATM   16  C15 UNL     1      36.208 -20.691  21.841  1.00  0.00    -0.019 C 
HETATM   17  C16 UNL     1      36.114 -19.531  22.753  1.00  0.00     0.039 C 
HETATM   18  C17 UNL     1      35.176 -18.459  22.187  1.00  0.00     0.019 C 
HETATM   19  C18 UNL     1      37.454 -18.913  23.061  1.00  0.00    -0.019 C 
HETATM   20  C19 UNL     1      37.457 -18.140  24.131  1.00  0.00    -0.014 C 
ENDROOT
BRANCH   1  21
HETATM   21  O1  UNL     1      39.179 -17.852  21.719  1.00  0.00    -0.353 OA
HETATM   22  C1  UNL     1      38.553 -17.153  20.677  1.00  0.00     0.210 C 
ENDBRANCH   1  21
BRANCH  20  23
HETATM   23  C20 UNL     1      38.616 -17.371  24.633  1.00  0.00     0.059 C 
BRANCH  23  24
HETATM   24  C21 UNL     1      38.285 -15.921  24.940  1.00  0.00     0.124 C 
BRANCH  24  25
HETATM   25  O7  UNL     1      38.695 -15.063  23.943  1.00  0.00    -0.395 OA
ATOM     26  H7  UNL     1      38.806 -14.172  24.252  1.00  0.00     0.210 HD
ENDBRANCH  24  25
BRANCH  24  27
HETATM   27  C22 UNL     1      38.862 -15.530  26.287  1.00  0.00     0.063 C 
BRANCH  27  28
HETATM   28  C23 UNL     1      37.842 -14.736  27.093  1.00  0.00     0.120 C 
BRANCH  28  29
HETATM   29  O8  UNL     1      37.049 -13.999  26.242  1.00  0.00    -0.395 OA
ATOM     30  H8  UNL     1      36.284 -14.506  25.999  1.00  0.00     0.210 HD
ENDBRANCH  28  29
BRANCH  28  31
HETATM   31  C24 UNL     1      36.966 -15.648  27.914  1.00  0.00     0.032 C 
BRANCH  31  32
HETATM   32  C25 UNL     1      37.680 -16.797  28.530  1.00  0.00     0.007 C 
BRANCH  32  33
HETATM   33  C26 UNL     1      37.295 -18.163  28.053  1.00  0.00     0.036 C 
BRANCH  33  34
HETATM   34  C27 UNL     1      38.443 -19.106  28.097  1.00  0.00    -0.050 C 
HETATM   35  C28 UNL     1      39.653 -18.763  28.936  1.00  0.00     0.046 C 
HETATM   36  C29 UNL     1      38.439 -20.224  27.434  1.00  0.00     0.105 C 
HETATM   37 CL1  UNL     1      39.832 -21.297  27.526  1.00  0.00    -0.071 Cl
HETATM   38 CL2  UNL     1      37.081 -20.727  26.472  1.00  0.00    -0.071 Cl
ENDBRANCH  33  34
ENDBRANCH  32  33
ENDBRANCH  31  32
ENDBRANCH  28  31
ENDBRANCH  27  28
ENDBRANCH  24  27
ENDBRANCH  23  24
ENDBRANCH  20  23
BRANCH   4  39
HETATM   39  O3  UNL     1      40.604 -22.174  24.125  1.00  0.00    -0.371 OA
ATOM     40  H3  UNL     1      40.671 -22.577  24.983  1.00  0.00     0.212 HD
ENDBRANCH   4  39
BRANCH  13  41
HETATM   41  O6  UNL     1      33.603 -22.519  22.392  1.00  0.00    -0.383 OA
ATOM     42  H6  UNL     1      33.550 -21.629  22.066  1.00  0.00     0.211 HD
ENDBRANCH  13  41
BRANCH   8  43
HETATM   43  O4  UNL     1      37.798 -26.352  23.045  1.00  0.00    -0.392 OA
ATOM     44  H4  UNL     1      38.100 -26.960  23.709  1.00  0.00     0.210 HD
ENDBRANCH   8  43
TORSDOF 14
ENDMDL
MODEL 5
REMARK VINA RESULT: -7.275435786      3.766      8.069
REMARK  14 active torsions:
REMARK  status: ('A' for Active; 'I' for Inactive)
REMARK    1  A    between atoms: O1_2  and  C2_3 
REMARK    2  A    between atoms: C4_6  and  O3_7 
REMARK    3  A    between atoms: C8_12  and  O4_13 
REMARK    4  A    between atoms: C12_19  and  O6_21 
REMARK    5  A    between atoms: C19_28  and  C20_29 
REMARK    6  A    between atoms: C20_29  and  C21_30 
REMARK    7  A    between atoms: C21_30  and  O7_31 
REMARK    8  A    between atoms: C21_30  and  C22_33 
REMARK    9  A    between atoms: C22_33  and  C23_34 
REMARK   10  A    between atoms: C23_34  and  O8_35 
REMARK   11  A    between atoms: C23_34  and  C24_37 
REMARK   12  A    between atoms: C24_37  and  C25_38 
REMARK   13  A    between atoms: C25_38  and  C26_39 
REMARK   14  A    between atoms: C26_39  and  C27_40 
ROOT
HETATM    1  C2  UNL     1      41.178 -21.949  25.846  1.00  0.00     0.096 C 
HETATM    2  C3  UNL     1      41.366 -20.975  24.964  1.00  0.00     0.175 C 
HETATM    3  O2  UNL     1      40.661 -19.858  24.759  1.00  0.00    -0.330 OA
HETATM    4  C4  UNL     1      39.490 -19.458  24.170  1.00  0.00     0.262 C 
HETATM    5  C5  UNL     1      39.462 -17.922  24.265  1.00  0.00     0.068 C 
HETATM    6  C6  UNL     1      38.133 -17.317  24.433  1.00  0.00     0.018 C 
HETATM    7  C7  UNL     1      36.955 -18.291  24.232  1.00  0.00     0.012 C 
HETATM    8  C8  UNL     1      37.891 -16.239  25.370  1.00  0.00     0.159 C 
HETATM    9  C9  UNL     1      38.107 -16.079  26.773  1.00  0.00     0.113 A 
HETATM   10  C10 UNL     1      37.555 -14.636  27.089  1.00  0.00     0.051 C 
HETATM   11  O5  UNL     1      39.617 -16.074  26.864  1.00  0.00    -0.363 OA
HETATM   12  C11 UNL     1      38.788 -16.582  27.816  1.00  0.00     0.197 A 
HETATM   13  C12 UNL     1      38.860 -17.963  28.373  1.00  0.00     0.101 C 
HETATM   14  C13 UNL     1      37.701 -18.844  28.133  1.00  0.00     0.053 C 
HETATM   15  C14 UNL     1      40.138 -18.639  27.998  1.00  0.00     0.009 C 
HETATM   16  C15 UNL     1      40.533 -19.844  27.872  1.00  0.00    -0.019 C 
HETATM   17  C16 UNL     1      39.925 -21.181  28.036  1.00  0.00     0.039 C 
HETATM   18  C17 UNL     1      40.438 -21.868  29.307  1.00  0.00     0.019 C 
HETATM   19  C18 UNL     1      40.155 -22.083  26.851  1.00  0.00    -0.019 C 
HETATM   20  C19 UNL     1      39.337 -23.118  26.795  1.00  0.00    -0.014 C 
ENDROOT
BRANCH   1  21
HETATM   21  O1  UNL     1      42.134 -22.999  25.778  1.00  0.00    -0.353 OA
HETATM   22  C1  UNL     1      42.985 -23.213  24.685  1.00  0.00     0.210 C 
ENDBRANCH   1  21
BRANCH  20  23
HETATM   23  C20 UNL     1      39.372 -24.187  25.773  1.00  0.00     0.059 C 
BRANCH  23  24
HETATM   24  C21 UNL     1      39.610 -25.567  26.359  1.00  0.00     0.124 C 
BRANCH  24  25
HETATM   25  O7  UNL     1      38.530 -26.406  26.192  1.00  0.00    -0.395 OA
ATOM     26  H7  UNL     1      38.052 -26.229  25.390  1.00  0.00     0.210 HD
ENDBRANCH  24  25
BRANCH  24  27
HETATM   27  C22 UNL     1      40.007 -25.452  27.819  1.00  0.00     0.063 C 
BRANCH  27  28
HETATM   28  C23 UNL     1      41.415 -25.993  28.032  1.00  0.00     0.120 C 
BRANCH  28  29
HETATM   29  O8  UNL     1      42.192 -25.714  26.930  1.00  0.00    -0.395 OA
ATOM     30  H8  UNL     1      41.674 -25.811  26.141  1.00  0.00     0.210 HD
ENDBRANCH  28  29
BRANCH  28  31
HETATM   31  C24 UNL     1      42.055 -25.380  29.252  1.00  0.00     0.032 C 
BRANCH  31  32
HETATM   32  C25 UNL     1      43.022 -24.290  28.959  1.00  0.00     0.007 C 
BRANCH  32  33
HETATM   33  C26 UNL     1      43.650 -23.612  30.136  1.00  0.00     0.036 C 
BRANCH  33  34
HETATM   34  C27 UNL     1      44.170 -22.264  29.785  1.00  0.00    -0.050 C 
HETATM   35  C28 UNL     1      44.014 -21.755  28.370  1.00  0.00     0.046 C 
HETATM   36  C29 UNL     1      44.757 -21.504  30.661  1.00  0.00     0.105 C 
HETATM   37 CL1  UNL     1      45.352 -19.919  30.179  1.00  0.00    -0.071 Cl
HETATM   38 CL2  UNL     1      44.950 -21.981  32.321  1.00  0.00    -0.071 Cl
ENDBRANCH  33  34
ENDBRANCH  32  33
ENDBRANCH  31  32
ENDBRANCH  28  31
ENDBRANCH  27  28
ENDBRANCH  24  27
ENDBRANCH  23  24
ENDBRANCH  20  23
BRANCH   4  39
HETATM   39  O3  UNL     1      39.291 -19.859  22.852  1.00  0.00    -0.371 OA
ATOM     40  H3  UNL     1      38.389 -19.970  22.575  1.00  0.00     0.212 HD
ENDBRANCH   4  39
BRANCH  13  41
HETATM   41  O6  UNL     1      38.868 -17.827  29.768  1.00  0.00    -0.383 OA
ATOM     42  H6  UNL     1      38.230 -18.447  30.101  1.00  0.00     0.211 HD
ENDBRANCH  13  41
BRANCH   8  43
HETATM   43  O4  UNL     1      38.547 -15.126  24.737  1.00  0.00    -0.392 OA
ATOM     44  H4  UNL     1      38.447 -15.328  23.814  1.00  0.00     0.210 HD
ENDBRANCH   8  43
TORSDOF 14
ENDMDL
