MODEL 1
REMARK VINA RESULT: -7.905713529      0.000      0.000
REMARK  14 active torsions:
REMARK  status: ('A' for Active; 'I' for Inactive)
REMARK    1  A    between atoms: O1_2  and  C2_3 
REMARK    2  A    between atoms: C5_6  and  N1_7 
REMARK    3  A    between atoms: N1_7  and  C6_9 
REMARK    4  A    between atoms: C7_12  and  O2_13 
REMARK    5  A    between atoms: O2_13  and  C8_14 
REMARK    6  A    between atoms: C8_14  and  C9_15 
REMARK    7  A    between atoms: C9_15  and  C10_16 
REMARK    8  A    between atoms: C10_16  and  N3_17 
REMARK    9  A    between atoms: C14_23  and  N5_24 
REMARK   10  A    between atoms: C17_33  and  O3_34 
REMARK   11  A    between atoms: O3_34  and  C18_35 
REMARK   12  A    between atoms: C18_35  and  C19_36 
REMARK   13  A    between atoms: C24_43  and  C25_44 
REMARK   14  A    between atoms: C25_44  and  C28_47 
ROOT
HETATM    1  N1  UNL     1      37.535 -18.381  27.070  1.00  0.00    -0.338 N 
ATOM      2  H1  UNL     1      36.632 -18.815  26.879  1.00  0.00     0.167 HD
ENDROOT
BRANCH   1   3
HETATM    3  C5  UNL     1      38.430 -19.241  27.686  1.00  0.00     0.067 A 
HETATM    4  C4  UNL     1      39.469 -18.844  28.493  1.00  0.00     0.035 A 
HETATM    5  C3  UNL     1      40.333 -19.756  29.044  1.00  0.00     0.039 A 
HETATM    6  C2  UNL     1      40.157 -21.112  28.781  1.00  0.00     0.070 A 
HETATM    7  C32 UNL     1      39.138 -21.553  27.986  1.00  0.00     0.075 A 
HETATM    8  C17 UNL     1      38.251 -20.627  27.421  1.00  0.00     0.098 A 
BRANCH   6   9
HETATM    9  O1  UNL     1      41.028 -22.027  29.337  1.00  0.00    -0.356 OA
HETATM   10  C1  UNL     1      41.782 -21.678  30.461  1.00  0.00     0.210 C 
ENDBRANCH   6   9
BRANCH   8  11
HETATM   11  O3  UNL     1      37.262 -21.017  26.659  1.00  0.00    -0.348 OA
BRANCH  11  12
HETATM   12  C18 UNL     1      36.295 -21.400  25.913  1.00  0.00     0.180 C 
BRANCH  12  13
HETATM   13  C19 UNL     1      36.582 -21.995  24.515  1.00  0.00     0.015 C 
HETATM   14  C20 UNL     1      35.285 -22.082  23.793  1.00  0.00     0.013 C 
HETATM   15  C21 UNL     1      34.714 -20.731  23.429  1.00  0.00     0.079 C 
HETATM   16  C22 UNL     1      35.733 -19.931  22.692  1.00  0.00     0.244 C 
HETATM   17  F1  UNL     1      35.240 -19.741  21.393  1.00  0.00    -0.206 F 
HETATM   18  F2  UNL     1      35.947 -18.677  23.208  1.00  0.00    -0.206 F 
HETATM   19  C23 UNL     1      37.056 -20.690  22.484  1.00  0.00     0.084 C 
HETATM   20  C24 UNL     1      37.617 -21.167  23.776  1.00  0.00     0.006 C 
BRANCH  20  21
HETATM   21  C25 UNL     1      38.897 -21.902  23.682  1.00  0.00    -0.037 C 
HETATM   22  C26 UNL     1      39.079 -22.392  22.243  1.00  0.00     0.016 C 
HETATM   23  C27 UNL     1      38.852 -23.157  24.541  1.00  0.00     0.016 C 
BRANCH  21  24
HETATM   24  C28 UNL     1      40.146 -21.184  24.043  1.00  0.00    -0.044 C 
HETATM   25  C29 UNL     1      41.027 -21.896  25.038  1.00  0.00     0.015 C 
HETATM   26  C30 UNL     1      40.016 -19.754  24.444  1.00  0.00     0.015 C 
HETATM   27  C31 UNL     1      41.004 -21.166  22.752  1.00  0.00     0.015 C 
ENDBRANCH  21  24
ENDBRANCH  20  21
ENDBRANCH  12  13
ENDBRANCH  11  12
ENDBRANCH   8  11
ENDBRANCH   1   3
BRANCH   1  28
HETATM   28  C6  UNL     1      37.592 -17.188  26.697  1.00  0.00     0.138 A 
HETATM   29  N2  UNL     1      38.341 -16.874  25.600  1.00  0.00    -0.306 N 
HETATM   30  C7  UNL     1      38.468 -15.623  25.125  1.00  0.00     0.225 A 
ATOM     31  H2  UNL     1      38.830 -17.628  25.116  1.00  0.00     0.171 HD
HETATM   32  N4  UNL     1      37.810 -14.660  25.790  1.00  0.00    -0.317 N 
HETATM   33  C13 UNL     1      37.048 -14.897  26.888  1.00  0.00     0.110 A 
ATOM     34  H4  UNL     1      37.888 -13.700  25.453  1.00  0.00     0.169 HD
HETATM   35  C14 UNL     1      36.391 -13.866  27.530  1.00  0.00     0.129 A 
HETATM   36  C16 UNL     1      36.919 -16.174  27.370  1.00  0.00     0.108 A 
HETATM   37  N6  UNL     1      35.649 -14.159  28.609  1.00  0.00    -0.337 N 
HETATM   38  C15 UNL     1      35.544 -15.426  29.059  1.00  0.00     0.182 A 
ATOM     39  H6  UNL     1      35.155 -13.411  29.097  1.00  0.00     0.168 HD
HETATM   40  N7  UNL     1      36.169 -16.442  28.454  1.00  0.00    -0.347 N 
ATOM     41  H7  UNL     1      36.080 -17.396  28.806  1.00  0.00     0.167 HD
BRANCH  30  42
HETATM   42  O2  UNL     1      39.250 -15.410  24.005  1.00  0.00    -0.322 OA
BRANCH  42  43
HETATM   43  C8  UNL     1      40.468 -16.039  23.819  1.00  0.00     0.180 C 
BRANCH  43  44
HETATM   44  C9  UNL     1      40.708 -16.609  22.440  1.00  0.00     0.057 C 
BRANCH  44  45
HETATM   45  C10 UNL     1      39.493 -16.279  21.590  1.00  0.00     0.273 C 
BRANCH  45  46
HETATM   46  N3  UNL     1      38.677 -17.470  21.415  1.00  0.00     0.080 N 
HETATM   47  C11 UNL     1      37.520 -17.153  20.611  1.00  0.00     0.309 C 
HETATM   48  C12 UNL     1      39.450 -18.463  20.688  1.00  0.00     0.309 C 
ENDBRANCH  45  46
ENDBRANCH  44  45
ENDBRANCH  43  44
ENDBRANCH  42  43
ENDBRANCH  30  42
BRANCH  35  49
HETATM   49  N5  UNL     1      36.523 -12.670  27.067  1.00  0.00    -0.384 N 
ATOM     50  H52 UNL     1      37.276 -12.394  26.437  1.00  0.00     0.157 HD
ATOM     51  H51 UNL     1      35.839 -11.964  27.341  1.00  0.00     0.157 HD
ENDBRANCH  35  49
ENDBRANCH   1  28
TORSDOF 14
ENDMDL
MODEL 2
REMARK VINA RESULT: -7.877344356      1.261      1.931
REMARK  14 active torsions:
REMARK  status: ('A' for Active; 'I' for Inactive)
REMARK    1  A    between atoms: O1_2  and  C2_3 
REMARK    2  A    between atoms: C5_6  and  N1_7 
REMARK    3  A    between atoms: N1_7  and  C6_9 
REMARK    4  A    between atoms: C7_12  and  O2_13 
REMARK    5  A    between atoms: O2_13  and  C8_14 
REMARK    6  A    between atoms: C8_14  and  C9_15 
REMARK    7  A    between atoms: C9_15  and  C10_16 
REMARK    8  A    between atoms: C10_16  and  N3_17 
REMARK    9  A    between atoms: C14_23  and  N5_24 
REMARK   10  A    between atoms: C17_33  and  O3_34 
REMARK   11  A    between atoms: O3_34  and  C18_35 
REMARK   12  A    between atoms: C18_35  and  C19_36 
REMARK   13  A    between atoms: C24_43  and  C25_44 
REMARK   14  A    between atoms: C25_44  and  C28_47 
ROOT
HETATM    1  N1  UNL     1      37.597 -18.359  27.314  1.00  0.00    -0.338 N 
ATOM      2  H1  UNL     1      36.639 -18.708  27.321  1.00  0.00     0.167 HD
ENDROOT
BRANCH   1   3
HETATM    3  C5  UNL     1      38.518 -19.292  27.763  1.00  0.00     0.067 A 
HETATM    4  C4  UNL     1      39.657 -18.993  28.471  1.00  0.00     0.035 A 
HETATM    5  C3  UNL     1      40.537 -19.972  28.854  1.00  0.00     0.039 A 
HETATM    6  C2  UNL     1      40.275 -21.298  28.520  1.00  0.00     0.070 A 
HETATM    7  C32 UNL     1      39.156 -21.643  27.818  1.00  0.00     0.075 A 
HETATM    8  C17 UNL     1      38.251 -20.648  27.423  1.00  0.00     0.098 A 
BRANCH   6   9
HETATM    9  O1  UNL     1      41.163 -22.282  28.907  1.00  0.00    -0.356 OA
HETATM   10  C1  UNL     1      41.283 -22.618  30.258  1.00  0.00     0.210 C 
ENDBRANCH   6   9
BRANCH   8  11
HETATM   11  O3  UNL     1      37.168 -20.946  26.754  1.00  0.00    -0.348 OA
BRANCH  11  12
HETATM   12  C18 UNL     1      36.108 -21.239  26.101  1.00  0.00     0.180 C 
BRANCH  12  13
HETATM   13  C19 UNL     1      36.201 -21.642  24.611  1.00  0.00     0.015 C 
HETATM   14  C20 UNL     1      35.795 -20.462  23.803  1.00  0.00     0.013 C 
HETATM   15  C21 UNL     1      36.789 -19.325  23.866  1.00  0.00     0.079 C 
HETATM   16  C22 UNL     1      38.151 -19.823  23.517  1.00  0.00     0.244 C 
HETATM   17  F1  UNL     1      38.521 -19.191  22.321  1.00  0.00    -0.206 F 
HETATM   18  F2  UNL     1      39.120 -19.504  24.435  1.00  0.00    -0.206 F 
HETATM   19  C23 UNL     1      38.171 -21.323  23.171  1.00  0.00     0.084 C 
HETATM   20  C24 UNL     1      37.594 -22.141  24.270  1.00  0.00     0.006 C 
BRANCH  20  21
HETATM   21  C25 UNL     1      37.578 -23.601  24.037  1.00  0.00    -0.037 C 
HETATM   22  C26 UNL     1      37.864 -23.866  22.556  1.00  0.00     0.016 C 
HETATM   23  C27 UNL     1      36.188 -24.164  24.294  1.00  0.00     0.016 C 
BRANCH  21  24
HETATM   24  C28 UNL     1      38.527 -24.446  24.805  1.00  0.00    -0.044 C 
HETATM   25  C29 UNL     1      38.043 -24.875  26.166  1.00  0.00     0.015 C 
HETATM   26  C30 UNL     1      39.931 -23.956  24.921  1.00  0.00     0.015 C 
HETATM   27  C31 UNL     1      38.627 -25.779  24.022  1.00  0.00     0.015 C 
ENDBRANCH  21  24
ENDBRANCH  20  21
ENDBRANCH  12  13
ENDBRANCH  11  12
ENDBRANCH   8  11
ENDBRANCH   1   3
BRANCH   1  28
HETATM   28  C6  UNL     1      37.684 -17.180  26.903  1.00  0.00     0.138 A 
HETATM   29  N2  UNL     1      38.520 -16.905  25.859  1.00  0.00    -0.306 N 
HETATM   30  C7  UNL     1      38.684 -15.672  25.351  1.00  0.00     0.225 A 
ATOM     31  H2  UNL     1      39.046 -17.675  25.444  1.00  0.00     0.171 HD
HETATM   32  N4  UNL     1      37.975 -14.687  25.924  1.00  0.00    -0.317 N 
HETATM   33  C13 UNL     1      37.126 -14.886  26.964  1.00  0.00     0.110 A 
ATOM     34  H4  UNL     1      38.079 -13.740  25.559  1.00  0.00     0.169 HD
HETATM   35  C14 UNL     1      36.420 -13.834  27.513  1.00  0.00     0.129 A 
HETATM   36  C16 UNL     1      36.959 -16.145  27.481  1.00  0.00     0.108 A 
HETATM   37  N6  UNL     1      35.593 -14.090  28.539  1.00  0.00    -0.337 N 
HETATM   38  C15 UNL     1      35.451 -15.340  29.025  1.00  0.00     0.182 A 
ATOM     39  H6  UNL     1      35.061 -13.326  28.957  1.00  0.00     0.168 HD
HETATM   40  N7  UNL     1      36.124 -16.375  28.511  1.00  0.00    -0.347 N 
ATOM     41  H7  UNL     1      36.007 -17.315  28.889  1.00  0.00     0.167 HD
BRANCH  30  42
HETATM   42  O2  UNL     1      39.554 -15.497  24.290  1.00  0.00    -0.322 OA
BRANCH  42  43
HETATM   43  C8  UNL     1      40.655 -16.313  24.090  1.00  0.00     0.180 C 
BRANCH  43  44
HETATM   44  C9  UNL     1      41.039 -16.553  22.650  1.00  0.00     0.057 C 
BRANCH  44  45
HETATM   45  C10 UNL     1      40.493 -15.397  21.830  1.00  0.00     0.273 C 
BRANCH  45  46
HETATM   46  N3  UNL     1      39.870 -15.903  20.617  1.00  0.00     0.080 N 
HETATM   47  C11 UNL     1      40.436 -17.189  20.281  1.00  0.00     0.309 C 
HETATM   48  C12 UNL     1      38.453 -16.108  20.871  1.00  0.00     0.309 C 
ENDBRANCH  45  46
ENDBRANCH  44  45
ENDBRANCH  43  44
ENDBRANCH  42  43
ENDBRANCH  30  42
BRANCH  35  49
HETATM   49  N5  UNL     1      36.588 -12.655  27.018  1.00  0.00    -0.384 N 
ATOM     50  H52 UNL     1      37.506 -12.251  26.837  1.00  0.00     0.157 HD
ATOM     51  H51 UNL     1      35.762 -12.099  26.795  1.00  0.00     0.157 HD
ENDBRANCH  35  49
ENDBRANCH   1  28
TORSDOF 14
ENDMDL
MODEL 3
REMARK VINA RESULT: -7.717829732      1.653      2.673
REMARK  14 active torsions:
REMARK  status: ('A' for Active; 'I' for Inactive)
REMARK    1  A    between atoms: O1_2  and  C2_3 
REMARK    2  A    between atoms: C5_6  and  N1_7 
REMARK    3  A    between atoms: N1_7  and  C6_9 
REMARK    4  A    between atoms: C7_12  and  O2_13 
REMARK    5  A    between atoms: O2_13  and  C8_14 
REMARK    6  A    between atoms: C8_14  and  C9_15 
REMARK    7  A    between atoms: C9_15  and  C10_16 
REMARK    8  A    between atoms: C10_16  and  N3_17 
REMARK    9  A    between atoms: C14_23  and  N5_24 
REMARK   10  A    between atoms: C17_33  and  O3_34 
REMARK   11  A    between atoms: O3_34  and  C18_35 
REMARK   12  A    between atoms: C18_35  and  C19_36 
REMARK   13  A    between atoms: C24_43  and  C25_44 
REMARK   14  A    between atoms: C25_44  and  C28_47 
ROOT
HETATM    1  N1  UNL     1      37.664 -18.478  27.137  1.00  0.00    -0.338 N 
ATOM      2  H1  UNL     1      36.790 -18.952  26.908  1.00  0.00     0.167 HD
ENDROOT
BRANCH   1   3
HETATM    3  C5  UNL     1      38.556 -19.288  27.822  1.00  0.00     0.067 A 
HETATM    4  C4  UNL     1      39.438 -18.847  28.780  1.00  0.00     0.035 A 
HETATM    5  C3  UNL     1      40.312 -19.707  29.394  1.00  0.00     0.039 A 
HETATM    6  C2  UNL     1      40.310 -21.054  29.041  1.00  0.00     0.070 A 
HETATM    7  C32 UNL     1      39.452 -21.537  28.096  1.00  0.00     0.075 A 
HETATM    8  C17 UNL     1      38.554 -20.665  27.465  1.00  0.00     0.098 A 
BRANCH   6   9
HETATM    9  O1  UNL     1      41.192 -21.917  29.661  1.00  0.00    -0.356 OA
HETATM   10  C1  UNL     1      42.513 -21.520  29.885  1.00  0.00     0.210 C 
ENDBRANCH   6   9
BRANCH   8  11
HETATM   11  O3  UNL     1      37.716 -21.097  26.558  1.00  0.00    -0.348 OA
BRANCH  11  12
HETATM   12  C18 UNL     1      36.896 -21.521  25.673  1.00  0.00     0.180 C 
BRANCH  12  13
HETATM   13  C19 UNL     1      37.425 -22.139  24.358  1.00  0.00     0.015 C 
HETATM   14  C20 UNL     1      37.892 -23.516  24.668  1.00  0.00     0.013 C 
HETATM   15  C21 UNL     1      36.765 -24.464  25.010  1.00  0.00     0.079 C 
HETATM   16  C22 UNL     1      35.732 -24.432  23.935  1.00  0.00     0.244 C 
HETATM   17  F1  UNL     1      35.723 -25.703  23.341  1.00  0.00    -0.206 F 
HETATM   18  F2  UNL     1      34.455 -24.211  24.387  1.00  0.00    -0.206 F 
HETATM   19  C23 UNL     1      36.096 -23.481  22.781  1.00  0.00     0.084 C 
HETATM   20  C24 UNL     1      36.361 -22.104  23.276  1.00  0.00     0.006 C 
BRANCH  20  21
HETATM   21  C25 UNL     1      36.711 -21.110  22.238  1.00  0.00    -0.037 C 
HETATM   22  C26 UNL     1      36.462 -21.729  20.860  1.00  0.00     0.016 C 
HETATM   23  C27 UNL     1      38.199 -20.796  22.285  1.00  0.00     0.016 C 
BRANCH  21  24
HETATM   24  C28 UNL     1      36.000 -19.806  22.247  1.00  0.00    -0.044 C 
HETATM   25  C29 UNL     1      35.727 -19.219  20.887  1.00  0.00     0.015 C 
HETATM   26  C30 UNL     1      36.548 -18.740  23.136  1.00  0.00     0.015 C 
HETATM   27  C31 UNL     1      34.584 -20.106  22.801  1.00  0.00     0.015 C 
ENDBRANCH  21  24
ENDBRANCH  20  21
ENDBRANCH  12  13
ENDBRANCH  11  12
ENDBRANCH   8  11
ENDBRANCH   1   3
BRANCH   1  28
HETATM   28  C6  UNL     1      37.696 -17.293  26.738  1.00  0.00     0.138 A 
HETATM   29  N2  UNL     1      38.441 -16.987  25.636  1.00  0.00    -0.306 N 
HETATM   30  C7  UNL     1      38.541 -15.744  25.134  1.00  0.00     0.225 A 
ATOM     31  H2  UNL     1      38.947 -17.741  25.170  1.00  0.00     0.171 HD
HETATM   32  N4  UNL     1      37.861 -14.782  25.775  1.00  0.00    -0.317 N 
HETATM   33  C13 UNL     1      37.100 -15.012  26.876  1.00  0.00     0.110 A 
ATOM     34  H4  UNL     1      37.918 -13.828  25.418  1.00  0.00     0.169 HD
HETATM   35  C14 UNL     1      36.419 -13.981  27.494  1.00  0.00     0.129 A 
HETATM   36  C16 UNL     1      36.999 -16.280  27.386  1.00  0.00     0.108 A 
HETATM   37  N6  UNL     1      35.680 -14.267  28.577  1.00  0.00    -0.337 N 
HETATM   38  C15 UNL     1      35.602 -15.526  29.055  1.00  0.00     0.182 A 
ATOM     39  H6  UNL     1      35.169 -13.519  29.047  1.00  0.00     0.168 HD
HETATM   40  N7  UNL     1      36.251 -16.540  28.474  1.00  0.00    -0.347 N 
ATOM     41  H7  UNL     1      36.182 -17.488  28.847  1.00  0.00     0.167 HD
BRANCH  30  42
HETATM   42  O2  UNL     1      39.322 -15.538  24.011  1.00  0.00    -0.322 OA
BRANCH  42  43
HETATM   43  C8  UNL     1      40.602 -16.052  23.892  1.00  0.00     0.180 C 
BRANCH  43  44
HETATM   44  C9  UNL     1      40.980 -16.557  22.520  1.00  0.00     0.057 C 
BRANCH  44  45
HETATM   45  C10 UNL     1      39.814 -17.378  21.995  1.00  0.00     0.273 C 
BRANCH  45  46
HETATM   46  N3  UNL     1      39.497 -16.970  20.636  1.00  0.00     0.080 N 
HETATM   47  C11 UNL     1      39.192 -18.134  19.838  1.00  0.00     0.309 C 
HETATM   48  C12 UNL     1      38.303 -16.141  20.664  1.00  0.00     0.309 C 
ENDBRANCH  45  46
ENDBRANCH  44  45
ENDBRANCH  43  44
ENDBRANCH  42  43
ENDBRANCH  30  42
BRANCH  35  49
HETATM   49  N5  UNL     1      36.525 -12.793  27.005  1.00  0.00    -0.384 N 
ATOM     50  H52 UNL     1      35.725 -12.185  26.836  1.00  0.00     0.157 HD
ATOM     51  H51 UNL     1      37.455 -12.442  26.776  1.00  0.00     0.157 HD
ENDBRANCH  35  49
ENDBRANCH   1  28
TORSDOF 14
ENDMDL
MODEL 4
REMARK VINA RESULT: -7.590823542      2.567      4.675
REMARK  14 active torsions:
REMARK  status: ('A' for Active; 'I' for Inactive)
REMARK    1  A    between atoms: O1_2  and  C2_3 
REMARK    2  A    between atoms: C5_6  and  N1_7 
REMARK    3  A    between atoms: N1_7  and  C6_9 
REMARK    4  A    between atoms: C7_12  and  O2_13 
REMARK    5  A    between atoms: O2_13  and  C8_14 
REMARK    6  A    between atoms: C8_14  and  C9_15 
REMARK    7  A    between atoms: C9_15  and  C10_16 
REMARK    8  A    between atoms: C10_16  and  N3_17 
REMARK    9  A    between atoms: C14_23  and  N5_24 
REMARK   10  A    between atoms: C17_33  and  O3_34 
REMARK   11  A    between atoms: O3_34  and  C18_35 
REMARK   12  A    between atoms: C18_35  and  C19_36 
REMARK   13  A    between atoms: C24_43  and  C25_44 
REMARK   14  A    between atoms: C25_44  and  C28_47 
ROOT
HETATM    1  N1  UNL     1      37.766 -18.427  27.550  1.00  0.00    -0.338 N 
ATOM      2  H1  UNL     1      37.784 -18.492  28.568  1.00  0.00     0.167 HD
ENDROOT
BRANCH   1   3
HETATM    3  C5  UNL     1      37.605 -19.657  26.931  1.00  0.00     0.067 A 
HETATM    4  C4  UNL     1      36.557 -19.987  26.105  1.00  0.00     0.035 A 
HETATM    5  C3  UNL     1      36.451 -21.238  25.552  1.00  0.00     0.039 A 
HETATM    6  C2  UNL     1      37.423 -22.195  25.833  1.00  0.00     0.070 A 
HETATM    7  C32 UNL     1      38.481 -21.912  26.647  1.00  0.00     0.075 A 
HETATM    8  C17 UNL     1      38.597 -20.636  27.215  1.00  0.00     0.098 A 
BRANCH   6   9
HETATM    9  O1  UNL     1      37.313 -23.453  25.275  1.00  0.00    -0.356 OA
HETATM   10  C1  UNL     1      36.101 -23.862  24.712  1.00  0.00     0.210 C 
ENDBRANCH   6   9
BRANCH   8  11
HETATM   11  O3  UNL     1      39.602 -20.332  27.995  1.00  0.00    -0.348 OA
BRANCH  11  12
HETATM   12  C18 UNL     1      40.584 -20.033  28.757  1.00  0.00     0.180 C 
BRANCH  12  13
HETATM   13  C19 UNL     1      41.873 -20.886  28.733  1.00  0.00     0.015 C 
HETATM   14  C20 UNL     1      42.021 -21.511  30.074  1.00  0.00     0.013 C 
HETATM   15  C21 UNL     1      40.973 -22.563  30.359  1.00  0.00     0.079 C 
HETATM   16  C22 UNL     1      40.946 -23.565  29.255  1.00  0.00     0.244 C 
HETATM   17  F1  UNL     1      41.359 -24.788  29.804  1.00  0.00    -0.206 F 
HETATM   18  F2  UNL     1      39.701 -23.784  28.723  1.00  0.00    -0.206 F 
HETATM   19  C23 UNL     1      41.987 -23.276  28.158  1.00  0.00     0.084 C 
HETATM   20  C24 UNL     1      41.829 -21.904  27.607  1.00  0.00     0.006 C 
BRANCH  20  21
HETATM   21  C25 UNL     1      42.779 -21.533  26.537  1.00  0.00    -0.037 C 
HETATM   22  C26 UNL     1      43.628 -22.758  26.186  1.00  0.00     0.016 C 
HETATM   23  C27 UNL     1      43.760 -20.484  27.038  1.00  0.00     0.016 C 
BRANCH  21  24
HETATM   24  C28 UNL     1      42.229 -21.023  25.255  1.00  0.00    -0.044 C 
HETATM   25  C29 UNL     1      41.663 -19.627  25.314  1.00  0.00     0.015 C 
HETATM   26  C30 UNL     1      41.272 -21.906  24.528  1.00  0.00     0.015 C 
HETATM   27  C31 UNL     1      43.446 -20.877  24.307  1.00  0.00     0.015 C 
ENDBRANCH  21  24
ENDBRANCH  20  21
ENDBRANCH  12  13
ENDBRANCH  11  12
ENDBRANCH   8  11
ENDBRANCH   1   3
BRANCH   1  28
HETATM   28  C6  UNL     1      37.895 -17.255  27.133  1.00  0.00     0.138 A 
HETATM   29  N2  UNL     1      38.837 -16.992  26.180  1.00  0.00    -0.306 N 
HETATM   30  C7  UNL     1      39.053 -15.766  25.674  1.00  0.00     0.225 A 
ATOM     31  H2  UNL     1      39.405 -17.766  25.836  1.00  0.00     0.171 HD
HETATM   32  N4  UNL     1      38.284 -14.775  26.153  1.00  0.00    -0.317 N 
HETATM   33  C13 UNL     1      37.329 -14.962  27.100  1.00  0.00     0.110 A 
ATOM     34  H4  UNL     1      38.425 -13.833  25.787  1.00  0.00     0.169 HD
HETATM   35  C14 UNL     1      36.567 -13.904  27.554  1.00  0.00     0.129 A 
HETATM   36  C16 UNL     1      37.111 -16.213  27.615  1.00  0.00     0.108 A 
HETATM   37  N6  UNL     1      35.635 -14.147  28.488  1.00  0.00    -0.337 N 
HETATM   38  C15 UNL     1      35.445 -15.390  28.976  1.00  0.00     0.182 A 
ATOM     39  H6  UNL     1      35.061 -13.379  28.836  1.00  0.00     0.168 HD
HETATM   40  N7  UNL     1      36.170 -16.431  28.552  1.00  0.00    -0.347 N 
ATOM     41  H7  UNL     1      36.015 -17.366  28.930  1.00  0.00     0.167 HD
BRANCH  30  42
HETATM   42  O2  UNL     1      40.030 -15.605  24.709  1.00  0.00    -0.322 OA
BRANCH  42  43
HETATM   43  C8  UNL     1      39.745 -15.609  23.355  1.00  0.00     0.180 C 
BRANCH  43  44
HETATM   44  C9  UNL     1      39.809 -16.957  22.676  1.00  0.00     0.057 C 
BRANCH  44  45
HETATM   45  C10 UNL     1      38.407 -17.298  22.200  1.00  0.00     0.273 C 
BRANCH  45  46
HETATM   46  N3  UNL     1      37.815 -18.291  23.081  1.00  0.00     0.080 N 
HETATM   47  C11 UNL     1      36.535 -18.705  22.557  1.00  0.00     0.309 C 
HETATM   48  C12 UNL     1      38.673 -19.465  23.104  1.00  0.00     0.309 C 
ENDBRANCH  45  46
ENDBRANCH  44  45
ENDBRANCH  43  44
ENDBRANCH  42  43
ENDBRANCH  30  42
BRANCH  35  49
HETATM   49  N5  UNL     1      36.785 -12.732  27.062  1.00  0.00    -0.384 N 
ATOM     50  H52 UNL     1      37.688 -12.443  26.688  1.00  0.00     0.157 HD
ATOM     51  H51 UNL     1      36.017 -12.061  27.043  1.00  0.00     0.157 HD
ENDBRANCH  35  49
ENDBRANCH   1  28
TORSDOF 14
ENDMDL
MODEL 5
REMARK VINA RESULT: -7.582295102      1.636      2.857
REMARK  14 active torsions:
REMARK  status: ('A' for Active; 'I' for Inactive)
REMARK    1  A    between atoms: O1_2  and  C2_3 
REMARK    2  A    between atoms: C5_6  and  N1_7 
REMARK    3  A    between atoms: N1_7  and  C6_9 
REMARK    4  A    between atoms: C7_12  and  O2_13 
REMARK    5  A    between atoms: O2_13  and  C8_14 
REMARK    6  A    between atoms: C8_14  and  C9_15 
REMARK    7  A    between atoms: C9_15  and  C10_16 
REMARK    8  A    between atoms: C10_16  and  N3_17 
REMARK    9  A    between atoms: C14_23  and  N5_24 
REMARK   10  A    between atoms: C17_33  and  O3_34 
REMARK   11  A    between atoms: O3_34  and  C18_35 
REMARK   12  A    between atoms: C18_35  and  C19_36 
REMARK   13  A    between atoms: C24_43  and  C25_44 
REMARK   14  A    between atoms: C25_44  and  C28_47 
ROOT
HETATM    1  N1  UNL     1      37.233 -18.476  26.984  1.00  0.00    -0.338 N 
ATOM      2  H1  UNL     1      36.252 -18.755  26.966  1.00  0.00     0.167 HD
ENDROOT
BRANCH   1   3
HETATM    3  C5  UNL     1      38.075 -19.482  27.429  1.00  0.00     0.067 A 
HETATM    4  C4  UNL     1      38.945 -19.366  28.487  1.00  0.00     0.035 A 
HETATM    5  C3  UNL     1      39.770 -20.400  28.849  1.00  0.00     0.039 A 
HETATM    6  C2  UNL     1      39.729 -21.593  28.131  1.00  0.00     0.070 A 
HETATM    7  C32 UNL     1      38.881 -21.754  27.074  1.00  0.00     0.075 A 
HETATM    8  C17 UNL     1      38.034 -20.703  26.698  1.00  0.00     0.098 A 
BRANCH   6   9
HETATM    9  O1  UNL     1      40.561 -22.632  28.499  1.00  0.00    -0.356 OA
HETATM   10  C1  UNL     1      40.691 -22.977  29.846  1.00  0.00     0.210 C 
ENDBRANCH   6   9
BRANCH   8  11
HETATM   11  O3  UNL     1      37.207 -20.827  25.693  1.00  0.00    -0.348 OA
BRANCH  11  12
HETATM   12  C18 UNL     1      36.399 -20.949  24.709  1.00  0.00     0.180 C 
BRANCH  12  13
HETATM   13  C19 UNL     1      36.870 -21.617  23.396  1.00  0.00     0.015 C 
HETATM   14  C20 UNL     1      36.993 -23.075  23.656  1.00  0.00     0.013 C 
HETATM   15  C21 UNL     1      35.661 -23.756  23.874  1.00  0.00     0.079 C 
HETATM   16  C22 UNL     1      34.742 -23.446  22.742  1.00  0.00     0.244 C 
HETATM   17  F1  UNL     1      34.492 -24.656  22.078  1.00  0.00    -0.206 F 
HETATM   18  F2  UNL     1      33.518 -22.960  23.127  1.00  0.00    -0.206 F 
HETATM   19  C23 UNL     1      35.392 -22.556  21.668  1.00  0.00     0.084 C 
HETATM   20  C24 UNL     1      35.922 -21.296  22.255  1.00  0.00     0.006 C 
BRANCH  20  21
HETATM   21  C25 UNL     1      36.559 -20.366  21.298  1.00  0.00    -0.037 C 
HETATM   22  C26 UNL     1      36.446 -20.956  19.889  1.00  0.00     0.016 C 
HETATM   23  C27 UNL     1      38.050 -20.256  21.579  1.00  0.00     0.016 C 
BRANCH  21  24
HETATM   24  C28 UNL     1      36.037 -18.978  21.215  1.00  0.00    -0.044 C 
HETATM   25  C29 UNL     1      34.852 -18.688  22.099  1.00  0.00     0.015 C 
HETATM   26  C30 UNL     1      35.773 -18.433  19.853  1.00  0.00     0.015 C 
HETATM   27  C31 UNL     1      37.153 -18.078  21.803  1.00  0.00     0.015 C 
ENDBRANCH  21  24
ENDBRANCH  20  21
ENDBRANCH  12  13
ENDBRANCH  11  12
ENDBRANCH   8  11
ENDBRANCH   1   3
BRANCH   1  28
HETATM   28  C6  UNL     1      37.413 -17.299  26.598  1.00  0.00     0.138 A 
HETATM   29  N2  UNL     1      38.146 -17.080  25.468  1.00  0.00    -0.306 N 
HETATM   30  C7  UNL     1      38.397 -15.854  24.977  1.00  0.00     0.225 A 
ATOM     31  H2  UNL     1      38.522 -17.887  24.970  1.00  0.00     0.171 HD
HETATM   32  N4  UNL     1      37.885 -14.818  25.661  1.00  0.00    -0.317 N 
HETATM   33  C13 UNL     1      37.148 -14.960  26.791  1.00  0.00     0.110 A 
ATOM     34  H4  UNL     1      38.059 -13.875  25.313  1.00  0.00     0.169 HD
HETATM   35  C14 UNL     1      36.644 -13.857  27.452  1.00  0.00     0.129 A 
HETATM   36  C16 UNL     1      36.892 -16.211  27.290  1.00  0.00     0.108 A 
HETATM   37  N6  UNL     1      35.919 -14.057  28.563  1.00  0.00    -0.337 N 
HETATM   38  C15 UNL     1      35.686 -15.302  29.028  1.00  0.00     0.182 A 
ATOM     39  H6  UNL     1      35.538 -13.255  29.065  1.00  0.00     0.168 HD
HETATM   40  N7  UNL     1      36.163 -16.386  28.407  1.00  0.00    -0.347 N 
ATOM     41  H7  UNL     1      35.978 -17.321  28.770  1.00  0.00     0.167 HD
BRANCH  30  42
HETATM   42  O2  UNL     1      39.150 -15.737  23.823  1.00  0.00    -0.322 OA
BRANCH  42  43
HETATM   43  C8  UNL     1      40.534 -15.724  23.837  1.00  0.00     0.180 C 
BRANCH  43  44
HETATM   44  C9  UNL     1      41.208 -16.398  22.666  1.00  0.00     0.057 C 
BRANCH  44  45
HETATM   45  C10 UNL     1      40.649 -17.807  22.564  1.00  0.00     0.273 C 
BRANCH  45  46
HETATM   46  N3  UNL     1      41.424 -18.706  23.404  1.00  0.00     0.080 N 
HETATM   47  C11 UNL     1      40.543 -19.404  24.311  1.00  0.00     0.309 C 
HETATM   48  C12 UNL     1      42.055 -19.707  22.559  1.00  0.00     0.309 C 
ENDBRANCH  45  46
ENDBRANCH  44  45
ENDBRANCH  43  44
ENDBRANCH  42  43
ENDBRANCH  30  42
BRANCH  35  49
HETATM   49  N5  UNL     1      36.894 -12.686  26.973  1.00  0.00    -0.384 N 
ATOM     50  H52 UNL     1      36.207 -12.135  26.458  1.00  0.00     0.157 HD
ATOM     51  H51 UNL     1      37.822 -12.289  27.116  1.00  0.00     0.157 HD
ENDBRANCH  35  49
ENDBRANCH   1  28
TORSDOF 14
ENDMDL
