MODEL 1
REMARK VINA RESULT: -7.176779963      0.000      0.000
REMARK  11 active torsions:
REMARK  status: ('A' for Active; 'I' for Inactive)
REMARK    1  A    between atoms: O1_2  and  C2_3 
REMARK    2  A    between atoms: C5_6  and  O2_7 
REMARK    3  A    between atoms: O2_7  and  C6_8 
REMARK    4  A    between atoms: C9_13  and  O3_14 
REMARK    5  A    between atoms: C12_19  and  O5_21 
REMARK    6  A    between atoms: O5_21  and  C14_22 
REMARK    7  A    between atoms: C14_22  and  C15_23 
REMARK    8  A    between atoms: C15_23  and  C16_24 
REMARK    9  A    between atoms: C16_24  and  N1_25 
REMARK   10  A    between atoms: N1_25  and  C17_28 
REMARK   11  A    between atoms: C21_35  and  O7_36 
ROOT
HETATM    1  C6  UNL     1      38.508 -20.941  27.414  1.00  0.00     0.129 A 
HETATM    2  C7  UNL     1      38.423 -21.841  26.396  1.00  0.00     0.068 A 
HETATM    3 BR1  UNL     1      39.128 -23.614  26.633  1.00  0.00    -0.046 Br
HETATM    4  C8  UNL     1      37.891 -21.446  25.193  1.00  0.00     0.065 A 
HETATM    5 BR2  UNL     1      37.781 -22.730  23.789  1.00  0.00    -0.046 Br
HETATM    6  C9  UNL     1      37.436 -20.112  25.004  1.00  0.00     0.103 A 
HETATM    7  C10 UNL     1      37.540 -19.234  26.046  1.00  0.00     0.102 A 
HETATM    8  C11 UNL     1      38.065 -19.614  27.250  1.00  0.00     0.128 A 
HETATM    9  O4  UNL     1      38.159 -18.688  28.303  1.00  0.00    -0.292 OA
HETATM   10  C12 UNL     1      38.209 -17.283  28.066  1.00  0.00     0.252 C 
HETATM   11  C13 UNL     1      37.784 -16.611  29.355  1.00  0.00     0.107 C 
HETATM   12  N2  UNL     1      37.218 -16.954  27.038  1.00  0.00    -0.302 N 
ATOM     13  H2  UNL     1      36.637 -16.119  27.111  1.00  0.00     0.168 HD
HETATM   14  C20 UNL     1      37.095 -17.862  25.912  1.00  0.00     0.261 C 
HETATM   15  O6  UNL     1      36.601 -17.382  24.889  1.00  0.00    -0.267 OA
ENDROOT
BRANCH   1  16
HETATM   16  O2  UNL     1      39.008 -21.254  28.634  1.00  0.00    -0.304 OA
BRANCH  16  17
HETATM   17  C5  UNL     1      40.360 -21.336  28.907  1.00  0.00     0.109 A 
HETATM   18  C4  UNL     1      41.223 -20.395  28.295  1.00  0.00     0.043 A 
HETATM   19  C3  UNL     1      42.577 -20.390  28.500  1.00  0.00     0.039 A 
HETATM   20  C2  UNL     1      43.164 -21.322  29.330  1.00  0.00     0.071 A 
HETATM   21  C23 UNL     1      42.341 -22.241  29.931  1.00  0.00     0.076 A 
HETATM   22  C21 UNL     1      40.957 -22.243  29.719  1.00  0.00     0.104 A 
BRANCH  20  23
HETATM   23  O1  UNL     1      44.547 -21.330  29.550  1.00  0.00    -0.356 OA
HETATM   24  C1  UNL     1      45.088 -20.334  30.407  1.00  0.00     0.210 C 
ENDBRANCH  20  23
BRANCH  22  25
HETATM   25  O7  UNL     1      40.193 -23.214  30.376  1.00  0.00    -0.353 OA
HETATM   26  C22 UNL     1      40.311 -24.579  30.119  1.00  0.00     0.210 C 
ENDBRANCH  22  25
ENDBRANCH  16  17
ENDBRANCH   1  16
BRANCH   6  27
HETATM   27  O3  UNL     1      36.928 -19.828  23.776  1.00  0.00    -0.358 OA
ATOM     28  H3  UNL     1      37.445 -19.237  23.242  1.00  0.00     0.217 HD
ENDBRANCH   6  27
BRANCH  10  29
HETATM   29  O5  UNL     1      39.488 -16.891  27.679  1.00  0.00    -0.338 OA
BRANCH  29  30
HETATM   30  C14 UNL     1      39.425 -15.780  26.812  1.00  0.00     0.175 C 
BRANCH  30  31
HETATM   31  C15 UNL     1      40.299 -16.020  25.622  1.00  0.00     0.054 C 
BRANCH  31  32
HETATM   32  C16 UNL     1      39.964 -15.181  24.420  1.00  0.00     0.235 C 
BRANCH  32  33
HETATM   33  N1  UNL     1      38.805 -15.692  23.756  1.00  0.00    -0.072 N 
ATOM     34  H12 UNL     1      38.359 -16.439  24.288  1.00  0.00     0.277 HD
ATOM     35  H11 UNL     1      38.035 -15.023  23.763  1.00  0.00     0.277 HD
BRANCH  33  36
HETATM   36  C17 UNL     1      39.144 -16.108  22.426  1.00  0.00     0.177 C 
HETATM   37  C18 UNL     1      40.465 -15.481  21.994  1.00  0.00     0.039 C 
HETATM   38  C19 UNL     1      39.303 -17.618  22.435  1.00  0.00     0.039 C 
ENDBRANCH  33  36
ENDBRANCH  32  33
ENDBRANCH  31  32
ENDBRANCH  30  31
ENDBRANCH  29  30
ENDBRANCH  10  29
TORSDOF 11
ENDMDL
MODEL 2
REMARK VINA RESULT: -7.013506062      3.382      7.818
REMARK  11 active torsions:
REMARK  status: ('A' for Active; 'I' for Inactive)
REMARK    1  A    between atoms: O1_2  and  C2_3 
REMARK    2  A    between atoms: C5_6  and  O2_7 
REMARK    3  A    between atoms: O2_7  and  C6_8 
REMARK    4  A    between atoms: C9_13  and  O3_14 
REMARK    5  A    between atoms: C12_19  and  O5_21 
REMARK    6  A    between atoms: O5_21  and  C14_22 
REMARK    7  A    between atoms: C14_22  and  C15_23 
REMARK    8  A    between atoms: C15_23  and  C16_24 
REMARK    9  A    between atoms: C16_24  and  N1_25 
REMARK   10  A    between atoms: N1_25  and  C17_28 
REMARK   11  A    between atoms: C21_35  and  O7_36 
ROOT
HETATM    1  C6  UNL     1      38.951 -18.473  26.415  1.00  0.00     0.129 A 
HETATM    2  C7  UNL     1      38.376 -17.412  27.046  1.00  0.00     0.068 A 
HETATM    3 BR1  UNL     1      37.467 -16.071  26.011  1.00  0.00    -0.046 Br
HETATM    4  C8  UNL     1      38.511 -17.285  28.407  1.00  0.00     0.065 A 
HETATM    5 BR2  UNL     1      37.691 -15.792  29.260  1.00  0.00    -0.046 Br
HETATM    6  C9  UNL     1      39.245 -18.247  29.155  1.00  0.00     0.103 A 
HETATM    7  C10 UNL     1      39.811 -19.297  28.490  1.00  0.00     0.102 A 
HETATM    8  C11 UNL     1      39.683 -19.437  27.135  1.00  0.00     0.128 A 
HETATM    9  O4  UNL     1      40.277 -20.529  26.480  1.00  0.00    -0.292 OA
HETATM   10  C12 UNL     1      41.398 -21.217  27.031  1.00  0.00     0.252 C 
HETATM   11  C13 UNL     1      41.432 -22.583  26.376  1.00  0.00     0.107 C 
HETATM   12  N2  UNL     1      41.161 -21.410  28.463  1.00  0.00    -0.302 N 
ATOM     13  H2  UNL     1      41.400 -22.287  28.926  1.00  0.00     0.168 HD
HETATM   14  C20 UNL     1      40.571 -20.305  29.199  1.00  0.00     0.261 C 
HETATM   15  O6  UNL     1      40.768 -20.308  30.416  1.00  0.00    -0.267 OA
ENDROOT
BRANCH   1  16
HETATM   16  O2  UNL     1      38.854 -18.677  25.079  1.00  0.00    -0.304 OA
BRANCH  16  17
HETATM   17  C5  UNL     1      37.735 -19.207  24.467  1.00  0.00     0.109 A 
HETATM   18  C4  UNL     1      37.093 -20.307  25.085  1.00  0.00     0.043 A 
HETATM   19  C3  UNL     1      35.978 -20.904  24.560  1.00  0.00     0.039 A 
HETATM   20  C2  UNL     1      35.424 -20.445  23.384  1.00  0.00     0.071 A 
HETATM   21  C23 UNL     1      36.035 -19.378  22.772  1.00  0.00     0.076 A 
HETATM   22  C21 UNL     1      37.175 -18.771  23.311  1.00  0.00     0.104 A 
BRANCH  20  23
HETATM   23  O1  UNL     1      34.284 -21.044  22.834  1.00  0.00    -0.356 OA
HETATM   24  C1  UNL     1      34.237 -22.463  22.790  1.00  0.00     0.210 C 
ENDBRANCH  20  23
BRANCH  22  25
HETATM   25  O7  UNL     1      37.729 -17.686  22.623  1.00  0.00    -0.353 OA
HETATM   26  C22 UNL     1      38.662 -17.830  21.597  1.00  0.00     0.210 C 
ENDBRANCH  22  25
ENDBRANCH  16  17
ENDBRANCH   1  16
BRANCH   6  27
HETATM   27  O3  UNL     1      39.316 -18.024  30.494  1.00  0.00    -0.358 OA
ATOM     28  H3  UNL     1      39.655 -18.743  31.014  1.00  0.00     0.217 HD
ENDBRANCH   6  27
BRANCH  10  29
HETATM   29  O5  UNL     1      42.576 -20.509  26.804  1.00  0.00    -0.338 OA
BRANCH  29  30
HETATM   30  C14 UNL     1      43.576 -21.362  26.293  1.00  0.00     0.175 C 
BRANCH  30  31
HETATM   31  C15 UNL     1      44.918 -20.725  26.470  1.00  0.00     0.054 C 
BRANCH  31  32
HETATM   32  C16 UNL     1      45.270 -20.391  27.894  1.00  0.00     0.235 C 
BRANCH  32  33
HETATM   33  N1  UNL     1      44.738 -21.373  28.788  1.00  0.00    -0.072 N 
ATOM     34  H12 UNL     1      43.986 -21.912  28.359  1.00  0.00     0.277 HD
ATOM     35  H11 UNL     1      45.395 -22.136  28.951  1.00  0.00     0.277 HD
BRANCH  33  36
HETATM   36  C17 UNL     1      44.322 -20.750  30.011  1.00  0.00     0.177 C 
HETATM   37  C18 UNL     1      43.918 -21.807  31.034  1.00  0.00     0.039 C 
HETATM   38  C19 UNL     1      45.503 -19.969  30.562  1.00  0.00     0.039 C 
ENDBRANCH  33  36
ENDBRANCH  32  33
ENDBRANCH  31  32
ENDBRANCH  30  31
ENDBRANCH  29  30
ENDBRANCH  10  29
TORSDOF 11
ENDMDL
MODEL 3
REMARK VINA RESULT: -6.891526363      3.329      8.032
REMARK  11 active torsions:
REMARK  status: ('A' for Active; 'I' for Inactive)
REMARK    1  A    between atoms: O1_2  and  C2_3 
REMARK    2  A    between atoms: C5_6  and  O2_7 
REMARK    3  A    between atoms: O2_7  and  C6_8 
REMARK    4  A    between atoms: C9_13  and  O3_14 
REMARK    5  A    between atoms: C12_19  and  O5_21 
REMARK    6  A    between atoms: O5_21  and  C14_22 
REMARK    7  A    between atoms: C14_22  and  C15_23 
REMARK    8  A    between atoms: C15_23  and  C16_24 
REMARK    9  A    between atoms: C16_24  and  N1_25 
REMARK   10  A    between atoms: N1_25  and  C17_28 
REMARK   11  A    between atoms: C21_35  and  O7_36 
ROOT
HETATM    1  C6  UNL     1      38.983 -18.957  26.405  1.00  0.00     0.129 A 
HETATM    2  C7  UNL     1      38.477 -17.799  26.911  1.00  0.00     0.068 A 
HETATM    3 BR1  UNL     1      37.645 -16.530  25.730  1.00  0.00    -0.046 Br
HETATM    4  C8  UNL     1      38.629 -17.527  28.249  1.00  0.00     0.065 A 
HETATM    5 BR2  UNL     1      37.907 -15.900  28.927  1.00  0.00    -0.046 Br
HETATM    6  C9  UNL     1      39.308 -18.441  29.102  1.00  0.00     0.103 A 
HETATM    7  C10 UNL     1      39.805 -19.592  28.560  1.00  0.00     0.102 A 
HETATM    8  C11 UNL     1      39.660 -19.876  27.229  1.00  0.00     0.128 A 
HETATM    9  O4  UNL     1      40.183 -21.069  26.702  1.00  0.00    -0.292 OA
HETATM   10  C12 UNL     1      41.263 -21.758  27.328  1.00  0.00     0.252 C 
HETATM   11  C13 UNL     1      41.210 -23.188  26.832  1.00  0.00     0.107 C 
HETATM   12  N2  UNL     1      41.024 -21.772  28.773  1.00  0.00    -0.302 N 
ATOM     13  H2  UNL     1      41.213 -22.604  29.332  1.00  0.00     0.168 HD
HETATM   14  C20 UNL     1      40.508 -20.558  29.379  1.00  0.00     0.261 C 
HETATM   15  O6  UNL     1      40.711 -20.435  30.589  1.00  0.00    -0.267 OA
ENDROOT
BRANCH   1  16
HETATM   16  O2  UNL     1      38.866 -19.305  25.100  1.00  0.00    -0.304 OA
BRANCH  16  17
HETATM   17  C5  UNL     1      37.694 -19.771  24.537  1.00  0.00     0.109 A 
HETATM   18  C4  UNL     1      36.955 -20.749  25.246  1.00  0.00     0.043 A 
HETATM   19  C3  UNL     1      35.782 -21.275  24.775  1.00  0.00     0.039 A 
HETATM   20  C2  UNL     1      35.262 -20.862  23.566  1.00  0.00     0.071 A 
HETATM   21  C23 UNL     1      35.967 -19.914  22.867  1.00  0.00     0.076 A 
HETATM   22  C21 UNL     1      37.167 -19.379  23.351  1.00  0.00     0.104 A 
BRANCH  20  23
HETATM   23  O1  UNL     1      34.064 -21.390  23.071  1.00  0.00    -0.356 OA
HETATM   24  C1  UNL     1      34.050 -22.757  22.686  1.00  0.00     0.210 C 
ENDBRANCH  20  23
BRANCH  22  25
HETATM   25  O7  UNL     1      37.816 -18.414  22.573  1.00  0.00    -0.353 OA
HETATM   26  C22 UNL     1      38.623 -18.730  21.482  1.00  0.00     0.210 C 
ENDBRANCH  22  25
ENDBRANCH  16  17
ENDBRANCH   1  16
BRANCH   6  27
HETATM   27  O3  UNL     1      39.401 -18.073  30.407  1.00  0.00    -0.358 OA
ATOM     28  H3  UNL     1      38.577 -17.988  30.871  1.00  0.00     0.217 HD
ENDBRANCH   6  27
BRANCH  10  29
HETATM   29  O5  UNL     1      42.480 -21.153  27.023  1.00  0.00    -0.338 OA
BRANCH  29  30
HETATM   30  C14 UNL     1      43.537 -21.794  27.703  1.00  0.00     0.175 C 
BRANCH  30  31
HETATM   31  C15 UNL     1      44.499 -20.771  28.217  1.00  0.00     0.054 C 
BRANCH  31  32
HETATM   32  C16 UNL     1      44.366 -20.467  29.684  1.00  0.00     0.235 C 
BRANCH  32  33
HETATM   33  N1  UNL     1      43.862 -21.603  30.390  1.00  0.00    -0.072 N 
ATOM     34  H12 UNL     1      43.060 -21.365  30.974  1.00  0.00     0.277 HD
ATOM     35  H11 UNL     1      43.402 -22.266  29.767  1.00  0.00     0.277 HD
BRANCH  33  36
HETATM   36  C17 UNL     1      44.914 -22.218  31.147  1.00  0.00     0.177 C 
HETATM   37  C18 UNL     1      44.950 -21.652  32.562  1.00  0.00     0.039 C 
HETATM   38  C19 UNL     1      44.623 -23.707  31.227  1.00  0.00     0.039 C 
ENDBRANCH  33  36
ENDBRANCH  32  33
ENDBRANCH  31  32
ENDBRANCH  30  31
ENDBRANCH  29  30
ENDBRANCH  10  29
TORSDOF 11
ENDMDL
MODEL 4
REMARK VINA RESULT: -6.877901800      3.049      6.611
REMARK  11 active torsions:
REMARK  status: ('A' for Active; 'I' for Inactive)
REMARK    1  A    between atoms: O1_2  and  C2_3 
REMARK    2  A    between atoms: C5_6  and  O2_7 
REMARK    3  A    between atoms: O2_7  and  C6_8 
REMARK    4  A    between atoms: C9_13  and  O3_14 
REMARK    5  A    between atoms: C12_19  and  O5_21 
REMARK    6  A    between atoms: O5_21  and  C14_22 
REMARK    7  A    between atoms: C14_22  and  C15_23 
REMARK    8  A    between atoms: C15_23  and  C16_24 
REMARK    9  A    between atoms: C16_24  and  N1_25 
REMARK   10  A    between atoms: N1_25  and  C17_28 
REMARK   11  A    between atoms: C21_35  and  O7_36 
ROOT
HETATM    1  C6  UNL     1      39.650 -22.878  26.577  1.00  0.00     0.129 A 
HETATM    2  C7  UNL     1      39.826 -23.944  27.406  1.00  0.00     0.068 A 
HETATM    3 BR1  UNL     1      39.580 -25.725  26.727  1.00  0.00    -0.046 Br
HETATM    4  C8  UNL     1      40.114 -23.724  28.731  1.00  0.00     0.065 A 
HETATM    5 BR2  UNL     1      40.358 -25.237  29.864  1.00  0.00    -0.046 Br
HETATM    6  C9  UNL     1      40.225 -22.401  29.239  1.00  0.00     0.103 A 
HETATM    7  C10 UNL     1      40.040 -21.354  28.380  1.00  0.00     0.102 A 
HETATM    8  C11 UNL     1      39.754 -21.558  27.058  1.00  0.00     0.128 A 
HETATM    9  O4  UNL     1      39.569 -20.461  26.200  1.00  0.00    -0.292 OA
HETATM   10  C12 UNL     1      39.169 -19.183  26.690  1.00  0.00     0.252 C 
HETATM   11  C13 UNL     1      39.570 -18.171  25.635  1.00  0.00     0.107 C 
HETATM   12  N2  UNL     1      39.936 -18.896  27.904  1.00  0.00    -0.302 N 
ATOM     13  H2  UNL     1      40.313 -17.965  28.084  1.00  0.00     0.168 HD
HETATM   14  C20 UNL     1      40.138 -19.986  28.841  1.00  0.00     0.261 C 
HETATM   15  O6  UNL     1      40.390 -19.653  30.002  1.00  0.00    -0.267 OA
ENDROOT
BRANCH   1  16
HETATM   16  O2  UNL     1      39.376 -23.008  25.257  1.00  0.00    -0.304 OA
BRANCH  16  17
HETATM   17  C5  UNL     1      38.124 -23.324  24.764  1.00  0.00     0.109 A 
HETATM   18  C4  UNL     1      36.993 -22.769  25.411  1.00  0.00     0.043 A 
HETATM   19  C3  UNL     1      35.710 -23.018  25.002  1.00  0.00     0.039 A 
HETATM   20  C2  UNL     1      35.466 -23.836  23.919  1.00  0.00     0.071 A 
HETATM   21  C23 UNL     1      36.552 -24.381  23.281  1.00  0.00     0.076 A 
HETATM   22  C21 UNL     1      37.862 -24.125  23.702  1.00  0.00     0.104 A 
BRANCH  20  23
HETATM   23  O1  UNL     1      34.160 -24.101  23.488  1.00  0.00    -0.356 OA
HETATM   24  C1  UNL     1      33.662 -23.357  22.384  1.00  0.00     0.210 C 
ENDBRANCH  20  23
BRANCH  22  25
HETATM   25  O7  UNL     1      38.909 -24.720  22.990  1.00  0.00    -0.353 OA
HETATM   26  C22 UNL     1      39.109 -26.098  22.937  1.00  0.00     0.210 C 
ENDBRANCH  22  25
ENDBRANCH  16  17
ENDBRANCH   1  16
BRANCH   6  27
HETATM   27  O3  UNL     1      40.513 -22.299  30.564  1.00  0.00    -0.358 OA
ATOM     28  H3  UNL     1      41.279 -21.782  30.781  1.00  0.00     0.217 HD
ENDBRANCH   6  27
BRANCH  10  29
HETATM   29  O5  UNL     1      37.799 -19.152  26.937  1.00  0.00    -0.338 OA
BRANCH  29  30
HETATM   30  C14 UNL     1      37.297 -17.843  26.783  1.00  0.00     0.175 C 
BRANCH  30  31
HETATM   31  C15 UNL     1      36.987 -17.262  28.126  1.00  0.00     0.054 C 
BRANCH  31  32
HETATM   32  C16 UNL     1      36.538 -15.827  28.098  1.00  0.00     0.235 C 
BRANCH  32  33
HETATM   33  N1  UNL     1      35.432 -15.628  28.983  1.00  0.00    -0.072 N 
ATOM     34  H12 UNL     1      34.583 -16.077  28.639  1.00  0.00     0.277 HD
ATOM     35  H11 UNL     1      35.538 -16.152  29.850  1.00  0.00     0.277 HD
BRANCH  33  36
HETATM   36  C17 UNL     1      35.239 -14.227  29.221  1.00  0.00     0.177 C 
HETATM   37  C18 UNL     1      35.452 -13.435  27.936  1.00  0.00     0.039 C 
HETATM   38  C19 UNL     1      33.806 -14.025  29.684  1.00  0.00     0.039 C 
ENDBRANCH  33  36
ENDBRANCH  32  33
ENDBRANCH  31  32
ENDBRANCH  30  31
ENDBRANCH  29  30
ENDBRANCH  10  29
TORSDOF 11
ENDMDL
MODEL 5
REMARK VINA RESULT: -6.820953421      2.159      3.482
REMARK  11 active torsions:
REMARK  status: ('A' for Active; 'I' for Inactive)
REMARK    1  A    between atoms: O1_2  and  C2_3 
REMARK    2  A    between atoms: C5_6  and  O2_7 
REMARK    3  A    between atoms: O2_7  and  C6_8 
REMARK    4  A    between atoms: C9_13  and  O3_14 
REMARK    5  A    between atoms: C12_19  and  O5_21 
REMARK    6  A    between atoms: O5_21  and  C14_22 
REMARK    7  A    between atoms: C14_22  and  C15_23 
REMARK    8  A    between atoms: C15_23  and  C16_24 
REMARK    9  A    between atoms: C16_24  and  N1_25 
REMARK   10  A    between atoms: N1_25  and  C17_28 
REMARK   11  A    between atoms: C21_35  and  O7_36 
ROOT
HETATM    1  C6  UNL     1      40.396 -22.084  28.237  1.00  0.00     0.129 A 
HETATM    2  C7  UNL     1      40.360 -23.282  27.592  1.00  0.00     0.068 A 
HETATM    3 BR1  UNL     1      41.776 -24.552  27.870  1.00  0.00    -0.046 Br
HETATM    4  C8  UNL     1      39.344 -23.537  26.704  1.00  0.00     0.065 A 
HETATM    5 BR2  UNL     1      39.320 -25.225  25.820  1.00  0.00    -0.046 Br
HETATM    6  C9  UNL     1      38.339 -22.563  26.453  1.00  0.00     0.103 A 
HETATM    7  C10 UNL     1      38.407 -21.370  27.115  1.00  0.00     0.102 A 
HETATM    8  C11 UNL     1      39.412 -21.103  28.004  1.00  0.00     0.128 A 
HETATM    9  O4  UNL     1      39.454 -19.866  28.670  1.00  0.00    -0.292 OA
HETATM   10  C12 UNL     1      38.830 -18.702  28.133  1.00  0.00     0.252 C 
HETATM   11  C13 UNL     1      38.620 -17.750  29.293  1.00  0.00     0.107 C 
HETATM   12  N2  UNL     1      37.513 -19.083  27.618  1.00  0.00    -0.302 N 
ATOM     13  H2  UNL     1      36.697 -18.487  27.760  1.00  0.00     0.168 HD
HETATM   14  C20 UNL     1      37.413 -20.340  26.899  1.00  0.00     0.261 C 
HETATM   15  O6  UNL     1      36.454 -20.442  26.130  1.00  0.00    -0.267 OA
ENDROOT
BRANCH   1  16
HETATM   16  O2  UNL     1      41.356 -21.759  29.137  1.00  0.00    -0.304 OA
BRANCH  16  17
HETATM   17  C5  UNL     1      42.603 -21.283  28.783  1.00  0.00     0.109 A 
HETATM   18  C4  UNL     1      42.841 -20.981  27.420  1.00  0.00     0.043 A 
HETATM   19  C3  UNL     1      44.042 -20.505  26.966  1.00  0.00     0.039 A 
HETATM   20  C2  UNL     1      45.088 -20.293  27.840  1.00  0.00     0.071 A 
HETATM   21  C23 UNL     1      44.873 -20.580  29.165  1.00  0.00     0.076 A 
HETATM   22  C21 UNL     1      43.645 -21.069  29.625  1.00  0.00     0.104 A 
BRANCH  20  23
HETATM   23  O1  UNL     1      46.322 -19.806  27.391  1.00  0.00    -0.356 OA
HETATM   24  C1  UNL     1      46.605 -19.894  26.002  1.00  0.00     0.210 C 
ENDBRANCH  20  23
BRANCH  22  25
HETATM   25  O7  UNL     1      43.513 -21.330  30.993  1.00  0.00    -0.353 OA
HETATM   26  C22 UNL     1      44.601 -21.551  31.835  1.00  0.00     0.210 C 
ENDBRANCH  22  25
ENDBRANCH  16  17
ENDBRANCH   1  16
BRANCH   6  27
HETATM   27  O3  UNL     1      37.382 -22.919  25.556  1.00  0.00    -0.358 OA
ATOM     28  H3  UNL     1      36.880 -22.205  25.182  1.00  0.00     0.217 HD
ENDBRANCH   6  27
BRANCH  10  29
HETATM   29  O5  UNL     1      39.617 -18.132  27.137  1.00  0.00    -0.338 OA
BRANCH  29  30
HETATM   30  C14 UNL     1      39.592 -16.725  27.229  1.00  0.00     0.175 C 
BRANCH  30  31
HETATM   31  C15 UNL     1      39.010 -16.148  25.977  1.00  0.00     0.054 C 
BRANCH  31  32
HETATM   32  C16 UNL     1      37.938 -15.117  26.202  1.00  0.00     0.235 C 
BRANCH  32  33
HETATM   33  N1  UNL     1      36.911 -15.636  27.051  1.00  0.00    -0.072 N 
ATOM     34  H12 UNL     1      36.076 -15.895  26.525  1.00  0.00     0.277 HD
ATOM     35  H11 UNL     1      37.148 -16.557  27.419  1.00  0.00     0.277 HD
BRANCH  33  36
HETATM   36  C17 UNL     1      36.617 -14.698  28.096  1.00  0.00     0.177 C 
HETATM   37  C18 UNL     1      36.152 -13.372  27.505  1.00  0.00     0.039 C 
HETATM   38  C19 UNL     1      35.490 -15.276  28.937  1.00  0.00     0.039 C 
ENDBRANCH  33  36
ENDBRANCH  32  33
ENDBRANCH  31  32
ENDBRANCH  30  31
ENDBRANCH  29  30
ENDBRANCH  10  29
TORSDOF 11
ENDMDL
