MODEL 1
REMARK VINA RESULT: -10.368589759      0.000      0.000
REMARK  9 active torsions:
REMARK  status: ('A' for Active; 'I' for Inactive)
REMARK    1  A    between atoms: C1_2  and  C2_3 
REMARK       I    between atoms: C1_2  and  N2_27 
REMARK    2  A    between atoms: C2_3  and  C3_4 
REMARK    3  A    between atoms: C9_10  and  C10_11 
REMARK    4  A    between atoms: C10_11  and  C11_12 
REMARK    5  A    between atoms: C11_12  and  C12_13 
REMARK    6  A    between atoms: C12_13  and  N1_14 
REMARK    7  A    between atoms: N2_27  and  C25_29 
REMARK    8  A    between atoms: C25_29  and  C26_30 
REMARK    9  A    between atoms: C26_30  and  C27_31 
ROOT
HETATM    1  C3  UNL     1      29.181 -25.278  -8.671  1.00  0.00     0.007 C 
HETATM    2  C4  UNL     1      30.184 -25.158  -9.798  1.00  0.00     0.015 C 
HETATM    3  C5  UNL     1      31.050 -23.931  -9.634  1.00  0.00     0.019 C 
HETATM    4  C6  UNL     1      32.156 -23.945 -10.626  1.00  0.00     0.009 C 
HETATM    5  C7  UNL     1      33.282 -24.879 -10.376  1.00  0.00     0.005 C 
HETATM    6  C8  UNL     1      33.687 -25.007  -8.915  1.00  0.00     0.039 C 
HETATM    7  C9  UNL     1      33.095 -23.836  -8.177  1.00  0.00    -0.055 C 
HETATM    8  C19 UNL     1      31.640 -23.969  -8.259  1.00  0.00    -0.051 C 
HETATM    9  C20 UNL     1      30.797 -24.127  -7.265  1.00  0.00    -0.009 C 
HETATM   10  C21 UNL     1      29.347 -24.252  -7.608  1.00  0.00    -0.018 C 
HETATM   11  C22 UNL     1      28.539 -24.524  -6.340  1.00  0.00     0.014 C 
HETATM   12  C23 UNL     1      28.355 -23.028  -6.235  1.00  0.00     0.002 C 
HETATM   13  C24 UNL     1      28.693 -22.940  -7.714  1.00  0.00     0.014 C 
ENDROOT
BRANCH   1  14
HETATM   14  C2  UNL     1      27.817 -25.294  -9.307  1.00  0.00     0.108 C 
BRANCH  14  15
HETATM   15  C1  UNL     1      26.937 -26.196  -8.484  1.00  0.00     0.217 C 
HETATM   16  O1  UNL     1      25.818 -25.797  -8.063  1.00  0.00    -0.274 OA
HETATM   17  N2  UNL     1      27.371 -27.509  -8.180  1.00  0.00    -0.361 N 
ATOM     18  H2  UNL     1      28.283 -27.789  -8.541  1.00  0.00     0.162 HD
BRANCH  17  19
HETATM   19  C25 UNL     1      26.654 -28.479  -7.415  1.00  0.00     0.123 C 
BRANCH  19  20
HETATM   20  C26 UNL     1      25.858 -29.454  -8.255  1.00  0.00     0.024 C 
BRANCH  20  21
HETATM   21  C27 UNL     1      24.480 -28.975  -8.578  1.00  0.00    -0.010 C 
HETATM   22  C28 UNL     1      23.802 -30.075  -9.410  1.00  0.00     0.032 C 
HETATM   23  C29 UNL     1      22.387 -29.562  -9.665  1.00  0.00     0.232 C 
HETATM   24  N3  UNL     1      21.634 -29.714  -8.445  1.00  0.00    -0.075 N 
HETATM   25  C30 UNL     1      22.446 -29.635  -7.265  1.00  0.00     0.232 C 
ATOM     26  H32 UNL     1      20.869 -29.040  -8.404  1.00  0.00     0.277 HD
ATOM     27  H31 UNL     1      21.095 -30.580  -8.458  1.00  0.00     0.277 HD
HETATM   28  C31 UNL     1      23.615 -28.677  -7.399  1.00  0.00     0.032 C 
ENDBRANCH  20  21
ENDBRANCH  19  20
ENDBRANCH  17  19
ENDBRANCH  14  15
ENDBRANCH   1  14
BRANCH   7  29
HETATM   29  C10 UNL     1      33.738 -23.369  -6.966  1.00  0.00    -0.018 C 
BRANCH  29  30
HETATM   30  C11 UNL     1      35.114 -22.875  -6.892  1.00  0.00     0.047 C 
BRANCH  30  31
HETATM   31  C12 UNL     1      35.304 -21.378  -6.883  1.00  0.00     0.125 C 
BRANCH  31  32
HETATM   32  N1  UNL     1      35.231 -20.815  -8.198  1.00  0.00    -0.393 N 
HETATM   33  C13 UNL     1      36.030 -21.497  -9.133  1.00  0.00     0.122 C 
HETATM   34  C14 UNL     1      35.279 -21.766 -10.445  1.00  0.00     0.020 C 
HETATM   35  C15 UNL     1      34.358 -20.576 -10.669  1.00  0.00     0.002 C 
HETATM   36  C16 UNL     1      35.222 -19.364 -10.789  1.00  0.00     0.005 C 
HETATM   37  C17 UNL     1      35.661 -18.769  -9.500  1.00  0.00     0.044 C 
HETATM   38  C18 UNL     1      35.151 -19.410  -8.260  1.00  0.00     0.058 C 
ENDBRANCH  31  32
ENDBRANCH  30  31
ENDBRANCH  29  30
ENDBRANCH   7  29
TORSDOF 9
ENDMDL
MODEL 2
REMARK VINA RESULT: -10.222761945      0.898      1.110
REMARK  9 active torsions:
REMARK  status: ('A' for Active; 'I' for Inactive)
REMARK    1  A    between atoms: C1_2  and  C2_3 
REMARK       I    between atoms: C1_2  and  N2_27 
REMARK    2  A    between atoms: C2_3  and  C3_4 
REMARK    3  A    between atoms: C9_10  and  C10_11 
REMARK    4  A    between atoms: C10_11  and  C11_12 
REMARK    5  A    between atoms: C11_12  and  C12_13 
REMARK    6  A    between atoms: C12_13  and  N1_14 
REMARK    7  A    between atoms: N2_27  and  C25_29 
REMARK    8  A    between atoms: C25_29  and  C26_30 
REMARK    9  A    between atoms: C26_30  and  C27_31 
ROOT
HETATM    1  C3  UNL     1      29.200 -25.371  -8.627  1.00  0.00     0.007 C 
HETATM    2  C4  UNL     1      30.192 -25.245  -9.763  1.00  0.00     0.015 C 
HETATM    3  C5  UNL     1      31.030 -23.996  -9.624  1.00  0.00     0.019 C 
HETATM    4  C6  UNL     1      32.129 -24.000 -10.625  1.00  0.00     0.009 C 
HETATM    5  C7  UNL     1      33.278 -24.903 -10.369  1.00  0.00     0.005 C 
HETATM    6  C8  UNL     1      33.696 -25.000  -8.910  1.00  0.00     0.039 C 
HETATM    7  C9  UNL     1      33.083 -23.832  -8.185  1.00  0.00    -0.055 C 
HETATM    8  C19 UNL     1      31.632 -23.999  -8.254  1.00  0.00    -0.051 C 
HETATM    9  C20 UNL     1      30.799 -24.161  -7.251  1.00  0.00    -0.009 C 
HETATM   10  C21 UNL     1      29.350 -24.325  -7.581  1.00  0.00    -0.018 C 
HETATM   11  C22 UNL     1      28.557 -24.596  -6.303  1.00  0.00     0.014 C 
HETATM   12  C23 UNL     1      28.340 -23.103  -6.220  1.00  0.00     0.002 C 
HETATM   13  C24 UNL     1      28.665 -23.030  -7.702  1.00  0.00     0.014 C 
ENDROOT
BRANCH   1  14
HETATM   14  C2  UNL     1      27.832 -25.428  -9.252  1.00  0.00     0.108 C 
BRANCH  14  15
HETATM   15  C1  UNL     1      27.002 -26.396  -8.454  1.00  0.00     0.217 C 
HETATM   16  O1  UNL     1      25.830 -26.101  -8.095  1.00  0.00    -0.274 OA
HETATM   17  N2  UNL     1      27.543 -27.657  -8.102  1.00  0.00    -0.361 N 
ATOM     18  H2  UNL     1      28.495 -27.853  -8.413  1.00  0.00     0.162 HD
BRANCH  17  19
HETATM   19  C25 UNL     1      26.886 -28.679  -7.353  1.00  0.00     0.123 C 
BRANCH  19  20
HETATM   20  C26 UNL     1      25.873 -29.469  -8.153  1.00  0.00     0.024 C 
BRANCH  20  21
HETATM   21  C27 UNL     1      24.860 -30.169  -7.307  1.00  0.00    -0.010 C 
HETATM   22  C28 UNL     1      23.485 -29.913  -7.944  1.00  0.00     0.032 C 
HETATM   23  C29 UNL     1      22.498 -30.689  -7.076  1.00  0.00     0.232 C 
HETATM   24  N3  UNL     1      22.631 -32.089  -7.397  1.00  0.00    -0.075 N 
HETATM   25  C30 UNL     1      23.948 -32.444  -7.842  1.00  0.00     0.232 C 
ATOM     26  H32 UNL     1      22.345 -32.671  -6.610  1.00  0.00     0.277 HD
ATOM     27  H31 UNL     1      21.928 -32.372  -8.081  1.00  0.00     0.277 HD
HETATM   28  C31 UNL     1      25.048 -31.643  -7.172  1.00  0.00     0.032 C 
ENDBRANCH  20  21
ENDBRANCH  19  20
ENDBRANCH  17  19
ENDBRANCH  14  15
ENDBRANCH   1  14
BRANCH   7  29
HETATM   29  C10 UNL     1      33.724 -23.331  -6.987  1.00  0.00    -0.018 C 
BRANCH  29  30
HETATM   30  C11 UNL     1      35.100 -22.838  -6.924  1.00  0.00     0.047 C 
BRANCH  30  31
HETATM   31  C12 UNL     1      35.294 -21.342  -6.967  1.00  0.00     0.125 C 
BRANCH  31  32
HETATM   32  N1  UNL     1      35.248 -20.830  -8.305  1.00  0.00    -0.393 N 
HETATM   33  C13 UNL     1      36.069 -21.545  -9.196  1.00  0.00     0.122 C 
HETATM   34  C14 UNL     1      35.346 -21.865 -10.512  1.00  0.00     0.020 C 
HETATM   35  C15 UNL     1      34.429 -20.687 -10.801  1.00  0.00     0.002 C 
HETATM   36  C16 UNL     1      35.293 -19.479 -10.948  1.00  0.00     0.005 C 
HETATM   37  C17 UNL     1      35.704 -18.834  -9.674  1.00  0.00     0.044 C 
HETATM   38  C18 UNL     1      35.168 -19.428  -8.422  1.00  0.00     0.058 C 
ENDBRANCH  31  32
ENDBRANCH  30  31
ENDBRANCH  29  30
ENDBRANCH   7  29
TORSDOF 9
ENDMDL
MODEL 3
REMARK VINA RESULT: -10.068728532      0.658      1.226
REMARK  9 active torsions:
REMARK  status: ('A' for Active; 'I' for Inactive)
REMARK    1  A    between atoms: C1_2  and  C2_3 
REMARK       I    between atoms: C1_2  and  N2_27 
REMARK    2  A    between atoms: C2_3  and  C3_4 
REMARK    3  A    between atoms: C9_10  and  C10_11 
REMARK    4  A    between atoms: C10_11  and  C11_12 
REMARK    5  A    between atoms: C11_12  and  C12_13 
REMARK    6  A    between atoms: C12_13  and  N1_14 
REMARK    7  A    between atoms: N2_27  and  C25_29 
REMARK    8  A    between atoms: C25_29  and  C26_30 
REMARK    9  A    between atoms: C26_30  and  C27_31 
ROOT
HETATM    1  C3  UNL     1      29.158 -25.281  -8.686  1.00  0.00     0.007 C 
HETATM    2  C4  UNL     1      30.143 -25.155  -9.828  1.00  0.00     0.015 C 
HETATM    3  C5  UNL     1      31.015 -23.932  -9.668  1.00  0.00     0.019 C 
HETATM    4  C6  UNL     1      32.105 -23.942 -10.679  1.00  0.00     0.009 C 
HETATM    5  C7  UNL     1      33.231 -24.882 -10.456  1.00  0.00     0.005 C 
HETATM    6  C8  UNL     1      33.660 -25.024  -9.004  1.00  0.00     0.039 C 
HETATM    7  C9  UNL     1      33.086 -23.857  -8.246  1.00  0.00    -0.055 C 
HETATM    8  C19 UNL     1      31.630 -23.984  -8.305  1.00  0.00    -0.051 C 
HETATM    9  C20 UNL     1      30.802 -24.147  -7.297  1.00  0.00    -0.009 C 
HETATM   10  C21 UNL     1      29.346 -24.264  -7.617  1.00  0.00    -0.018 C 
HETATM   11  C22 UNL     1      28.559 -24.544  -6.338  1.00  0.00     0.014 C 
HETATM   12  C23 UNL     1      28.382 -23.048  -6.217  1.00  0.00     0.002 C 
HETATM   13  C24 UNL     1      28.696 -22.949  -7.700  1.00  0.00     0.014 C 
ENDROOT
BRANCH   1  14
HETATM   14  C2  UNL     1      27.784 -25.287  -9.298  1.00  0.00     0.108 C 
BRANCH  14  15
HETATM   15  C1  UNL     1      26.916 -26.196  -8.472  1.00  0.00     0.217 C 
HETATM   16  O1  UNL     1      25.804 -25.803  -8.029  1.00  0.00    -0.274 OA
HETATM   17  N2  UNL     1      27.354 -27.513  -8.188  1.00  0.00    -0.361 N 
ATOM     18  H2  UNL     1      28.261 -27.789  -8.566  1.00  0.00     0.162 HD
BRANCH  17  19
HETATM   19  C25 UNL     1      26.649 -28.491  -7.423  1.00  0.00     0.123 C 
BRANCH  19  20
HETATM   20  C26 UNL     1      25.825 -29.445  -8.260  1.00  0.00     0.024 C 
BRANCH  20  21
HETATM   21  C27 UNL     1      24.444 -28.949  -8.543  1.00  0.00    -0.010 C 
HETATM   22  C28 UNL     1      23.753 -30.008  -9.417  1.00  0.00     0.032 C 
HETATM   23  C29 UNL     1      22.337 -29.480  -9.631  1.00  0.00     0.232 C 
HETATM   24  N3  UNL     1      21.598 -29.687  -8.410  1.00  0.00    -0.075 N 
HETATM   25  C30 UNL     1      22.425 -29.666  -7.238  1.00  0.00     0.232 C 
ATOM     26  H32 UNL     1      20.836 -29.015  -8.328  1.00  0.00     0.277 HD
ATOM     27  H31 UNL     1      21.057 -30.551  -8.456  1.00  0.00     0.277 HD
HETATM   28  C31 UNL     1      23.594 -28.705  -7.341  1.00  0.00     0.032 C 
ENDBRANCH  20  21
ENDBRANCH  19  20
ENDBRANCH  17  19
ENDBRANCH  14  15
ENDBRANCH   1  14
BRANCH   7  29
HETATM   29  C10 UNL     1      33.751 -23.402  -7.043  1.00  0.00    -0.018 C 
BRANCH  29  30
HETATM   30  C11 UNL     1      35.107 -22.854  -6.999  1.00  0.00     0.047 C 
BRANCH  30  31
HETATM   31  C12 UNL     1      35.264 -21.389  -7.331  1.00  0.00     0.125 C 
BRANCH  31  32
HETATM   32  N1  UNL     1      35.842 -21.188  -8.627  1.00  0.00    -0.393 N 
HETATM   33  C13 UNL     1      35.262 -20.113  -9.326  1.00  0.00     0.122 C 
HETATM   34  C14 UNL     1      36.322 -19.208  -9.970  1.00  0.00     0.020 C 
HETATM   35  C15 UNL     1      37.465 -20.115 -10.398  1.00  0.00     0.002 C 
HETATM   36  C16 UNL     1      36.914 -21.083 -11.393  1.00  0.00     0.005 C 
HETATM   37  C17 UNL     1      36.212 -22.257 -10.814  1.00  0.00     0.044 C 
HETATM   38  C18 UNL     1      36.188 -22.357  -9.332  1.00  0.00     0.058 C 
ENDBRANCH  31  32
ENDBRANCH  30  31
ENDBRANCH  29  30
ENDBRANCH   7  29
TORSDOF 9
ENDMDL
MODEL 4
REMARK VINA RESULT: -9.928421493      1.574      1.972
REMARK  9 active torsions:
REMARK  status: ('A' for Active; 'I' for Inactive)
REMARK    1  A    between atoms: C1_2  and  C2_3 
REMARK       I    between atoms: C1_2  and  N2_27 
REMARK    2  A    between atoms: C2_3  and  C3_4 
REMARK    3  A    between atoms: C9_10  and  C10_11 
REMARK    4  A    between atoms: C10_11  and  C11_12 
REMARK    5  A    between atoms: C11_12  and  C12_13 
REMARK    6  A    between atoms: C12_13  and  N1_14 
REMARK    7  A    between atoms: N2_27  and  C25_29 
REMARK    8  A    between atoms: C25_29  and  C26_30 
REMARK    9  A    between atoms: C26_30  and  C27_31 
ROOT
HETATM    1  C3  UNL     1      28.763 -25.273  -8.572  1.00  0.00     0.007 C 
HETATM    2  C4  UNL     1      29.298 -25.077  -9.974  1.00  0.00     0.015 C 
HETATM    3  C5  UNL     1      30.125 -23.817 -10.074  1.00  0.00     0.019 C 
HETATM    4  C6  UNL     1      30.808 -23.753 -11.393  1.00  0.00     0.009 C 
HETATM    5  C7  UNL     1      31.979 -24.642 -11.596  1.00  0.00     0.005 C 
HETATM    6  C8  UNL     1      32.879 -24.793 -10.379  1.00  0.00     0.039 C 
HETATM    7  C9  UNL     1      32.550 -23.671  -9.431  1.00  0.00    -0.055 C 
HETATM    8  C19 UNL     1      31.166 -23.867  -9.000  1.00  0.00    -0.051 C 
HETATM    9  C20 UNL     1      30.735 -24.090  -7.779  1.00  0.00    -0.009 C 
HETATM   10  C21 UNL     1      29.262 -24.271  -7.594  1.00  0.00    -0.018 C 
HETATM   11  C22 UNL     1      28.965 -24.615  -6.135  1.00  0.00     0.014 C 
HETATM   12  C23 UNL     1      28.782 -23.132  -5.909  1.00  0.00     0.002 C 
HETATM   13  C24 UNL     1      28.571 -22.988  -7.406  1.00  0.00     0.014 C 
ENDROOT
BRANCH   1  14
HETATM   14  C2  UNL     1      27.265 -25.333  -8.685  1.00  0.00     0.108 C 
BRANCH  14  15
HETATM   15  C1  UNL     1      26.830 -26.726  -8.317  1.00  0.00     0.217 C 
HETATM   16  O1  UNL     1      27.674 -27.655  -8.194  1.00  0.00    -0.274 OA
HETATM   17  N2  UNL     1      25.456 -26.997  -8.103  1.00  0.00    -0.361 N 
ATOM     18  H2  UNL     1      24.810 -26.215  -8.214  1.00  0.00     0.162 HD
BRANCH  17  19
HETATM   19  C25 UNL     1      24.890 -28.258  -7.750  1.00  0.00     0.123 C 
BRANCH  19  20
HETATM   20  C26 UNL     1      24.331 -29.030  -8.926  1.00  0.00     0.024 C 
BRANCH  20  21
HETATM   21  C27 UNL     1      24.273 -30.505  -8.697  1.00  0.00    -0.010 C 
HETATM   22  C28 UNL     1      25.144 -30.807  -7.467  1.00  0.00     0.032 C 
HETATM   23  C29 UNL     1      25.008 -32.311  -7.247  1.00  0.00     0.232 C 
HETATM   24  N3  UNL     1      23.713 -32.557  -6.662  1.00  0.00    -0.075 N 
HETATM   25  C30 UNL     1      22.727 -31.587  -7.042  1.00  0.00     0.232 C 
ATOM     26  H32 UNL     1      23.392 -33.502  -6.875  1.00  0.00     0.277 HD
ATOM     27  H31 UNL     1      23.781 -32.627  -5.647  1.00  0.00     0.277 HD
HETATM   28  C31 UNL     1      22.910 -31.061  -8.454  1.00  0.00     0.032 C 
ENDBRANCH  20  21
ENDBRANCH  19  20
ENDBRANCH  17  19
ENDBRANCH  14  15
ENDBRANCH   1  14
BRANCH   7  29
HETATM   29  C10 UNL     1      33.565 -23.209  -8.507  1.00  0.00    -0.018 C 
BRANCH  29  30
HETATM   30  C11 UNL     1      34.858 -22.650  -8.902  1.00  0.00     0.047 C 
BRANCH  30  31
HETATM   31  C12 UNL     1      34.965 -21.145  -8.955  1.00  0.00     0.125 C 
BRANCH  31  32
HETATM   32  N1  UNL     1      34.495 -20.613 -10.200  1.00  0.00    -0.393 N 
HETATM   33  C13 UNL     1      35.034 -21.275 -11.319  1.00  0.00     0.122 C 
HETATM   34  C14 UNL     1      33.958 -21.605 -12.363  1.00  0.00     0.020 C 
HETATM   35  C15 UNL     1      32.952 -20.466 -12.325  1.00  0.00     0.002 C 
HETATM   36  C16 UNL     1      33.683 -19.216 -12.691  1.00  0.00     0.005 C 
HETATM   37  C17 UNL     1      34.435 -18.575 -11.582  1.00  0.00     0.044 C 
HETATM   38  C18 UNL     1      34.329 -19.215 -10.245  1.00  0.00     0.058 C 
ENDBRANCH  31  32
ENDBRANCH  30  31
ENDBRANCH  29  30
ENDBRANCH   7  29
TORSDOF 9
ENDMDL
MODEL 5
REMARK VINA RESULT: -9.909531074      1.315      1.840
REMARK  9 active torsions:
REMARK  status: ('A' for Active; 'I' for Inactive)
REMARK    1  A    between atoms: C1_2  and  C2_3 
REMARK       I    between atoms: C1_2  and  N2_27 
REMARK    2  A    between atoms: C2_3  and  C3_4 
REMARK    3  A    between atoms: C9_10  and  C10_11 
REMARK    4  A    between atoms: C10_11  and  C11_12 
REMARK    5  A    between atoms: C11_12  and  C12_13 
REMARK    6  A    between atoms: C12_13  and  N1_14 
REMARK    7  A    between atoms: N2_27  and  C25_29 
REMARK    8  A    between atoms: C25_29  and  C26_30 
REMARK    9  A    between atoms: C26_30  and  C27_31 
ROOT
HETATM    1  C3  UNL     1      28.693 -25.273  -8.579  1.00  0.00     0.007 C 
HETATM    2  C4  UNL     1      29.224 -25.076  -9.982  1.00  0.00     0.015 C 
HETATM    3  C5  UNL     1      30.055 -23.819 -10.084  1.00  0.00     0.019 C 
HETATM    4  C6  UNL     1      30.734 -23.756 -11.404  1.00  0.00     0.009 C 
HETATM    5  C7  UNL     1      31.901 -24.648 -11.612  1.00  0.00     0.005 C 
HETATM    6  C8  UNL     1      32.805 -24.804 -10.399  1.00  0.00     0.039 C 
HETATM    7  C9  UNL     1      32.482 -23.682  -9.448  1.00  0.00    -0.055 C 
HETATM    8  C19 UNL     1      31.099 -23.873  -9.013  1.00  0.00    -0.051 C 
HETATM    9  C20 UNL     1      30.671 -24.096  -7.791  1.00  0.00    -0.009 C 
HETATM   10  C21 UNL     1      29.198 -24.273  -7.601  1.00  0.00    -0.018 C 
HETATM   11  C22 UNL     1      28.905 -24.617  -6.142  1.00  0.00     0.014 C 
HETATM   12  C23 UNL     1      28.727 -23.134  -5.913  1.00  0.00     0.002 C 
HETATM   13  C24 UNL     1      28.512 -22.988  -7.410  1.00  0.00     0.014 C 
ENDROOT
BRANCH   1  14
HETATM   14  C2  UNL     1      27.194 -25.327  -8.687  1.00  0.00     0.108 C 
BRANCH  14  15
HETATM   15  C1  UNL     1      26.754 -26.711  -8.292  1.00  0.00     0.217 C 
HETATM   16  O1  UNL     1      27.594 -27.640  -8.148  1.00  0.00    -0.274 OA
HETATM   17  N2  UNL     1      25.379 -26.973  -8.077  1.00  0.00    -0.361 N 
ATOM     18  H2  UNL     1      24.735 -26.192  -8.205  1.00  0.00     0.162 HD
BRANCH  17  19
HETATM   19  C25 UNL     1      24.807 -28.226  -7.700  1.00  0.00     0.123 C 
BRANCH  19  20
HETATM   20  C26 UNL     1      24.594 -29.175  -8.859  1.00  0.00     0.024 C 
BRANCH  20  21
HETATM   21  C27 UNL     1      23.311 -29.937  -8.776  1.00  0.00    -0.010 C 
HETATM   22  C28 UNL     1      22.459 -29.271  -7.684  1.00  0.00     0.032 C 
HETATM   23  C29 UNL     1      21.146 -30.050  -7.678  1.00  0.00     0.232 C 
HETATM   24  N3  UNL     1      20.383 -29.640  -8.831  1.00  0.00    -0.075 N 
HETATM   25  C30 UNL     1      21.202 -29.219  -9.931  1.00  0.00     0.232 C 
ATOM     26  H32 UNL     1      19.738 -30.376  -9.120  1.00  0.00     0.277 HD
ATOM     27  H31 UNL     1      19.710 -28.915  -8.581  1.00  0.00     0.277 HD
HETATM   28  C31 UNL     1      22.510 -29.979 -10.035  1.00  0.00     0.032 C 
ENDBRANCH  20  21
ENDBRANCH  19  20
ENDBRANCH  17  19
ENDBRANCH  14  15
ENDBRANCH   1  14
BRANCH   7  29
HETATM   29  C10 UNL     1      33.502 -23.224  -8.527  1.00  0.00    -0.018 C 
BRANCH  29  30
HETATM   30  C11 UNL     1      34.805 -22.693  -8.925  1.00  0.00     0.047 C 
BRANCH  30  31
HETATM   31  C12 UNL     1      34.934 -21.191  -9.017  1.00  0.00     0.125 C 
BRANCH  31  32
HETATM   32  N1  UNL     1      34.429 -20.680 -10.257  1.00  0.00    -0.393 N 
HETATM   33  C13 UNL     1      35.001 -21.303 -11.381  1.00  0.00     0.122 C 
HETATM   34  C14 UNL     1      33.942 -21.690 -12.424  1.00  0.00     0.020 C 
HETATM   35  C15 UNL     1      32.871 -20.612 -12.376  1.00  0.00     0.002 C 
HETATM   36  C16 UNL     1      33.527 -19.320 -12.737  1.00  0.00     0.005 C 
HETATM   37  C17 UNL     1      34.244 -18.642 -11.627  1.00  0.00     0.044 C 
HETATM   38  C18 UNL     1      34.181 -19.295 -10.293  1.00  0.00     0.058 C 
ENDBRANCH  31  32
ENDBRANCH  30  31
ENDBRANCH  29  30
ENDBRANCH   7  29
TORSDOF 9
ENDMDL
