MODEL 1
REMARK VINA RESULT: -11.132334372      0.000      0.000
REMARK  9 active torsions:
REMARK  status: ('A' for Active; 'I' for Inactive)
REMARK    1  A    between atoms: C2_2  and  C4_4 
REMARK    2  A    between atoms: C4_4  and  C5_5 
REMARK    3  A    between atoms: C4_4  and  C19_23 
REMARK    4  A    between atoms: C5_5  and  C6_6 
REMARK    5  A    between atoms: C6_6  and  N1_7 
REMARK    6  A    between atoms: C9_10  and  N2_11 
REMARK       I    between atoms: N2_11  and  C10_13 
REMARK    7  A    between atoms: C10_13  and  C11_15 
REMARK    8  A    between atoms: C19_23  and  N3_24 
REMARK       I    between atoms: N3_24  and  C20_26 
REMARK    9  A    between atoms: C20_26  and  C21_28 
ROOT
HETATM    1  C4  UNL     1      21.580 -31.766  -7.746  1.00  0.00    -0.039 C 
ENDROOT
BRANCH   1   2
HETATM    2  C2  UNL     1      20.925 -30.804  -8.338  1.00  0.00    -0.080 C 
HETATM    3  C1  UNL     1      20.150 -29.806  -7.477  1.00  0.00     0.043 C 
HETATM    4  C3  UNL     1      20.841 -30.523  -9.796  1.00  0.00     0.043 C 
ENDBRANCH   1   2
BRANCH   1   5
HETATM    5  C5  UNL     1      22.987 -31.351  -7.227  1.00  0.00     0.070 C 
BRANCH   5   6
HETATM    6  C6  UNL     1      23.948 -31.752  -8.282  1.00  0.00     0.277 C 
BRANCH   6   7
HETATM    7  N1  UNL     1      25.011 -30.778  -8.487  1.00  0.00     0.089 N 
HETATM    8  C7  UNL     1      25.600 -30.479  -7.204  1.00  0.00     0.274 C 
HETATM    9  C8  UNL     1      26.505 -29.299  -7.214  1.00  0.00     0.056 C 
HETATM   10  C9  UNL     1      26.114 -28.211  -8.159  1.00  0.00     0.091 C 
HETATM   11  C16 UNL     1      24.633 -28.331  -8.428  1.00  0.00     0.032 C 
HETATM   12  C17 UNL     1      23.794 -28.171  -7.205  1.00  0.00     0.014 C 
HETATM   13  C18 UNL     1      24.405 -29.634  -9.118  1.00  0.00     0.278 C 
BRANCH  10  14
HETATM   14  N2  UNL     1      26.479 -26.897  -7.689  1.00  0.00    -0.356 N 
HETATM   15  C10 UNL     1      26.946 -25.892  -8.573  1.00  0.00     0.222 C 
HETATM   16  O1  UNL     1      27.036 -26.168  -9.795  1.00  0.00    -0.273 OA
ATOM     17  H2  UNL     1      26.399 -26.685  -6.695  1.00  0.00     0.162 HD
BRANCH  15  18
HETATM   18  C11 UNL     1      27.323 -24.553  -8.108  1.00  0.00     0.078 C 
HETATM   19  C12 UNL     1      28.660 -24.104  -8.653  1.00  0.00     0.014 C 
HETATM   20  C13 UNL     1      28.937 -22.882  -7.784  1.00  0.00     0.001 C 
HETATM   21  C14 UNL     1      28.320 -23.211  -6.442  1.00  0.00     0.001 C 
HETATM   22  C15 UNL     1      27.585 -24.521  -6.609  1.00  0.00     0.014 C 
ENDBRANCH  15  18
ENDBRANCH  10  14
ENDBRANCH   6   7
ENDBRANCH   5   6
ENDBRANCH   1   5
BRANCH   1  23
HETATM   23  C19 UNL     1      21.181 -33.117  -7.471  1.00  0.00     0.098 C 
BRANCH  23  24
HETATM   24  N3  UNL     1      21.995 -34.230  -7.695  1.00  0.00    -0.336 N 
HETATM   25  C20 UNL     1      22.804 -34.766  -6.596  1.00  0.00     0.230 C 
HETATM   26  O2  UNL     1      22.712 -34.181  -5.505  1.00  0.00    -0.272 OA
ATOM     27  H3  UNL     1      22.026 -34.666  -8.616  1.00  0.00     0.168 HD
BRANCH  25  28
HETATM   28  C21 UNL     1      23.678 -35.925  -6.752  1.00  0.00     0.042 C 
HETATM   29  C22 UNL     1      23.781 -36.627  -5.409  1.00  0.00     0.024 C 
HETATM   30  C23 UNL     1      24.726 -37.787  -5.544  1.00  0.00    -0.013 C 
HETATM   31  C24 UNL     1      24.224 -38.803  -6.544  1.00  0.00     0.009 C 
HETATM   32  C28 UNL     1      26.089 -37.337  -5.992  1.00  0.00     0.009 C 
HETATM   33  C25 UNL     1      24.024 -38.102  -7.869  1.00  0.00    -0.013 C 
HETATM   34  C26 UNL     1      25.349 -37.597  -8.370  1.00  0.00     0.009 C 
HETATM   35  C30 UNL     1      23.088 -36.939  -7.712  1.00  0.00     0.024 C 
HETATM   36  C27 UNL     1      25.951 -36.685  -7.334  1.00  0.00    -0.013 C 
HETATM   37  C29 UNL     1      25.041 -35.477  -7.162  1.00  0.00     0.024 C 
ENDBRANCH  25  28
ENDBRANCH  23  24
ENDBRANCH   1  23
TORSDOF 9
ENDMDL
MODEL 2
REMARK VINA RESULT: -11.110674797      0.094      1.218
REMARK  9 active torsions:
REMARK  status: ('A' for Active; 'I' for Inactive)
REMARK    1  A    between atoms: C2_2  and  C4_4 
REMARK    2  A    between atoms: C4_4  and  C5_5 
REMARK    3  A    between atoms: C4_4  and  C19_23 
REMARK    4  A    between atoms: C5_5  and  C6_6 
REMARK    5  A    between atoms: C6_6  and  N1_7 
REMARK    6  A    between atoms: C9_10  and  N2_11 
REMARK       I    between atoms: N2_11  and  C10_13 
REMARK    7  A    between atoms: C10_13  and  C11_15 
REMARK    8  A    between atoms: C19_23  and  N3_24 
REMARK       I    between atoms: N3_24  and  C20_26 
REMARK    9  A    between atoms: C20_26  and  C21_28 
ROOT
HETATM    1  C4  UNL     1      21.631 -31.776  -7.756  1.00  0.00    -0.039 C 
ENDROOT
BRANCH   1   2
HETATM    2  C2  UNL     1      20.976 -30.808  -8.340  1.00  0.00    -0.080 C 
HETATM    3  C1  UNL     1      20.187 -29.829  -7.470  1.00  0.00     0.043 C 
HETATM    4  C3  UNL     1      20.905 -30.504  -9.794  1.00  0.00     0.043 C 
ENDBRANCH   1   2
BRANCH   1   5
HETATM    5  C5  UNL     1      23.037 -31.364  -7.231  1.00  0.00     0.070 C 
BRANCH   5   6
HETATM    6  C6  UNL     1      24.000 -31.754  -8.288  1.00  0.00     0.277 C 
BRANCH   6   7
HETATM    7  N1  UNL     1      25.058 -30.774  -8.488  1.00  0.00     0.089 N 
HETATM    8  C7  UNL     1      25.655 -30.489  -7.206  1.00  0.00     0.274 C 
HETATM    9  C8  UNL     1      26.555 -29.306  -7.206  1.00  0.00     0.056 C 
HETATM   10  C9  UNL     1      26.153 -28.207  -8.134  1.00  0.00     0.091 C 
HETATM   11  C16 UNL     1      24.671 -28.330  -8.395  1.00  0.00     0.032 C 
HETATM   12  C17 UNL     1      23.840 -28.188  -7.163  1.00  0.00     0.014 C 
HETATM   13  C18 UNL     1      24.443 -29.624  -9.100  1.00  0.00     0.278 C 
BRANCH  10  14
HETATM   14  N2  UNL     1      26.517 -26.898  -7.651  1.00  0.00    -0.356 N 
HETATM   15  C10 UNL     1      26.945 -25.870  -8.528  1.00  0.00     0.222 C 
HETATM   16  O1  UNL     1      27.002 -26.122  -9.757  1.00  0.00    -0.273 OA
ATOM     17  H2  UNL     1      26.464 -26.705  -6.650  1.00  0.00     0.162 HD
BRANCH  15  18
HETATM   18  C11 UNL     1      27.320 -24.536  -8.049  1.00  0.00     0.078 C 
HETATM   19  C12 UNL     1      28.607 -24.037  -8.667  1.00  0.00     0.014 C 
HETATM   20  C13 UNL     1      28.911 -22.834  -7.781  1.00  0.00     0.001 C 
HETATM   21  C14 UNL     1      28.394 -23.217  -6.412  1.00  0.00     0.001 C 
HETATM   22  C15 UNL     1      27.681 -24.540  -6.570  1.00  0.00     0.014 C 
ENDBRANCH  15  18
ENDBRANCH  10  14
ENDBRANCH   6   7
ENDBRANCH   5   6
ENDBRANCH   1   5
BRANCH   1  23
HETATM   23  C19 UNL     1      21.234 -33.130  -7.496  1.00  0.00     0.098 C 
BRANCH  23  24
HETATM   24  N3  UNL     1      22.057 -34.238  -7.707  1.00  0.00    -0.336 N 
HETATM   25  C20 UNL     1      22.811 -34.802  -6.583  1.00  0.00     0.230 C 
HETATM   26  O2  UNL     1      22.665 -34.244  -5.484  1.00  0.00    -0.272 OA
ATOM     27  H3  UNL     1      22.134 -34.651  -8.637  1.00  0.00     0.168 HD
BRANCH  25  28
HETATM   28  C21 UNL     1      23.692 -35.957  -6.725  1.00  0.00     0.042 C 
HETATM   29  C22 UNL     1      23.035 -36.941  -7.678  1.00  0.00     0.024 C 
HETATM   30  C23 UNL     1      23.905 -38.162  -7.785  1.00  0.00    -0.013 C 
HETATM   31  C24 UNL     1      25.267 -37.829  -8.350  1.00  0.00     0.009 C 
HETATM   32  C28 UNL     1      24.110 -38.808  -6.443  1.00  0.00     0.009 C 
HETATM   33  C25 UNL     1      25.901 -36.779  -7.466  1.00  0.00    -0.013 C 
HETATM   34  C26 UNL     1      26.114 -37.348  -6.091  1.00  0.00     0.009 C 
HETATM   35  C30 UNL     1      25.012 -35.574  -7.361  1.00  0.00     0.024 C 
HETATM   36  C27 UNL     1      24.793 -37.822  -5.544  1.00  0.00    -0.013 C 
HETATM   37  C29 UNL     1      23.868 -36.622  -5.401  1.00  0.00     0.024 C 
ENDBRANCH  25  28
ENDBRANCH  23  24
ENDBRANCH   1  23
TORSDOF 9
ENDMDL
MODEL 3
REMARK VINA RESULT: -10.180106919      5.548     14.448
REMARK  9 active torsions:
REMARK  status: ('A' for Active; 'I' for Inactive)
REMARK    1  A    between atoms: C2_2  and  C4_4 
REMARK    2  A    between atoms: C4_4  and  C5_5 
REMARK    3  A    between atoms: C4_4  and  C19_23 
REMARK    4  A    between atoms: C5_5  and  C6_6 
REMARK    5  A    between atoms: C6_6  and  N1_7 
REMARK    6  A    between atoms: C9_10  and  N2_11 
REMARK       I    between atoms: N2_11  and  C10_13 
REMARK    7  A    between atoms: C10_13  and  C11_15 
REMARK    8  A    between atoms: C19_23  and  N3_24 
REMARK       I    between atoms: N3_24  and  C20_26 
REMARK    9  A    between atoms: C20_26  and  C21_28 
ROOT
HETATM    1  C4  UNL     1      30.748 -22.807 -11.086  1.00  0.00    -0.039 C 
ENDROOT
BRANCH   1   2
HETATM    2  C2  UNL     1      31.486 -23.885 -11.097  1.00  0.00    -0.080 C 
HETATM    3  C1  UNL     1      31.744 -24.583 -12.433  1.00  0.00     0.043 C 
HETATM    4  C3  UNL     1      32.153 -24.544  -9.943  1.00  0.00     0.043 C 
ENDBRANCH   1   2
BRANCH   1   5
HETATM    5  C5  UNL     1      29.276 -23.050 -10.645  1.00  0.00     0.070 C 
BRANCH   5   6
HETATM    6  C6  UNL     1      29.265 -22.926  -9.168  1.00  0.00     0.277 C 
BRANCH   6   7
HETATM    7  N1  UNL     1      28.196 -23.688  -8.538  1.00  0.00     0.089 N 
HETATM    8  C7  UNL     1      28.743 -24.360  -7.385  1.00  0.00     0.274 C 
HETATM    9  C8  UNL     1      27.846 -25.394  -6.804  1.00  0.00     0.056 C 
HETATM   10  C9  UNL     1      26.998 -26.122  -7.794  1.00  0.00     0.091 C 
HETATM   11  C16 UNL     1      27.666 -26.029  -9.145  1.00  0.00     0.032 C 
HETATM   12  C17 UNL     1      29.018 -26.660  -9.180  1.00  0.00     0.014 C 
HETATM   13  C18 UNL     1      27.689 -24.591  -9.539  1.00  0.00     0.278 C 
BRANCH  10  14
HETATM   14  N2  UNL     1      26.726 -27.486  -7.411  1.00  0.00    -0.356 N 
HETATM   15  C10 UNL     1      25.698 -28.243  -8.028  1.00  0.00     0.222 C 
HETATM   16  O1  UNL     1      25.017 -27.699  -8.931  1.00  0.00    -0.273 OA
ATOM     17  H2  UNL     1      27.287 -27.917  -6.678  1.00  0.00     0.162 HD
BRANCH  15  18
HETATM   18  C11 UNL     1      25.410 -29.629  -7.646  1.00  0.00     0.078 C 
HETATM   19  C12 UNL     1      25.327 -30.556  -8.837  1.00  0.00     0.014 C 
HETATM   20  C13 UNL     1      24.718 -31.800  -8.201  1.00  0.00     0.001 C 
HETATM   21  C14 UNL     1      23.803 -31.276  -7.117  1.00  0.00     0.001 C 
HETATM   22  C15 UNL     1      24.016 -29.781  -7.052  1.00  0.00     0.014 C 
ENDBRANCH  15  18
ENDBRANCH  10  14
ENDBRANCH   6   7
ENDBRANCH   5   6
ENDBRANCH   1   5
BRANCH   1  23
HETATM   23  C19 UNL     1      31.102 -21.447 -11.377  1.00  0.00     0.098 C 
BRANCH  23  24
HETATM   24  N3  UNL     1      32.286 -20.841 -10.949  1.00  0.00    -0.336 N 
HETATM   25  C20 UNL     1      33.411 -20.719 -11.881  1.00  0.00     0.230 C 
HETATM   26  O2  UNL     1      33.236 -21.173 -13.022  1.00  0.00    -0.272 OA
ATOM     27  H3  UNL     1      32.366 -20.487  -9.996  1.00  0.00     0.168 HD
BRANCH  25  28
HETATM   28  C21 UNL     1      34.680 -20.100 -11.509  1.00  0.00     0.042 C 
HETATM   29  C22 UNL     1      34.844 -20.221 -10.004  1.00  0.00     0.024 C 
HETATM   30  C23 UNL     1      36.118 -19.533  -9.601  1.00  0.00    -0.013 C 
HETATM   31  C24 UNL     1      37.327 -20.179 -10.239  1.00  0.00     0.009 C 
HETATM   32  C28 UNL     1      36.109 -18.084 -10.000  1.00  0.00     0.009 C 
HETATM   33  C25 UNL     1      37.139 -20.154 -11.739  1.00  0.00    -0.013 C 
HETATM   34  C26 UNL     1      37.094 -18.727 -12.211  1.00  0.00     0.009 C 
HETATM   35  C30 UNL     1      35.856 -20.833 -12.120  1.00  0.00     0.024 C 
HETATM   36  C27 UNL     1      35.984 -18.006 -11.491  1.00  0.00    -0.013 C 
HETATM   37  C29 UNL     1      34.659 -18.653 -11.871  1.00  0.00     0.024 C 
ENDBRANCH  25  28
ENDBRANCH  23  24
ENDBRANCH   1  23
TORSDOF 9
ENDMDL
MODEL 4
REMARK VINA RESULT: -10.105109584      5.586     14.615
REMARK  9 active torsions:
REMARK  status: ('A' for Active; 'I' for Inactive)
REMARK    1  A    between atoms: C2_2  and  C4_4 
REMARK    2  A    between atoms: C4_4  and  C5_5 
REMARK    3  A    between atoms: C4_4  and  C19_23 
REMARK    4  A    between atoms: C5_5  and  C6_6 
REMARK    5  A    between atoms: C6_6  and  N1_7 
REMARK    6  A    between atoms: C9_10  and  N2_11 
REMARK       I    between atoms: N2_11  and  C10_13 
REMARK    7  A    between atoms: C10_13  and  C11_15 
REMARK    8  A    between atoms: C19_23  and  N3_24 
REMARK       I    between atoms: N3_24  and  C20_26 
REMARK    9  A    between atoms: C20_26  and  C21_28 
ROOT
HETATM    1  C4  UNL     1      30.351 -22.046 -11.054  1.00  0.00    -0.039 C 
ENDROOT
BRANCH   1   2
HETATM    2  C2  UNL     1      29.839 -20.926 -11.492  1.00  0.00    -0.080 C 
HETATM    3  C1  UNL     1      28.752 -20.988 -12.564  1.00  0.00     0.043 C 
HETATM    4  C3  UNL     1      30.170 -19.543 -11.057  1.00  0.00     0.043 C 
ENDBRANCH   1   2
BRANCH   1   5
HETATM    5  C5  UNL     1      29.295 -23.080 -10.570  1.00  0.00     0.070 C 
BRANCH   5   6
HETATM    6  C6  UNL     1      29.272 -22.982  -9.091  1.00  0.00     0.277 C 
BRANCH   6   7
HETATM    7  N1  UNL     1      28.190 -23.744  -8.484  1.00  0.00     0.089 N 
HETATM    8  C7  UNL     1      28.714 -24.424  -7.325  1.00  0.00     0.274 C 
HETATM    9  C8  UNL     1      27.803 -25.457  -6.765  1.00  0.00     0.056 C 
HETATM   10  C9  UNL     1      26.969 -26.177  -7.774  1.00  0.00     0.091 C 
HETATM   11  C16 UNL     1      27.662 -26.080  -9.112  1.00  0.00     0.032 C 
HETATM   12  C17 UNL     1      29.012 -26.716  -9.127  1.00  0.00     0.014 C 
HETATM   13  C18 UNL     1      27.697 -24.640  -9.498  1.00  0.00     0.278 C 
BRANCH  10  14
HETATM   14  N2  UNL     1      26.686 -27.541  -7.402  1.00  0.00    -0.356 N 
HETATM   15  C10 UNL     1      25.656 -28.287  -8.030  1.00  0.00     0.222 C 
HETATM   16  O1  UNL     1      24.984 -27.731  -8.933  1.00  0.00    -0.273 OA
ATOM     17  H2  UNL     1      27.240 -27.982  -6.669  1.00  0.00     0.162 HD
BRANCH  15  18
HETATM   18  C11 UNL     1      25.356 -29.674  -7.660  1.00  0.00     0.078 C 
HETATM   19  C12 UNL     1      25.259 -30.588  -8.860  1.00  0.00     0.014 C 
HETATM   20  C13 UNL     1      24.641 -31.833  -8.233  1.00  0.00     0.001 C 
HETATM   21  C14 UNL     1      23.736 -31.309  -7.139  1.00  0.00     0.001 C 
HETATM   22  C15 UNL     1      23.964 -29.818  -7.061  1.00  0.00     0.014 C 
ENDBRANCH  15  18
ENDBRANCH  10  14
ENDBRANCH   6   7
ENDBRANCH   5   6
ENDBRANCH   1   5
BRANCH   1  23
HETATM   23  C19 UNL     1      31.721 -22.470 -10.994  1.00  0.00     0.098 C 
BRANCH  23  24
HETATM   24  N3  UNL     1      32.783 -21.627 -10.661  1.00  0.00    -0.336 N 
HETATM   25  C20 UNL     1      33.510 -20.926 -11.723  1.00  0.00     0.230 C 
HETATM   26  O2  UNL     1      33.123 -21.130 -12.885  1.00  0.00    -0.272 OA
ATOM     27  H3  UNL     1      33.052 -21.501  -9.685  1.00  0.00     0.168 HD
BRANCH  25  28
HETATM   28  C21 UNL     1      34.630 -20.029 -11.454  1.00  0.00     0.042 C 
HETATM   29  C22 UNL     1      34.627 -18.935 -12.508  1.00  0.00     0.024 C 
HETATM   30  C23 UNL     1      35.811 -18.040 -12.276  1.00  0.00    -0.013 C 
HETATM   31  C24 UNL     1      35.745 -17.364 -10.926  1.00  0.00     0.009 C 
HETATM   32  C28 UNL     1      37.102 -18.809 -12.341  1.00  0.00     0.009 C 
HETATM   33  C25 UNL     1      35.651 -18.437  -9.865  1.00  0.00    -0.013 C 
HETATM   34  C26 UNL     1      36.904 -19.269  -9.887  1.00  0.00     0.009 C 
HETATM   35  C30 UNL     1      34.471 -19.328 -10.120  1.00  0.00     0.024 C 
HETATM   36  C27 UNL     1      37.083 -19.852 -11.264  1.00  0.00    -0.013 C 
HETATM   37  C29 UNL     1      35.914 -20.783 -11.553  1.00  0.00     0.024 C 
ENDBRANCH  25  28
ENDBRANCH  23  24
ENDBRANCH   1  23
TORSDOF 9
ENDMDL
MODEL 5
REMARK VINA RESULT: -10.036299096      5.138     14.169
REMARK  9 active torsions:
REMARK  status: ('A' for Active; 'I' for Inactive)
REMARK    1  A    between atoms: C2_2  and  C4_4 
REMARK    2  A    between atoms: C4_4  and  C5_5 
REMARK    3  A    between atoms: C4_4  and  C19_23 
REMARK    4  A    between atoms: C5_5  and  C6_6 
REMARK    5  A    between atoms: C6_6  and  N1_7 
REMARK    6  A    between atoms: C9_10  and  N2_11 
REMARK       I    between atoms: N2_11  and  C10_13 
REMARK    7  A    between atoms: C10_13  and  C11_15 
REMARK    8  A    between atoms: C19_23  and  N3_24 
REMARK       I    between atoms: N3_24  and  C20_26 
REMARK    9  A    between atoms: C20_26  and  C21_28 
ROOT
HETATM    1  C4  UNL     1      31.489 -23.721  -8.890  1.00  0.00    -0.039 C 
ENDROOT
BRANCH   1   2
HETATM    2  C2  UNL     1      32.361 -24.662  -8.647  1.00  0.00    -0.080 C 
HETATM    3  C1  UNL     1      32.401 -25.281  -7.249  1.00  0.00     0.043 C 
HETATM    4  C3  UNL     1      33.351 -25.252  -9.587  1.00  0.00     0.043 C 
ENDBRANCH   1   2
BRANCH   1   5
HETATM    5  C5  UNL     1      30.544 -23.406  -7.695  1.00  0.00     0.070 C 
BRANCH   5   6
HETATM    6  C6  UNL     1      29.270 -22.941  -8.290  1.00  0.00     0.277 C 
BRANCH   6   7
HETATM    7  N1  UNL     1      28.149 -23.829  -8.011  1.00  0.00     0.089 N 
HETATM    8  C7  UNL     1      28.565 -24.772  -7.002  1.00  0.00     0.274 C 
HETATM    9  C8  UNL     1      27.628 -25.912  -6.816  1.00  0.00     0.056 C 
HETATM   10  C9  UNL     1      26.929 -26.363  -8.056  1.00  0.00     0.091 C 
HETATM   11  C16 UNL     1      27.760 -25.940  -9.245  1.00  0.00     0.032 C 
HETATM   12  C17 UNL     1      29.121 -26.552  -9.262  1.00  0.00     0.014 C 
HETATM   13  C18 UNL     1      27.795 -24.450  -9.262  1.00  0.00     0.278 C 
BRANCH  10  14
HETATM   14  N2  UNL     1      26.646 -27.777  -8.063  1.00  0.00    -0.356 N 
HETATM   15  C10 UNL     1      25.320 -28.273  -7.992  1.00  0.00     0.222 C 
HETATM   16  O1  UNL     1      24.378 -27.446  -7.925  1.00  0.00    -0.273 OA
ATOM     17  H2  UNL     1      27.421 -28.439  -8.120  1.00  0.00     0.162 HD
BRANCH  15  18
HETATM   18  C11 UNL     1      25.019 -29.708  -7.995  1.00  0.00     0.078 C 
HETATM   19  C12 UNL     1      23.771 -30.042  -7.209  1.00  0.00     0.014 C 
HETATM   20  C13 UNL     1      23.883 -31.559  -7.110  1.00  0.00     0.001 C 
HETATM   21  C14 UNL     1      25.368 -31.837  -7.036  1.00  0.00     0.001 C 
HETATM   22  C15 UNL     1      26.069 -30.515  -7.244  1.00  0.00     0.014 C 
ENDBRANCH  15  18
ENDBRANCH  10  14
ENDBRANCH   6   7
ENDBRANCH   5   6
ENDBRANCH   1   5
BRANCH   1  23
HETATM   23  C19 UNL     1      31.304 -22.919 -10.066  1.00  0.00     0.098 C 
BRANCH  23  24
HETATM   24  N3  UNL     1      31.991 -21.729 -10.313  1.00  0.00    -0.336 N 
HETATM   25  C20 UNL     1      33.055 -21.705 -11.322  1.00  0.00     0.230 C 
HETATM   26  O2  UNL     1      33.283 -22.774 -11.910  1.00  0.00    -0.272 OA
ATOM     27  H3  UNL     1      31.754 -20.883  -9.796  1.00  0.00     0.168 HD
BRANCH  25  28
HETATM   28  C21 UNL     1      33.817 -20.500 -11.636  1.00  0.00     0.042 C 
HETATM   29  C22 UNL     1      34.091 -19.760 -10.339  1.00  0.00     0.024 C 
HETATM   30  C23 UNL     1      34.823 -18.487 -10.656  1.00  0.00    -0.013 C 
HETATM   31  C24 UNL     1      36.159 -18.759 -11.309  1.00  0.00     0.009 C 
HETATM   32  C28 UNL     1      34.028 -17.613 -11.586  1.00  0.00     0.009 C 
HETATM   33  C25 UNL     1      35.916 -19.579 -12.557  1.00  0.00    -0.013 C 
HETATM   34  C26 UNL     1      35.099 -18.775 -13.530  1.00  0.00     0.009 C 
HETATM   35  C30 UNL     1      35.173 -20.839 -12.221  1.00  0.00     0.024 C 
HETATM   36  C27 UNL     1      33.811 -18.362 -12.866  1.00  0.00    -0.013 C 
HETATM   37  C29 UNL     1      33.015 -19.615 -12.530  1.00  0.00     0.024 C 
ENDBRANCH  25  28
ENDBRANCH  23  24
ENDBRANCH   1  23
TORSDOF 9
ENDMDL
