MODEL 1
REMARK VINA RESULT: -9.158905242      0.000      0.000
REMARK  9 active torsions:
REMARK  status: ('A' for Active; 'I' for Inactive)
REMARK    1  A    between atoms: O1_2  and  C2_3 
REMARK    2  A    between atoms: C2_3  and  C7_14 
REMARK    3  A    between atoms: N1_4  and  C3_6 
REMARK    4  A    between atoms: C3_6  and  C4_10 
REMARK    5  A    between atoms: C8_18  and  C9_19 
REMARK    6  A    between atoms: C8_18  and  C16_29 
REMARK    7  A    between atoms: C9_19  and  C10_20 
REMARK    8  A    between atoms: C13_23  and  O3_24 
REMARK    9  A    between atoms: C16_29  and  N4_30 
ROOT
HETATM    1  C7  UNL     1      26.808   8.112  -0.463  1.00  0.00     0.086 C 
HETATM    2  N3  UNL     1      27.668   8.928  -0.920  1.00  0.00    -0.266 N 
ATOM      3  H3  UNL     1      28.077   8.841  -1.851  1.00  0.00     0.194 HD
HETATM    4  O2  UNL     1      27.996   9.935  -0.052  1.00  0.00    -0.266 OA
HETATM    5  C8  UNL     1      27.597   9.525   1.269  1.00  0.00     0.124 C 
HETATM    6  C19 UNL     1      26.472   8.598   0.915  1.00  0.00     0.106 C 
ENDROOT
BRANCH   5   7
HETATM    7  C9  UNL     1      28.752   8.888   1.953  1.00  0.00     0.081 C 
BRANCH   7   8
HETATM    8  C10 UNL     1      28.500   8.360   3.301  1.00  0.00    -0.053 A 
HETATM    9  C11 UNL     1      28.699   9.070   4.473  1.00  0.00     0.010 A 
HETATM   10  C12 UNL     1      28.445   8.508   5.706  1.00  0.00     0.039 A 
HETATM   11  C13 UNL     1      27.981   7.218   5.825  1.00  0.00     0.087 A 
HETATM   12  C14 UNL     1      27.774   6.493   4.677  1.00  0.00     0.067 A 
HETATM   13 CL1  UNL     1      27.185   4.852   4.809  1.00  0.00    -0.081 Cl
HETATM   14  C15 UNL     1      28.035   7.071   3.468  1.00  0.00     0.034 A 
BRANCH  11  15
HETATM   15  O3  UNL     1      27.719   6.639   7.072  1.00  0.00    -0.359 OA
ATOM     16  H3  UNL     1      28.380   6.148   7.545  1.00  0.00     0.217 HD
ENDBRANCH  11  15
ENDBRANCH   7   8
ENDBRANCH   5   7
BRANCH   5  17
HETATM   17  C16 UNL     1      27.042  10.719   1.962  1.00  0.00     0.312 C 
BRANCH  17  18
HETATM   18  N4  UNL     1      27.963  11.746   2.317  1.00  0.00     0.083 N 
HETATM   19  C17 UNL     1      27.623  12.333   3.614  1.00  0.00     0.309 C 
HETATM   20  C18 UNL     1      28.099  12.807   1.356  1.00  0.00     0.309 C 
ENDBRANCH  17  18
ENDBRANCH   5  17
BRANCH   1  21
HETATM   21  C2  UNL     1      26.233   6.933  -1.108  1.00  0.00     0.168 C 
HETATM   22  N1  UNL     1      26.417   5.739  -0.775  1.00  0.00    -0.323 N 
ATOM     23  H1  UNL     1      25.918   5.070  -1.362  1.00  0.00     0.169 HD
BRANCH  21  24
HETATM   24  O1  UNL     1      25.382   7.135  -2.221  1.00  0.00    -0.339 OA
HETATM   25  C1  UNL     1      25.910   7.032  -3.550  1.00  0.00     0.211 C 
ENDBRANCH  21  24
BRANCH  22  26
HETATM   26  C3  UNL     1      27.160   5.145   0.230  1.00  0.00     0.116 C 
HETATM   27  N2  UNL     1      28.386   5.488   0.429  1.00  0.00    -0.386 N 
ATOM     28  H22 UNL     1      28.771   6.199  -0.194  1.00  0.00     0.157 HD
ATOM     29  H21 UNL     1      28.934   5.050   1.169  1.00  0.00     0.157 HD
BRANCH  26  30
HETATM   30  C4  UNL     1      26.594   4.100   1.146  1.00  0.00     0.153 C 
HETATM   31  C5  UNL     1      25.988   2.957   0.369  1.00  0.00     0.060 C 
HETATM   32  C6  UNL     1      25.535   4.690   2.027  1.00  0.00     0.060 C 
HETATM   33  F1  UNL     1      27.626   3.554   1.922  1.00  0.00    -0.235 F 
ENDBRANCH  26  30
ENDBRANCH  22  26
ENDBRANCH   1  21
TORSDOF 9
ENDMDL
MODEL 2
REMARK VINA RESULT: -9.039303106      2.318      5.742
REMARK  9 active torsions:
REMARK  status: ('A' for Active; 'I' for Inactive)
REMARK    1  A    between atoms: O1_2  and  C2_3 
REMARK    2  A    between atoms: C2_3  and  C7_14 
REMARK    3  A    between atoms: N1_4  and  C3_6 
REMARK    4  A    between atoms: C3_6  and  C4_10 
REMARK    5  A    between atoms: C8_18  and  C9_19 
REMARK    6  A    between atoms: C8_18  and  C16_29 
REMARK    7  A    between atoms: C9_19  and  C10_20 
REMARK    8  A    between atoms: C13_23  and  O3_24 
REMARK    9  A    between atoms: C16_29  and  N4_30 
ROOT
HETATM    1  C7  UNL     1      27.109   9.379   0.757  1.00  0.00     0.086 C 
HETATM    2  N3  UNL     1      26.189   8.625   1.203  1.00  0.00    -0.266 N 
ATOM      3  H3  UNL     1      25.784   8.732   2.133  1.00  0.00     0.194 HD
HETATM    4  O2  UNL     1      25.790   7.655   0.322  1.00  0.00    -0.266 OA
HETATM    5  C8  UNL     1      26.822   7.508  -0.670  1.00  0.00     0.124 C 
HETATM    6  C19 UNL     1      27.409   8.888  -0.627  1.00  0.00     0.106 C 
ENDROOT
BRANCH   5   7
HETATM    7  C9  UNL     1      27.741   6.415  -0.259  1.00  0.00     0.081 C 
BRANCH   7   8
HETATM    8  C10 UNL     1      27.107   5.191   0.254  1.00  0.00    -0.053 A 
HETATM    9  C11 UNL     1      26.431   4.270  -0.528  1.00  0.00     0.010 A 
HETATM   10  C12 UNL     1      25.856   3.144   0.023  1.00  0.00     0.039 A 
HETATM   11  C13 UNL     1      25.931   2.888   1.373  1.00  0.00     0.087 A 
HETATM   12  C14 UNL     1      26.597   3.786   2.170  1.00  0.00     0.067 A 
HETATM   13 CL1  UNL     1      26.702   3.476   3.888  1.00  0.00    -0.081 Cl
HETATM   14  C15 UNL     1      27.157   4.894   1.601  1.00  0.00     0.034 A 
BRANCH  11  15
HETATM   15  O3  UNL     1      25.352   1.748   1.942  1.00  0.00    -0.359 OA
ATOM     16  H3  UNL     1      24.739   1.805   2.665  1.00  0.00     0.217 HD
ENDBRANCH  11  15
ENDBRANCH   7   8
ENDBRANCH   5   7
BRANCH   5  17
HETATM   17  C16 UNL     1      26.157   7.304  -1.985  1.00  0.00     0.312 C 
BRANCH  17  18
HETATM   18  N4  UNL     1      26.995   6.974  -3.089  1.00  0.00     0.083 N 
HETATM   19  C17 UNL     1      27.065   8.080  -4.045  1.00  0.00     0.309 C 
HETATM   20  C18 UNL     1      26.633   5.778  -3.798  1.00  0.00     0.309 C 
ENDBRANCH  17  18
ENDBRANCH   5  17
BRANCH   1  21
HETATM   21  C2  UNL     1      27.769  10.505   1.417  1.00  0.00     0.168 C 
HETATM   22  N1  UNL     1      27.926  10.655   2.652  1.00  0.00    -0.323 N 
ATOM     23  H1  UNL     1      28.416  11.515   2.899  1.00  0.00     0.169 HD
BRANCH  21  24
HETATM   24  O1  UNL     1      28.290  11.538   0.602  1.00  0.00    -0.339 OA
HETATM   25  C1  UNL     1      28.399  12.869   1.122  1.00  0.00     0.211 C 
ENDBRANCH  21  24
BRANCH  22  26
HETATM   26  C3  UNL     1      27.568   9.888   3.747  1.00  0.00     0.116 C 
HETATM   27  N2  UNL     1      26.505  10.165   4.422  1.00  0.00    -0.386 N 
ATOM     28  H22 UNL     1      25.963  10.973   4.114  1.00  0.00     0.157 HD
ATOM     29  H21 UNL     1      26.242   9.600   5.229  1.00  0.00     0.157 HD
BRANCH  26  30
HETATM   30  C4  UNL     1      28.366   8.701   4.199  1.00  0.00     0.153 C 
HETATM   31  C5  UNL     1      27.576   7.423   4.063  1.00  0.00     0.060 C 
HETATM   32  C6  UNL     1      28.773   8.856   5.634  1.00  0.00     0.060 C 
HETATM   33  F1  UNL     1      29.496   8.563   3.383  1.00  0.00    -0.235 F 
ENDBRANCH  26  30
ENDBRANCH  22  26
ENDBRANCH   1  21
TORSDOF 9
ENDMDL
MODEL 3
REMARK VINA RESULT: -8.974584448      2.619      5.786
REMARK  9 active torsions:
REMARK  status: ('A' for Active; 'I' for Inactive)
REMARK    1  A    between atoms: O1_2  and  C2_3 
REMARK    2  A    between atoms: C2_3  and  C7_14 
REMARK    3  A    between atoms: N1_4  and  C3_6 
REMARK    4  A    between atoms: C3_6  and  C4_10 
REMARK    5  A    between atoms: C8_18  and  C9_19 
REMARK    6  A    between atoms: C8_18  and  C16_29 
REMARK    7  A    between atoms: C9_19  and  C10_20 
REMARK    8  A    between atoms: C13_23  and  O3_24 
REMARK    9  A    between atoms: C16_29  and  N4_30 
ROOT
HETATM    1  C7  UNL     1      27.141   9.434   0.790  1.00  0.00     0.086 C 
HETATM    2  N3  UNL     1      26.237   8.663   1.239  1.00  0.00    -0.266 N 
ATOM      3  H3  UNL     1      25.843   8.754   2.175  1.00  0.00     0.194 HD
HETATM    4  O2  UNL     1      25.839   7.698   0.352  1.00  0.00    -0.266 OA
HETATM    5  C8  UNL     1      26.860   7.576  -0.655  1.00  0.00     0.124 C 
HETATM    6  C19 UNL     1      27.429   8.963  -0.604  1.00  0.00     0.106 C 
ENDROOT
BRANCH   5   7
HETATM    7  C9  UNL     1      27.799   6.490  -0.269  1.00  0.00     0.081 C 
BRANCH   7   8
HETATM    8  C10 UNL     1      27.204   5.322   0.397  1.00  0.00    -0.053 A 
HETATM    9  C11 UNL     1      27.322   5.045   1.748  1.00  0.00     0.010 A 
HETATM   10  C12 UNL     1      26.740   3.926   2.306  1.00  0.00     0.039 A 
HETATM   11  C13 UNL     1      26.016   3.038   1.542  1.00  0.00     0.087 A 
HETATM   12  C14 UNL     1      25.885   3.291   0.199  1.00  0.00     0.067 A 
HETATM   13 CL1  UNL     1      24.969   2.173  -0.786  1.00  0.00    -0.081 Cl
HETATM   14  C15 UNL     1      26.472   4.405  -0.329  1.00  0.00     0.034 A 
BRANCH  11  15
HETATM   15  O3  UNL     1      25.422   1.899   2.099  1.00  0.00    -0.359 OA
ATOM     16  H3  UNL     1      24.732   1.962   2.749  1.00  0.00     0.217 HD
ENDBRANCH  11  15
ENDBRANCH   7   8
ENDBRANCH   5   7
BRANCH   5  17
HETATM   17  C16 UNL     1      26.180   7.378  -1.964  1.00  0.00     0.312 C 
BRANCH  17  18
HETATM   18  N4  UNL     1      26.999   6.995  -3.065  1.00  0.00     0.083 N 
HETATM   19  C17 UNL     1      27.073   8.064  -4.062  1.00  0.00     0.309 C 
HETATM   20  C18 UNL     1      26.609   5.779  -3.725  1.00  0.00     0.309 C 
ENDBRANCH  17  18
ENDBRANCH   5  17
BRANCH   1  21
HETATM   21  C2  UNL     1      27.794  10.561   1.454  1.00  0.00     0.168 C 
HETATM   22  N1  UNL     1      27.925  10.721   2.690  1.00  0.00    -0.323 N 
ATOM     23  H1  UNL     1      28.416  11.580   2.941  1.00  0.00     0.169 HD
BRANCH  21  24
HETATM   24  O1  UNL     1      28.340  11.583   0.641  1.00  0.00    -0.339 OA
HETATM   25  C1  UNL     1      28.464  12.915   1.158  1.00  0.00     0.211 C 
ENDBRANCH  21  24
BRANCH  22  26
HETATM   26  C3  UNL     1      27.538   9.967   3.785  1.00  0.00     0.116 C 
HETATM   27  N2  UNL     1      26.452  10.244   4.420  1.00  0.00    -0.386 N 
ATOM     28  H22 UNL     1      25.913  11.042   4.084  1.00  0.00     0.157 HD
ATOM     29  H21 UNL     1      26.167   9.688   5.226  1.00  0.00     0.157 HD
BRANCH  26  30
HETATM   30  C4  UNL     1      28.330   8.793   4.279  1.00  0.00     0.153 C 
HETATM   31  C5  UNL     1      27.542   7.511   4.172  1.00  0.00     0.060 C 
HETATM   32  C6  UNL     1      28.723   8.990   5.713  1.00  0.00     0.060 C 
HETATM   33  F1  UNL     1      29.470   8.631   3.480  1.00  0.00    -0.235 F 
ENDBRANCH  26  30
ENDBRANCH  22  26
ENDBRANCH   1  21
TORSDOF 9
ENDMDL
MODEL 4
REMARK VINA RESULT: -8.836945988      2.659      5.703
REMARK  9 active torsions:
REMARK  status: ('A' for Active; 'I' for Inactive)
REMARK    1  A    between atoms: O1_2  and  C2_3 
REMARK    2  A    between atoms: C2_3  and  C7_14 
REMARK    3  A    between atoms: N1_4  and  C3_6 
REMARK    4  A    between atoms: C3_6  and  C4_10 
REMARK    5  A    between atoms: C8_18  and  C9_19 
REMARK    6  A    between atoms: C8_18  and  C16_29 
REMARK    7  A    between atoms: C9_19  and  C10_20 
REMARK    8  A    between atoms: C13_23  and  O3_24 
REMARK    9  A    between atoms: C16_29  and  N4_30 
ROOT
HETATM    1  C7  UNL     1      26.783   9.144   0.533  1.00  0.00     0.086 C 
HETATM    2  N3  UNL     1      25.882   8.284   0.781  1.00  0.00    -0.266 N 
ATOM      3  H3  UNL     1      25.375   8.249   1.665  1.00  0.00     0.194 HD
HETATM    4  O2  UNL     1      25.653   7.407  -0.245  1.00  0.00    -0.266 OA
HETATM    5  C8  UNL     1      26.792   7.449  -1.124  1.00  0.00     0.124 C 
HETATM    6  C19 UNL     1      27.263   8.848  -0.856  1.00  0.00     0.106 C 
ENDROOT
BRANCH   5   7
HETATM    7  C9  UNL     1      27.744   6.375  -0.742  1.00  0.00     0.081 C 
BRANCH   7   8
HETATM    8  C10 UNL     1      27.190   5.265   0.048  1.00  0.00    -0.053 A 
HETATM    9  C11 UNL     1      27.399   5.086   1.405  1.00  0.00     0.010 A 
HETATM   10  C12 UNL     1      26.850   4.018   2.082  1.00  0.00     0.039 A 
HETATM   11  C13 UNL     1      26.070   3.084   1.438  1.00  0.00     0.087 A 
HETATM   12  C14 UNL     1      25.848   3.240   0.092  1.00  0.00     0.067 A 
HETATM   13 CL1  UNL     1      24.859   2.064  -0.743  1.00  0.00    -0.081 Cl
HETATM   14  C15 UNL     1      26.403   4.306  -0.556  1.00  0.00     0.034 A 
BRANCH  11  15
HETATM   15  O3  UNL     1      25.508   1.997   2.116  1.00  0.00    -0.359 OA
ATOM     16  H3  UNL     1      25.267   2.049   3.034  1.00  0.00     0.217 HD
ENDBRANCH  11  15
ENDBRANCH   7   8
ENDBRANCH   5   7
BRANCH   5  17
HETATM   17  C16 UNL     1      26.286   7.367  -2.521  1.00  0.00     0.312 C 
BRANCH  17  18
HETATM   18  N4  UNL     1      27.108   6.689  -3.467  1.00  0.00     0.083 N 
HETATM   19  C17 UNL     1      27.558   7.600  -4.521  1.00  0.00     0.309 C 
HETATM   20  C18 UNL     1      26.513   5.536  -4.082  1.00  0.00     0.309 C 
ENDBRANCH  17  18
ENDBRANCH   5  17
BRANCH   1  21
HETATM   21  C2  UNL     1      27.281  10.220   1.389  1.00  0.00     0.168 C 
HETATM   22  N1  UNL     1      28.042  10.092   2.377  1.00  0.00    -0.323 N 
ATOM     23  H1  UNL     1      28.267  10.976   2.835  1.00  0.00     0.169 HD
BRANCH  21  24
HETATM   24  O1  UNL     1      26.877  11.544   1.092  1.00  0.00    -0.339 OA
HETATM   25  C1  UNL     1      27.820  12.466   0.530  1.00  0.00     0.211 C 
ENDBRANCH  21  24
BRANCH  22  26
HETATM   26  C3  UNL     1      28.638   8.994   2.971  1.00  0.00     0.116 C 
HETATM   27  N2  UNL     1      29.503   8.289   2.326  1.00  0.00    -0.386 N 
ATOM     28  H22 UNL     1      29.707   8.575   1.368  1.00  0.00     0.157 HD
ATOM     29  H21 UNL     1      29.943   7.479   2.764  1.00  0.00     0.157 HD
BRANCH  26  30
HETATM   30  C4  UNL     1      28.339   8.573   4.380  1.00  0.00     0.153 C 
HETATM   31  C5  UNL     1      27.647   7.233   4.419  1.00  0.00     0.060 C 
HETATM   32  C6  UNL     1      27.458   9.582   5.054  1.00  0.00     0.060 C 
HETATM   33  F1  UNL     1      29.540   8.425   5.086  1.00  0.00    -0.235 F 
ENDBRANCH  26  30
ENDBRANCH  22  26
ENDBRANCH   1  21
TORSDOF 9
ENDMDL
MODEL 5
REMARK VINA RESULT: -8.836735544      2.126      5.642
REMARK  9 active torsions:
REMARK  status: ('A' for Active; 'I' for Inactive)
REMARK    1  A    between atoms: O1_2  and  C2_3 
REMARK    2  A    between atoms: C2_3  and  C7_14 
REMARK    3  A    between atoms: N1_4  and  C3_6 
REMARK    4  A    between atoms: C3_6  and  C4_10 
REMARK    5  A    between atoms: C8_18  and  C9_19 
REMARK    6  A    between atoms: C8_18  and  C16_29 
REMARK    7  A    between atoms: C9_19  and  C10_20 
REMARK    8  A    between atoms: C13_23  and  O3_24 
REMARK    9  A    between atoms: C16_29  and  N4_30 
ROOT
HETATM    1  C7  UNL     1      26.904   9.211   0.499  1.00  0.00     0.086 C 
HETATM    2  N3  UNL     1      26.004   8.480   1.019  1.00  0.00    -0.266 N 
ATOM      3  H3  UNL     1      25.565   8.691   1.915  1.00  0.00     0.194 HD
HETATM    4  O2  UNL     1      25.678   7.382   0.268  1.00  0.00    -0.266 OA
HETATM    5  C8  UNL     1      26.748   7.154  -0.667  1.00  0.00     0.124 C 
HETATM    6  C19 UNL     1      27.270   8.554  -0.797  1.00  0.00     0.106 C 
ENDROOT
BRANCH   5   7
HETATM    7  C9  UNL     1      27.701   6.172  -0.089  1.00  0.00     0.081 C 
BRANCH   7   8
HETATM    8  C10 UNL     1      27.117   5.117   0.753  1.00  0.00    -0.053 A 
HETATM    9  C11 UNL     1      26.453   4.004   0.267  1.00  0.00     0.010 A 
HETATM   10  C12 UNL     1      25.926   3.054   1.117  1.00  0.00     0.039 A 
HETATM   11  C13 UNL     1      26.038   3.173   2.484  1.00  0.00     0.087 A 
HETATM   12  C14 UNL     1      26.692   4.269   2.989  1.00  0.00     0.067 A 
HETATM   13 CL1  UNL     1      26.843   4.436   4.724  1.00  0.00    -0.081 Cl
HETATM   14  C15 UNL     1      27.204   5.196   2.127  1.00  0.00     0.034 A 
BRANCH  11  15
HETATM   15  O3  UNL     1      25.506   2.215   3.354  1.00  0.00    -0.359 OA
ATOM     16  H3  UNL     1      24.788   1.649   3.097  1.00  0.00     0.217 HD
ENDBRANCH  11  15
ENDBRANCH   7   8
ENDBRANCH   5   7
BRANCH   5  17
HETATM   17  C16 UNL     1      26.135   6.743  -1.960  1.00  0.00     0.312 C 
BRANCH  17  18
HETATM   18  N4  UNL     1      26.918   5.907  -2.808  1.00  0.00     0.083 N 
HETATM   19  C17 UNL     1      27.388   6.643  -3.984  1.00  0.00     0.309 C 
HETATM   20  C18 UNL     1      26.269   4.704  -3.251  1.00  0.00     0.309 C 
ENDBRANCH  17  18
ENDBRANCH   5  17
BRANCH   1  21
HETATM   21  C2  UNL     1      27.490  10.446   1.018  1.00  0.00     0.168 C 
HETATM   22  N1  UNL     1      27.672  10.734   2.224  1.00  0.00    -0.323 N 
ATOM     23  H1  UNL     1      28.098  11.650   2.366  1.00  0.00     0.169 HD
BRANCH  21  24
HETATM   24  O1  UNL     1      27.900  11.428   0.084  1.00  0.00    -0.339 OA
HETATM   25  C1  UNL     1      27.660  12.815   0.357  1.00  0.00     0.211 C 
ENDBRANCH  21  24
BRANCH  22  26
HETATM   26  C3  UNL     1      27.412  10.058   3.404  1.00  0.00     0.116 C 
HETATM   27  N2  UNL     1      26.507  10.484   4.217  1.00  0.00    -0.386 N 
ATOM     28  H22 UNL     1      26.015  11.337   3.951  1.00  0.00     0.157 HD
ATOM     29  H21 UNL     1      26.315   9.986   5.086  1.00  0.00     0.157 HD
BRANCH  26  30
HETATM   30  C4  UNL     1      28.136   8.804   3.795  1.00  0.00     0.153 C 
HETATM   31  C5  UNL     1      28.730   8.919   5.177  1.00  0.00     0.060 C 
HETATM   32  C6  UNL     1      29.241   8.511   2.826  1.00  0.00     0.060 C 
HETATM   33  F1  UNL     1      27.228   7.737   3.836  1.00  0.00    -0.235 F 
ENDBRANCH  26  30
ENDBRANCH  22  26
ENDBRANCH   1  21
TORSDOF 9
ENDMDL
