MODEL 1
REMARK VINA RESULT: -8.512604027      0.000      0.000
REMARK  7 active torsions:
REMARK  status: ('A' for Active; 'I' for Inactive)
REMARK    1  A    between atoms: C2_2  and  N1_3 
REMARK    2  A    between atoms: N1_3  and  C3_4 
REMARK       I    between atoms: N1_3  and  C14_22 
REMARK    3  A    between atoms: C3_4  and  C4_5 
REMARK    4  A    between atoms: C5_6  and  O1_7 
REMARK    5  A    between atoms: N2_9  and  C6_10 
REMARK    6  A    between atoms: C6_10  and  C7_11 
REMARK    7  A    between atoms: C14_22  and  O4_24 
ROOT
HETATM    1  C4  UNL     1      28.441   8.150   1.442  1.00  0.00     0.043 A 
HETATM    2  C5  UNL     1      28.043   9.285   0.703  1.00  0.00     0.156 A 
HETATM    3  N2  UNL     1      27.771  10.300   1.537  1.00  0.00    -0.317 N 
HETATM    4  C8  UNL     1      27.955   9.934   2.808  1.00  0.00     0.070 A 
HETATM    5  C9  UNL     1      27.801  10.578   4.007  1.00  0.00     0.063 A 
HETATM    6 CL1  UNL     1      27.250  12.225   4.096  1.00  0.00    -0.082 Cl
HETATM    7  C10 UNL     1      28.054   9.928   5.221  1.00  0.00     0.050 A 
HETATM    8  C11 UNL     1      28.457   8.634   5.150  1.00  0.00     0.036 A 
HETATM    9 CL2  UNL     1      28.781   7.735   6.615  1.00  0.00    -0.084 Cl
HETATM   10  C12 UNL     1      28.621   7.958   3.959  1.00  0.00     0.038 A 
HETATM   11  C13 UNL     1      28.377   8.577   2.741  1.00  0.00     0.010 A 
ENDROOT
BRANCH   1  12
HETATM   12  C3  UNL     1      28.804   6.878   0.830  1.00  0.00     0.113 C 
BRANCH  12  13
HETATM   13  N1  UNL     1      27.854   5.889   0.557  1.00  0.00    -0.303 N 
HETATM   14  C14 UNL     1      27.101   5.797  -0.664  1.00  0.00     0.366 C 
HETATM   15  O3  UNL     1      27.304   6.638  -1.581  1.00  0.00    -0.238 OA
BRANCH  13  16
HETATM   16  C2  UNL     1      27.561   4.892   1.588  1.00  0.00     0.129 C 
HETATM   17  C1  UNL     1      26.380   5.286   2.435  1.00  0.00     0.027 C 
ENDBRANCH  13  16
BRANCH  14  18
HETATM   18  O4  UNL     1      26.152   4.826  -0.899  1.00  0.00    -0.309 OA
HETATM   19  C15 UNL     1      25.882   4.236  -2.154  1.00  0.00     0.215 C 
ENDBRANCH  14  18
ENDBRANCH  12  13
ENDBRANCH   1  12
BRANCH   2  20
HETATM   20  O1  UNL     1      27.974   9.260  -0.676  1.00  0.00    -0.345 OA
ATOM     21  H1  UNL     1      27.193   9.541  -1.138  1.00  0.00     0.219 HD
ENDBRANCH   2  20
BRANCH   3  22
HETATM   22  C6  UNL     1      27.304  11.571   1.058  1.00  0.00     0.223 C 
BRANCH  22  23
HETATM   23  C7  UNL     1      28.349  12.598   0.870  1.00  0.00     0.215 C 
HETATM   24  O2  UNL     1      28.238  13.735   1.229  1.00  0.00    -0.283 OA
HETATM   25  S1  UNL     1      29.936  12.235   0.057  1.00  0.00    -0.010 SA
ENDBRANCH  22  23
ENDBRANCH   3  22
TORSDOF 7
ENDMDL
MODEL 2
REMARK VINA RESULT: -8.340393871      3.081      5.909
REMARK  7 active torsions:
REMARK  status: ('A' for Active; 'I' for Inactive)
REMARK    1  A    between atoms: C2_2  and  N1_3 
REMARK    2  A    between atoms: N1_3  and  C3_4 
REMARK       I    between atoms: N1_3  and  C14_22 
REMARK    3  A    between atoms: C3_4  and  C4_5 
REMARK    4  A    between atoms: C5_6  and  O1_7 
REMARK    5  A    between atoms: N2_9  and  C6_10 
REMARK    6  A    between atoms: C6_10  and  C7_11 
REMARK    7  A    between atoms: C14_22  and  O4_24 
ROOT
HETATM    1  C4  UNL     1      28.180   7.193   2.045  1.00  0.00     0.043 A 
HETATM    2  C5  UNL     1      28.118   7.304   0.639  1.00  0.00     0.156 A 
HETATM    3  N2  UNL     1      27.453   6.257   0.127  1.00  0.00    -0.317 N 
HETATM    4  C8  UNL     1      27.054   5.428   1.095  1.00  0.00     0.070 A 
HETATM    5  C9  UNL     1      26.373   4.240   1.098  1.00  0.00     0.063 A 
HETATM    6 CL1  UNL     1      25.839   3.489  -0.377  1.00  0.00    -0.082 Cl
HETATM    7  C10 UNL     1      26.100   3.559   2.291  1.00  0.00     0.050 A 
HETATM    8  C11 UNL     1      26.543   4.134   3.438  1.00  0.00     0.036 A 
HETATM    9 CL2  UNL     1      26.263   3.348   4.975  1.00  0.00    -0.084 Cl
HETATM   10  C12 UNL     1      27.231   5.329   3.468  1.00  0.00     0.038 A 
HETATM   11  C13 UNL     1      27.516   6.024   2.302  1.00  0.00     0.010 A 
ENDROOT
BRANCH   1  12
HETATM   12  C3  UNL     1      28.838   8.171   2.901  1.00  0.00     0.113 C 
BRANCH  12  13
HETATM   13  N1  UNL     1      28.122   9.158   3.587  1.00  0.00    -0.303 N 
HETATM   14  C14 UNL     1      27.813  10.459   3.057  1.00  0.00     0.366 C 
HETATM   15  O3  UNL     1      28.179  10.752   1.887  1.00  0.00    -0.238 OA
BRANCH  13  16
HETATM   16  C2  UNL     1      27.684   8.884   4.956  1.00  0.00     0.129 C 
HETATM   17  C1  UNL     1      28.789   8.299   5.796  1.00  0.00     0.027 C 
ENDBRANCH  13  16
BRANCH  14  18
HETATM   18  O4  UNL     1      27.128  11.422   3.763  1.00  0.00    -0.309 OA
HETATM   19  C15 UNL     1      27.642  12.688   4.125  1.00  0.00     0.215 C 
ENDBRANCH  14  18
ENDBRANCH  12  13
ENDBRANCH   1  12
BRANCH   2  20
HETATM   20  O1  UNL     1      28.688   8.372  -0.026  1.00  0.00    -0.345 OA
ATOM     21  H1  UNL     1      29.227   8.245  -0.798  1.00  0.00     0.219 HD
ENDBRANCH   2  20
BRANCH   3  22
HETATM   22  C6  UNL     1      27.272   6.092  -1.288  1.00  0.00     0.223 C 
BRANCH  22  23
HETATM   23  C7  UNL     1      26.183   6.892  -1.884  1.00  0.00     0.215 C 
HETATM   24  O2  UNL     1      25.310   7.407  -1.248  1.00  0.00    -0.283 OA
HETATM   25  S1  UNL     1      26.056   7.182  -3.676  1.00  0.00    -0.010 SA
ENDBRANCH  22  23
ENDBRANCH   3  22
TORSDOF 7
ENDMDL
MODEL 3
REMARK VINA RESULT: -8.095452013      1.540      2.202
REMARK  7 active torsions:
REMARK  status: ('A' for Active; 'I' for Inactive)
REMARK    1  A    between atoms: C2_2  and  N1_3 
REMARK    2  A    between atoms: N1_3  and  C3_4 
REMARK       I    between atoms: N1_3  and  C14_22 
REMARK    3  A    between atoms: C3_4  and  C4_5 
REMARK    4  A    between atoms: C5_6  and  O1_7 
REMARK    5  A    between atoms: N2_9  and  C6_10 
REMARK    6  A    between atoms: C6_10  and  C7_11 
REMARK    7  A    between atoms: C14_22  and  O4_24 
ROOT
HETATM    1  C4  UNL     1      27.904   7.745   1.674  1.00  0.00     0.043 A 
HETATM    2  C5  UNL     1      27.475   8.827   0.876  1.00  0.00     0.156 A 
HETATM    3  N2  UNL     1      27.380   9.937   1.623  1.00  0.00    -0.317 N 
HETATM    4  C8  UNL     1      27.717   9.686   2.892  1.00  0.00     0.070 A 
HETATM    5  C9  UNL     1      27.768  10.456   4.023  1.00  0.00     0.063 A 
HETATM    6 CL1  UNL     1      27.332  12.139   4.005  1.00  0.00    -0.082 Cl
HETATM    7  C10 UNL     1      28.148   9.913   5.257  1.00  0.00     0.050 A 
HETATM    8  C11 UNL     1      28.461   8.592   5.273  1.00  0.00     0.036 A 
HETATM    9 CL2  UNL     1      28.932   7.823   6.772  1.00  0.00    -0.084 Cl
HETATM   10  C12 UNL     1      28.419   7.791   4.151  1.00  0.00     0.038 A 
HETATM   11  C13 UNL     1      28.046   8.302   2.916  1.00  0.00     0.010 A 
ENDROOT
BRANCH   1  12
HETATM   12  C3  UNL     1      28.104   6.396   1.161  1.00  0.00     0.113 C 
BRANCH  12  13
HETATM   13  N1  UNL     1      27.097   5.427   1.211  1.00  0.00    -0.303 N 
HETATM   14  C14 UNL     1      26.907   4.503   2.296  1.00  0.00     0.366 C 
HETATM   15  O3  UNL     1      27.670   4.561   3.298  1.00  0.00    -0.238 OA
BRANCH  13  16
HETATM   16  C2  UNL     1      26.188   5.299   0.070  1.00  0.00     0.129 C 
HETATM   17  C1  UNL     1      26.925   5.309  -1.243  1.00  0.00     0.027 C 
ENDBRANCH  13  16
BRANCH  14  18
HETATM   18  O4  UNL     1      25.923   3.541   2.310  1.00  0.00    -0.309 OA
HETATM   19  C15 UNL     1      25.508   2.813   3.448  1.00  0.00     0.215 C 
ENDBRANCH  14  18
ENDBRANCH  12  13
ENDBRANCH   1  12
BRANCH   2  20
HETATM   20  O1  UNL     1      27.214   8.670  -0.471  1.00  0.00    -0.345 OA
ATOM     21  H1  UNL     1      27.612   9.236  -1.122  1.00  0.00     0.219 HD
ENDBRANCH   2  20
BRANCH   3  22
HETATM   22  C6  UNL     1      26.927  11.185   1.075  1.00  0.00     0.223 C 
BRANCH  22  23
HETATM   23  C7  UNL     1      27.962  11.991   0.397  1.00  0.00     0.215 C 
HETATM   24  O2  UNL     1      28.864  12.534   0.968  1.00  0.00    -0.283 OA
HETATM   25  S1  UNL     1      27.973  12.247  -1.405  1.00  0.00    -0.010 SA
ENDBRANCH  22  23
ENDBRANCH   3  22
TORSDOF 7
ENDMDL
MODEL 4
REMARK VINA RESULT: -8.093387709      1.142      1.724
REMARK  7 active torsions:
REMARK  status: ('A' for Active; 'I' for Inactive)
REMARK    1  A    between atoms: C2_2  and  N1_3 
REMARK    2  A    between atoms: N1_3  and  C3_4 
REMARK       I    between atoms: N1_3  and  C14_22 
REMARK    3  A    between atoms: C3_4  and  C4_5 
REMARK    4  A    between atoms: C5_6  and  O1_7 
REMARK    5  A    between atoms: N2_9  and  C6_10 
REMARK    6  A    between atoms: C6_10  and  C7_11 
REMARK    7  A    between atoms: C14_22  and  O4_24 
ROOT
HETATM    1  C4  UNL     1      27.993   8.202   0.880  1.00  0.00     0.043 A 
HETATM    2  C5  UNL     1      27.616   9.420   0.274  1.00  0.00     0.156 A 
HETATM    3  N2  UNL     1      27.508  10.379   1.205  1.00  0.00    -0.317 N 
HETATM    4  C8  UNL     1      27.784   9.896   2.420  1.00  0.00     0.070 A 
HETATM    5  C9  UNL     1      27.798  10.448   3.673  1.00  0.00     0.063 A 
HETATM    6 CL1  UNL     1      27.390  12.117   3.942  1.00  0.00    -0.082 Cl
HETATM    7  C10 UNL     1      28.115   9.683   4.802  1.00  0.00     0.050 A 
HETATM    8  C11 UNL     1      28.406   8.374   4.592  1.00  0.00     0.036 A 
HETATM    9 CL2  UNL     1      28.798   7.336   5.945  1.00  0.00    -0.084 Cl
HETATM   10  C12 UNL     1      28.400   7.789   3.343  1.00  0.00     0.038 A 
HETATM   11  C13 UNL     1      28.089   8.523   2.207  1.00  0.00     0.010 A 
ENDROOT
BRANCH   1  12
HETATM   12  C3  UNL     1      28.193   6.963   0.140  1.00  0.00     0.113 C 
BRANCH  12  13
HETATM   13  N1  UNL     1      27.151   6.058  -0.087  1.00  0.00    -0.303 N 
HETATM   14  C14 UNL     1      26.883   4.903   0.727  1.00  0.00     0.366 C 
HETATM   15  O3  UNL     1      27.606   4.676   1.735  1.00  0.00    -0.238 OA
BRANCH  13  16
HETATM   16  C2  UNL     1      26.287   6.258  -1.251  1.00  0.00     0.129 C 
HETATM   17  C1  UNL     1      27.029   6.054  -2.546  1.00  0.00     0.027 C 
ENDBRANCH  13  16
BRANCH  14  18
HETATM   18  O4  UNL     1      25.866   4.012   0.468  1.00  0.00    -0.309 OA
HETATM   19  C15 UNL     1      26.040   2.663   0.086  1.00  0.00     0.215 C 
ENDBRANCH  14  18
ENDBRANCH  12  13
ENDBRANCH   1  12
BRANCH   2  20
HETATM   20  O1  UNL     1      27.412   9.514  -1.089  1.00  0.00    -0.345 OA
ATOM     21  H1  UNL     1      28.133   9.442  -1.704  1.00  0.00     0.219 HD
ENDBRANCH   2  20
BRANCH   3  22
HETATM   22  C6  UNL     1      27.099  11.716   0.874  1.00  0.00     0.223 C 
BRANCH  22  23
HETATM   23  C7  UNL     1      28.196  12.692   0.720  1.00  0.00     0.215 C 
HETATM   24  O2  UNL     1      28.125  13.835   1.069  1.00  0.00    -0.283 OA
HETATM   25  S1  UNL     1      29.794  12.251  -0.031  1.00  0.00    -0.010 SA
ENDBRANCH  22  23
ENDBRANCH   3  22
TORSDOF 7
ENDMDL
MODEL 5
REMARK VINA RESULT: -8.030027403      3.162      6.136
REMARK  7 active torsions:
REMARK  status: ('A' for Active; 'I' for Inactive)
REMARK    1  A    between atoms: C2_2  and  N1_3 
REMARK    2  A    between atoms: N1_3  and  C3_4 
REMARK       I    between atoms: N1_3  and  C14_22 
REMARK    3  A    between atoms: C3_4  and  C4_5 
REMARK    4  A    between atoms: C5_6  and  O1_7 
REMARK    5  A    between atoms: N2_9  and  C6_10 
REMARK    6  A    between atoms: C6_10  and  C7_11 
REMARK    7  A    between atoms: C14_22  and  O4_24 
ROOT
HETATM    1  C4  UNL     1      27.921   7.316   3.024  1.00  0.00     0.043 A 
HETATM    2  C5  UNL     1      27.260   6.814   1.883  1.00  0.00     0.156 A 
HETATM    3  N2  UNL     1      26.616   5.678   2.191  1.00  0.00    -0.317 N 
HETATM    4  C8  UNL     1      26.796   5.364   3.477  1.00  0.00     0.070 A 
HETATM    5  C9  UNL     1      26.375   4.322   4.261  1.00  0.00     0.063 A 
HETATM    6 CL1  UNL     1      25.399   3.033   3.622  1.00  0.00    -0.082 Cl
HETATM    7  C10 UNL     1      26.739   4.233   5.610  1.00  0.00     0.050 A 
HETATM    8  C11 UNL     1      27.526   5.226   6.099  1.00  0.00     0.036 A 
HETATM    9 CL2  UNL     1      28.044   5.190   7.769  1.00  0.00    -0.084 Cl
HETATM   10  C12 UNL     1      27.964   6.287   5.335  1.00  0.00     0.038 A 
HETATM   11  C13 UNL     1      27.620   6.401   3.996  1.00  0.00     0.010 A 
ENDROOT
BRANCH   1  12
HETATM   12  C3  UNL     1      28.714   8.538   3.021  1.00  0.00     0.113 C 
BRANCH  12  13
HETATM   13  N1  UNL     1      28.127   9.804   2.916  1.00  0.00    -0.303 N 
HETATM   14  C14 UNL     1      28.230  10.657   1.763  1.00  0.00     0.366 C 
HETATM   15  O3  UNL     1      28.867  10.256   0.753  1.00  0.00    -0.238 OA
BRANCH  13  16
HETATM   16  C2  UNL     1      27.387  10.332   4.063  1.00  0.00     0.129 C 
HETATM   17  C1  UNL     1      28.053   9.992   5.370  1.00  0.00     0.027 C 
ENDBRANCH  13  16
BRANCH  14  18
HETATM   18  O4  UNL     1      27.663  11.910   1.694  1.00  0.00    -0.309 OA
HETATM   19  C15 UNL     1      28.369  13.113   1.468  1.00  0.00     0.215 C 
ENDBRANCH  14  18
ENDBRANCH  12  13
ENDBRANCH   1  12
BRANCH   2  20
HETATM   20  O1  UNL     1      27.322   7.466   0.668  1.00  0.00    -0.345 OA
ATOM     21  H1  UNL     1      27.081   7.031  -0.142  1.00  0.00     0.219 HD
ENDBRANCH   2  20
BRANCH   3  22
HETATM   22  C6  UNL     1      25.887   4.927   1.207  1.00  0.00     0.223 C 
BRANCH  22  23
HETATM   23  C7  UNL     1      26.634   3.823   0.573  1.00  0.00     0.215 C 
HETATM   24  O2  UNL     1      27.737   3.490   0.901  1.00  0.00    -0.283 OA
HETATM   25  S1  UNL     1      25.946   2.840  -0.796  1.00  0.00    -0.010 SA
ENDBRANCH  22  23
ENDBRANCH   3  22
TORSDOF 7
ENDMDL
