MODEL 1
REMARK VINA RESULT: -8.300080097      0.000      0.000
REMARK  6 active torsions:
REMARK  status: ('A' for Active; 'I' for Inactive)
REMARK    1  A    between atoms: C2_2  and  C3_3 
REMARK    2  A    between atoms: C3_3  and  C4_4 
REMARK    3  A    between atoms: C4_4  and  N1_5 
REMARK    4  A    between atoms: N1_5  and  C5_7 
REMARK    5  A    between atoms: N4_12  and  C7_13 
REMARK    6  A    between atoms: C10_17  and  N5_18 
ROOT
HETATM    1  C5  UNL     1      26.888   5.212   5.547  1.00  0.00     0.188 C 
HETATM    2  N2  UNL     1      27.764   6.365   5.837  1.00  0.00    -0.343 N 
ATOM      3  H2  UNL     1      28.107   6.509   6.787  1.00  0.00     0.164 HD
HETATM    4  C6  UNL     1      28.102   7.192   4.905  1.00  0.00     0.192 C 
HETATM    5  N3  UNL     1      28.951   8.286   5.246  1.00  0.00    -0.063 NA
HETATM    6  N4  UNL     1      27.671   7.063   3.567  1.00  0.00    -0.319 N 
HETATM    7  C16 UNL     1      26.965   5.909   3.155  1.00  0.00     0.144 C 
HETATM    8  C17 UNL     1      27.035   4.754   4.151  1.00  0.00     0.007 C 
HETATM    9  C18 UNL     1      28.209   3.875   3.835  1.00  0.00     0.020 C 
HETATM   10  C19 UNL     1      25.781   3.909   3.840  1.00  0.00     0.020 C 
ENDROOT
BRANCH   6  11
HETATM   11  C7  UNL     1      27.960   8.103   2.662  1.00  0.00     0.060 A 
HETATM   12  C8  UNL     1      27.726   9.422   3.084  1.00  0.00     0.057 A 
HETATM   13  C9  UNL     1      27.984  10.500   2.249  1.00  0.00     0.062 A 
HETATM   14 CL1  UNL     1      27.660  12.115   2.836  1.00  0.00    -0.082 Cl
HETATM   15  C10 UNL     1      28.471  10.283   0.997  1.00  0.00     0.053 A 
HETATM   16  C14 UNL     1      28.701   8.971   0.582  1.00  0.00     0.057 A 
HETATM   17  C15 UNL     1      28.453   7.896   1.394  1.00  0.00     0.063 A 
HETATM   18 CL2  UNL     1      28.771   6.294   0.805  1.00  0.00    -0.082 Cl
BRANCH  15  19
HETATM   19  N5  UNL     1      28.763  11.349   0.093  1.00  0.00    -0.379 N 
HETATM   20  C11 UNL     1      29.941  12.216  -0.115  1.00  0.00     0.124 C 
HETATM   21  C12 UNL     1      28.999  13.295  -0.544  1.00  0.00     0.040 C 
HETATM   22  C13 UNL     1      28.154  12.086  -0.983  1.00  0.00     0.124 C 
ENDBRANCH  15  19
ENDBRANCH   6  11
BRANCH   1  23
HETATM   23  N1  UNL     1      26.989   4.341   6.623  1.00  0.00    -0.401 N 
ATOM     24  H1  UNL     1      27.872   3.854   6.774  1.00  0.00     0.155 HD
BRANCH  23  25
HETATM   25  C4  UNL     1      25.931   4.099   7.512  1.00  0.00     0.115 C 
BRANCH  25  26
HETATM   26  C3  UNL     1      26.386   4.059   8.977  1.00  0.00     0.019 C 
BRANCH  26  27
HETATM   27  C2  UNL     1      25.223   4.339   9.885  1.00  0.00    -0.003 C 
HETATM   28  C1  UNL     1      23.973   3.830   9.215  1.00  0.00     0.005 C 
ENDBRANCH  26  27
ENDBRANCH  25  26
ENDBRANCH  23  25
ENDBRANCH   1  23
TORSDOF 6
ENDMDL
MODEL 2
REMARK VINA RESULT: -8.018021725      1.231      1.426
REMARK  6 active torsions:
REMARK  status: ('A' for Active; 'I' for Inactive)
REMARK    1  A    between atoms: C2_2  and  C3_3 
REMARK    2  A    between atoms: C3_3  and  C4_4 
REMARK    3  A    between atoms: C4_4  and  N1_5 
REMARK    4  A    between atoms: N1_5  and  C5_7 
REMARK    5  A    between atoms: N4_12  and  C7_13 
REMARK    6  A    between atoms: C10_17  and  N5_18 
ROOT
HETATM    1  C5  UNL     1      26.924   5.386   4.348  1.00  0.00     0.188 C 
HETATM    2  N2  UNL     1      27.870   6.495   4.582  1.00  0.00    -0.343 N 
ATOM      3  H2  UNL     1      28.398   6.529   5.454  1.00  0.00     0.164 HD
HETATM    4  C6  UNL     1      28.037   7.422   3.699  1.00  0.00     0.192 C 
HETATM    5  N3  UNL     1      28.965   8.467   3.981  1.00  0.00    -0.063 NA
HETATM    6  N4  UNL     1      27.344   7.447   2.468  1.00  0.00    -0.319 N 
HETATM    7  C16 UNL     1      26.541   6.349   2.082  1.00  0.00     0.144 C 
HETATM    8  C17 UNL     1      26.778   5.088   2.910  1.00  0.00     0.007 C 
HETATM    9  C18 UNL     1      27.843   4.247   2.269  1.00  0.00     0.020 C 
HETATM   10  C19 UNL     1      25.466   4.288   2.764  1.00  0.00     0.020 C 
ENDROOT
BRANCH   6  11
HETATM   11  C7  UNL     1      27.475   8.582   1.644  1.00  0.00     0.060 A 
HETATM   12  C8  UNL     1      27.463   9.843   2.261  1.00  0.00     0.057 A 
HETATM   13  C9  UNL     1      27.583  11.008   1.518  1.00  0.00     0.062 A 
HETATM   14 CL1  UNL     1      27.550  12.546   2.350  1.00  0.00    -0.082 Cl
HETATM   15  C10 UNL     1      27.715  10.935   0.165  1.00  0.00     0.053 A 
HETATM   16  C14 UNL     1      27.726   9.679  -0.444  1.00  0.00     0.057 A 
HETATM   17  C15 UNL     1      27.609   8.520   0.277  1.00  0.00     0.063 A 
HETATM   18 CL2  UNL     1      27.637   6.997  -0.555  1.00  0.00    -0.082 Cl
BRANCH  15  19
HETATM   19  N5  UNL     1      27.850  12.096  -0.656  1.00  0.00    -0.379 N 
HETATM   20  C11 UNL     1      27.835  13.547  -0.379  1.00  0.00     0.124 C 
HETATM   21  C12 UNL     1      27.248  13.741  -1.741  1.00  0.00     0.040 C 
HETATM   22  C13 UNL     1      28.049  12.460  -2.034  1.00  0.00     0.124 C 
ENDBRANCH  15  19
ENDBRANCH   6  11
BRANCH   1  23
HETATM   23  N1  UNL     1      27.214   4.397   5.279  1.00  0.00    -0.401 N 
ATOM     24  H1  UNL     1      27.534   3.489   4.942  1.00  0.00     0.155 HD
BRANCH  23  25
HETATM   25  C4  UNL     1      27.088   4.591   6.662  1.00  0.00     0.115 C 
BRANCH  25  26
HETATM   26  C3  UNL     1      25.816   3.951   7.236  1.00  0.00     0.019 C 
BRANCH  26  27
HETATM   27  C2  UNL     1      25.863   3.969   8.737  1.00  0.00    -0.003 C 
HETATM   28  C1  UNL     1      24.450   3.871   9.251  1.00  0.00     0.005 C 
ENDBRANCH  26  27
ENDBRANCH  25  26
ENDBRANCH  23  25
ENDBRANCH   1  23
TORSDOF 6
ENDMDL
MODEL 3
REMARK VINA RESULT: -7.999111810      6.166      8.474
REMARK  6 active torsions:
REMARK  status: ('A' for Active; 'I' for Inactive)
REMARK    1  A    between atoms: C2_2  and  C3_3 
REMARK    2  A    between atoms: C3_3  and  C4_4 
REMARK    3  A    between atoms: C4_4  and  N1_5 
REMARK    4  A    between atoms: N1_5  and  C5_7 
REMARK    5  A    between atoms: N4_12  and  C7_13 
REMARK    6  A    between atoms: C10_17  and  N5_18 
ROOT
HETATM    1  C5  UNL     1      26.228   7.396   0.690  1.00  0.00     0.188 C 
HETATM    2  N2  UNL     1      25.839   7.777  -0.683  1.00  0.00    -0.343 N 
ATOM      3  H2  UNL     1      25.492   8.719  -0.864  1.00  0.00     0.164 HD
HETATM    4  C6  UNL     1      25.932   6.934  -1.656  1.00  0.00     0.192 C 
HETATM    5  N3  UNL     1      25.541   7.360  -2.961  1.00  0.00    -0.063 NA
HETATM    6  N4  UNL     1      26.401   5.613  -1.489  1.00  0.00    -0.319 N 
HETATM    7  C16 UNL     1      26.948   5.203  -0.252  1.00  0.00     0.144 C 
HETATM    8  C17 UNL     1      27.279   6.359   0.691  1.00  0.00     0.007 C 
HETATM    9  C18 UNL     1      28.693   6.811   0.470  1.00  0.00     0.020 C 
HETATM   10  C19 UNL     1      27.256   5.721   2.096  1.00  0.00     0.020 C 
ENDROOT
BRANCH   6  11
HETATM   11  C7  UNL     1      26.312   4.723  -2.578  1.00  0.00     0.060 A 
HETATM   12  C8  UNL     1      26.755   5.176  -3.831  1.00  0.00     0.057 A 
HETATM   13  C9  UNL     1      26.698   4.360  -4.952  1.00  0.00     0.062 A 
HETATM   14 CL1  UNL     1      27.258   4.992  -6.483  1.00  0.00    -0.082 Cl
HETATM   15  C10 UNL     1      26.203   3.097  -4.842  1.00  0.00     0.053 A 
HETATM   16  C14 UNL     1      25.762   2.652  -3.595  1.00  0.00     0.057 A 
HETATM   17  C15 UNL     1      25.814   3.444  -2.479  1.00  0.00     0.063 A 
HETATM   18 CL2  UNL     1      25.251   2.814  -0.963  1.00  0.00    -0.082 Cl
BRANCH  15  19
HETATM   19  N5  UNL     1      26.123   2.206  -5.956  1.00  0.00    -0.379 N 
HETATM   20  C11 UNL     1      27.044   1.202  -6.526  1.00  0.00     0.124 C 
HETATM   21  C12 UNL     1      26.459   1.512  -7.867  1.00  0.00     0.040 C 
HETATM   22  C13 UNL     1      25.219   1.834  -7.013  1.00  0.00     0.124 C 
ENDBRANCH  15  19
ENDBRANCH   6  11
BRANCH   1  23
HETATM   23  N1  UNL     1      26.352   8.571   1.421  1.00  0.00    -0.401 N 
ATOM     24  H1  UNL     1      25.916   8.619   2.341  1.00  0.00     0.155 HD
BRANCH  23  25
HETATM   25  C4  UNL     1      27.049   9.693   0.950  1.00  0.00     0.115 C 
BRANCH  25  26
HETATM   26  C3  UNL     1      28.108  10.190   1.943  1.00  0.00     0.019 C 
BRANCH  26  27
HETATM   27  C2  UNL     1      27.749   9.761   3.337  1.00  0.00    -0.003 C 
HETATM   28  C1  UNL     1      28.813   8.812   3.824  1.00  0.00     0.005 C 
ENDBRANCH  26  27
ENDBRANCH  25  26
ENDBRANCH  23  25
ENDBRANCH   1  23
TORSDOF 6
ENDMDL
MODEL 4
REMARK VINA RESULT: -7.950174123      2.899      7.868
REMARK  6 active torsions:
REMARK  status: ('A' for Active; 'I' for Inactive)
REMARK    1  A    between atoms: C2_2  and  C3_3 
REMARK    2  A    between atoms: C3_3  and  C4_4 
REMARK    3  A    between atoms: C4_4  and  N1_5 
REMARK    4  A    between atoms: N1_5  and  C5_7 
REMARK    5  A    between atoms: N4_12  and  C7_13 
REMARK    6  A    between atoms: C10_17  and  N5_18 
ROOT
HETATM    1  C5  UNL     1      28.625  12.369   2.274  1.00  0.00     0.188 C 
HETATM    2  N2  UNL     1      27.747  11.818   3.326  1.00  0.00    -0.343 N 
ATOM      3  H2  UNL     1      27.394  12.433   4.059  1.00  0.00     0.164 HD
HETATM    4  C6  UNL     1      27.421  10.569   3.330  1.00  0.00     0.192 C 
HETATM    5  N3  UNL     1      26.570  10.095   4.372  1.00  0.00    -0.063 NA
HETATM    6  N4  UNL     1      27.868   9.653   2.353  1.00  0.00    -0.319 N 
HETATM    7  C16 UNL     1      28.576  10.112   1.219  1.00  0.00     0.144 C 
HETATM    8  C17 UNL     1      28.493  11.622   1.008  1.00  0.00     0.007 C 
HETATM    9  C18 UNL     1      27.321  11.953   0.131  1.00  0.00     0.020 C 
HETATM   10  C19 UNL     1      29.749  11.958   0.175  1.00  0.00     0.020 C 
ENDROOT
BRANCH   6  11
HETATM   11  C7  UNL     1      27.590   8.283   2.536  1.00  0.00     0.060 A 
HETATM   12  C8  UNL     1      28.040   7.677   3.719  1.00  0.00     0.057 A 
HETATM   13  C9  UNL     1      27.808   6.332   3.971  1.00  0.00     0.062 A 
HETATM   14 CL1  UNL     1      28.405   5.639   5.461  1.00  0.00    -0.082 Cl
HETATM   15  C10 UNL     1      27.134   5.582   3.058  1.00  0.00     0.053 A 
HETATM   16  C14 UNL     1      26.690   6.188   1.882  1.00  0.00     0.057 A 
HETATM   17  C15 UNL     1      26.910   7.515   1.620  1.00  0.00     0.063 A 
HETATM   18 CL2  UNL     1      26.321   8.197   0.136  1.00  0.00    -0.082 Cl
BRANCH  15  19
HETATM   19  N5  UNL     1      26.858   4.195   3.260  1.00  0.00    -0.379 N 
HETATM   20  C11 UNL     1      26.073   3.193   2.512  1.00  0.00     0.124 C 
HETATM   21  C12 UNL     1      25.780   2.530   3.819  1.00  0.00     0.040 C 
HETATM   22  C13 UNL     1      27.149   3.132   4.186  1.00  0.00     0.124 C 
ENDBRANCH  15  19
ENDBRANCH   6  11
BRANCH   1  23
HETATM   23  N1  UNL     1      28.510  13.752   2.329  1.00  0.00    -0.401 N 
ATOM     24  H1  UNL     1      28.644  14.286   1.470  1.00  0.00     0.155 HD
BRANCH  23  25
HETATM   25  C4  UNL     1      28.218  14.448   3.511  1.00  0.00     0.115 C 
BRANCH  25  26
HETATM   26  C3  UNL     1      29.480  14.943   4.232  1.00  0.00     0.019 C 
BRANCH  26  27
HETATM   27  C2  UNL     1      29.200  15.115   5.698  1.00  0.00    -0.003 C 
HETATM   28  C1  UNL     1      28.157  14.103   6.098  1.00  0.00     0.005 C 
ENDBRANCH  26  27
ENDBRANCH  25  26
ENDBRANCH  23  25
ENDBRANCH   1  23
TORSDOF 6
ENDMDL
MODEL 5
REMARK VINA RESULT: -7.930870139      3.557      7.789
REMARK  6 active torsions:
REMARK  status: ('A' for Active; 'I' for Inactive)
REMARK    1  A    between atoms: C2_2  and  C3_3 
REMARK    2  A    between atoms: C3_3  and  C4_4 
REMARK    3  A    between atoms: C4_4  and  N1_5 
REMARK    4  A    between atoms: N1_5  and  C5_7 
REMARK    5  A    between atoms: N4_12  and  C7_13 
REMARK    6  A    between atoms: C10_17  and  N5_18 
ROOT
HETATM    1  C5  UNL     1      28.617  12.994   2.644  1.00  0.00     0.188 C 
HETATM    2  N2  UNL     1      27.709  12.245   3.536  1.00  0.00    -0.343 N 
ATOM      3  H2  UNL     1      27.304  12.712   4.348  1.00  0.00     0.164 HD
HETATM    4  C6  UNL     1      27.422  11.009   3.302  1.00  0.00     0.192 C 
HETATM    5  N3  UNL     1      26.538  10.338   4.199  1.00  0.00    -0.063 NA
HETATM    6  N4  UNL     1      27.940  10.292   2.202  1.00  0.00    -0.319 N 
HETATM    7  C16 UNL     1      28.685  10.961   1.204  1.00  0.00     0.144 C 
HETATM    8  C17 UNL     1      28.567  12.483   1.261  1.00  0.00     0.007 C 
HETATM    9  C18 UNL     1      27.426  12.940   0.399  1.00  0.00     0.020 C 
HETATM   10  C19 UNL     1      29.848  12.989   0.565  1.00  0.00     0.020 C 
ENDROOT
BRANCH   6  11
HETATM   11  C7  UNL     1      27.696   8.906   2.124  1.00  0.00     0.060 A 
HETATM   12  C8  UNL     1      26.957   8.433   1.028  1.00  0.00     0.057 A 
HETATM   13  C9  UNL     1      26.672   7.083   0.882  1.00  0.00     0.062 A 
HETATM   14 CL1  UNL     1      25.739   6.564  -0.503  1.00  0.00    -0.082 Cl
HETATM   15  C10 UNL     1      27.114   6.196   1.815  1.00  0.00     0.053 A 
HETATM   16  C14 UNL     1      27.847   6.671   2.903  1.00  0.00     0.057 A 
HETATM   17  C15 UNL     1      28.137   8.001   3.061  1.00  0.00     0.063 A 
HETATM   18 CL2  UNL     1      29.059   8.511   4.440  1.00  0.00    -0.082 Cl
BRANCH  15  19
HETATM   19  N5  UNL     1      26.860   4.794   1.719  1.00  0.00    -0.379 N 
HETATM   20  C11 UNL     1      27.445   3.705   0.911  1.00  0.00     0.124 C 
HETATM   21  C12 UNL     1      26.104   3.045   0.934  1.00  0.00     0.040 C 
HETATM   22  C13 UNL     1      26.003   3.783   2.281  1.00  0.00     0.124 C 
ENDBRANCH  15  19
ENDBRANCH   6  11
BRANCH   1  23
HETATM   23  N1  UNL     1      28.459  14.343   2.938  1.00  0.00    -0.401 N 
ATOM     24  H1  UNL     1      28.515  15.017   2.175  1.00  0.00     0.155 HD
BRANCH  23  25
HETATM   25  C4  UNL     1      28.224  14.819   4.236  1.00  0.00     0.115 C 
BRANCH  25  26
HETATM   26  C3  UNL     1      29.513  15.251   4.949  1.00  0.00     0.019 C 
BRANCH  26  27
HETATM   27  C2  UNL     1      29.430  14.915   6.410  1.00  0.00    -0.003 C 
HETATM   28  C1  UNL     1      28.196  14.079   6.629  1.00  0.00     0.005 C 
ENDBRANCH  26  27
ENDBRANCH  25  26
ENDBRANCH  23  25
ENDBRANCH   1  23
TORSDOF 6
ENDMDL
