MODEL 1
REMARK VINA RESULT: -8.759957023      0.000      0.000
REMARK  7 active torsions:
REMARK  status: ('A' for Active; 'I' for Inactive)
REMARK    1  A    between atoms: O1_1  and  C1_3 
REMARK    2  A    between atoms: C3_5  and  C4_6 
REMARK    3  A    between atoms: C4_6  and  O2_7 
REMARK    4  A    between atoms: C4_6  and  N1_9 
REMARK    5  A    between atoms: N2_22  and  C14_23 
REMARK    6  A    between atoms: C14_23  and  C15_24 
REMARK    7  A    between atoms: C15_24  and  N3_25 
ROOT
HETATM    1  C4  UNL     1      28.991   7.892   2.076  1.00  0.00     0.256 C 
ENDROOT
BRANCH   1   2
HETATM    2  C3  UNL     1      28.519   9.287   2.251  1.00  0.00     0.010 A 
HETATM    3  C2  UNL     1      27.826   9.722   3.354  1.00  0.00     0.069 A 
HETATM    4  C1  UNL     1      27.557  11.080   3.135  1.00  0.00     0.142 A 
HETATM    5  N2  UNL     1      28.054  11.460   1.971  1.00  0.00    -0.336 N 
HETATM    6  C13 UNL     1      28.643  10.372   1.421  1.00  0.00     0.104 A 
BRANCH   4   7
HETATM    7  O1  UNL     1      26.848  11.839   4.091  1.00  0.00    -0.346 OA
ATOM      8  H1  UNL     1      26.572  12.728   3.898  1.00  0.00     0.219 HD
ENDBRANCH   4   7
BRANCH   5   9
HETATM    9  C14 UNL     1      27.982  12.798   1.405  1.00  0.00     0.160 C 
BRANCH   9  10
HETATM   10  C15 UNL     1      29.100  13.195   0.546  1.00  0.00     0.292 C 
BRANCH  10  11
HETATM   11  N3  UNL     1      29.059  13.048  -0.830  1.00  0.00     0.090 N 
HETATM   12  C16 UNL     1      27.942  12.649  -1.560  1.00  0.00     0.274 C 
HETATM   13  C17 UNL     1      28.725  11.476  -2.109  1.00  0.00     0.060 C 
HETATM   14  C18 UNL     1      29.930  12.189  -1.537  1.00  0.00     0.274 C 
ENDBRANCH  10  11
ENDBRANCH   9  10
ENDBRANCH   5   9
ENDBRANCH   1   2
BRANCH   1  15
HETATM   15  O2  UNL     1      30.158   8.016   1.261  1.00  0.00    -0.372 OA
ATOM     16  H2  UNL     1      30.627   7.203   1.400  1.00  0.00     0.212 HD
ENDBRANCH   1  15
BRANCH   1  17
HETATM   17  N1  UNL     1      28.041   7.022   1.443  1.00  0.00    -0.346 N 
HETATM   18  C5  UNL     1      27.643   7.255   0.075  1.00  0.00     0.153 C 
HETATM   19  C6  UNL     1      26.725   6.236  -0.500  1.00  0.00     0.195 C 
HETATM   20  O3  UNL     1      26.860   4.941   0.076  1.00  0.00    -0.347 OA
HETATM   21  C7  UNL     1      26.877   4.862   1.456  1.00  0.00     0.097 A 
HETATM   22  C8  UNL     1      26.322   3.779   2.093  1.00  0.00     0.064 A 
HETATM   23  C12 UNL     1      27.479   5.923   2.146  1.00  0.00     0.068 A 
HETATM   24  C9  UNL     1      26.357   3.730   3.492  1.00  0.00     0.058 A 
HETATM   25 CL1  UNL     1      25.645   2.346   4.265  1.00  0.00    -0.082 Cl
HETATM   26  C10 UNL     1      26.949   4.778   4.169  1.00  0.00     0.058 A 
HETATM   27 CL2  UNL     1      26.974   4.681   5.925  1.00  0.00    -0.082 Cl
HETATM   28  C11 UNL     1      27.502   5.858   3.516  1.00  0.00     0.057 A 
ENDBRANCH   1  17
TORSDOF 7
ENDMDL
MODEL 2
REMARK VINA RESULT: -8.541458620      1.279      1.725
REMARK  7 active torsions:
REMARK  status: ('A' for Active; 'I' for Inactive)
REMARK    1  A    between atoms: O1_1  and  C1_3 
REMARK    2  A    between atoms: C3_5  and  C4_6 
REMARK    3  A    between atoms: C4_6  and  O2_7 
REMARK    4  A    between atoms: C4_6  and  N1_9 
REMARK    5  A    between atoms: N2_22  and  C14_23 
REMARK    6  A    between atoms: C14_23  and  C15_24 
REMARK    7  A    between atoms: C15_24  and  N3_25 
ROOT
HETATM    1  C4  UNL     1      28.844   7.722   2.295  1.00  0.00     0.256 C 
ENDROOT
BRANCH   1   2
HETATM    2  C3  UNL     1      28.429   9.143   2.382  1.00  0.00     0.010 A 
HETATM    3  C2  UNL     1      27.784   9.682   3.468  1.00  0.00     0.069 A 
HETATM    4  C1  UNL     1      27.560  11.031   3.159  1.00  0.00     0.142 A 
HETATM    5  N2  UNL     1      28.038  11.308   1.959  1.00  0.00    -0.336 N 
HETATM    6  C13 UNL     1      28.571  10.161   1.474  1.00  0.00     0.104 A 
BRANCH   4   7
HETATM    7  O1  UNL     1      26.907  11.883   4.075  1.00  0.00    -0.346 OA
ATOM      8  H1  UNL     1      26.158  12.403   3.807  1.00  0.00     0.219 HD
ENDBRANCH   4   7
BRANCH   5   9
HETATM    9  C14 UNL     1      28.001  12.605   1.300  1.00  0.00     0.160 C 
BRANCH   9  10
HETATM   10  C15 UNL     1      29.170  12.948   0.486  1.00  0.00     0.292 C 
BRANCH  10  11
HETATM   11  N3  UNL     1      29.158  12.854  -0.895  1.00  0.00     0.090 N 
HETATM   12  C16 UNL     1      28.065  12.457  -1.662  1.00  0.00     0.274 C 
HETATM   13  C17 UNL     1      28.887  11.325  -2.240  1.00  0.00     0.060 C 
HETATM   14  C18 UNL     1      30.063  12.044  -1.618  1.00  0.00     0.274 C 
ENDBRANCH  10  11
ENDBRANCH   9  10
ENDBRANCH   5   9
ENDBRANCH   1   2
BRANCH   1  15
HETATM   15  O2  UNL     1      29.409   7.601   0.989  1.00  0.00    -0.372 OA
ATOM     16  H2  UNL     1      29.621   6.678   0.912  1.00  0.00     0.212 HD
ENDBRANCH   1  15
BRANCH   1  17
HETATM   17  N1  UNL     1      27.771   6.783   2.455  1.00  0.00    -0.346 N 
HETATM   18  C5  UNL     1      26.927   6.448   1.333  1.00  0.00     0.153 C 
HETATM   19  C6  UNL     1      25.908   5.397   1.598  1.00  0.00     0.195 C 
HETATM   20  O3  UNL     1      26.279   4.471   2.614  1.00  0.00    -0.347 OA
HETATM   21  C7  UNL     1      26.763   4.994   3.799  1.00  0.00     0.097 A 
HETATM   22  C8  UNL     1      26.497   4.365   4.991  1.00  0.00     0.064 A 
HETATM   23  C12 UNL     1      27.521   6.170   3.712  1.00  0.00     0.068 A 
HETATM   24  C9  UNL     1      27.004   4.922   6.172  1.00  0.00     0.058 A 
HETATM   25 CL1  UNL     1      26.648   4.101   7.662  1.00  0.00    -0.082 Cl
HETATM   26  C10 UNL     1      27.749   6.081   6.084  1.00  0.00     0.058 A 
HETATM   27 CL2  UNL     1      28.367   6.748   7.589  1.00  0.00    -0.082 Cl
HETATM   28  C11 UNL     1      28.007   6.700   4.880  1.00  0.00     0.057 A 
ENDBRANCH   1  17
TORSDOF 7
ENDMDL
MODEL 3
REMARK VINA RESULT: -8.415701117      1.107      1.453
REMARK  7 active torsions:
REMARK  status: ('A' for Active; 'I' for Inactive)
REMARK    1  A    between atoms: O1_1  and  C1_3 
REMARK    2  A    between atoms: C3_5  and  C4_6 
REMARK    3  A    between atoms: C4_6  and  O2_7 
REMARK    4  A    between atoms: C4_6  and  N1_9 
REMARK    5  A    between atoms: N2_22  and  C14_23 
REMARK    6  A    between atoms: C14_23  and  C15_24 
REMARK    7  A    between atoms: C15_24  and  N3_25 
ROOT
HETATM    1  C4  UNL     1      28.598   7.789   1.702  1.00  0.00     0.256 C 
ENDROOT
BRANCH   1   2
HETATM    2  C3  UNL     1      28.289   9.195   2.063  1.00  0.00     0.010 A 
HETATM    3  C2  UNL     1      27.593   9.555   3.191  1.00  0.00     0.069 A 
HETATM    4  C1  UNL     1      27.504  10.953   3.164  1.00  0.00     0.142 A 
HETATM    5  N2  UNL     1      28.109  11.427   2.089  1.00  0.00    -0.336 N 
HETATM    6  C13 UNL     1      28.592  10.361   1.408  1.00  0.00     0.104 A 
BRANCH   4   7
HETATM    7  O1  UNL     1      26.839  11.654   4.194  1.00  0.00    -0.346 OA
ATOM      8  H1  UNL     1      25.933  11.923   4.093  1.00  0.00     0.219 HD
ENDBRANCH   4   7
BRANCH   5   9
HETATM    9  C14 UNL     1      28.232  12.830   1.724  1.00  0.00     0.160 C 
BRANCH   9  10
HETATM   10  C15 UNL     1      29.319  13.162   0.799  1.00  0.00     0.292 C 
BRANCH  10  11
HETATM   11  N3  UNL     1      29.133  13.195  -0.573  1.00  0.00     0.090 N 
HETATM   12  C16 UNL     1      27.905  13.068  -1.217  1.00  0.00     0.274 C 
HETATM   13  C17 UNL     1      28.429  11.864  -1.970  1.00  0.00     0.060 C 
HETATM   14  C18 UNL     1      29.782  12.304  -1.457  1.00  0.00     0.274 C 
ENDBRANCH  10  11
ENDBRANCH   9  10
ENDBRANCH   5   9
ENDBRANCH   1   2
BRANCH   1  15
HETATM   15  O2  UNL     1      29.962   7.827   1.281  1.00  0.00    -0.372 OA
ATOM     16  H2  UNL     1      30.455   7.642   2.071  1.00  0.00     0.212 HD
ENDBRANCH   1  15
BRANCH   1  17
HETATM   17  N1  UNL     1      27.775   7.254   0.656  1.00  0.00    -0.346 N 
HETATM   18  C5  UNL     1      27.505   8.037  -0.527  1.00  0.00     0.153 C 
HETATM   19  C6  UNL     1      26.717   7.343  -1.581  1.00  0.00     0.195 C 
HETATM   20  O3  UNL     1      26.874   5.928  -1.586  1.00  0.00    -0.347 OA
HETATM   21  C7  UNL     1      26.754   5.274  -0.373  1.00  0.00     0.097 A 
HETATM   22  C8  UNL     1      26.206   4.016  -0.318  1.00  0.00     0.064 A 
HETATM   23  C12 UNL     1      27.214   5.954   0.763  1.00  0.00     0.068 A 
HETATM   24  C9  UNL     1      26.101   3.382   0.926  1.00  0.00     0.058 A 
HETATM   25 CL1  UNL     1      25.403   1.791   0.959  1.00  0.00    -0.082 Cl
HETATM   26  C10 UNL     1      26.553   4.055   2.044  1.00  0.00     0.058 A 
HETATM   27 CL2  UNL     1      26.404   3.226   3.588  1.00  0.00    -0.082 Cl
HETATM   28  C11 UNL     1      27.100   5.317   1.973  1.00  0.00     0.057 A 
ENDBRANCH   1  17
TORSDOF 7
ENDMDL
MODEL 4
REMARK VINA RESULT: -8.384085462      1.517      2.170
REMARK  7 active torsions:
REMARK  status: ('A' for Active; 'I' for Inactive)
REMARK    1  A    between atoms: O1_1  and  C1_3 
REMARK    2  A    between atoms: C3_5  and  C4_6 
REMARK    3  A    between atoms: C4_6  and  O2_7 
REMARK    4  A    between atoms: C4_6  and  N1_9 
REMARK    5  A    between atoms: N2_22  and  C14_23 
REMARK    6  A    between atoms: C14_23  and  C15_24 
REMARK    7  A    between atoms: C15_24  and  N3_25 
ROOT
HETATM    1  C4  UNL     1      28.654   7.383   2.098  1.00  0.00     0.256 C 
ENDROOT
BRANCH   1   2
HETATM    2  C3  UNL     1      28.170   8.784   2.055  1.00  0.00     0.010 A 
HETATM    3  C2  UNL     1      28.036   9.577   3.169  1.00  0.00     0.069 A 
HETATM    4  C1  UNL     1      27.548  10.810   2.714  1.00  0.00     0.142 A 
HETATM    5  N2  UNL     1      27.393  10.781   1.402  1.00  0.00    -0.336 N 
HETATM    6  C13 UNL     1      27.769   9.548   0.989  1.00  0.00     0.104 A 
BRANCH   4   7
HETATM    7  O1  UNL     1      27.295  11.864   3.618  1.00  0.00    -0.346 OA
ATOM      8  H1  UNL     1      26.498  12.379   3.553  1.00  0.00     0.219 HD
ENDBRANCH   4   7
BRANCH   5   9
HETATM    9  C14 UNL     1      26.916  11.877   0.572  1.00  0.00     0.160 C 
BRANCH   9  10
HETATM   10  C15 UNL     1      27.602  12.059  -0.710  1.00  0.00     0.292 C 
BRANCH  10  11
HETATM   11  N3  UNL     1      28.831  12.690  -0.805  1.00  0.00     0.090 N 
HETATM   12  C16 UNL     1      29.992  12.109  -1.310  1.00  0.00     0.274 C 
HETATM   13  C17 UNL     1      30.689  12.367   0.008  1.00  0.00     0.060 C 
HETATM   14  C18 UNL     1      29.496  13.246   0.311  1.00  0.00     0.274 C 
ENDBRANCH  10  11
ENDBRANCH   9  10
ENDBRANCH   5   9
ENDBRANCH   1   2
BRANCH   1  15
HETATM   15  O2  UNL     1      29.166   7.149   0.786  1.00  0.00    -0.372 OA
ATOM     16  H2  UNL     1      30.107   7.112   0.906  1.00  0.00     0.212 HD
ENDBRANCH   1  15
BRANCH   1  17
HETATM   17  N1  UNL     1      27.639   6.417   2.409  1.00  0.00    -0.346 N 
HETATM   18  C5  UNL     1      26.775   5.913   1.369  1.00  0.00     0.153 C 
HETATM   19  C6  UNL     1      25.824   4.851   1.795  1.00  0.00     0.195 C 
HETATM   20  O3  UNL     1      26.281   4.069   2.893  1.00  0.00    -0.347 OA
HETATM   21  C7  UNL     1      26.778   4.749   3.990  1.00  0.00     0.097 A 
HETATM   22  C8  UNL     1      26.589   4.251   5.256  1.00  0.00     0.064 A 
HETATM   23  C12 UNL     1      27.468   5.943   3.737  1.00  0.00     0.068 A 
HETATM   24  C9  UNL     1      27.107   4.965   6.343  1.00  0.00     0.058 A 
HETATM   25 CL1  UNL     1      26.850   4.307   7.931  1.00  0.00    -0.082 Cl
HETATM   26  C10 UNL     1      27.785   6.142   6.092  1.00  0.00     0.058 A 
HETATM   27 CL2  UNL     1      28.420   7.009   7.483  1.00  0.00    -0.082 Cl
HETATM   28  C11 UNL     1      27.966   6.628   4.816  1.00  0.00     0.057 A 
ENDBRANCH   1  17
TORSDOF 7
ENDMDL
MODEL 5
REMARK VINA RESULT: -8.276514609      2.894      4.158
REMARK  7 active torsions:
REMARK  status: ('A' for Active; 'I' for Inactive)
REMARK    1  A    between atoms: O1_1  and  C1_3 
REMARK    2  A    between atoms: C3_5  and  C4_6 
REMARK    3  A    between atoms: C4_6  and  O2_7 
REMARK    4  A    between atoms: C4_6  and  N1_9 
REMARK    5  A    between atoms: N2_22  and  C14_23 
REMARK    6  A    between atoms: C14_23  and  C15_24 
REMARK    7  A    between atoms: C15_24  and  N3_25 
ROOT
HETATM    1  C4  UNL     1      27.179  10.168   0.806  1.00  0.00     0.256 C 
ENDROOT
BRANCH   1   2
HETATM    2  C3  UNL     1      28.246  11.064   0.298  1.00  0.00     0.010 A 
HETATM    3  C2  UNL     1      28.544  12.283   0.856  1.00  0.00     0.069 A 
HETATM    4  C1  UNL     1      29.590  12.817   0.091  1.00  0.00     0.142 A 
HETATM    5  N2  UNL     1      29.918  11.980  -0.877  1.00  0.00    -0.336 N 
HETATM    6  C13 UNL     1      29.102  10.906  -0.761  1.00  0.00     0.104 A 
BRANCH   4   7
HETATM    7  O1  UNL     1      30.140  14.080   0.401  1.00  0.00    -0.346 OA
ATOM      8  H1  UNL     1      30.259  14.350   1.304  1.00  0.00     0.219 HD
ENDBRANCH   4   7
BRANCH   5   9
HETATM    9  C14 UNL     1      30.965  12.183  -1.867  1.00  0.00     0.160 C 
BRANCH   9  10
HETATM   10  C15 UNL     1      30.816  11.445  -3.124  1.00  0.00     0.292 C 
BRANCH  10  11
HETATM   11  N3  UNL     1      31.886  11.205  -3.968  1.00  0.00     0.090 N 
HETATM   12  C16 UNL     1      31.970  10.152  -4.876  1.00  0.00     0.274 C 
HETATM   13  C17 UNL     1      33.236   9.674  -4.196  1.00  0.00     0.060 C 
HETATM   14  C18 UNL     1      33.207  11.016  -3.500  1.00  0.00     0.274 C 
ENDBRANCH  10  11
ENDBRANCH   9  10
ENDBRANCH   5   9
ENDBRANCH   1   2
BRANCH   1  15
HETATM   15  O2  UNL     1      26.249  11.051   1.434  1.00  0.00    -0.372 OA
ATOM     16  H2  UNL     1      25.519  10.492   1.670  1.00  0.00     0.212 HD
ENDBRANCH   1  15
BRANCH   1  17
HETATM   17  N1  UNL     1      27.633   9.184   1.746  1.00  0.00    -0.346 N 
HETATM   18  C5  UNL     1      28.274   9.594   2.973  1.00  0.00     0.153 C 
HETATM   19  C6  UNL     1      28.618   8.489   3.908  1.00  0.00     0.195 C 
HETATM   20  O3  UNL     1      27.770   7.351   3.800  1.00  0.00    -0.347 OA
HETATM   21  C7  UNL     1      27.530   6.860   2.530  1.00  0.00     0.097 A 
HETATM   22  C8  UNL     1      27.369   5.511   2.329  1.00  0.00     0.064 A 
HETATM   23  C12 UNL     1      27.461   7.797   1.489  1.00  0.00     0.068 A 
HETATM   24  C9  UNL     1      27.127   5.048   1.030  1.00  0.00     0.058 A 
HETATM   25 CL1  UNL     1      26.928   3.336   0.812  1.00  0.00    -0.082 Cl
HETATM   26  C10 UNL     1      27.061   5.974   0.006  1.00  0.00     0.058 A 
HETATM   27 CL2  UNL     1      26.754   5.354  -1.611  1.00  0.00    -0.082 Cl
HETATM   28  C11 UNL     1      27.224   7.324   0.223  1.00  0.00     0.057 A 
ENDBRANCH   1  17
TORSDOF 7
ENDMDL
