MODEL 1
REMARK VINA RESULT: -9.719077556      0.000      0.000
REMARK  6 active torsions:
REMARK  status: ('A' for Active; 'I' for Inactive)
REMARK    1  A    between atoms: C2_2  and  C3_3 
REMARK    2  A    between atoms: C3_3  and  C4_4 
REMARK    3  A    between atoms: C4_4  and  O1_5 
REMARK    4  A    between atoms: C4_4  and  N1_7 
REMARK    5  A    between atoms: C7_12  and  O2_13 
REMARK    6  A    between atoms: O2_13  and  C8_14 
ROOT
HETATM    1  N1  UNL     1      27.340   7.510  -1.235  1.00  0.00    -0.347 N 
ATOM      2  H1  UNL     1      27.183   8.366  -1.767  1.00  0.00     0.163 HD
HETATM    3  C5  UNL     1      27.474   7.743  -0.018  1.00  0.00     0.153 A 
HETATM    4  C6  UNL     1      27.698   6.830   0.985  1.00  0.00     0.130 A 
HETATM    5 CL1  UNL     1      27.827   5.124   0.618  1.00  0.00    -0.076 Cl
HETATM    6  C7  UNL     1      27.836   7.177   2.326  1.00  0.00     0.170 A 
HETATM    7  N2  UNL     1      27.748   8.467   2.667  1.00  0.00    -0.319 N 
ATOM      8  H2  UNL     1      27.844   8.760   3.640  1.00  0.00     0.169 HD
HETATM    9  C14 UNL     1      27.527   9.374   1.687  1.00  0.00     0.153 A 
HETATM   10  C15 UNL     1      27.395  10.767   1.782  1.00  0.00     0.107 A 
HETATM   11  C16 UNL     1      27.477  11.521   3.019  1.00  0.00     0.105 C 
HETATM   12  N3  UNL     1      27.560  12.119   4.010  1.00  0.00    -0.191 NA
HETATM   13  C17 UNL     1      27.183  11.229   0.514  1.00  0.00     0.134 A 
HETATM   14  N4  UNL     1      27.188  10.175  -0.283  1.00  0.00    -0.300 N 
ATOM     15  H4  UNL     1      27.053  10.218  -1.293  1.00  0.00     0.186 HD
HETATM   16  N5  UNL     1      27.393   9.052   0.397  1.00  0.00    -0.221 N 
ENDROOT
BRANCH   6  17
HETATM   17  O2  UNL     1      28.062   6.211   3.294  1.00  0.00    -0.326 OA
BRANCH  17  18
HETATM   18  C8  UNL     1      27.073   5.573   4.031  1.00  0.00     0.160 C 
HETATM   19  C9  UNL     1      27.385   4.072   4.025  1.00  0.00     0.035 C 
HETATM   20  C10 UNL     1      26.241   3.291   4.627  1.00  0.00     0.017 C 
HETATM   21  C11 UNL     1      28.522   4.032   4.987  1.00  0.00    -0.022 C 
HETATM   22  C12 UNL     1      28.436   5.051   5.840  1.00  0.00    -0.008 C 
HETATM   23  C13 UNL     1      27.221   5.861   5.511  1.00  0.00     0.135 C 
HETATM   24 CL2  UNL     1      27.478   7.580   5.838  1.00  0.00    -0.118 Cl
ENDBRANCH  17  18
ENDBRANCH   6  17
BRANCH   1  25
HETATM   25  C4  UNL     1      27.349   6.384  -2.065  1.00  0.00     0.219 C 
BRANCH  25  26
HETATM   26  C3  UNL     1      25.933   5.786  -2.181  1.00  0.00     0.053 C 
BRANCH  26  27
HETATM   27  C2  UNL     1      26.006   4.359  -2.678  1.00  0.00    -0.000 C 
HETATM   28  C1  UNL     1      25.484   3.479  -1.562  1.00  0.00     0.005 C 
ENDBRANCH  26  27
ENDBRANCH  25  26
BRANCH  25  29
HETATM   29  O1  UNL     1      27.796   6.657  -3.383  1.00  0.00    -0.377 OA
ATOM     30  H1  UNL     1      28.590   6.153  -3.518  1.00  0.00     0.212 HD
ENDBRANCH  25  29
ENDBRANCH   1  25
TORSDOF 6
ENDMDL
MODEL 2
REMARK VINA RESULT: -9.662863121      2.085      5.041
REMARK  6 active torsions:
REMARK  status: ('A' for Active; 'I' for Inactive)
REMARK    1  A    between atoms: C2_2  and  C3_3 
REMARK    2  A    between atoms: C3_3  and  C4_4 
REMARK    3  A    between atoms: C4_4  and  O1_5 
REMARK    4  A    between atoms: C4_4  and  N1_7 
REMARK    5  A    between atoms: C7_12  and  O2_13 
REMARK    6  A    between atoms: O2_13  and  C8_14 
ROOT
HETATM    1  N1  UNL     1      27.000   9.651  -0.061  1.00  0.00    -0.347 N 
ATOM      2  H1  UNL     1      26.706   9.802  -1.025  1.00  0.00     0.163 HD
HETATM    3  C5  UNL     1      26.980   8.442   0.241  1.00  0.00     0.153 A 
HETATM    4  C6  UNL     1      27.315   7.880   1.451  1.00  0.00     0.130 A 
HETATM    5 CL1  UNL     1      27.838   8.888   2.782  1.00  0.00    -0.076 Cl
HETATM    6  C7  UNL     1      27.265   6.513   1.705  1.00  0.00     0.170 A 
HETATM    7  N2  UNL     1      26.871   5.691   0.725  1.00  0.00    -0.319 N 
ATOM      8  H2  UNL     1      26.822   4.683   0.875  1.00  0.00     0.169 HD
HETATM    9  C14 UNL     1      26.541   6.235  -0.470  1.00  0.00     0.153 A 
HETATM   10  C15 UNL     1      26.104   5.599  -1.641  1.00  0.00     0.107 A 
HETATM   11  C16 UNL     1      25.921   4.166  -1.783  1.00  0.00     0.105 C 
HETATM   12  N3  UNL     1      25.762   3.022  -1.885  1.00  0.00    -0.191 NA
HETATM   13  C17 UNL     1      25.901   6.581  -2.568  1.00  0.00     0.134 A 
HETATM   14  N4  UNL     1      26.199   7.728  -1.983  1.00  0.00    -0.300 N 
ATOM     15  H4  UNL     1      26.140   8.638  -2.439  1.00  0.00     0.186 HD
HETATM   16  N5  UNL     1      26.585   7.545  -0.724  1.00  0.00    -0.221 N 
ENDROOT
BRANCH   6  17
HETATM   17  O2  UNL     1      27.614   6.004   2.947  1.00  0.00    -0.326 OA
BRANCH  17  18
HETATM   18  C8  UNL     1      26.756   5.324   3.800  1.00  0.00     0.160 C 
HETATM   19  C9  UNL     1      27.096   3.832   3.708  1.00  0.00     0.035 C 
HETATM   20  C10 UNL     1      26.069   3.008   4.446  1.00  0.00     0.017 C 
HETATM   21  C11 UNL     1      28.361   3.798   4.497  1.00  0.00    -0.022 C 
HETATM   22  C12 UNL     1      28.377   4.793   5.380  1.00  0.00    -0.008 C 
HETATM   23  C13 UNL     1      27.109   5.580   5.251  1.00  0.00     0.135 C 
HETATM   24 CL2  UNL     1      27.373   7.297   5.585  1.00  0.00    -0.118 Cl
ENDBRANCH  17  18
ENDBRANCH   6  17
BRANCH   1  25
HETATM   25  C4  UNL     1      27.319  10.855   0.573  1.00  0.00     0.219 C 
BRANCH  25  26
HETATM   26  C3  UNL     1      27.952  11.844  -0.427  1.00  0.00     0.053 C 
BRANCH  26  27
HETATM   27  C2  UNL     1      27.488  13.254  -0.134  1.00  0.00    -0.000 C 
HETATM   28  C1  UNL     1      27.081  13.865  -1.458  1.00  0.00     0.005 C 
ENDBRANCH  26  27
ENDBRANCH  25  26
BRANCH  25  29
HETATM   29  O1  UNL     1      26.198  11.506   1.149  1.00  0.00    -0.377 OA
ATOM     30  H1  UNL     1      26.433  11.731   2.041  1.00  0.00     0.212 HD
ENDBRANCH  25  29
ENDBRANCH   1  25
TORSDOF 6
ENDMDL
MODEL 3
REMARK VINA RESULT: -9.120153500      1.626      1.921
REMARK  6 active torsions:
REMARK  status: ('A' for Active; 'I' for Inactive)
REMARK    1  A    between atoms: C2_2  and  C3_3 
REMARK    2  A    between atoms: C3_3  and  C4_4 
REMARK    3  A    between atoms: C4_4  and  O1_5 
REMARK    4  A    between atoms: C4_4  and  N1_7 
REMARK    5  A    between atoms: C7_12  and  O2_13 
REMARK    6  A    between atoms: O2_13  and  C8_14 
ROOT
HETATM    1  N1  UNL     1      27.442   8.052  -1.389  1.00  0.00    -0.347 N 
ATOM      2  H1  UNL     1      27.275   8.722  -2.140  1.00  0.00     0.163 HD
HETATM    3  C5  UNL     1      27.728   8.625  -0.319  1.00  0.00     0.153 A 
HETATM    4  C6  UNL     1      28.013   8.035   0.891  1.00  0.00     0.130 A 
HETATM    5 CL1  UNL     1      28.000   6.293   1.052  1.00  0.00    -0.076 Cl
HETATM    6  C7  UNL     1      28.323   8.751   2.042  1.00  0.00     0.170 A 
HETATM    7  N2  UNL     1      28.349  10.088   1.979  1.00  0.00    -0.319 N 
ATOM      8  H2  UNL     1      28.573  10.647   2.803  1.00  0.00     0.169 HD
HETATM    9  C14 UNL     1      28.070  10.678   0.793  1.00  0.00     0.153 A 
HETATM   10  C15 UNL     1      28.032  12.042   0.470  1.00  0.00     0.107 A 
HETATM   11  C16 UNL     1      28.299  13.119   1.404  1.00  0.00     0.105 C 
HETATM   12  N3  UNL     1      28.530  13.975   2.153  1.00  0.00    -0.191 NA
HETATM   13  C17 UNL     1      27.703  12.122  -0.854  1.00  0.00     0.134 A 
HETATM   14  N4  UNL     1      27.555  10.883  -1.288  1.00  0.00    -0.300 N 
ATOM     15  H4  UNL     1      27.308  10.635  -2.245  1.00  0.00     0.186 HD
HETATM   16  N5  UNL     1      27.771  10.000  -0.318  1.00  0.00    -0.221 N 
ENDROOT
BRANCH   6  17
HETATM   17  O2  UNL     1      28.602   8.102   3.234  1.00  0.00    -0.326 OA
BRANCH  17  18
HETATM   18  C8  UNL     1      27.655   7.710   4.170  1.00  0.00     0.160 C 
HETATM   19  C9  UNL     1      28.108   6.368   4.756  1.00  0.00     0.035 C 
HETATM   20  C10 UNL     1      27.025   5.777   5.626  1.00  0.00     0.017 C 
HETATM   21  C11 UNL     1      29.211   6.825   5.648  1.00  0.00    -0.022 C 
HETATM   22  C12 UNL     1      29.001   8.083   6.029  1.00  0.00    -0.008 C 
HETATM   23  C13 UNL     1      27.725   8.571   5.415  1.00  0.00     0.135 C 
HETATM   24 CL2  UNL     1      27.807  10.296   5.034  1.00  0.00    -0.118 Cl
ENDBRANCH  17  18
ENDBRANCH   6  17
BRANCH   1  25
HETATM   25  C4  UNL     1      27.291   6.735  -1.832  1.00  0.00     0.219 C 
BRANCH  25  26
HETATM   26  C3  UNL     1      25.803   6.328  -1.821  1.00  0.00     0.053 C 
BRANCH  26  27
HETATM   27  C2  UNL     1      25.646   4.907  -2.317  1.00  0.00    -0.000 C 
HETATM   28  C1  UNL     1      26.030   3.997  -1.169  1.00  0.00     0.005 C 
ENDBRANCH  26  27
ENDBRANCH  25  26
BRANCH  25  29
HETATM   29  O1  UNL     1      27.771   6.522  -3.149  1.00  0.00    -0.377 OA
ATOM     30  H1  UNL     1      28.714   6.418  -3.090  1.00  0.00     0.212 HD
ENDBRANCH  25  29
ENDBRANCH   1  25
TORSDOF 6
ENDMDL
MODEL 4
REMARK VINA RESULT: -8.915127325      2.925      5.075
REMARK  6 active torsions:
REMARK  status: ('A' for Active; 'I' for Inactive)
REMARK    1  A    between atoms: C2_2  and  C3_3 
REMARK    2  A    between atoms: C3_3  and  C4_4 
REMARK    3  A    between atoms: C4_4  and  O1_5 
REMARK    4  A    between atoms: C4_4  and  N1_7 
REMARK    5  A    between atoms: C7_12  and  O2_13 
REMARK    6  A    between atoms: O2_13  and  C8_14 
ROOT
HETATM    1  N1  UNL     1      27.964   9.667  -1.318  1.00  0.00    -0.347 N 
ATOM      2  H1  UNL     1      27.701   9.298  -2.231  1.00  0.00     0.163 HD
HETATM    3  C5  UNL     1      27.887   8.794  -0.431  1.00  0.00     0.153 A 
HETATM    4  C6  UNL     1      28.167   8.941   0.908  1.00  0.00     0.130 A 
HETATM    5 CL1  UNL     1      28.699  10.484   1.539  1.00  0.00    -0.076 Cl
HETATM    6  C7  UNL     1      28.054   7.910   1.835  1.00  0.00     0.170 A 
HETATM    7  N2  UNL     1      27.651   6.706   1.411  1.00  0.00    -0.319 N 
ATOM      8  H2  UNL     1      27.556   5.926   2.062  1.00  0.00     0.169 HD
HETATM    9  C14 UNL     1      27.373   6.552   0.096  1.00  0.00     0.153 A 
HETATM   10  C15 UNL     1      26.940   5.408  -0.590  1.00  0.00     0.107 A 
HETATM   11  C16 UNL     1      26.701   4.117   0.028  1.00  0.00     0.105 C 
HETATM   12  N3  UNL     1      26.496   3.092   0.531  1.00  0.00    -0.191 NA
HETATM   13  C17 UNL     1      26.801   5.765  -1.901  1.00  0.00     0.134 A 
HETATM   14  N4  UNL     1      27.132   7.041  -1.988  1.00  0.00    -0.300 N 
ATOM     15  H4  UNL     1      27.123   7.580  -2.854  1.00  0.00     0.186 HD
HETATM   16  N5  UNL     1      27.478   7.535  -0.803  1.00  0.00    -0.221 N 
ENDROOT
BRANCH   6  17
HETATM   17  O2  UNL     1      28.350   8.117   3.173  1.00  0.00    -0.326 OA
BRANCH  17  18
HETATM   18  C8  UNL     1      27.529   7.766   4.236  1.00  0.00     0.160 C 
HETATM   19  C9  UNL     1      28.313   6.794   5.127  1.00  0.00     0.035 C 
HETATM   20  C10 UNL     1      27.413   6.205   6.187  1.00  0.00     0.017 C 
HETATM   21  C11 UNL     1      29.248   7.742   5.796  1.00  0.00    -0.022 C 
HETATM   22  C12 UNL     1      28.712   8.959   5.843  1.00  0.00    -0.008 C 
HETATM   23  C13 UNL     1      27.359   8.921   5.202  1.00  0.00     0.135 C 
HETATM   24 CL2  UNL     1      26.989  10.439   4.375  1.00  0.00    -0.118 Cl
ENDBRANCH  17  18
ENDBRANCH   6  17
BRANCH   1  25
HETATM   25  C4  UNL     1      28.317  11.017  -1.392  1.00  0.00     0.219 C 
BRANCH  25  26
HETATM   26  C3  UNL     1      29.382  11.240  -2.485  1.00  0.00     0.053 C 
BRANCH  26  27
HETATM   27  C2  UNL     1      30.586  11.950  -1.906  1.00  0.00    -0.000 C 
HETATM   28  C1  UNL     1      31.674  11.895  -2.958  1.00  0.00     0.005 C 
ENDBRANCH  26  27
ENDBRANCH  25  26
BRANCH  25  29
HETATM   29  O1  UNL     1      27.226  11.872  -1.693  1.00  0.00    -0.377 OA
ATOM     30  H1  UNL     1      26.828  12.119  -0.866  1.00  0.00     0.212 HD
ENDBRANCH  25  29
ENDBRANCH   1  25
TORSDOF 6
ENDMDL
MODEL 5
REMARK VINA RESULT: -8.888291891      2.888      7.372
REMARK  6 active torsions:
REMARK  status: ('A' for Active; 'I' for Inactive)
REMARK    1  A    between atoms: C2_2  and  C3_3 
REMARK    2  A    between atoms: C3_3  and  C4_4 
REMARK    3  A    between atoms: C4_4  and  O1_5 
REMARK    4  A    between atoms: C4_4  and  N1_7 
REMARK    5  A    between atoms: C7_12  and  O2_13 
REMARK    6  A    between atoms: O2_13  and  C8_14 
ROOT
HETATM    1  N1  UNL     1      27.075   4.950   5.570  1.00  0.00    -0.347 N 
ATOM      2  H1  UNL     1      26.701   4.017   5.735  1.00  0.00     0.163 HD
HETATM    3  C5  UNL     1      27.091   5.229   4.354  1.00  0.00     0.153 A 
HETATM    4  C6  UNL     1      27.528   6.397   3.773  1.00  0.00     0.130 A 
HETATM    5 CL1  UNL     1      28.150   7.700   4.762  1.00  0.00    -0.076 Cl
HETATM    6  C7  UNL     1      27.511   6.627   2.402  1.00  0.00     0.170 A 
HETATM    7  N2  UNL     1      27.047   5.666   1.594  1.00  0.00    -0.319 N 
ATOM      8  H2  UNL     1      27.020   5.799   0.583  1.00  0.00     0.169 HD
HETATM    9  C14 UNL     1      26.615   4.513   2.157  1.00  0.00     0.153 A 
HETATM   10  C15 UNL     1      26.089   3.370   1.538  1.00  0.00     0.107 A 
HETATM   11  C16 UNL     1      25.908   3.215   0.107  1.00  0.00     0.105 C 
HETATM   12  N3  UNL     1      25.781   3.092  -1.039  1.00  0.00    -0.191 NA
HETATM   13  C17 UNL     1      25.802   2.481   2.536  1.00  0.00     0.134 A 
HETATM   14  N4  UNL     1      26.136   3.063   3.675  1.00  0.00    -0.300 N 
ATOM     15  H4  UNL     1      26.032   2.631   4.593  1.00  0.00     0.186 HD
HETATM   16  N5  UNL     1      26.626   4.282   3.472  1.00  0.00    -0.221 N 
ENDROOT
BRANCH   6  17
HETATM   17  O2  UNL     1      27.966   7.825   1.873  1.00  0.00    -0.326 OA
BRANCH  17  18
HETATM   18  C8  UNL     1      27.225   8.997   1.799  1.00  0.00     0.160 C 
HETATM   19  C9  UNL     1      28.110  10.139   2.312  1.00  0.00     0.035 C 
HETATM   20  C10 UNL     1      27.304  11.408   2.459  1.00  0.00     0.017 C 
HETATM   21  C11 UNL     1      29.024  10.311   1.148  1.00  0.00    -0.022 C 
HETATM   22  C12 UNL     1      28.423   9.914   0.030  1.00  0.00    -0.008 C 
HETATM   23  C13 UNL     1      27.042   9.440   0.361  1.00  0.00     0.135 C 
HETATM   24 CL2  UNL     1      26.542   8.109  -0.692  1.00  0.00    -0.118 Cl
ENDBRANCH  17  18
ENDBRANCH   6  17
BRANCH   1  25
HETATM   25  C4  UNL     1      27.434   5.580   6.765  1.00  0.00     0.219 C 
BRANCH  25  26
HETATM   26  C3  UNL     1      27.011   4.725   7.976  1.00  0.00     0.053 C 
BRANCH  26  27
HETATM   27  C2  UNL     1      25.726   3.986   7.673  1.00  0.00    -0.000 C 
HETATM   28  C1  UNL     1      25.056   3.708   9.001  1.00  0.00     0.005 C 
ENDBRANCH  26  27
ENDBRANCH  25  26
BRANCH  25  29
HETATM   29  O1  UNL     1      28.828   5.812   6.886  1.00  0.00    -0.377 OA
ATOM     30  H1  UNL     1      29.117   6.208   6.072  1.00  0.00     0.212 HD
ENDBRANCH  25  29
ENDBRANCH   1  25
TORSDOF 6
ENDMDL
