MODEL 1
REMARK VINA RESULT: -8.781303507      0.000      0.000
REMARK  5 active torsions:
REMARK  status: ('A' for Active; 'I' for Inactive)
REMARK    1  A    between atoms: C3_3  and  C4_4 
REMARK    2  A    between atoms: C4_4  and  C5_5 
REMARK    3  A    between atoms: C9_16  and  C10_17 
REMARK    4  A    between atoms: C10_17  and  C12_20 
REMARK    5  A    between atoms: C12_20  and  C13_21 
ROOT
HETATM    1  C1  UNL     1      27.866   5.227  -0.518  1.00  0.00     0.050 C 
HETATM    2  C2  UNL     1      27.423   4.832   0.882  1.00  0.00    -0.033 A 
HETATM    3  C3  UNL     1      26.886   3.589   1.075  1.00  0.00     0.002 A 
HETATM    4  S1  UNL     1      26.516   3.546   2.726  1.00  0.00    -0.075 SA
HETATM    5  C6  UNL     1      27.049   5.112   3.156  1.00  0.00     0.090 A 
HETATM    6  N1  UNL     1      26.976   5.640   4.420  1.00  0.00    -0.316 N 
ATOM      7  H1  UNL     1      26.572   5.018   5.120  1.00  0.00     0.170 HD
HETATM    8  C7  UNL     1      27.356   6.855   4.890  1.00  0.00     0.269 C 
HETATM    9  O3  UNL     1      27.292   7.064   6.109  1.00  0.00    -0.266 OA
HETATM   10  C8  UNL     1      27.823   7.924   4.143  1.00  0.00     0.114 C 
HETATM   11 CL1  UNL     1      28.659   9.216   5.036  1.00  0.00    -0.077 Cl
HETATM   12  C9  UNL     1      27.772   8.040   2.754  1.00  0.00     0.024 C 
HETATM   13  C16 UNL     1      28.068   6.952   1.900  1.00  0.00     0.072 C 
HETATM   14  N2  UNL     1      29.019   7.206   0.929  1.00  0.00    -0.100 NA
HETATM   15  C17 UNL     1      27.511   5.640   1.980  1.00  0.00     0.030 A 
ENDROOT
BRANCH  12  16
HETATM   16  C10 UNL     1      27.352   9.303   2.189  1.00  0.00    -0.033 C 
HETATM   17  C11 UNL     1      26.392   9.352   1.304  1.00  0.00     0.092 C 
HETATM   18 CL2  UNL     1      25.466   8.043   0.622  1.00  0.00    -0.096 Cl
BRANCH  16  19
HETATM   19  C12 UNL     1      28.022  10.579   2.590  1.00  0.00     0.044 C 
BRANCH  19  20
HETATM   20  C13 UNL     1      28.183  11.659   1.599  1.00  0.00    -0.018 C 
HETATM   21  C14 UNL     1      28.202  13.065   2.094  1.00  0.00     0.010 C 
HETATM   22  C15 UNL     1      29.245  11.384   0.531  1.00  0.00     0.010 C 
ENDBRANCH  19  20
ENDBRANCH  16  19
ENDBRANCH  12  16
BRANCH   3  23
HETATM   23  C4  UNL     1      26.645   2.473   0.096  1.00  0.00     0.159 C 
BRANCH  23  24
HETATM   24  C5  UNL     1      25.332   2.648  -0.578  1.00  0.00     0.177 C 
HETATM   25  O1  UNL     1      24.378   1.906  -0.316  1.00  0.00    -0.648 OA
HETATM   26  O2  UNL     1      25.136   3.649  -1.521  1.00  0.00    -0.648 OA
ENDBRANCH  23  24
ENDBRANCH   3  23
TORSDOF 5
ENDMDL
MODEL 2
REMARK VINA RESULT: -8.400451946      2.378      3.116
REMARK  5 active torsions:
REMARK  status: ('A' for Active; 'I' for Inactive)
REMARK    1  A    between atoms: C3_3  and  C4_4 
REMARK    2  A    between atoms: C4_4  and  C5_5 
REMARK    3  A    between atoms: C9_16  and  C10_17 
REMARK    4  A    between atoms: C10_17  and  C12_20 
REMARK    5  A    between atoms: C12_20  and  C13_21 
ROOT
HETATM    1  C1  UNL     1      27.548   6.003  -2.213  1.00  0.00     0.050 C 
HETATM    2  C2  UNL     1      26.839   4.976  -1.344  1.00  0.00    -0.033 A 
HETATM    3  C3  UNL     1      26.042   4.043  -1.946  1.00  0.00     0.002 A 
HETATM    4  S1  UNL     1      25.439   3.118  -0.664  1.00  0.00    -0.075 SA
HETATM    5  C6  UNL     1      26.207   3.929   0.630  1.00  0.00     0.090 A 
HETATM    6  N1  UNL     1      26.062   3.599   1.953  1.00  0.00    -0.316 N 
ATOM      7  H1  UNL     1      25.445   2.806   2.130  1.00  0.00     0.170 HD
HETATM    8  C7  UNL     1      26.607   4.155   3.064  1.00  0.00     0.269 C 
HETATM    9  O3  UNL     1      26.412   3.605   4.156  1.00  0.00    -0.266 OA
HETATM   10  C8  UNL     1      27.380   5.302   3.123  1.00  0.00     0.114 C 
HETATM   11 CL1  UNL     1      28.322   5.553   4.612  1.00  0.00    -0.077 Cl
HETATM   12  C9  UNL     1      27.553   6.230   2.096  1.00  0.00     0.024 C 
HETATM   13  C16 UNL     1      27.745   5.834   0.752  1.00  0.00     0.072 C 
HETATM   14  N2  UNL     1      28.855   6.371   0.131  1.00  0.00    -0.100 NA
HETATM   15  C17 UNL     1      26.929   4.919   0.018  1.00  0.00     0.030 A 
ENDROOT
BRANCH  12  16
HETATM   16  C10 UNL     1      27.480   7.636   2.427  1.00  0.00    -0.033 C 
HETATM   17  C11 UNL     1      26.585   8.407   1.870  1.00  0.00     0.092 C 
HETATM   18 CL2  UNL     1      25.374   7.997   0.686  1.00  0.00    -0.096 Cl
BRANCH  16  19
HETATM   19  C12 UNL     1      28.442   8.242   3.399  1.00  0.00     0.044 C 
BRANCH  19  20
HETATM   20  C13 UNL     1      27.931   9.056   4.517  1.00  0.00    -0.018 C 
HETATM   21  C14 UNL     1      28.550   8.867   5.860  1.00  0.00     0.010 C 
HETATM   22  C15 UNL     1      27.690  10.527   4.170  1.00  0.00     0.010 C 
ENDBRANCH  19  20
ENDBRANCH  16  19
ENDBRANCH  12  16
BRANCH   3  23
HETATM   23  C4  UNL     1      25.724   3.831  -3.401  1.00  0.00     0.159 C 
BRANCH  23  24
HETATM   24  C5  UNL     1      25.921   2.404  -3.773  1.00  0.00     0.177 C 
HETATM   25  O1  UNL     1      27.014   1.850  -3.612  1.00  0.00    -0.648 OA
HETATM   26  O2  UNL     1      24.884   1.653  -4.312  1.00  0.00    -0.648 OA
ENDBRANCH  23  24
ENDBRANCH   3  23
TORSDOF 5
ENDMDL
MODEL 3
REMARK VINA RESULT: -8.155369223      1.481      1.689
REMARK  5 active torsions:
REMARK  status: ('A' for Active; 'I' for Inactive)
REMARK    1  A    between atoms: C3_3  and  C4_4 
REMARK    2  A    between atoms: C4_4  and  C5_5 
REMARK    3  A    between atoms: C9_16  and  C10_17 
REMARK    4  A    between atoms: C10_17  and  C12_20 
REMARK    5  A    between atoms: C12_20  and  C13_21 
ROOT
HETATM    1  C1  UNL     1      27.605   6.443  -0.420  1.00  0.00     0.050 C 
HETATM    2  C2  UNL     1      27.096   5.738   0.827  1.00  0.00    -0.033 A 
HETATM    3  C3  UNL     1      26.298   4.637   0.681  1.00  0.00     0.002 A 
HETATM    4  S1  UNL     1      25.940   4.167   2.267  1.00  0.00    -0.075 SA
HETATM    5  C6  UNL     1      26.809   5.378   3.103  1.00  0.00     0.090 A 
HETATM    6  N1  UNL     1      26.865   5.496   4.468  1.00  0.00    -0.316 N 
ATOM      7  H1  UNL     1      26.337   4.788   4.980  1.00  0.00     0.170 HD
HETATM    8  C7  UNL     1      27.508   6.401   5.249  1.00  0.00     0.269 C 
HETATM    9  O3  UNL     1      27.500   6.233   6.476  1.00  0.00    -0.266 OA
HETATM   10  C8  UNL     1      28.194   7.525   4.822  1.00  0.00     0.114 C 
HETATM   11 CL1  UNL     1      29.303   8.276   5.994  1.00  0.00    -0.077 Cl
HETATM   12  C9  UNL     1      28.160   8.070   3.538  1.00  0.00     0.024 C 
HETATM   13  C16 UNL     1      28.202   7.260   2.379  1.00  0.00     0.072 C 
HETATM   14  N2  UNL     1      29.178   7.595   1.460  1.00  0.00    -0.100 NA
HETATM   15  C17 UNL     1      27.368   6.133   2.106  1.00  0.00     0.030 A 
ENDROOT
BRANCH  12  16
HETATM   16  C10 UNL     1      28.027   9.503   3.408  1.00  0.00    -0.033 C 
HETATM   17  C11 UNL     1      27.288  10.183   4.244  1.00  0.00     0.092 C 
HETATM   18 CL2  UNL     1      26.346   9.604   5.590  1.00  0.00    -0.096 Cl
BRANCH  16  19
HETATM   19  C12 UNL     1      28.716  10.237   2.301  1.00  0.00     0.044 C 
BRANCH  19  20
HETATM   20  C13 UNL     1      27.940  11.150   1.440  1.00  0.00    -0.018 C 
HETATM   21  C14 UNL     1      28.493  12.511   1.187  1.00  0.00     0.010 C 
HETATM   22  C15 UNL     1      27.361  10.494   0.184  1.00  0.00     0.010 C 
ENDBRANCH  19  20
ENDBRANCH  16  19
ENDBRANCH  12  16
BRANCH   3  23
HETATM   23  C4  UNL     1      25.808   3.952  -0.565  1.00  0.00     0.159 C 
BRANCH  23  24
HETATM   24  C5  UNL     1      25.688   2.487  -0.339  1.00  0.00     0.177 C 
HETATM   25  O1  UNL     1      26.631   1.835   0.125  1.00  0.00    -0.648 OA
HETATM   26  O2  UNL     1      24.515   1.807  -0.640  1.00  0.00    -0.648 OA
ENDBRANCH  23  24
ENDBRANCH   3  23
TORSDOF 5
ENDMDL
MODEL 4
REMARK VINA RESULT: -8.145050940      3.972      5.874
REMARK  5 active torsions:
REMARK  status: ('A' for Active; 'I' for Inactive)
REMARK    1  A    between atoms: C3_3  and  C4_4 
REMARK    2  A    between atoms: C4_4  and  C5_5 
REMARK    3  A    between atoms: C9_16  and  C10_17 
REMARK    4  A    between atoms: C10_17  and  C12_20 
REMARK    5  A    between atoms: C12_20  and  C13_21 
ROOT
HETATM    1  C1  UNL     1      28.128   9.805   5.360  1.00  0.00     0.050 C 
HETATM    2  C2  UNL     1      28.171   9.206   3.963  1.00  0.00    -0.033 A 
HETATM    3  C3  UNL     1      28.406   7.866   3.829  1.00  0.00     0.002 A 
HETATM    4  S1  UNL     1      28.392   7.603   2.158  1.00  0.00    -0.075 SA
HETATM    5  C6  UNL     1      28.087   9.205   1.643  1.00  0.00     0.090 A 
HETATM    6  N1  UNL     1      27.981   9.595   0.333  1.00  0.00    -0.316 N 
ATOM      7  H1  UNL     1      28.098   8.844  -0.348  1.00  0.00     0.170 HD
HETATM    8  C7  UNL     1      27.747  10.819  -0.206  1.00  0.00     0.269 C 
HETATM    9  O3  UNL     1      27.583  10.904  -1.430  1.00  0.00    -0.266 OA
HETATM   10  C8  UNL     1      27.667  12.022   0.475  1.00  0.00     0.114 C 
HETATM   11 CL1  UNL     1      26.918  13.382  -0.395  1.00  0.00    -0.077 Cl
HETATM   12  C9  UNL     1      28.041  12.243   1.801  1.00  0.00     0.024 C 
HETATM   13  C16 UNL     1      27.736  11.320   2.828  1.00  0.00     0.072 C 
HETATM   14  N2  UNL     1      27.086  11.853   3.926  1.00  0.00    -0.100 NA
HETATM   15  C17 UNL     1      28.002   9.917   2.810  1.00  0.00     0.030 A 
ENDROOT
BRANCH  12  16
HETATM   16  C10 UNL     1      28.806  13.431   2.106  1.00  0.00    -0.033 C 
HETATM   17  C11 UNL     1      29.935  13.672   1.494  1.00  0.00     0.092 C 
HETATM   18 CL2  UNL     1      30.750  12.717   0.287  1.00  0.00    -0.096 Cl
BRANCH  16  19
HETATM   19  C12 UNL     1      28.331  14.399   3.142  1.00  0.00     0.044 C 
BRANCH  19  20
HETATM   20  C13 UNL     1      29.098  14.561   4.392  1.00  0.00    -0.018 C 
HETATM   21  C14 UNL     1      30.161  15.605   4.430  1.00  0.00     0.010 C 
HETATM   22  C15 UNL     1      28.247  14.525   5.664  1.00  0.00     0.010 C 
ENDBRANCH  19  20
ENDBRANCH  16  19
ENDBRANCH  12  16
BRANCH   3  23
HETATM   23  C4  UNL     1      28.638   6.811   4.877  1.00  0.00     0.159 C 
BRANCH  23  24
HETATM   24  C5  UNL     1      27.358   6.143   5.233  1.00  0.00     0.177 C 
HETATM   25  O1  UNL     1      26.870   6.264   6.362  1.00  0.00    -0.648 OA
HETATM   26  O2  UNL     1      26.673   5.363   4.309  1.00  0.00    -0.648 OA
ENDBRANCH  23  24
ENDBRANCH   3  23
TORSDOF 5
ENDMDL
MODEL 5
REMARK VINA RESULT: -8.000958651      3.658      5.800
REMARK  5 active torsions:
REMARK  status: ('A' for Active; 'I' for Inactive)
REMARK    1  A    between atoms: C3_3  and  C4_4 
REMARK    2  A    between atoms: C4_4  and  C5_5 
REMARK    3  A    between atoms: C9_16  and  C10_17 
REMARK    4  A    between atoms: C10_17  and  C12_20 
REMARK    5  A    between atoms: C12_20  and  C13_21 
ROOT
HETATM    1  C1  UNL     1      25.951   2.892   4.469  1.00  0.00     0.050 C 
HETATM    2  C2  UNL     1      26.508   4.192   5.028  1.00  0.00    -0.033 A 
HETATM    3  C3  UNL     1      26.394   4.434   6.369  1.00  0.00     0.002 A 
HETATM    4  S1  UNL     1      27.105   5.954   6.582  1.00  0.00    -0.075 SA
HETATM    5  C6  UNL     1      27.540   6.270   4.959  1.00  0.00     0.090 A 
HETATM    6  N1  UNL     1      28.163   7.414   4.528  1.00  0.00    -0.316 N 
ATOM      7  H1  UNL     1      28.363   8.094   5.262  1.00  0.00     0.170 HD
HETATM    8  C7  UNL     1      28.557   7.787   3.284  1.00  0.00     0.269 C 
HETATM    9  O3  UNL     1      29.208   8.832   3.160  1.00  0.00    -0.266 OA
HETATM   10  C8  UNL     1      28.309   7.114   2.100  1.00  0.00     0.114 C 
HETATM   11 CL1  UNL     1      29.303   7.574   0.698  1.00  0.00    -0.077 Cl
HETATM   12  C9  UNL     1      27.415   6.057   1.927  1.00  0.00     0.024 C 
HETATM   13  C16 UNL     1      27.300   5.010   2.871  1.00  0.00     0.072 C 
HETATM   14  N2  UNL     1      27.422   3.734   2.356  1.00  0.00    -0.100 NA
HETATM   15  C17 UNL     1      27.113   5.161   4.279  1.00  0.00     0.030 A 
ENDROOT
BRANCH  12  16
HETATM   16  C10 UNL     1      26.552   6.075   0.767  1.00  0.00    -0.033 C 
HETATM   17  C11 UNL     1      25.913   7.163   0.428  1.00  0.00     0.092 C 
HETATM   18 CL2  UNL     1      25.911   8.719   1.212  1.00  0.00    -0.096 Cl
BRANCH  16  19
HETATM   19  C12 UNL     1      26.357   4.843  -0.059  1.00  0.00     0.044 C 
BRANCH  19  20
HETATM   20  C13 UNL     1      26.096   4.970  -1.505  1.00  0.00    -0.018 C 
HETATM   21  C14 UNL     1      27.049   5.779  -2.318  1.00  0.00     0.010 C 
HETATM   22  C15 UNL     1      25.681   3.666  -2.189  1.00  0.00     0.010 C 
ENDBRANCH  19  20
ENDBRANCH  16  19
ENDBRANCH  12  16
BRANCH   3  23
HETATM   23  C4  UNL     1      25.787   3.593   7.459  1.00  0.00     0.159 C 
BRANCH  23  24
HETATM   24  C5  UNL     1      26.204   4.095   8.795  1.00  0.00     0.177 C 
HETATM   25  O1  UNL     1      25.413   4.715   9.516  1.00  0.00    -0.648 OA
HETATM   26  O2  UNL     1      27.490   3.882   9.274  1.00  0.00    -0.648 OA
ENDBRANCH  23  24
ENDBRANCH   3  23
TORSDOF 5
ENDMDL
