MODEL 1
REMARK VINA RESULT: -5.171193856      0.000      0.000
REMARK  1 active torsions:
REMARK  status: ('A' for Active; 'I' for Inactive)
REMARK    1  A    between atoms: N1_2  and  C2_5 
ROOT
HETATM    1  C2  UNL     1       8.623  36.363  26.164  1.00  0.00     0.193 C 
HETATM    2  C3  UNL     1       8.117  37.340  25.144  1.00  0.00     0.041 C 
HETATM    3  C4  UNL     1       6.972  38.027  25.906  1.00  0.00     0.028 C 
HETATM    4  C5  UNL     1       7.611  38.948  26.894  1.00  0.00     0.012 C 
HETATM    5  C6  UNL     1       7.473  38.483  28.323  1.00  0.00    -0.014 C 
HETATM    6  C7  UNL     1       6.101  38.830  28.823  1.00  0.00     0.005 C 
HETATM    7  C8  UNL     1       5.017  38.449  27.854  1.00  0.00     0.004 C 
HETATM    8  C9  UNL     1       5.181  37.032  27.379  1.00  0.00     0.044 C 
HETATM    9  C10 UNL     1       6.356  36.793  26.527  1.00  0.00     0.113 C 
HETATM   10  F1  UNL     1       6.063  35.923  25.477  1.00  0.00    -0.242 F 
HETATM   11  C11 UNL     1       7.557  36.214  27.234  1.00  0.00     0.057 C 
HETATM   12  C12 UNL     1       7.831  37.040  28.454  1.00  0.00     0.014 C 
ENDROOT
BRANCH   1  13
HETATM   13  N1  UNL     1       8.868  35.049  25.608  1.00  0.00    -0.074 N 
HETATM   14  C1  UNL     1       9.620  34.200  26.502  1.00  0.00     0.267 C 
ATOM     15  H12 UNL     1       9.321  35.115  24.697  1.00  0.00     0.277 HD
ATOM     16  H11 UNL     1       7.995  34.602  25.325  1.00  0.00     0.277 HD
ENDBRANCH   1  13
TORSDOF 1
ENDMDL
MODEL 2
REMARK VINA RESULT: -4.797591637      1.762      2.720
REMARK  1 active torsions:
REMARK  status: ('A' for Active; 'I' for Inactive)
REMARK    1  A    between atoms: N1_2  and  C2_5 
ROOT
HETATM    1  C2  UNL     1       7.743  36.077  26.171  1.00  0.00     0.193 C 
HETATM    2  C3  UNL     1       8.288  37.302  26.843  1.00  0.00     0.041 C 
HETATM    3  C4  UNL     1       7.384  38.405  26.271  1.00  0.00     0.028 C 
HETATM    4  C5  UNL     1       6.062  38.268  26.954  1.00  0.00     0.012 C 
HETATM    5  C6  UNL     1       4.972  37.746  26.050  1.00  0.00    -0.014 C 
HETATM    6  C7  UNL     1       4.461  38.870  25.196  1.00  0.00     0.005 C 
HETATM    7  C8  UNL     1       5.567  39.671  24.570  1.00  0.00     0.004 C 
HETATM    8  C9  UNL     1       6.582  38.781  23.908  1.00  0.00     0.044 C 
HETATM    9  C10 UNL     1       7.378  37.954  24.827  1.00  0.00     0.113 C 
HETATM   10  F1  UNL     1       8.713  37.879  24.429  1.00  0.00    -0.242 F 
HETATM   11  C11 UNL     1       6.904  36.530  24.989  1.00  0.00     0.057 C 
HETATM   12  C12 UNL     1       5.435  36.552  25.286  1.00  0.00     0.014 C 
ENDROOT
BRANCH   1  13
HETATM   13  N1  UNL     1       8.781  35.209  25.658  1.00  0.00    -0.074 N 
HETATM   14  C1  UNL     1       9.514  34.541  26.709  1.00  0.00     0.267 C 
ATOM     15  H12 UNL     1       9.412  35.717  25.038  1.00  0.00     0.277 HD
ATOM     16  H11 UNL     1       8.402  34.536  24.992  1.00  0.00     0.277 HD
ENDBRANCH   1  13
TORSDOF 1
ENDMDL
MODEL 3
REMARK VINA RESULT: -4.690368910      1.598      2.775
REMARK  1 active torsions:
REMARK  status: ('A' for Active; 'I' for Inactive)
REMARK    1  A    between atoms: N1_2  and  C2_5 
ROOT
HETATM    1  C2  UNL     1       7.575  35.759  26.119  1.00  0.00     0.193 C 
HETATM    2  C3  UNL     1       7.481  36.365  27.488  1.00  0.00     0.041 C 
HETATM    3  C4  UNL     1       6.427  37.464  27.275  1.00  0.00     0.028 C 
HETATM    4  C5  UNL     1       5.106  36.772  27.175  1.00  0.00     0.012 C 
HETATM    5  C6  UNL     1       4.525  36.789  25.782  1.00  0.00    -0.014 C 
HETATM    6  C7  UNL     1       3.892  38.127  25.529  1.00  0.00     0.005 C 
HETATM    7  C8  UNL     1       4.776  39.272  25.933  1.00  0.00     0.004 C 
HETATM    8  C9  UNL     1       6.166  39.113  25.383  1.00  0.00     0.044 C 
HETATM    9  C10 UNL     1       6.939  38.002  25.957  1.00  0.00     0.113 C 
HETATM   10  F1  UNL     1       8.274  38.354  26.163  1.00  0.00    -0.242 F 
HETATM   11  C11 UNL     1       6.958  36.736  25.135  1.00  0.00     0.057 C 
HETATM   12  C12 UNL     1       5.546  36.388  24.770  1.00  0.00     0.014 C 
ENDROOT
BRANCH   1  13
HETATM   13  N1  UNL     1       8.942  35.528  25.701  1.00  0.00    -0.074 N 
HETATM   14  C1  UNL     1       9.587  34.485  26.466  1.00  0.00     0.267 C 
ATOM     15  H12 UNL     1       9.485  36.391  25.729  1.00  0.00     0.277 HD
ATOM     16  H11 UNL     1       8.992  35.333  24.701  1.00  0.00     0.277 HD
ENDBRANCH   1  13
TORSDOF 1
ENDMDL
MODEL 4
REMARK VINA RESULT: -4.593759929      1.776      2.643
REMARK  1 active torsions:
REMARK  status: ('A' for Active; 'I' for Inactive)
REMARK    1  A    between atoms: N1_2  and  C2_5 
ROOT
HETATM    1  C2  UNL     1       7.362  37.241  28.086  1.00  0.00     0.193 C 
HETATM    2  C3  UNL     1       8.296  37.838  27.075  1.00  0.00     0.041 C 
HETATM    3  C4  UNL     1       7.391  37.947  25.837  1.00  0.00     0.028 C 
HETATM    4  C5  UNL     1       6.466  39.094  26.086  1.00  0.00     0.012 C 
HETATM    5  C6  UNL     1       5.041  38.670  26.340  1.00  0.00    -0.014 C 
HETATM    6  C7  UNL     1       4.377  38.364  25.029  1.00  0.00     0.005 C 
HETATM    7  C8  UNL     1       5.220  37.493  24.141  1.00  0.00     0.004 C 
HETATM    8  C9  UNL     1       5.740  36.294  24.885  1.00  0.00     0.044 C 
HETATM    9  C10 UNL     1       6.728  36.592  25.933  1.00  0.00     0.113 C 
HETATM   10  F1  UNL     1       7.754  35.647  25.958  1.00  0.00    -0.242 F 
HETATM   11  C11 UNL     1       6.178  36.657  27.338  1.00  0.00     0.057 C 
HETATM   12  C12 UNL     1       4.982  37.560  27.335  1.00  0.00     0.014 C 
ENDROOT
BRANCH   1  13
HETATM   13  N1  UNL     1       7.969  36.168  28.845  1.00  0.00    -0.074 N 
HETATM   14  C1  UNL     1       9.399  36.095  28.658  1.00  0.00     0.267 C 
ATOM     15  H12 UNL     1       7.526  35.273  28.633  1.00  0.00     0.277 HD
ATOM     16  H11 UNL     1       7.731  36.238  29.834  1.00  0.00     0.277 HD
ENDBRANCH   1  13
TORSDOF 1
ENDMDL
MODEL 5
REMARK VINA RESULT: -4.511619113      1.682      2.429
REMARK  1 active torsions:
REMARK  status: ('A' for Active; 'I' for Inactive)
REMARK    1  A    between atoms: N1_2  and  C2_5 
ROOT
HETATM    1  C2  UNL     1       8.318  36.860  27.651  1.00  0.00     0.193 C 
HETATM    2  C3  UNL     1       8.089  35.908  26.515  1.00  0.00     0.041 C 
HETATM    3  C4  UNL     1       7.080  36.683  25.652  1.00  0.00     0.028 C 
HETATM    4  C5  UNL     1       7.850  37.766  24.968  1.00  0.00     0.012 C 
HETATM    5  C6  UNL     1       7.540  39.145  25.495  1.00  0.00    -0.014 C 
HETATM    6  C7  UNL     1       6.250  39.623  24.893  1.00  0.00     0.005 C 
HETATM    7  C8  UNL     1       5.162  38.589  24.956  1.00  0.00     0.004 C 
HETATM    8  C9  UNL     1       5.041  38.003  26.335  1.00  0.00     0.044 C 
HETATM    9  C10 UNL     1       6.180  37.177  26.763  1.00  0.00     0.113 C 
HETATM   10  F1  UNL     1       5.763  36.049  27.469  1.00  0.00    -0.242 F 
HETATM   11  C11 UNL     1       7.190  37.876  27.641  1.00  0.00     0.057 C 
HETATM   12  C12 UNL     1       7.571  39.169  26.986  1.00  0.00     0.014 C 
ENDROOT
BRANCH   1  13
HETATM   13  N1  UNL     1       8.303  36.207  28.943  1.00  0.00    -0.074 N 
HETATM   14  C1  UNL     1       9.151  35.039  28.985  1.00  0.00     0.267 C 
ATOM     15  H12 UNL     1       7.350  35.978  29.226  1.00  0.00     0.277 HD
ATOM     16  H11 UNL     1       8.543  36.861  29.688  1.00  0.00     0.277 HD
ENDBRANCH   1  13
TORSDOF 1
ENDMDL
