MODEL 1
REMARK VINA RESULT: -4.511067366      0.000      0.000
REMARK  2 active torsions:
REMARK  status: ('A' for Active; 'I' for Inactive)
REMARK    1  A    between atoms: C10_10  and  C11_11 
REMARK    2  A    between atoms: C11_11  and  N1_12 
ROOT
HETATM    1  C1  UNL     1       8.798  35.455  26.294  1.00  0.00     0.011 C 
HETATM    2  C2  UNL     1       8.386  36.863  26.032  1.00  0.00    -0.004 C 
HETATM    3  C3  UNL     1       7.566  37.028  24.787  1.00  0.00    -0.009 C 
HETATM    4  C4  UNL     1       7.531  38.506  24.450  1.00  0.00     0.010 C 
HETATM    5  C5  UNL     1       6.875  39.234  25.591  1.00  0.00    -0.013 C 
HETATM    6  C6  UNL     1       5.467  38.754  25.742  1.00  0.00     0.009 C 
HETATM    7  C7  UNL     1       5.468  37.278  26.063  1.00  0.00    -0.013 C 
HETATM    8  C8  UNL     1       6.177  36.473  24.990  1.00  0.00     0.010 C 
HETATM    9  C9  UNL     1       6.250  37.073  27.338  1.00  0.00     0.016 C 
HETATM   10  C10 UNL     1       7.676  37.522  27.178  1.00  0.00    -0.012 C 
HETATM   11  C12 UNL     1       7.652  39.003  26.859  1.00  0.00     0.016 C 
ENDROOT
BRANCH  10  12
HETATM   12  C11 UNL     1       8.372  37.283  28.503  1.00  0.00     0.239 C 
BRANCH  12  13
HETATM   13  N1  UNL     1       7.445  37.640  29.554  1.00  0.00    -0.079 N 
ATOM     14  H13 UNL     1       6.481  37.383  29.339  1.00  0.00     0.274 HD
ATOM     15  H12 UNL     1       7.553  37.066  30.391  1.00  0.00     0.274 HD
ATOM     16  H11 UNL     1       7.557  38.637  29.739  1.00  0.00     0.274 HD
ENDBRANCH  12  13
ENDBRANCH  10  12
TORSDOF 2
ENDMDL
MODEL 2
REMARK VINA RESULT: -4.465077377      3.563      5.239
REMARK  2 active torsions:
REMARK  status: ('A' for Active; 'I' for Inactive)
REMARK    1  A    between atoms: C10_10  and  C11_11 
REMARK    2  A    between atoms: C11_11  and  N1_12 
ROOT
HETATM    1  C1  UNL     1       2.211  37.464  22.100  1.00  0.00     0.011 C 
HETATM    2  C2  UNL     1       3.475  37.305  22.871  1.00  0.00    -0.004 C 
HETATM    3  C3  UNL     1       3.838  38.509  23.688  1.00  0.00    -0.009 C 
HETATM    4  C4  UNL     1       5.285  38.360  24.114  1.00  0.00     0.010 C 
HETATM    5  C5  UNL     1       5.402  37.120  24.958  1.00  0.00    -0.013 C 
HETATM    6  C6  UNL     1       4.565  37.276  26.187  1.00  0.00     0.009 C 
HETATM    7  C7  UNL     1       3.117  37.444  25.794  1.00  0.00    -0.013 C 
HETATM    8  C8  UNL     1       2.920  38.639  24.879  1.00  0.00     0.010 C 
HETATM    9  C9  UNL     1       2.698  36.227  25.003  1.00  0.00     0.016 C 
HETATM   10  C10 UNL     1       3.515  36.088  23.749  1.00  0.00    -0.012 C 
HETATM   11  C12 UNL     1       4.961  35.919  24.166  1.00  0.00     0.016 C 
ENDROOT
BRANCH  10  12
HETATM   12  C11 UNL     1       3.027  34.843  23.034  1.00  0.00     0.239 C 
BRANCH  12  13
HETATM   13  N1  UNL     1       3.908  33.756  23.399  1.00  0.00    -0.079 N 
ATOM     14  H13 UNL     1       4.694  34.058  23.976  1.00  0.00     0.274 HD
ATOM     15  H12 UNL     1       3.488  33.113  24.070  1.00  0.00     0.274 HD
ATOM     16  H11 UNL     1       4.202  33.295  22.538  1.00  0.00     0.274 HD
ENDBRANCH  12  13
ENDBRANCH  10  12
TORSDOF 2
ENDMDL
MODEL 3
REMARK VINA RESULT: -4.334430058      1.364      3.022
REMARK  2 active torsions:
REMARK  status: ('A' for Active; 'I' for Inactive)
REMARK    1  A    between atoms: C10_10  and  C11_11 
REMARK    2  A    between atoms: C11_11  and  N1_12 
ROOT
HETATM    1  C1  UNL     1       4.979  36.491  24.167  1.00  0.00     0.011 C 
HETATM    2  C2  UNL     1       5.912  36.387  25.324  1.00  0.00    -0.004 C 
HETATM    3  C3  UNL     1       7.343  36.665  24.970  1.00  0.00    -0.009 C 
HETATM    4  C4  UNL     1       8.206  36.177  26.117  1.00  0.00     0.010 C 
HETATM    5  C5  UNL     1       7.829  36.950  27.352  1.00  0.00    -0.013 C 
HETATM    6  C6  UNL     1       8.113  38.401  27.135  1.00  0.00     0.009 C 
HETATM    7  C7  UNL     1       7.279  38.914  25.985  1.00  0.00    -0.013 C 
HETATM    8  C8  UNL     1       7.548  38.138  24.709  1.00  0.00     0.010 C 
HETATM    9  C9  UNL     1       5.824  38.691  26.322  1.00  0.00     0.016 C 
HETATM   10  C10 UNL     1       5.527  37.229  26.505  1.00  0.00    -0.012 C 
HETATM   11  C12 UNL     1       6.372  36.737  27.663  1.00  0.00     0.016 C 
ENDROOT
BRANCH  10  12
HETATM   12  C11 UNL     1       4.054  37.110  26.844  1.00  0.00     0.239 C 
BRANCH  12  13
HETATM   13  N1  UNL     1       3.949  36.374  28.084  1.00  0.00    -0.079 N 
ATOM     14  H13 UNL     1       3.009  36.015  28.255  1.00  0.00     0.274 HD
ATOM     15  H12 UNL     1       4.432  35.475  28.055  1.00  0.00     0.274 HD
ATOM     16  H11 UNL     1       4.284  36.981  28.832  1.00  0.00     0.274 HD
ENDBRANCH  12  13
ENDBRANCH  10  12
TORSDOF 2
ENDMDL
MODEL 4
REMARK VINA RESULT: -4.287859934      0.868      2.657
REMARK  2 active torsions:
REMARK  status: ('A' for Active; 'I' for Inactive)
REMARK    1  A    between atoms: C10_10  and  C11_11 
REMARK    2  A    between atoms: C11_11  and  N1_12 
ROOT
HETATM    1  C1  UNL     1       4.870  38.268  28.045  1.00  0.00     0.011 C 
HETATM    2  C2  UNL     1       5.760  37.458  27.167  1.00  0.00    -0.004 C 
HETATM    3  C3  UNL     1       5.410  37.544  25.711  1.00  0.00    -0.009 C 
HETATM    4  C4  UNL     1       6.134  36.420  24.995  1.00  0.00     0.010 C 
HETATM    5  C5  UNL     1       7.614  36.623  25.175  1.00  0.00    -0.013 C 
HETATM    6  C6  UNL     1       8.016  37.918  24.544  1.00  0.00     0.009 C 
HETATM    7  C7  UNL     1       7.298  39.058  25.225  1.00  0.00    -0.013 C 
HETATM    8  C8  UNL     1       5.791  38.893  25.152  1.00  0.00     0.010 C 
HETATM    9  C9  UNL     1       7.659  39.034  26.691  1.00  0.00     0.016 C 
HETATM   10  C10 UNL     1       7.223  37.748  27.336  1.00  0.00    -0.012 C 
HETATM   11  C12 UNL     1       7.957  36.620  26.639  1.00  0.00     0.016 C 
ENDROOT
BRANCH  10  12
HETATM   12  C11 UNL     1       7.634  37.817  28.794  1.00  0.00     0.239 C 
BRANCH  12  13
HETATM   13  N1  UNL     1       8.017  36.484  29.205  1.00  0.00    -0.079 N 
ATOM     14  H13 UNL     1       7.217  35.870  29.358  1.00  0.00     0.274 HD
ATOM     15  H12 UNL     1       8.455  35.949  28.455  1.00  0.00     0.274 HD
ATOM     16  H11 UNL     1       8.611  36.574  30.028  1.00  0.00     0.274 HD
ENDBRANCH  12  13
ENDBRANCH  10  12
TORSDOF 2
ENDMDL
MODEL 5
REMARK VINA RESULT: -4.284557617      1.648      3.068
REMARK  2 active torsions:
REMARK  status: ('A' for Active; 'I' for Inactive)
REMARK    1  A    between atoms: C10_10  and  C11_11 
REMARK    2  A    between atoms: C11_11  and  N1_12 
ROOT
HETATM    1  C1  UNL     1       9.019  37.748  28.793  1.00  0.00     0.011 C 
HETATM    2  C2  UNL     1       7.636  37.602  28.257  1.00  0.00    -0.004 C 
HETATM    3  C3  UNL     1       6.877  38.894  28.192  1.00  0.00    -0.009 C 
HETATM    4  C4  UNL     1       5.412  38.558  27.989  1.00  0.00     0.010 C 
HETATM    5  C5  UNL     1       5.275  37.822  26.683  1.00  0.00    -0.013 C 
HETATM    6  C6  UNL     1       5.713  38.711  25.564  1.00  0.00     0.009 C 
HETATM    7  C7  UNL     1       7.166  39.077  25.748  1.00  0.00    -0.013 C 
HETATM    8  C8  UNL     1       7.406  39.766  27.080  1.00  0.00     0.010 C 
HETATM    9  C9  UNL     1       7.974  37.802  25.776  1.00  0.00     0.016 C 
HETATM   10  C10 UNL     1       7.560  36.922  26.922  1.00  0.00    -0.012 C 
HETATM   11  C12 UNL     1       6.102  36.566  26.716  1.00  0.00     0.016 C 
ENDROOT
BRANCH  10  12
HETATM   12  C11 UNL     1       8.418  35.673  26.859  1.00  0.00     0.239 C 
BRANCH  12  13
HETATM   13  N1  UNL     1       8.624  35.354  25.464  1.00  0.00    -0.079 N 
ATOM     14  H13 UNL     1       8.288  36.084  24.835  1.00  0.00     0.274 HD
ATOM     15  H12 UNL     1       9.606  35.383  25.190  1.00  0.00     0.274 HD
ATOM     16  H11 UNL     1       8.189  34.448  25.288  1.00  0.00     0.274 HD
ENDBRANCH  12  13
ENDBRANCH  10  12
TORSDOF 2
ENDMDL
