MODEL 1
REMARK VINA RESULT: -6.030841250      0.000      0.000
REMARK  3 active torsions:
REMARK  status: ('A' for Active; 'I' for Inactive)
REMARK    1  A    between atoms: C2_2  and  C4_5 
REMARK    2  A    between atoms: C4_5  and  N2_9 
REMARK    3  A    between atoms: C5_11  and  C6_13 
ROOT
HETATM    1  N2  UNL     1       8.780  35.888  27.054  1.00  0.00    -0.335 N 
ATOM      2  H2  UNL     1       8.681  36.238  28.007  1.00  0.00     0.168 HD
HETATM    3  C5  UNL     1       9.507  34.842  26.850  1.00  0.00     0.098 C 
HETATM    4  N3  UNL     1       9.667  34.325  25.533  1.00  0.00    -0.087 NA
ENDROOT
BRANCH   1   5
HETATM    5  C4  UNL     1       8.116  36.567  26.012  1.00  0.00     0.115 C 
HETATM    6  N1  UNL     1       8.707  36.998  24.947  1.00  0.00    -0.386 N 
ATOM      7  H12 UNL     1       8.227  37.489  24.193  1.00  0.00     0.157 HD
ATOM      8  H11 UNL     1       9.710  36.822  24.884  1.00  0.00     0.157 HD
BRANCH   5   9
HETATM    9  C2  UNL     1       6.651  36.825  26.104  1.00  0.00     0.153 C 
HETATM   10  C1  UNL     1       6.490  38.304  26.390  1.00  0.00     0.060 C 
HETATM   11  C3  UNL     1       5.935  36.408  24.837  1.00  0.00     0.060 C 
HETATM   12  F1  UNL     1       6.068  36.150  27.158  1.00  0.00    -0.235 F 
ENDBRANCH   5   9
ENDBRANCH   1   5
BRANCH   3  13
HETATM   13  C6  UNL     1      10.191  34.146  27.943  1.00  0.00     0.050 C 
HETATM   14  C7  UNL     1       9.891  32.688  28.031  1.00  0.00     0.012 C 
HETATM   15  C8  UNL     1      10.256  32.384  29.472  1.00  0.00     0.001 C 
HETATM   16  C9  UNL     1       9.524  33.525  30.192  1.00  0.00     0.001 C 
HETATM   17  C10 UNL     1       9.879  34.712  29.304  1.00  0.00     0.012 C 
ENDBRANCH   3  13
TORSDOF 3
ENDMDL
MODEL 2
REMARK VINA RESULT: -5.971635400      1.842      2.250
REMARK  3 active torsions:
REMARK  status: ('A' for Active; 'I' for Inactive)
REMARK    1  A    between atoms: C2_2  and  C4_5 
REMARK    2  A    between atoms: C4_5  and  N2_9 
REMARK    3  A    between atoms: C5_11  and  C6_13 
ROOT
HETATM    1  N2  UNL     1       8.054  36.057  25.477  1.00  0.00    -0.335 N 
ATOM      2  H2  UNL     1       8.826  35.817  24.855  1.00  0.00     0.168 HD
HETATM    3  C5  UNL     1       8.173  35.809  26.737  1.00  0.00     0.098 C 
HETATM    4  N3  UNL     1       7.116  36.131  27.635  1.00  0.00    -0.087 NA
ENDROOT
BRANCH   1   5
HETATM    5  C4  UNL     1       6.899  36.647  24.924  1.00  0.00     0.115 C 
HETATM    6  N1  UNL     1       5.811  35.996  24.678  1.00  0.00    -0.386 N 
ATOM      7  H12 UNL     1       4.975  36.422  24.279  1.00  0.00     0.157 HD
ATOM      8  H11 UNL     1       5.817  35.001  24.908  1.00  0.00     0.157 HD
BRANCH   5   9
HETATM    9  C2  UNL     1       6.890  38.099  24.589  1.00  0.00     0.153 C 
HETATM   10  C1  UNL     1       8.158  38.368  23.805  1.00  0.00     0.060 C 
HETATM   11  C3  UNL     1       5.648  38.480  23.812  1.00  0.00     0.060 C 
HETATM   12  F1  UNL     1       6.942  38.895  25.716  1.00  0.00    -0.235 F 
ENDBRANCH   5   9
ENDBRANCH   1   5
BRANCH   3  13
HETATM   13  C6  UNL     1       9.380  35.197  27.298  1.00  0.00     0.050 C 
HETATM   14  C7  UNL     1       9.594  33.775  26.901  1.00  0.00     0.012 C 
HETATM   15  C8  UNL     1      10.524  33.286  27.995  1.00  0.00     0.001 C 
HETATM   16  C9  UNL     1       9.786  33.798  29.239  1.00  0.00     0.001 C 
HETATM   17  C10 UNL     1       9.418  35.212  28.804  1.00  0.00     0.012 C 
ENDBRANCH   3  13
TORSDOF 3
ENDMDL
MODEL 3
REMARK VINA RESULT: -5.953255529      1.323      1.645
REMARK  3 active torsions:
REMARK  status: ('A' for Active; 'I' for Inactive)
REMARK    1  A    between atoms: C2_2  and  C4_5 
REMARK    2  A    between atoms: C4_5  and  N2_9 
REMARK    3  A    between atoms: C5_11  and  C6_13 
ROOT
HETATM    1  N2  UNL     1       8.423  35.626  27.350  1.00  0.00    -0.335 N 
ATOM      2  H2  UNL     1       8.125  35.662  28.325  1.00  0.00     0.168 HD
HETATM    3  C5  UNL     1       9.425  34.877  27.035  1.00  0.00     0.098 C 
HETATM    4  N3  UNL     1       9.868  34.802  25.684  1.00  0.00    -0.087 NA
ENDROOT
BRANCH   1   5
HETATM    5  C4  UNL     1       7.723  36.398  26.400  1.00  0.00     0.115 C 
HETATM    6  N1  UNL     1       7.208  35.910  25.321  1.00  0.00    -0.386 N 
ATOM      7  H12 UNL     1       6.701  36.468  24.633  1.00  0.00     0.157 HD
ATOM      8  H11 UNL     1       7.329  34.907  25.174  1.00  0.00     0.157 HD
BRANCH   5   9
HETATM    9  C2  UNL     1       7.547  37.863  26.613  1.00  0.00     0.153 C 
HETATM   10  C1  UNL     1       6.057  38.103  26.744  1.00  0.00     0.060 C 
HETATM   11  C3  UNL     1       8.310  38.340  27.830  1.00  0.00     0.060 C 
HETATM   12  F1  UNL     1       7.976  38.603  25.529  1.00  0.00    -0.235 F 
ENDBRANCH   5   9
ENDBRANCH   1   5
BRANCH   3  13
HETATM   13  C6  UNL     1      10.143  34.080  28.032  1.00  0.00     0.050 C 
HETATM   14  C7  UNL     1       9.862  32.616  27.974  1.00  0.00     0.012 C 
HETATM   15  C8  UNL     1      10.266  32.169  29.367  1.00  0.00     0.001 C 
HETATM   16  C9  UNL     1       9.538  33.218  30.218  1.00  0.00     0.001 C 
HETATM   17  C10 UNL     1       9.859  34.496  29.452  1.00  0.00     0.012 C 
ENDBRANCH   3  13
TORSDOF 3
ENDMDL
MODEL 4
REMARK VINA RESULT: -5.852568905      1.111      1.299
REMARK  3 active torsions:
REMARK  status: ('A' for Active; 'I' for Inactive)
REMARK    1  A    between atoms: C2_2  and  C4_5 
REMARK    2  A    between atoms: C4_5  and  N2_9 
REMARK    3  A    between atoms: C5_11  and  C6_13 
ROOT
HETATM    1  N2  UNL     1       8.325  35.619  27.355  1.00  0.00    -0.335 N 
ATOM      2  H2  UNL     1       8.008  35.618  28.324  1.00  0.00     0.168 HD
HETATM    3  C5  UNL     1       9.370  34.928  27.045  1.00  0.00     0.098 C 
HETATM    4  N3  UNL     1       9.841  34.905  25.701  1.00  0.00    -0.087 NA
ENDROOT
BRANCH   1   5
HETATM    5  C4  UNL     1       7.605  36.375  26.408  1.00  0.00     0.115 C 
HETATM    6  N1  UNL     1       7.138  35.886  25.308  1.00  0.00    -0.386 N 
ATOM      7  H12 UNL     1       6.616  36.432  24.622  1.00  0.00     0.157 HD
ATOM      8  H11 UNL     1       7.315  34.894  25.142  1.00  0.00     0.157 HD
BRANCH   5   9
HETATM    9  C2  UNL     1       7.346  37.823  26.650  1.00  0.00     0.153 C 
HETATM   10  C1  UNL     1       8.292  38.252  27.751  1.00  0.00     0.060 C 
HETATM   11  C3  UNL     1       7.535  38.636  25.387  1.00  0.00     0.060 C 
HETATM   12  F1  UNL     1       6.066  38.054  27.112  1.00  0.00    -0.235 F 
ENDBRANCH   5   9
ENDBRANCH   1   5
BRANCH   3  13
HETATM   13  C6  UNL     1      10.109  34.147  28.039  1.00  0.00     0.050 C 
HETATM   14  C7  UNL     1       9.870  32.677  27.973  1.00  0.00     0.012 C 
HETATM   15  C8  UNL     1      10.285  32.234  29.364  1.00  0.00     0.001 C 
HETATM   16  C9  UNL     1       9.526  33.257  30.220  1.00  0.00     0.001 C 
HETATM   17  C10 UNL     1       9.811  34.548  29.460  1.00  0.00     0.012 C 
ENDBRANCH   3  13
TORSDOF 3
ENDMDL
MODEL 5
REMARK VINA RESULT: -5.544694788      2.758      3.521
REMARK  3 active torsions:
REMARK  status: ('A' for Active; 'I' for Inactive)
REMARK    1  A    between atoms: C2_2  and  C4_5 
REMARK    2  A    between atoms: C4_5  and  N2_9 
REMARK    3  A    between atoms: C5_11  and  C6_13 
ROOT
HETATM    1  N2  UNL     1       8.756  37.382  29.147  1.00  0.00    -0.335 N 
ATOM      2  H2  UNL     1       9.615  37.529  29.677  1.00  0.00     0.168 HD
HETATM    3  C5  UNL     1       8.631  36.297  28.460  1.00  0.00     0.098 C 
HETATM    4  N3  UNL     1       7.447  36.057  27.708  1.00  0.00    -0.087 NA
ENDROOT
BRANCH   1   5
HETATM    5  C4  UNL     1       7.754  38.373  29.193  1.00  0.00     0.115 C 
HETATM    6  N1  UNL     1       6.526  38.134  29.512  1.00  0.00    -0.386 N 
ATOM      7  H12 UNL     1       5.800  38.850  29.545  1.00  0.00     0.157 HD
ATOM      8  H11 UNL     1       6.297  37.165  29.739  1.00  0.00     0.157 HD
BRANCH   5   9
HETATM    9  C2  UNL     1       8.087  39.787  28.860  1.00  0.00     0.153 C 
HETATM   10  C1  UNL     1       7.650  40.008  27.427  1.00  0.00     0.060 C 
HETATM   11  C3  UNL     1       7.418  40.752  29.816  1.00  0.00     0.060 C 
HETATM   12  F1  UNL     1       9.447  40.026  28.903  1.00  0.00    -0.235 F 
ENDBRANCH   5   9
ENDBRANCH   1   5
BRANCH   3  13
HETATM   13  C6  UNL     1       9.681  35.276  28.422  1.00  0.00     0.050 C 
HETATM   14  C7  UNL     1       9.518  34.261  27.341  1.00  0.00     0.012 C 
HETATM   15  C8  UNL     1      10.360  33.113  27.867  1.00  0.00     0.001 C 
HETATM   16  C9  UNL     1       9.840  33.023  29.307  1.00  0.00     0.001 C 
HETATM   17  C10 UNL     1       9.805  34.494  29.704  1.00  0.00     0.012 C 
ENDBRANCH   3  13
TORSDOF 3
ENDMDL
