MODEL 1
REMARK VINA RESULT: -4.733468593      0.000      0.000
REMARK  2 active torsions:
REMARK  status: ('A' for Active; 'I' for Inactive)
REMARK    1  A    between atoms: C1_2  and  N1_4 
REMARK    2  A    between atoms: N1_4  and  C2_6 
ROOT
HETATM    1  C2  UNL     1       8.985  35.437  26.451  1.00  0.00     0.083 C 
HETATM    2  C3  UNL     1       8.251  35.899  27.716  1.00  0.00     0.025 C 
HETATM    3  C4  UNL     1       9.354  36.029  28.765  1.00  0.00     0.002 C 
HETATM    4  C5  UNL     1      10.007  34.720  29.025  1.00  0.00     0.000 C 
HETATM    5  C6  UNL     1      10.418  33.943  27.810  1.00  0.00     0.002 C 
HETATM    6  C7  UNL     1       9.407  34.025  26.685  1.00  0.00     0.025 C 
ENDROOT
BRANCH   1   7
HETATM    7  N1  UNL     1       8.248  35.624  25.253  1.00  0.00    -0.370 N 
ATOM      8  H1  UNL     1       8.351  34.896  24.547  1.00  0.00     0.161 HD
BRANCH   7   9
HETATM    9  C1  UNL     1       7.397  36.687  24.922  1.00  0.00     0.145 C 
HETATM   10  S1  UNL     1       8.007  38.133  24.491  1.00  0.00    -0.052 SA
HETATM   11  S2  UNL     1       5.606  36.425  24.971  1.00  0.00    -0.021 SA
ENDBRANCH   7   9
ENDBRANCH   1   7
TORSDOF 2
ENDMDL
MODEL 2
REMARK VINA RESULT: -4.664105333      0.065      1.336
REMARK  2 active torsions:
REMARK  status: ('A' for Active; 'I' for Inactive)
REMARK    1  A    between atoms: C1_2  and  N1_4 
REMARK    2  A    between atoms: N1_4  and  C2_6 
ROOT
HETATM    1  C2  UNL     1       8.947  35.410  26.447  1.00  0.00     0.083 C 
HETATM    2  C3  UNL     1       8.224  35.874  27.717  1.00  0.00     0.025 C 
HETATM    3  C4  UNL     1       9.340  36.029  28.750  1.00  0.00     0.002 C 
HETATM    4  C5  UNL     1      10.014  34.732  29.012  1.00  0.00     0.000 C 
HETATM    5  C6  UNL     1      10.419  33.949  27.799  1.00  0.00     0.002 C 
HETATM    6  C7  UNL     1       9.391  34.006  26.688  1.00  0.00     0.025 C 
ENDROOT
BRANCH   1   7
HETATM    7  N1  UNL     1       8.190  35.575  25.258  1.00  0.00    -0.370 N 
ATOM      8  H1  UNL     1       8.291  34.841  24.558  1.00  0.00     0.161 HD
BRANCH   7   9
HETATM    9  C1  UNL     1       7.321  36.625  24.928  1.00  0.00     0.145 C 
HETATM   10  S1  UNL     1       5.709  36.415  24.989  1.00  0.00    -0.052 SA
HETATM   11  S2  UNL     1       8.021  38.223  24.442  1.00  0.00    -0.021 SA
ENDBRANCH   7   9
ENDBRANCH   1   7
TORSDOF 2
ENDMDL
MODEL 3
REMARK VINA RESULT: -4.632895162      0.537      1.652
REMARK  2 active torsions:
REMARK  status: ('A' for Active; 'I' for Inactive)
REMARK    1  A    between atoms: C1_2  and  N1_4 
REMARK    2  A    between atoms: N1_4  and  C2_6 
ROOT
HETATM    1  C2  UNL     1       8.577  35.245  26.368  1.00  0.00     0.083 C 
HETATM    2  C3  UNL     1       9.848  34.397  26.241  1.00  0.00     0.025 C 
HETATM    3  C4  UNL     1       9.855  33.537  27.504  1.00  0.00     0.002 C 
HETATM    4  C5  UNL     1       9.944  34.376  28.726  1.00  0.00     0.000 C 
HETATM    5  C6  UNL     1       8.996  35.537  28.791  1.00  0.00     0.002 C 
HETATM    6  C7  UNL     1       8.822  36.235  27.458  1.00  0.00     0.025 C 
ENDROOT
BRANCH   1   7
HETATM    7  N1  UNL     1       8.147  35.830  25.149  1.00  0.00    -0.370 N 
ATOM      8  H1  UNL     1       8.542  35.431  24.298  1.00  0.00     0.161 HD
BRANCH   7   9
HETATM    9  C1  UNL     1       7.247  36.891  24.972  1.00  0.00     0.145 C 
HETATM   10  S1  UNL     1       7.756  38.318  24.380  1.00  0.00    -0.052 SA
HETATM   11  S2  UNL     1       5.506  36.644  25.404  1.00  0.00    -0.021 SA
ENDBRANCH   7   9
ENDBRANCH   1   7
TORSDOF 2
ENDMDL
MODEL 4
REMARK VINA RESULT: -4.626762109      0.489      2.108
REMARK  2 active torsions:
REMARK  status: ('A' for Active; 'I' for Inactive)
REMARK    1  A    between atoms: C1_2  and  N1_4 
REMARK    2  A    between atoms: N1_4  and  C2_6 
ROOT
HETATM    1  C2  UNL     1       8.579  35.234  26.403  1.00  0.00     0.083 C 
HETATM    2  C3  UNL     1       9.857  34.390  26.323  1.00  0.00     0.025 C 
HETATM    3  C4  UNL     1       9.856  33.581  27.619  1.00  0.00     0.002 C 
HETATM    4  C5  UNL     1       9.927  34.468  28.807  1.00  0.00     0.000 C 
HETATM    5  C6  UNL     1       8.971  35.624  28.816  1.00  0.00     0.002 C 
HETATM    6  C7  UNL     1       8.807  36.267  27.455  1.00  0.00     0.025 C 
ENDROOT
BRANCH   1   7
HETATM    7  N1  UNL     1       8.158  35.767  25.157  1.00  0.00    -0.370 N 
ATOM      8  H1  UNL     1       8.598  35.368  24.328  1.00  0.00     0.161 HD
BRANCH   7   9
HETATM    9  C1  UNL     1       7.213  36.777  24.927  1.00  0.00     0.145 C 
HETATM   10  S1  UNL     1       5.634  36.514  25.216  1.00  0.00    -0.052 SA
HETATM   11  S2  UNL     1       7.778  38.384  24.312  1.00  0.00    -0.021 SA
ENDBRANCH   7   9
ENDBRANCH   1   7
TORSDOF 2
ENDMDL
MODEL 5
REMARK VINA RESULT: -4.386506417      2.095      3.148
REMARK  2 active torsions:
REMARK  status: ('A' for Active; 'I' for Inactive)
REMARK    1  A    between atoms: C1_2  and  N1_4 
REMARK    2  A    between atoms: N1_4  and  C2_6 
ROOT
HETATM    1  C2  UNL     1       9.259  34.727  28.055  1.00  0.00     0.083 C 
HETATM    2  C3  UNL     1      10.213  33.793  27.301  1.00  0.00     0.025 C 
HETATM    3  C4  UNL     1       9.890  32.404  27.846  1.00  0.00     0.002 C 
HETATM    4  C5  UNL     1      10.167  32.319  29.303  1.00  0.00     0.000 C 
HETATM    5  C6  UNL     1       9.619  33.438  30.138  1.00  0.00     0.002 C 
HETATM    6  C7  UNL     1       9.738  34.791  29.466  1.00  0.00     0.025 C 
ENDROOT
BRANCH   1   7
HETATM    7  N1  UNL     1       9.094  35.999  27.448  1.00  0.00    -0.370 N 
ATOM      8  H1  UNL     1       9.757  36.231  26.708  1.00  0.00     0.161 HD
BRANCH   7   9
HETATM    9  C1  UNL     1       8.132  36.976  27.741  1.00  0.00     0.145 C 
HETATM   10  S1  UNL     1       6.591  36.794  27.250  1.00  0.00    -0.052 SA
HETATM   11  S2  UNL     1       8.628  38.440  28.683  1.00  0.00    -0.021 SA
ENDBRANCH   7   9
ENDBRANCH   1   7
TORSDOF 2
ENDMDL
