MODEL 1
REMARK VINA RESULT: -5.308454945      0.000      0.000
REMARK  2 active torsions:
REMARK  status: ('A' for Active; 'I' for Inactive)
REMARK    1  A    between atoms: C2_2  and  C4_4 
REMARK    2  A    between atoms: C7_7  and  C8_8 
ROOT
HETATM    1  C4  UNL     1       7.062  37.574  26.651  1.00  0.00     0.010 C 
HETATM    2  C5  UNL     1       5.705  37.960  27.258  1.00  0.00     0.023 C 
HETATM    3  C6  UNL     1       7.388  36.130  26.970  1.00  0.00     0.028 C 
HETATM    4  C7  UNL     1       8.892  36.023  27.097  1.00  0.00     0.051 C 
HETATM    5  C9  UNL     1       9.227  36.565  28.494  1.00  0.00     0.015 C 
HETATM    6  C10 UNL     1       8.394  37.817  28.663  1.00  0.00     0.039 C 
HETATM    7  C11 UNL     1       8.084  38.449  27.298  1.00  0.00     0.182 C 
HETATM    8  F1  UNL     1       7.526  39.697  27.602  1.00  0.00    -0.248 F 
ENDROOT
BRANCH   4   9
HETATM    9  C8  UNL     1       9.398  34.668  26.903  1.00  0.00     0.090 C 
HETATM   10  N1  UNL     1       9.571  34.147  25.742  1.00  0.00    -0.391 N 
ATOM     11  H12 UNL     1       9.335  34.730  24.939  1.00  0.00     0.157 HD
ATOM     12  H11 UNL     1       9.925  33.201  25.607  1.00  0.00     0.157 HD
HETATM   13  N2  UNL     1       9.726  33.859  28.019  1.00  0.00    -0.088 NA
ENDBRANCH   4   9
BRANCH   1  14
HETATM   14  C2  UNL     1       6.943  37.708  25.197  1.00  0.00    -0.082 C 
HETATM   15  C1  UNL     1       7.759  38.387  24.427  1.00  0.00     0.015 C 
HETATM   16  C3  UNL     1       5.775  36.994  24.564  1.00  0.00     0.043 C 
ENDBRANCH   1  14
TORSDOF 2
ENDMDL
MODEL 2
REMARK VINA RESULT: -5.127137590      0.537      1.353
REMARK  2 active torsions:
REMARK  status: ('A' for Active; 'I' for Inactive)
REMARK    1  A    between atoms: C2_2  and  C4_4 
REMARK    2  A    between atoms: C7_7  and  C8_8 
ROOT
HETATM    1  C4  UNL     1       7.061  37.481  26.769  1.00  0.00     0.010 C 
HETATM    2  C5  UNL     1       5.696  37.965  27.283  1.00  0.00     0.023 C 
HETATM    3  C6  UNL     1       7.425  36.160  27.414  1.00  0.00     0.028 C 
HETATM    4  C7  UNL     1       8.931  36.123  27.549  1.00  0.00     0.051 C 
HETATM    5  C9  UNL     1       9.257  36.985  28.776  1.00  0.00     0.015 C 
HETATM    6  C10 UNL     1       8.393  38.221  28.656  1.00  0.00     0.039 C 
HETATM    7  C11 UNL     1       8.062  38.507  27.184  1.00  0.00     0.182 C 
HETATM    8  F1  UNL     1       7.473  39.778  27.192  1.00  0.00    -0.248 F 
ENDROOT
BRANCH   4   9
HETATM    9  C8  UNL     1       9.472  34.773  27.673  1.00  0.00     0.090 C 
HETATM   10  N1  UNL     1      10.012  34.333  28.752  1.00  0.00    -0.391 N 
ATOM     11  H12 UNL     1      10.051  34.979  29.541  1.00  0.00     0.157 HD
ATOM     12  H11 UNL     1      10.389  33.390  28.838  1.00  0.00     0.157 HD
HETATM   13  N2  UNL     1       9.418  33.876  26.577  1.00  0.00    -0.088 NA
ENDBRANCH   4   9
BRANCH   1  14
HETATM   14  C2  UNL     1       6.933  37.267  25.326  1.00  0.00    -0.082 C 
HETATM   15  C1  UNL     1       5.987  36.572  24.741  1.00  0.00     0.015 C 
HETATM   16  C3  UNL     1       7.993  37.913  24.470  1.00  0.00     0.043 C 
ENDBRANCH   1  14
TORSDOF 2
ENDMDL
MODEL 3
REMARK VINA RESULT: -4.914846268      1.982      3.095
REMARK  2 active torsions:
REMARK  status: ('A' for Active; 'I' for Inactive)
REMARK    1  A    between atoms: C2_2  and  C4_4 
REMARK    2  A    between atoms: C7_7  and  C8_8 
ROOT
HETATM    1  C4  UNL     1       7.657  37.159  26.968  1.00  0.00     0.010 C 
HETATM    2  C5  UNL     1       7.968  38.437  26.174  1.00  0.00     0.023 C 
HETATM    3  C6  UNL     1       8.825  36.800  27.863  1.00  0.00     0.028 C 
HETATM    4  C7  UNL     1       8.862  35.291  27.974  1.00  0.00     0.051 C 
HETATM    5  C9  UNL     1       9.511  34.797  26.674  1.00  0.00     0.015 C 
HETATM    6  C10 UNL     1       8.876  35.605  25.562  1.00  0.00     0.039 C 
HETATM    7  C11 UNL     1       7.470  36.068  25.966  1.00  0.00     0.182 C 
HETATM    8  F1  UNL     1       6.914  36.587  24.790  1.00  0.00    -0.248 F 
ENDROOT
BRANCH   4   9
HETATM    9  C8  UNL     1       9.575  34.812  29.154  1.00  0.00     0.090 C 
HETATM   10  N1  UNL     1      10.341  35.563  29.860  1.00  0.00    -0.391 N 
ATOM     11  H12 UNL     1      10.438  36.532  29.557  1.00  0.00     0.157 HD
ATOM     12  H11 UNL     1      10.839  35.228  30.684  1.00  0.00     0.157 HD
HETATM   13  N2  UNL     1       9.441  33.465  29.574  1.00  0.00    -0.088 NA
ENDBRANCH   4   9
BRANCH   1  14
HETATM   14  C2  UNL     1       6.499  37.444  27.819  1.00  0.00    -0.082 C 
HETATM   15  C1  UNL     1       5.291  36.966  27.641  1.00  0.00     0.015 C 
HETATM   16  C3  UNL     1       6.750  38.367  28.984  1.00  0.00     0.043 C 
ENDBRANCH   1  14
TORSDOF 2
ENDMDL
MODEL 4
REMARK VINA RESULT: -4.849180697      3.030      4.325
REMARK  2 active torsions:
REMARK  status: ('A' for Active; 'I' for Inactive)
REMARK    1  A    between atoms: C2_2  and  C4_4 
REMARK    2  A    between atoms: C7_7  and  C8_8 
ROOT
HETATM    1  C4  UNL     1       3.809  36.812  24.972  1.00  0.00     0.010 C 
HETATM    2  C5  UNL     1       2.803  36.312  26.020  1.00  0.00     0.023 C 
HETATM    3  C6  UNL     1       5.216  36.408  25.359  1.00  0.00     0.028 C 
HETATM    4  C7  UNL     1       6.151  37.486  24.859  1.00  0.00     0.051 C 
HETATM    5  C9  UNL     1       6.039  38.633  25.873  1.00  0.00     0.015 C 
HETATM    6  C10 UNL     1       4.562  38.783  26.166  1.00  0.00     0.039 C 
HETATM    7  C11 UNL     1       3.723  38.302  24.974  1.00  0.00     0.182 C 
HETATM    8  F1  UNL     1       2.416  38.708  25.271  1.00  0.00    -0.248 F 
ENDROOT
BRANCH   4   9
HETATM    9  C8  UNL     1       7.529  37.034  24.698  1.00  0.00     0.090 C 
HETATM   10  N1  UNL     1       7.980  35.961  25.242  1.00  0.00    -0.391 N 
ATOM     11  H12 UNL     1       7.322  35.421  25.805  1.00  0.00     0.157 HD
ATOM     12  H11 UNL     1       8.942  35.645  25.130  1.00  0.00     0.157 HD
HETATM   13  N2  UNL     1       8.443  37.783  23.916  1.00  0.00    -0.088 NA
ENDBRANCH   4   9
BRANCH   1  14
HETATM   14  C2  UNL     1       3.477  36.160  23.703  1.00  0.00    -0.082 C 
HETATM   15  C1  UNL     1       3.544  34.871  23.471  1.00  0.00     0.015 C 
HETATM   16  C3  UNL     1       3.026  37.075  22.592  1.00  0.00     0.043 C 
ENDBRANCH   1  14
TORSDOF 2
ENDMDL
MODEL 5
REMARK VINA RESULT: -4.844472957      2.208      3.343
REMARK  2 active torsions:
REMARK  status: ('A' for Active; 'I' for Inactive)
REMARK    1  A    between atoms: C2_2  and  C4_4 
REMARK    2  A    between atoms: C7_7  and  C8_8 
ROOT
HETATM    1  C4  UNL     1       5.047  37.663  25.189  1.00  0.00     0.010 C 
HETATM    2  C5  UNL     1       4.299  38.933  25.621  1.00  0.00     0.023 C 
HETATM    3  C6  UNL     1       6.083  37.285  26.227  1.00  0.00     0.028 C 
HETATM    4  C7  UNL     1       7.238  36.636  25.497  1.00  0.00     0.051 C 
HETATM    5  C9  UNL     1       8.046  37.791  24.891  1.00  0.00     0.015 C 
HETATM    6  C10 UNL     1       7.028  38.744  24.302  1.00  0.00     0.039 C 
HETATM    7  C11 UNL     1       5.747  37.992  23.913  1.00  0.00     0.182 C 
HETATM    8  F1  UNL     1       4.998  38.921  23.179  1.00  0.00    -0.248 F 
ENDROOT
BRANCH   4   9
HETATM    9  C8  UNL     1       8.062  35.785  26.350  1.00  0.00     0.090 C 
HETATM   10  N1  UNL     1       8.973  35.006  25.889  1.00  0.00    -0.391 N 
ATOM     11  H12 UNL     1       9.103  35.003  24.877  1.00  0.00     0.157 HD
ATOM     12  H11 UNL     1       9.548  34.412  26.485  1.00  0.00     0.157 HD
HETATM   13  N2  UNL     1       7.881  35.789  27.755  1.00  0.00    -0.088 NA
ENDBRANCH   4   9
BRANCH   1  14
HETATM   14  C2  UNL     1       4.062  36.581  25.110  1.00  0.00    -0.082 C 
HETATM   15  C1  UNL     1       3.137  36.330  26.005  1.00  0.00     0.015 C 
HETATM   16  C3  UNL     1       4.146  35.703  23.888  1.00  0.00     0.043 C 
ENDBRANCH   1  14
TORSDOF 2
ENDMDL
