MODEL 1
REMARK VINA RESULT: -7.656805410      0.000      0.000
REMARK  13 active torsions:
REMARK  status: ('A' for Active; 'I' for Inactive)
REMARK    1  A    between atoms: C4_4  and  C5_5 
REMARK    2  A    between atoms: C5_5  and  C6_6 
REMARK    3  A    between atoms: C12_13  and  C13_14 
REMARK    4  A    between atoms: C13_14  and  O2_15 
REMARK    5  A    between atoms: O2_15  and  C14_16 
REMARK    6  A    between atoms: C14_16  and  C15_17 
REMARK    7  A    between atoms: N1_21  and  C18_22 
REMARK    8  A    between atoms: C18_22  and  C19_23 
REMARK    9  A    between atoms: C23_27  and  O4_28 
REMARK   10  A    between atoms: C24_30  and  C25_31 
REMARK   11  A    between atoms: C25_31  and  O5_32 
REMARK   12  A    between atoms: C29_37  and  O6_38 
REMARK   13  A    between atoms: C29_37  and  C30_40 
ROOT
HETATM    1  C6  UNL     1       6.847  38.248  25.913  1.00  0.00    -0.041 C 
HETATM    2  C7  UNL     1       6.185  37.893  24.578  1.00  0.00     0.027 C 
HETATM    3  C8  UNL     1       4.984  37.033  24.667  1.00  0.00     0.015 C 
HETATM    4  C9  UNL     1       6.180  39.086  23.782  1.00  0.00     0.095 C 
HETATM    5  C10 UNL     1       7.595  39.390  23.513  1.00  0.00     0.135 C 
HETATM    6  O1  UNL     1       8.242  38.416  23.182  1.00  0.00    -0.297 OA
HETATM    7  C11 UNL     1       8.352  40.619  23.563  1.00  0.00     0.090 C 
HETATM    8  C12 UNL     1       7.363  41.743  23.831  1.00  0.00    -0.010 C 
HETATM    9  C27 UNL     1       6.847  41.757  25.248  1.00  0.00     0.015 C 
HETATM   10  C28 UNL     1       7.338  40.750  26.172  1.00  0.00     0.044 C 
HETATM   11  C29 UNL     1       6.654  39.497  26.631  1.00  0.00     0.085 C 
HETATM   12  C33 UNL     1       6.396  41.800  22.733  1.00  0.00     0.046 C 
HETATM   13  C34 UNL     1       5.308  40.908  22.540  1.00  0.00     0.155 C 
HETATM   14  O7  UNL     1       4.612  41.040  21.380  1.00  0.00    -0.348 OA
HETATM   15  C35 UNL     1       3.656  40.013  21.506  1.00  0.00     0.158 C 
HETATM   16  C36 UNL     1       3.146  39.527  20.191  1.00  0.00     0.078 C 
HETATM   17  C37 UNL     1       2.487  40.474  22.361  1.00  0.00     0.078 C 
HETATM   18  O8  UNL     1       4.282  38.977  22.237  1.00  0.00    -0.347 OA
HETATM   19  C38 UNL     1       5.548  39.385  22.508  1.00  0.00     0.166 C 
ENDROOT
BRANCH   8  20
HETATM   20  C13 UNL     1       8.283  42.990  23.579  1.00  0.00     0.177 C 
BRANCH  20  21
HETATM   21  O2  UNL     1       9.572  42.679  23.646  1.00  0.00    -0.390 OA
BRANCH  21  22
HETATM   22  C14 UNL     1      10.496  43.568  23.255  1.00  0.00     0.176 C 
BRANCH  22  23
HETATM   23  C15 UNL     1      11.095  43.497  21.877  1.00  0.00     0.062 C 
HETATM   24  C16 UNL     1      12.334  44.242  21.628  1.00  0.00     0.178 C 
HETATM   25  O3  UNL     1      13.248  43.422  20.915  1.00  0.00    -0.362 OA
HETATM   26  C17 UNL     1      12.572  43.035  19.758  1.00  0.00     0.440 C 
HETATM   27  N1  UNL     1      11.655  41.943  20.054  1.00  0.00     0.112 N 
HETATM   28  C26 UNL     1      11.119  42.056  21.384  1.00  0.00     0.284 C 
BRANCH  27  29
HETATM   29  C18 UNL     1      10.576  42.016  19.091  1.00  0.00     0.280 C 
BRANCH  29  30
HETATM   30  C19 UNL     1       9.283  41.468  19.661  1.00  0.00     0.026 C 
HETATM   31  C20 UNL     1       8.249  42.566  19.542  1.00  0.00     0.033 C 
HETATM   32  C21 UNL     1       8.109  42.887  18.085  1.00  0.00    -0.028 C 
HETATM   33  C22 UNL     1       7.966  41.856  17.260  1.00  0.00     0.001 C 
HETATM   34  C23 UNL     1       7.950  40.482  17.772  1.00  0.00     0.147 C 
HETATM   35  C24 UNL     1       8.884  40.227  18.923  1.00  0.00     0.048 C 
BRANCH  34  36
HETATM   36  O4  UNL     1       6.622  40.118  18.095  1.00  0.00    -0.391 OA
ATOM     37  H4  UNL     1       6.018  40.665  17.605  1.00  0.00     0.210 HD
ENDBRANCH  34  36
BRANCH  35  38
HETATM   38  C25 UNL     1       8.131  39.288  19.878  1.00  0.00     0.172 C 
BRANCH  38  39
HETATM   39  O5  UNL     1       8.931  38.268  20.333  1.00  0.00    -0.400 OA
ATOM     40  H5  UNL     1       8.471  37.437  20.352  1.00  0.00     0.209 HD
ENDBRANCH  38  39
ENDBRANCH  35  38
ENDBRANCH  29  30
ENDBRANCH  27  29
ENDBRANCH  22  23
ENDBRANCH  21  22
ENDBRANCH  20  21
ENDBRANCH   8  20
BRANCH  11  41
HETATM   41  O6  UNL     1       7.681  39.180  27.656  1.00  0.00    -0.385 OA
ATOM     42  H6  UNL     1       7.928  40.089  27.780  1.00  0.00     0.211 HD
ENDBRANCH  11  41
BRANCH  11  43
HETATM   43  C30 UNL     1       5.546  39.728  27.581  1.00  0.00     0.016 C 
HETATM   44  C31 UNL     1       4.188  40.107  27.150  1.00  0.00     0.013 C 
HETATM   45  C32 UNL     1       5.877  40.824  28.622  1.00  0.00     0.013 C 
ENDBRANCH  11  43
BRANCH   1  46
HETATM   46  C5  UNL     1       6.835  36.941  26.609  1.00  0.00     0.006 C 
BRANCH  46  47
HETATM   47  C4  UNL     1       7.776  35.877  26.323  1.00  0.00     0.002 C 
HETATM   48  C2  UNL     1       8.608  35.341  27.208  1.00  0.00    -0.088 C 
HETATM   49  C1  UNL     1       9.524  34.265  26.815  1.00  0.00     0.043 C 
HETATM   50  C3  UNL     1       8.595  35.844  28.594  1.00  0.00     0.043 C 
ENDBRANCH  46  47
ENDBRANCH   1  46
TORSDOF 13
ENDMDL
MODEL 2
REMARK VINA RESULT: -7.575736243      2.578      5.351
REMARK  13 active torsions:
REMARK  status: ('A' for Active; 'I' for Inactive)
REMARK    1  A    between atoms: C4_4  and  C5_5 
REMARK    2  A    between atoms: C5_5  and  C6_6 
REMARK    3  A    between atoms: C12_13  and  C13_14 
REMARK    4  A    between atoms: C13_14  and  O2_15 
REMARK    5  A    between atoms: O2_15  and  C14_16 
REMARK    6  A    between atoms: C14_16  and  C15_17 
REMARK    7  A    between atoms: N1_21  and  C18_22 
REMARK    8  A    between atoms: C18_22  and  C19_23 
REMARK    9  A    between atoms: C23_27  and  O4_28 
REMARK   10  A    between atoms: C24_30  and  C25_31 
REMARK   11  A    between atoms: C25_31  and  O5_32 
REMARK   12  A    between atoms: C29_37  and  O6_38 
REMARK   13  A    between atoms: C29_37  and  C30_40 
ROOT
HETATM    1  C6  UNL     1       6.237  37.493  25.842  1.00  0.00    -0.041 C 
HETATM    2  C7  UNL     1       5.299  36.735  26.786  1.00  0.00     0.027 C 
HETATM    3  C8  UNL     1       5.661  36.780  28.220  1.00  0.00     0.015 C 
HETATM    4  C9  UNL     1       3.959  37.009  26.354  1.00  0.00     0.095 C 
HETATM    5  C10 UNL     1       3.838  36.399  25.020  1.00  0.00     0.135 C 
HETATM    6  O1  UNL     1       4.302  35.277  24.961  1.00  0.00    -0.297 OA
HETATM    7  C11 UNL     1       3.274  36.877  23.780  1.00  0.00     0.090 C 
HETATM    8  C12 UNL     1       2.605  38.211  24.078  1.00  0.00    -0.010 C 
HETATM    9  C27 UNL     1       3.589  39.332  24.306  1.00  0.00     0.015 C 
HETATM   10  C28 UNL     1       5.007  39.037  24.208  1.00  0.00     0.044 C 
HETATM   11  C29 UNL     1       5.992  38.826  25.319  1.00  0.00     0.085 C 
HETATM   12  C33 UNL     1       1.540  38.002  25.060  1.00  0.00     0.046 C 
HETATM   13  C34 UNL     1       1.726  37.800  26.453  1.00  0.00     0.155 C 
HETATM   14  O7  UNL     1       0.619  37.479  27.174  1.00  0.00    -0.348 OA
HETATM   15  C35 UNL     1       1.158  37.330  28.467  1.00  0.00     0.158 C 
HETATM   16  C36 UNL     1       0.344  36.431  29.337  1.00  0.00     0.078 C 
HETATM   17  C37 UNL     1       1.310  38.683  29.142  1.00  0.00     0.078 C 
HETATM   18  O8  UNL     1       2.471  36.837  28.294  1.00  0.00    -0.347 OA
HETATM   19  C38 UNL     1       2.675  36.695  26.959  1.00  0.00     0.166 C 
ENDROOT
BRANCH   8  20
HETATM   20  C13 UNL     1       1.829  38.439  22.732  1.00  0.00     0.177 C 
BRANCH  20  21
HETATM   21  O2  UNL     1       2.575  38.152  21.671  1.00  0.00    -0.390 OA
BRANCH  21  22
HETATM   22  C14 UNL     1       2.673  39.031  20.664  1.00  0.00     0.176 C 
BRANCH  22  23
HETATM   23  C15 UNL     1       3.780  40.048  20.639  1.00  0.00     0.062 C 
HETATM   24  C16 UNL     1       3.545  41.335  21.305  1.00  0.00     0.178 C 
HETATM   25  O3  UNL     1       4.678  41.681  22.086  1.00  0.00    -0.362 OA
HETATM   26  C17 UNL     1       5.753  41.686  21.197  1.00  0.00     0.440 C 
HETATM   27  N1  UNL     1       6.205  40.324  20.947  1.00  0.00     0.112 N 
HETATM   28  C26 UNL     1       5.110  39.393  20.991  1.00  0.00     0.284 C 
BRANCH  27  29
HETATM   29  C18 UNL     1       6.803  40.305  19.630  1.00  0.00     0.280 C 
BRANCH  29  30
HETATM   30  C19 UNL     1       8.092  39.508  19.614  1.00  0.00     0.026 C 
HETATM   31  C20 UNL     1       8.852  39.922  18.373  1.00  0.00     0.033 C 
HETATM   32  C21 UNL     1       9.123  41.391  18.489  1.00  0.00    -0.028 C 
HETATM   33  C22 UNL     1       9.617  41.814  19.648  1.00  0.00     0.001 C 
HETATM   34  C23 UNL     1       9.874  40.873  20.743  1.00  0.00     0.147 C 
HETATM   35  C24 UNL     1       8.867  39.763  20.870  1.00  0.00     0.048 C 
BRANCH  34  36
HETATM   36  O4  UNL     1      11.189  40.367  20.626  1.00  0.00    -0.391 OA
ATOM     37  H4  UNL     1      11.362  39.770  21.345  1.00  0.00     0.210 HD
ENDBRANCH  34  36
BRANCH  35  38
HETATM   38  C25 UNL     1       9.669  38.505  21.236  1.00  0.00     0.172 C 
BRANCH  38  39
HETATM   39  O5  UNL     1       9.309  38.004  22.463  1.00  0.00    -0.400 OA
ATOM     40  H5  UNL     1       9.601  38.561  23.175  1.00  0.00     0.209 HD
ENDBRANCH  38  39
ENDBRANCH  35  38
ENDBRANCH  29  30
ENDBRANCH  27  29
ENDBRANCH  22  23
ENDBRANCH  21  22
ENDBRANCH  20  21
ENDBRANCH   8  20
BRANCH  11  41
HETATM   41  O6  UNL     1       7.171  38.796  24.416  1.00  0.00    -0.385 OA
ATOM     42  H6  UNL     1       6.679  38.445  23.683  1.00  0.00     0.211 HD
ENDBRANCH  11  41
BRANCH  11  43
HETATM   43  C30 UNL     1       6.369  40.064  26.033  1.00  0.00     0.016 C 
HETATM   44  C31 UNL     1       5.517  40.685  27.063  1.00  0.00     0.013 C 
HETATM   45  C32 UNL     1       6.634  41.246  25.070  1.00  0.00     0.013 C 
ENDBRANCH  11  43
BRANCH   1  46
HETATM   46  C5  UNL     1       7.566  37.091  26.356  1.00  0.00     0.006 C 
BRANCH  46  47
HETATM   47  C4  UNL     1       8.225  35.855  25.985  1.00  0.00     0.002 C 
HETATM   48  C2  UNL     1       8.937  35.096  26.810  1.00  0.00    -0.088 C 
HETATM   49  C1  UNL     1       9.566  33.860  26.333  1.00  0.00     0.043 C 
HETATM   50  C3  UNL     1       9.084  35.516  28.217  1.00  0.00     0.043 C 
ENDBRANCH  46  47
ENDBRANCH   1  46
TORSDOF 13
ENDMDL
MODEL 3
REMARK VINA RESULT: -7.425642137      2.405      4.978
REMARK  13 active torsions:
REMARK  status: ('A' for Active; 'I' for Inactive)
REMARK    1  A    between atoms: C4_4  and  C5_5 
REMARK    2  A    between atoms: C5_5  and  C6_6 
REMARK    3  A    between atoms: C12_13  and  C13_14 
REMARK    4  A    between atoms: C13_14  and  O2_15 
REMARK    5  A    between atoms: O2_15  and  C14_16 
REMARK    6  A    between atoms: C14_16  and  C15_17 
REMARK    7  A    between atoms: N1_21  and  C18_22 
REMARK    8  A    between atoms: C18_22  and  C19_23 
REMARK    9  A    between atoms: C23_27  and  O4_28 
REMARK   10  A    between atoms: C24_30  and  C25_31 
REMARK   11  A    between atoms: C25_31  and  O5_32 
REMARK   12  A    between atoms: C29_37  and  O6_38 
REMARK   13  A    between atoms: C29_37  and  C30_40 
ROOT
HETATM    1  C6  UNL     1       6.183  37.553  25.608  1.00  0.00    -0.041 C 
HETATM    2  C7  UNL     1       5.009  36.770  26.200  1.00  0.00     0.027 C 
HETATM    3  C8  UNL     1       4.986  36.666  27.675  1.00  0.00     0.015 C 
HETATM    4  C9  UNL     1       3.836  37.156  25.469  1.00  0.00     0.095 C 
HETATM    5  C10 UNL     1       4.047  36.675  24.095  1.00  0.00     0.135 C 
HETATM    6  O1  UNL     1       4.474  35.538  24.043  1.00  0.00    -0.297 OA
HETATM    7  C11 UNL     1       3.840  37.293  22.806  1.00  0.00     0.090 C 
HETATM    8  C12 UNL     1       3.160  38.630  23.055  1.00  0.00    -0.010 C 
HETATM    9  C27 UNL     1       4.085  39.669  23.639  1.00  0.00     0.015 C 
HETATM   10  C28 UNL     1       5.470  39.304  23.878  1.00  0.00     0.044 C 
HETATM   11  C29 UNL     1       6.126  38.940  25.176  1.00  0.00     0.085 C 
HETATM   12  C33 UNL     1       1.870  38.396  23.706  1.00  0.00     0.046 C 
HETATM   13  C34 UNL     1       1.681  38.061  25.073  1.00  0.00     0.155 C 
HETATM   14  O7  UNL     1       0.414  37.741  25.451  1.00  0.00    -0.348 OA
HETATM   15  C35 UNL     1       0.594  37.447  26.817  1.00  0.00     0.158 C 
HETATM   16  C36 UNL     1      -0.446  36.523  27.355  1.00  0.00     0.078 C 
HETATM   17  C37 UNL     1       0.609  38.724  27.641  1.00  0.00     0.078 C 
HETATM   18  O8  UNL     1       1.891  36.897  26.937  1.00  0.00    -0.347 OA
HETATM   19  C38 UNL     1       2.430  36.863  25.691  1.00  0.00     0.166 C 
ENDROOT
BRANCH   8  20
HETATM   20  C13 UNL     1       2.768  39.021  21.586  1.00  0.00     0.177 C 
BRANCH  20  21
HETATM   21  O2  UNL     1       3.809  38.975  20.763  1.00  0.00    -0.390 OA
BRANCH  21  22
HETATM   22  C14 UNL     1       4.195  40.080  20.109  1.00  0.00     0.176 C 
BRANCH  22  23
HETATM   23  C15 UNL     1       5.646  40.321  19.798  1.00  0.00     0.062 C 
HETATM   24  C16 UNL     1       6.008  40.633  18.410  1.00  0.00     0.178 C 
HETATM   25  O3  UNL     1       6.916  41.724  18.389  1.00  0.00    -0.362 OA
HETATM   26  C17 UNL     1       7.991  41.326  19.184  1.00  0.00     0.440 C 
HETATM   27  N1  UNL     1       7.660  41.487  20.593  1.00  0.00     0.112 N 
HETATM   28  C26 UNL     1       6.261  41.254  20.832  1.00  0.00     0.284 C 
BRANCH  27  29
HETATM   29  C18 UNL     1       8.444  40.520  21.331  1.00  0.00     0.280 C 
BRANCH  29  30
HETATM   30  C19 UNL     1       9.205  41.171  22.469  1.00  0.00     0.026 C 
HETATM   31  C20 UNL     1      10.464  40.360  22.679  1.00  0.00     0.033 C 
HETATM   32  C21 UNL     1      11.246  40.416  21.402  1.00  0.00    -0.028 C 
HETATM   33  C22 UNL     1      11.406  41.616  20.855  1.00  0.00     0.001 C 
HETATM   34  C23 UNL     1      10.837  42.811  21.487  1.00  0.00     0.147 C 
HETATM   35  C24 UNL     1       9.496  42.603  22.137  1.00  0.00     0.048 C 
BRANCH  34  36
HETATM   36  O4  UNL     1      11.774  43.350  22.398  1.00  0.00    -0.391 OA
ATOM     37  H4  UNL     1      12.382  42.669  22.663  1.00  0.00     0.210 HD
ENDBRANCH  34  36
BRANCH  35  38
HETATM   38  C25 UNL     1       9.522  43.429  23.432  1.00  0.00     0.172 C 
BRANCH  38  39
HETATM   39  O5  UNL     1       9.346  44.769  23.190  1.00  0.00    -0.400 OA
ATOM     40  H5  UNL     1       8.481  45.067  23.448  1.00  0.00     0.209 HD
ENDBRANCH  38  39
ENDBRANCH  35  38
ENDBRANCH  29  30
ENDBRANCH  27  29
ENDBRANCH  22  23
ENDBRANCH  21  22
ENDBRANCH  20  21
ENDBRANCH   8  20
BRANCH  11  41
HETATM   41  O6  UNL     1       7.497  38.923  24.607  1.00  0.00    -0.385 OA
ATOM     42  H6  UNL     1       7.292  38.249  23.969  1.00  0.00     0.211 HD
ENDBRANCH  11  41
BRANCH  11  43
HETATM   43  C30 UNL     1       6.343  40.086  26.083  1.00  0.00     0.016 C 
HETATM   44  C31 UNL     1       5.288  40.624  26.960  1.00  0.00     0.013 C 
HETATM   45  C32 UNL     1       6.825  41.351  25.335  1.00  0.00     0.013 C 
ENDBRANCH  11  43
BRANCH   1  46
HETATM   46  C5  UNL     1       7.320  37.033  26.402  1.00  0.00     0.006 C 
BRANCH  46  47
HETATM   47  C4  UNL     1       8.093  35.869  26.019  1.00  0.00     0.002 C 
HETATM   48  C2  UNL     1       8.825  35.136  26.850  1.00  0.00    -0.088 C 
HETATM   49  C1  UNL     1       9.574  33.975  26.361  1.00  0.00     0.043 C 
HETATM   50  C3  UNL     1       8.871  35.510  28.277  1.00  0.00     0.043 C 
ENDBRANCH  46  47
ENDBRANCH   1  46
TORSDOF 13
ENDMDL
MODEL 4
REMARK VINA RESULT: -7.301305985      1.847      3.922
REMARK  13 active torsions:
REMARK  status: ('A' for Active; 'I' for Inactive)
REMARK    1  A    between atoms: C4_4  and  C5_5 
REMARK    2  A    between atoms: C5_5  and  C6_6 
REMARK    3  A    between atoms: C12_13  and  C13_14 
REMARK    4  A    between atoms: C13_14  and  O2_15 
REMARK    5  A    between atoms: O2_15  and  C14_16 
REMARK    6  A    between atoms: C14_16  and  C15_17 
REMARK    7  A    between atoms: N1_21  and  C18_22 
REMARK    8  A    between atoms: C18_22  and  C19_23 
REMARK    9  A    between atoms: C23_27  and  O4_28 
REMARK   10  A    between atoms: C24_30  and  C25_31 
REMARK   11  A    between atoms: C25_31  and  O5_32 
REMARK   12  A    between atoms: C29_37  and  O6_38 
REMARK   13  A    between atoms: C29_37  and  C30_40 
ROOT
HETATM    1  C6  UNL     1       7.065  38.084  27.237  1.00  0.00    -0.041 C 
HETATM    2  C7  UNL     1       6.197  37.149  26.391  1.00  0.00     0.027 C 
HETATM    3  C8  UNL     1       5.280  36.267  27.146  1.00  0.00     0.015 C 
HETATM    4  C9  UNL     1       5.729  37.913  25.270  1.00  0.00     0.095 C 
HETATM    5  C10 UNL     1       6.929  38.241  24.484  1.00  0.00     0.135 C 
HETATM    6  O1  UNL     1       7.679  37.297  24.333  1.00  0.00    -0.297 OA
HETATM    7  C11 UNL     1       7.378  39.464  23.860  1.00  0.00     0.090 C 
HETATM    8  C12 UNL     1       6.257  40.481  24.010  1.00  0.00    -0.010 C 
HETATM    9  C27 UNL     1       6.112  41.004  25.417  1.00  0.00     0.015 C 
HETATM   10  C28 UNL     1       7.027  40.516  26.433  1.00  0.00     0.044 C 
HETATM   11  C29 UNL     1       6.776  39.485  27.492  1.00  0.00     0.085 C 
HETATM   12  C33 UNL     1       5.065  39.981  23.322  1.00  0.00     0.046 C 
HETATM   13  C34 UNL     1       4.193  38.969  23.805  1.00  0.00     0.155 C 
HETATM   14  O7  UNL     1       3.224  38.544  22.951  1.00  0.00    -0.348 OA
HETATM   15  C35 UNL     1       2.585  37.553  23.722  1.00  0.00     0.158 C 
HETATM   16  C36 UNL     1       1.894  36.524  22.891  1.00  0.00     0.078 C 
HETATM   17  C37 UNL     1       1.586  38.183  24.679  1.00  0.00     0.078 C 
HETATM   18  O8  UNL     1       3.587  36.977  24.536  1.00  0.00    -0.347 OA
HETATM   19  C38 UNL     1       4.755  37.600  24.237  1.00  0.00     0.166 C 
ENDROOT
BRANCH   8  20
HETATM   20  C13 UNL     1       6.783  41.617  23.063  1.00  0.00     0.177 C 
BRANCH  20  21
HETATM   21  O2  UNL     1       6.058  41.718  21.955  1.00  0.00    -0.390 OA
BRANCH  21  22
HETATM   22  C14 UNL     1       6.660  41.713  20.758  1.00  0.00     0.176 C 
BRANCH  22  23
HETATM   23  C15 UNL     1       7.903  40.899  20.528  1.00  0.00     0.062 C 
HETATM   24  C16 UNL     1       7.769  39.631  19.800  1.00  0.00     0.178 C 
HETATM   25  O3  UNL     1       8.798  39.529  18.829  1.00  0.00    -0.362 OA
HETATM   26  C17 UNL     1       9.992  39.656  19.539  1.00  0.00     0.440 C 
HETATM   27  N1  UNL     1      10.257  41.057  19.830  1.00  0.00     0.112 N 
HETATM   28  C26 UNL     1       9.036  41.790  20.032  1.00  0.00     0.284 C 
BRANCH  27  29
HETATM   29  C18 UNL     1      11.053  41.102  21.037  1.00  0.00     0.280 C 
BRANCH  29  30
HETATM   30  C19 UNL     1      12.415  41.719  20.785  1.00  0.00     0.026 C 
HETATM   31  C20 UNL     1      12.312  43.183  21.152  1.00  0.00     0.033 C 
HETATM   32  C21 UNL     1      11.944  43.251  22.603  1.00  0.00    -0.028 C 
HETATM   33  C22 UNL     1      12.649  42.487  23.431  1.00  0.00     0.001 C 
HETATM   34  C23 UNL     1      13.726  41.629  22.928  1.00  0.00     0.147 C 
HETATM   35  C24 UNL     1      13.457  41.001  21.587  1.00  0.00     0.048 C 
BRANCH  34  36
HETATM   36  O4  UNL     1      14.940  42.354  22.924  1.00  0.00    -0.391 OA
ATOM     37  H4  UNL     1      14.750  43.285  22.935  1.00  0.00     0.210 HD
ENDBRANCH  34  36
BRANCH  35  38
HETATM   38  C25 UNL     1      14.793  41.036  20.829  1.00  0.00     0.172 C 
BRANCH  38  39
HETATM   39  O5  UNL     1      15.605  39.982  21.170  1.00  0.00    -0.400 OA
ATOM     40  H5  UNL     1      16.369  39.924  20.608  1.00  0.00     0.209 HD
ENDBRANCH  38  39
ENDBRANCH  35  38
ENDBRANCH  29  30
ENDBRANCH  27  29
ENDBRANCH  22  23
ENDBRANCH  21  22
ENDBRANCH  20  21
ENDBRANCH   8  20
BRANCH  11  41
HETATM   41  O6  UNL     1       8.066  39.726  28.188  1.00  0.00    -0.385 OA
ATOM     42  H6  UNL     1       7.654  40.123  28.947  1.00  0.00     0.211 HD
ENDBRANCH  11  41
BRANCH  11  43
HETATM   43  C30 UNL     1       5.910  39.951  28.595  1.00  0.00     0.016 C 
HETATM   44  C31 UNL     1       4.439  39.978  28.501  1.00  0.00     0.013 C 
HETATM   45  C32 UNL     1       6.237  41.399  29.034  1.00  0.00     0.013 C 
ENDBRANCH  11  43
BRANCH   1  46
HETATM   46  C5  UNL     1       7.518  37.175  28.315  1.00  0.00     0.006 C 
BRANCH  46  47
HETATM   47  C4  UNL     1       8.460  36.094  28.103  1.00  0.00     0.002 C 
HETATM   48  C2  UNL     1       8.962  35.325  29.062  1.00  0.00    -0.088 C 
HETATM   49  C1  UNL     1       9.912  34.255  28.742  1.00  0.00     0.043 C 
HETATM   50  C3  UNL     1       8.545  35.562  30.457  1.00  0.00     0.043 C 
ENDBRANCH  46  47
ENDBRANCH   1  46
TORSDOF 13
ENDMDL
MODEL 5
REMARK VINA RESULT: -7.258810435      5.259      8.699
REMARK  13 active torsions:
REMARK  status: ('A' for Active; 'I' for Inactive)
REMARK    1  A    between atoms: C4_4  and  C5_5 
REMARK    2  A    between atoms: C5_5  and  C6_6 
REMARK    3  A    between atoms: C12_13  and  C13_14 
REMARK    4  A    between atoms: C13_14  and  O2_15 
REMARK    5  A    between atoms: O2_15  and  C14_16 
REMARK    6  A    between atoms: C14_16  and  C15_17 
REMARK    7  A    between atoms: N1_21  and  C18_22 
REMARK    8  A    between atoms: C18_22  and  C19_23 
REMARK    9  A    between atoms: C23_27  and  O4_28 
REMARK   10  A    between atoms: C24_30  and  C25_31 
REMARK   11  A    between atoms: C25_31  and  O5_32 
REMARK   12  A    between atoms: C29_37  and  O6_38 
REMARK   13  A    between atoms: C29_37  and  C30_40 
ROOT
HETATM    1  C6  UNL     1       0.326  36.828  26.503  1.00  0.00    -0.041 C 
HETATM    2  C7  UNL     1       0.249  37.897  25.410  1.00  0.00     0.027 C 
HETATM    3  C8  UNL     1      -0.659  39.032  25.685  1.00  0.00     0.015 C 
HETATM    4  C9  UNL     1       1.589  38.120  24.947  1.00  0.00     0.095 C 
HETATM    5  C10 UNL     1       2.006  36.860  24.312  1.00  0.00     0.135 C 
HETATM    6  O1  UNL     1       1.158  36.388  23.580  1.00  0.00    -0.297 OA
HETATM    7  C11 UNL     1       3.224  36.088  24.390  1.00  0.00     0.090 C 
HETATM    8  C12 UNL     1       4.216  36.900  25.208  1.00  0.00    -0.010 C 
HETATM    9  C27 UNL     1       3.891  36.928  26.681  1.00  0.00     0.015 C 
HETATM   10  C28 UNL     1       2.725  36.198  27.145  1.00  0.00     0.044 C 
HETATM   11  C29 UNL     1       1.373  36.736  27.506  1.00  0.00     0.085 C 
HETATM   12  C33 UNL     1       4.475  38.168  24.523  1.00  0.00     0.046 C 
HETATM   13  C34 UNL     1       3.603  39.288  24.496  1.00  0.00     0.155 C 
HETATM   14  O7  UNL     1       3.961  40.318  23.684  1.00  0.00    -0.348 OA
HETATM   15  C35 UNL     1       2.891  41.214  23.878  1.00  0.00     0.158 C 
HETATM   16  C36 UNL     1       2.689  42.138  22.724  1.00  0.00     0.078 C 
HETATM   17  C37 UNL     1       3.099  42.028  25.145  1.00  0.00     0.078 C 
HETATM   18  O8  UNL     1       1.746  40.420  24.115  1.00  0.00    -0.347 OA
HETATM   19  C38 UNL     1       2.137  39.122  24.047  1.00  0.00     0.166 C 
ENDROOT
BRANCH   8  20
HETATM   20  C13 UNL     1       5.526  36.070  24.960  1.00  0.00     0.177 C 
BRANCH  20  21
HETATM   21  O2  UNL     1       6.568  36.850  24.699  1.00  0.00    -0.390 OA
BRANCH  21  22
HETATM   22  C14 UNL     1       7.730  36.650  25.336  1.00  0.00     0.176 C 
BRANCH  22  23
HETATM   23  C15 UNL     1       7.764  36.461  26.828  1.00  0.00     0.062 C 
HETATM   24  C16 UNL     1       8.541  35.334  27.359  1.00  0.00     0.178 C 
HETATM   25  O3  UNL     1       9.322  35.772  28.461  1.00  0.00    -0.362 OA
HETATM   26  C17 UNL     1       8.412  36.316  29.367  1.00  0.00     0.440 C 
HETATM   27  N1  UNL     1       8.039  37.662  28.957  1.00  0.00     0.112 N 
HETATM   28  C26 UNL     1       8.030  37.790  27.524  1.00  0.00     0.284 C 
BRANCH  27  29
HETATM   29  C18 UNL     1       6.710  37.916  29.473  1.00  0.00     0.280 C 
BRANCH  29  30
HETATM   30  C19 UNL     1       6.177  39.255  29.005  1.00  0.00     0.026 C 
HETATM   31  C20 UNL     1       4.684  39.247  29.253  1.00  0.00     0.033 C 
HETATM   32  C21 UNL     1       4.481  39.065  30.727  1.00  0.00    -0.028 C 
HETATM   33  C22 UNL     1       5.204  39.841  31.526  1.00  0.00     0.001 C 
HETATM   34  C23 UNL     1       6.147  40.819  30.972  1.00  0.00     0.147 C 
HETATM   35  C24 UNL     1       6.870  40.365  29.734  1.00  0.00     0.048 C 
BRANCH  34  36
HETATM   36  O4  UNL     1       5.477  42.046  30.759  1.00  0.00    -0.391 OA
ATOM     37  H4  UNL     1       4.919  41.971  29.994  1.00  0.00     0.210 HD
ENDBRANCH  34  36
BRANCH  35  38
HETATM   38  C25 UNL     1       6.956  41.597  28.820  1.00  0.00     0.172 C 
BRANCH  38  39
HETATM   39  O5  UNL     1       8.036  42.389  29.123  1.00  0.00    -0.400 OA
ATOM     40  H5  UNL     1       7.775  43.269  29.367  1.00  0.00     0.209 HD
ENDBRANCH  38  39
ENDBRANCH  35  38
ENDBRANCH  29  30
ENDBRANCH  27  29
ENDBRANCH  22  23
ENDBRANCH  21  22
ENDBRANCH  20  21
ENDBRANCH   8  20
BRANCH  11  41
HETATM   41  O6  UNL     1       0.880  35.444  28.046  1.00  0.00    -0.385 OA
ATOM     42  H6  UNL     1       1.751  35.072  28.124  1.00  0.00     0.211 HD
ENDBRANCH  11  41
BRANCH  11  43
HETATM   43  C30 UNL     1       1.339  37.469  28.789  1.00  0.00     0.016 C 
HETATM   44  C31 UNL     1       0.386  37.150  29.868  1.00  0.00     0.013 C 
HETATM   45  C32 UNL     1       1.120  38.989  28.598  1.00  0.00     0.013 C 
ENDBRANCH  11  43
BRANCH   1  46
HETATM   46  C5  UNL     1      -1.103  36.656  26.852  1.00  0.00     0.006 C 
BRANCH  46  47
HETATM   47  C4  UNL     1      -2.024  35.853  26.073  1.00  0.00     0.002 C 
HETATM   48  C2  UNL     1      -3.321  35.722  26.328  1.00  0.00    -0.088 C 
HETATM   49  C1  UNL     1      -4.168  34.882  25.476  1.00  0.00     0.043 C 
HETATM   50  C3  UNL     1      -3.896  36.438  27.483  1.00  0.00     0.043 C 
ENDBRANCH  46  47
ENDBRANCH   1  46
TORSDOF 13
ENDMDL
