MODEL 1
REMARK VINA RESULT: -6.503654492      0.000      0.000
REMARK  14 active torsions:
REMARK  status: ('A' for Active; 'I' for Inactive)
REMARK    1  A    between atoms: C2_2  and  C3_3 
REMARK    2  A    between atoms: C3_3  and  O1_5 
REMARK    3  A    between atoms: C3_3  and  C5_7 
REMARK    4  A    between atoms: C5_7  and  C6_8 
REMARK    5  A    between atoms: C6_8  and  C7_9 
REMARK    6  A    between atoms: C7_9  and  C9_11 
REMARK    7  A    between atoms: C20_22  and  O2_23 
REMARK    8  A    between atoms: O2_23  and  C21_24 
REMARK    9  A    between atoms: C25_29  and  O4_30 
REMARK   10  A    between atoms: C27_32  and  N1_33 
REMARK   11  A    between atoms: C30_36  and  O5_37 
REMARK   12  A    between atoms: C31_39  and  O6_40 
REMARK   13  A    between atoms: O6_40  and  C32_41 
REMARK   14  A    between atoms: C35_45  and  O8_47 
ROOT
HETATM    1  C9  UNL     1       6.286  37.680  24.815  1.00  0.00     0.020 C 
HETATM    2  C10 UNL     1       4.889  37.901  25.397  1.00  0.00    -0.025 C 
HETATM    3  C11 UNL     1       4.077  38.681  24.783  1.00  0.00    -0.030 C 
HETATM    4  C12 UNL     1       4.308  39.442  23.524  1.00  0.00     0.033 C 
HETATM    5  C13 UNL     1       5.760  39.353  23.133  1.00  0.00     0.010 C 
HETATM    6  C14 UNL     1       6.644  39.075  24.343  1.00  0.00    -0.032 C 
HETATM    7  C15 UNL     1       6.350  39.984  25.517  1.00  0.00     0.016 C 
HETATM    8  C16 UNL     1       8.068  39.109  23.943  1.00  0.00     0.011 C 
HETATM    9  C17 UNL     1       8.462  40.292  23.075  1.00  0.00     0.013 C 
HETATM   10  C18 UNL     1       7.641  40.273  21.776  1.00  0.00    -0.005 C 
HETATM   11  C19 UNL     1       7.996  38.982  21.119  1.00  0.00     0.019 C 
HETATM   12  C20 UNL     1       8.089  41.427  20.915  1.00  0.00     0.163 C 
HETATM   13  C31 UNL     1       7.159  41.656  19.736  1.00  0.00     0.164 C 
HETATM   14  C34 UNL     1       5.718  41.578  20.044  1.00  0.00     0.073 C 
HETATM   15  C35 UNL     1       5.287  40.487  20.993  1.00  0.00     0.065 C 
HETATM   16  C36 UNL     1       5.062  39.260  20.217  1.00  0.00     0.047 C 
HETATM   17  C37 UNL     1       6.199  40.401  22.199  1.00  0.00     0.001 C 
HETATM   18  C38 UNL     1       6.030  41.795  22.807  1.00  0.00     0.019 C 
ENDROOT
BRANCH  12  19
HETATM   19  O2  UNL     1       9.342  41.273  20.351  1.00  0.00    -0.350 OA
BRANCH  19  20
HETATM   20  C21 UNL     1      10.183  42.352  20.456  1.00  0.00     0.292 C 
HETATM   21  O3  UNL     1      10.799  42.285  21.687  1.00  0.00    -0.346 OA
HETATM   22  C22 UNL     1      11.993  41.656  21.767  1.00  0.00     0.085 C 
HETATM   23  C23 UNL     1      12.510  41.850  23.197  1.00  0.00     0.048 C 
HETATM   24  C24 UNL     1      11.809  40.143  21.622  1.00  0.00     0.048 C 
HETATM   25  C25 UNL     1      13.065  42.185  20.852  1.00  0.00     0.179 C 
HETATM   26  C27 UNL     1      12.513  43.009  19.720  1.00  0.00     0.144 C 
HETATM   27  C30 UNL     1      11.114  42.577  19.311  1.00  0.00     0.198 C 
BRANCH  25  28
HETATM   28  O4  UNL     1      14.019  42.954  21.513  1.00  0.00    -0.386 OA
HETATM   29  C26 UNL     1      15.314  42.511  21.280  1.00  0.00     0.202 C 
ENDBRANCH  25  28
BRANCH  26  30
HETATM   30  N1  UNL     1      12.686  44.401  19.844  1.00  0.00    -0.412 N 
HETATM   31  C28 UNL     1      11.763  45.193  20.490  1.00  0.00     0.143 C 
HETATM   32  C29 UNL     1      13.275  45.072  18.710  1.00  0.00     0.143 C 
ENDBRANCH  26  30
BRANCH  27  33
HETATM   33  O5  UNL     1      10.676  43.576  18.430  1.00  0.00    -0.388 OA
ATOM     34  H5  UNL     1      11.150  43.585  17.608  1.00  0.00     0.210 HD
ENDBRANCH  27  33
ENDBRANCH  19  20
ENDBRANCH  12  19
BRANCH  13  35
HETATM   35  O6  UNL     1       7.427  40.865  18.620  1.00  0.00    -0.314 OA
BRANCH  35  36
HETATM   36  C32 UNL     1       7.172  41.142  17.310  1.00  0.00     0.255 C 
HETATM   37  C33 UNL     1       7.983  42.145  16.578  1.00  0.00     0.126 C 
HETATM   38  O7  UNL     1       6.222  40.509  16.764  1.00  0.00    -0.266 OA
ENDBRANCH  35  36
ENDBRANCH  13  35
BRANCH  15  39
HETATM   39  O8  UNL     1       4.040  40.948  21.439  1.00  0.00    -0.389 OA
ATOM     40  H8  UNL     1       3.604  40.144  21.697  1.00  0.00     0.210 HD
ENDBRANCH  15  39
BRANCH   1  41
HETATM   41  C7  UNL     1       7.045  37.082  25.924  1.00  0.00    -0.010 C 
HETATM   42  C8  UNL     1       7.933  35.903  25.698  1.00  0.00     0.010 C 
BRANCH  41  43
HETATM   43  C6  UNL     1       6.119  36.661  27.084  1.00  0.00     0.008 C 
BRANCH  43  44
HETATM   44  C5  UNL     1       6.794  36.757  28.424  1.00  0.00     0.042 C 
BRANCH  44  45
HETATM   45  C3  UNL     1       6.292  37.978  29.181  1.00  0.00     0.071 C 
HETATM   46  C4  UNL     1       7.304  39.083  28.971  1.00  0.00     0.050 C 
BRANCH  45  47
HETATM   47  C2  UNL     1       4.956  38.375  28.688  1.00  0.00    -0.000 C 
HETATM   48  C1  UNL     1       4.519  39.622  28.745  1.00  0.00     0.010 C 
ENDBRANCH  45  47
BRANCH  45  49
HETATM   49  O1  UNL     1       6.215  37.708  30.543  1.00  0.00    -0.386 OA
ATOM     50  H1  UNL     1       7.080  37.789  30.927  1.00  0.00     0.211 HD
ENDBRANCH  45  49
ENDBRANCH  44  45
ENDBRANCH  43  44
ENDBRANCH  41  43
ENDBRANCH   1  41
TORSDOF 14
ENDMDL
MODEL 2
REMARK VINA RESULT: -6.330599056      2.819      8.968
REMARK  14 active torsions:
REMARK  status: ('A' for Active; 'I' for Inactive)
REMARK    1  A    between atoms: C2_2  and  C3_3 
REMARK    2  A    between atoms: C3_3  and  O1_5 
REMARK    3  A    between atoms: C3_3  and  C5_7 
REMARK    4  A    between atoms: C5_7  and  C6_8 
REMARK    5  A    between atoms: C6_8  and  C7_9 
REMARK    6  A    between atoms: C7_9  and  C9_11 
REMARK    7  A    between atoms: C20_22  and  O2_23 
REMARK    8  A    between atoms: O2_23  and  C21_24 
REMARK    9  A    between atoms: C25_29  and  O4_30 
REMARK   10  A    between atoms: C27_32  and  N1_33 
REMARK   11  A    between atoms: C30_36  and  O5_37 
REMARK   12  A    between atoms: C31_39  and  O6_40 
REMARK   13  A    between atoms: O6_40  and  C32_41 
REMARK   14  A    between atoms: C35_45  and  O8_47 
ROOT
HETATM    1  C9  UNL     1      11.529  43.215  21.885  1.00  0.00     0.020 C 
HETATM    2  C10 UNL     1      12.601  42.978  20.821  1.00  0.00    -0.025 C 
HETATM    3  C11 UNL     1      12.316  42.253  19.803  1.00  0.00    -0.030 C 
HETATM    4  C12 UNL     1      11.029  41.570  19.492  1.00  0.00     0.033 C 
HETATM    5  C13 UNL     1      10.104  41.662  20.677  1.00  0.00     0.010 C 
HETATM    6  C14 UNL     1      10.881  41.848  21.975  1.00  0.00    -0.032 C 
HETATM    7  C15 UNL     1      12.026  40.871  22.129  1.00  0.00     0.016 C 
HETATM    8  C16 UNL     1       9.951  41.819  23.125  1.00  0.00     0.011 C 
HETATM    9  C17 UNL     1       8.937  40.687  23.100  1.00  0.00     0.013 C 
HETATM   10  C18 UNL     1       8.068  40.803  21.837  1.00  0.00    -0.005 C 
HETATM   11  C19 UNL     1       7.394  42.128  21.956  1.00  0.00     0.019 C 
HETATM   12  C20 UNL     1       7.041  39.700  21.866  1.00  0.00     0.163 C 
HETATM   13  C31 UNL     1       6.313  39.560  20.540  1.00  0.00     0.164 C 
HETATM   14  C34 UNL     1       7.167  39.641  19.339  1.00  0.00     0.073 C 
HETATM   15  C35 UNL     1       8.265  40.675  19.358  1.00  0.00     0.065 C 
HETATM   16  C36 UNL     1       7.707  41.953  18.896  1.00  0.00     0.047 C 
HETATM   17  C37 UNL     1       9.018  40.669  20.673  1.00  0.00     0.001 C 
HETATM   18  C38 UNL     1       9.568  39.242  20.701  1.00  0.00     0.019 C 
ENDROOT
BRANCH  12  19
HETATM   19  O2  UNL     1       6.038  39.870  22.802  1.00  0.00    -0.350 OA
BRANCH  19  20
HETATM   20  C21 UNL     1       5.613  38.732  23.440  1.00  0.00     0.292 C 
HETATM   21  O3  UNL     1       6.441  38.522  24.521  1.00  0.00    -0.346 OA
HETATM   22  C22 UNL     1       6.070  39.035  25.715  1.00  0.00     0.085 C 
HETATM   23  C23 UNL     1       7.083  38.539  26.754  1.00  0.00     0.048 C 
HETATM   24  C24 UNL     1       6.229  40.558  25.713  1.00  0.00     0.048 C 
HETATM   25  C25 UNL     1       4.713  38.609  26.208  1.00  0.00     0.179 C 
HETATM   26  C27 UNL     1       3.841  38.054  25.114  1.00  0.00     0.144 C 
HETATM   27  C30 UNL     1       4.155  38.657  23.754  1.00  0.00     0.198 C 
BRANCH  25  28
HETATM   28  O4  UNL     1       4.772  37.662  27.227  1.00  0.00    -0.386 OA
HETATM   29  C26 UNL     1       3.945  37.978  28.296  1.00  0.00     0.202 C 
ENDBRANCH  25  28
BRANCH  26  30
HETATM   30  N1  UNL     1       3.684  36.655  25.115  1.00  0.00    -0.412 N 
HETATM   31  C28 UNL     1       4.468  35.836  24.333  1.00  0.00     0.143 C 
HETATM   32  C29 UNL     1       2.331  36.166  25.222  1.00  0.00     0.143 C 
ENDBRANCH  26  30
BRANCH  27  33
HETATM   33  O5  UNL     1       3.432  37.876  22.842  1.00  0.00    -0.388 OA
ATOM     34  H5  UNL     1       3.919  37.127  22.521  1.00  0.00     0.210 HD
ENDBRANCH  27  33
ENDBRANCH  19  20
ENDBRANCH  12  19
BRANCH  13  35
HETATM   35  O6  UNL     1       5.225  40.417  20.381  1.00  0.00    -0.314 OA
BRANCH  35  36
HETATM   36  C32 UNL     1       3.925  40.091  20.133  1.00  0.00     0.255 C 
HETATM   37  C33 UNL     1       2.926  41.146  19.834  1.00  0.00     0.126 C 
HETATM   38  O7  UNL     1       3.623  38.863  20.173  1.00  0.00    -0.266 OA
ENDBRANCH  35  36
ENDBRANCH  13  35
BRANCH  15  39
HETATM   39  O8  UNL     1       9.142  40.206  18.369  1.00  0.00    -0.389 OA
ATOM     40  H8  UNL     1       9.978  40.558  18.651  1.00  0.00     0.210 HD
ENDBRANCH  15  39
BRANCH   1  41
HETATM   41  C7  UNL     1      12.279  43.730  23.041  1.00  0.00    -0.010 C 
HETATM   42  C8  UNL     1      11.892  45.013  23.697  1.00  0.00     0.010 C 
BRANCH  41  43
HETATM   43  C6  UNL     1      13.779  43.889  22.718  1.00  0.00     0.008 C 
BRANCH  43  44
HETATM   44  C5  UNL     1      14.293  45.266  23.032  1.00  0.00     0.042 C 
BRANCH  44  45
HETATM   45  C3  UNL     1      15.109  45.804  21.866  1.00  0.00     0.071 C 
HETATM   46  C4  UNL     1      15.941  44.658  21.335  1.00  0.00     0.050 C 
BRANCH  45  47
HETATM   47  C2  UNL     1      14.215  46.347  20.821  1.00  0.00    -0.000 C 
HETATM   48  C1  UNL     1      14.310  45.993  19.550  1.00  0.00     0.010 C 
ENDBRANCH  45  47
BRANCH  45  49
HETATM   49  O1  UNL     1      15.970  46.808  22.296  1.00  0.00    -0.386 OA
ATOM     50  H1  UNL     1      16.651  46.424  22.837  1.00  0.00     0.211 HD
ENDBRANCH  45  49
ENDBRANCH  44  45
ENDBRANCH  43  44
ENDBRANCH  41  43
ENDBRANCH   1  41
TORSDOF 14
ENDMDL
MODEL 3
REMARK VINA RESULT: -6.078317040      3.487      6.564
REMARK  14 active torsions:
REMARK  status: ('A' for Active; 'I' for Inactive)
REMARK    1  A    between atoms: C2_2  and  C3_3 
REMARK    2  A    between atoms: C3_3  and  O1_5 
REMARK    3  A    between atoms: C3_3  and  C5_7 
REMARK    4  A    between atoms: C5_7  and  C6_8 
REMARK    5  A    between atoms: C6_8  and  C7_9 
REMARK    6  A    between atoms: C7_9  and  C9_11 
REMARK    7  A    between atoms: C20_22  and  O2_23 
REMARK    8  A    between atoms: O2_23  and  C21_24 
REMARK    9  A    between atoms: C25_29  and  O4_30 
REMARK   10  A    between atoms: C27_32  and  N1_33 
REMARK   11  A    between atoms: C30_36  and  O5_37 
REMARK   12  A    between atoms: C31_39  and  O6_40 
REMARK   13  A    between atoms: O6_40  and  C32_41 
REMARK   14  A    between atoms: C35_45  and  O8_47 
ROOT
HETATM    1  C9  UNL     1       6.617  40.802  22.349  1.00  0.00     0.020 C 
HETATM    2  C10 UNL     1       6.822  39.373  22.852  1.00  0.00    -0.025 C 
HETATM    3  C11 UNL     1       8.008  38.888  22.879  1.00  0.00    -0.030 C 
HETATM    4  C12 UNL     1       9.279  39.545  22.469  1.00  0.00     0.033 C 
HETATM    5  C13 UNL     1       8.980  40.853  21.785  1.00  0.00     0.010 C 
HETATM    6  C14 UNL     1       7.581  40.855  21.180  1.00  0.00    -0.032 C 
HETATM    7  C15 UNL     1       7.284  39.618  20.361  1.00  0.00     0.016 C 
HETATM    8  C16 UNL     1       7.365  42.106  20.420  1.00  0.00     0.011 C 
HETATM    9  C17 UNL     1       8.502  42.496  19.492  1.00  0.00     0.013 C 
HETATM   10  C18 UNL     1       9.787  42.698  20.311  1.00  0.00    -0.005 C 
HETATM   11  C19 UNL     1       9.466  43.800  21.262  1.00  0.00     0.019 C 
HETATM   12  C20 UNL     1      10.884  43.133  19.371  1.00  0.00     0.163 C 
HETATM   13  C31 UNL     1      12.251  43.096  20.032  1.00  0.00     0.164 C 
HETATM   14  C34 UNL     1      12.521  41.905  20.860  1.00  0.00     0.073 C 
HETATM   15  C35 UNL     1      11.385  41.406  21.719  1.00  0.00     0.065 C 
HETATM   16  C36 UNL     1      11.406  42.143  22.990  1.00  0.00     0.047 C 
HETATM   17  C37 UNL     1      10.080  41.363  20.951  1.00  0.00     0.001 C 
HETATM   18  C38 UNL     1      10.423  40.387  19.824  1.00  0.00     0.019 C 
ENDROOT
BRANCH  12  19
HETATM   19  O2  UNL     1      10.757  44.424  18.896  1.00  0.00    -0.350 OA
BRANCH  19  20
HETATM   20  C21 UNL     1      11.352  44.680  17.687  1.00  0.00     0.292 C 
HETATM   21  O3  UNL     1      10.553  44.138  16.704  1.00  0.00    -0.346 OA
HETATM   22  C22 UNL     1       9.618  44.931  16.134  1.00  0.00     0.085 C 
HETATM   23  C23 UNL     1       8.980  44.130  14.994  1.00  0.00     0.048 C 
HETATM   24  C24 UNL     1       8.472  45.192  17.115  1.00  0.00     0.048 C 
HETATM   25  C25 UNL     1      10.138  46.204  15.521  1.00  0.00     0.179 C 
HETATM   26  C27 UNL     1      11.507  46.579  16.021  1.00  0.00     0.144 C 
HETATM   27  C30 UNL     1      11.764  46.094  17.439  1.00  0.00     0.198 C 
BRANCH  25  28
HETATM   28  O4  UNL     1      10.189  46.161  14.130  1.00  0.00    -0.386 OA
HETATM   29  C26 UNL     1       9.618  47.281  13.541  1.00  0.00     0.202 C 
ENDBRANCH  25  28
BRANCH  26  30
HETATM   30  N1  UNL     1      12.564  46.349  15.121  1.00  0.00    -0.412 N 
HETATM   31  C28 UNL     1      13.365  45.231  15.211  1.00  0.00     0.143 C 
HETATM   32  C29 UNL     1      13.306  47.513  14.699  1.00  0.00     0.143 C 
ENDBRANCH  26  30
BRANCH  27  33
HETATM   33  O5  UNL     1      13.132  46.317  17.650  1.00  0.00    -0.388 OA
ATOM     34  H5  UNL     1      13.662  45.540  17.520  1.00  0.00     0.210 HD
ENDBRANCH  27  33
ENDBRANCH  19  20
ENDBRANCH  12  19
BRANCH  13  35
HETATM   35  O6  UNL     1      12.576  44.238  20.762  1.00  0.00    -0.314 OA
BRANCH  35  36
HETATM   36  C32 UNL     1      13.811  44.767  20.994  1.00  0.00     0.255 C 
HETATM   37  C33 UNL     1      14.363  44.820  22.370  1.00  0.00     0.126 C 
HETATM   38  O7  UNL     1      14.448  45.201  19.991  1.00  0.00    -0.266 OA
ENDBRANCH  35  36
ENDBRANCH  13  35
BRANCH  15  39
HETATM   39  O8  UNL     1      11.762  40.081  21.983  1.00  0.00    -0.389 OA
ATOM     40  H8  UNL     1      11.001  39.590  21.696  1.00  0.00     0.210 HD
ENDBRANCH  15  39
BRANCH   1  41
HETATM   41  C7  UNL     1       5.172  40.888  22.091  1.00  0.00    -0.010 C 
HETATM   42  C8  UNL     1       4.325  41.896  22.796  1.00  0.00     0.010 C 
BRANCH  41  43
HETATM   43  C6  UNL     1       4.470  39.538  22.342  1.00  0.00     0.008 C 
BRANCH  43  44
HETATM   44  C5  UNL     1       3.711  39.051  21.139  1.00  0.00     0.042 C 
BRANCH  44  45
HETATM   45  C3  UNL     1       2.242  38.859  21.483  1.00  0.00     0.071 C 
HETATM   46  C4  UNL     1       2.155  38.657  22.980  1.00  0.00     0.050 C 
BRANCH  45  47
HETATM   47  C2  UNL     1       1.455  40.035  21.055  1.00  0.00    -0.000 C 
HETATM   48  C1  UNL     1       1.868  40.860  20.108  1.00  0.00     0.010 C 
ENDBRANCH  45  47
BRANCH  45  49
HETATM   49  O1  UNL     1       1.740  37.722  20.858  1.00  0.00    -0.386 OA
ATOM     50  H1  UNL     1       2.448  37.272  20.412  1.00  0.00     0.211 HD
ENDBRANCH  45  49
ENDBRANCH  44  45
ENDBRANCH  43  44
ENDBRANCH  41  43
ENDBRANCH   1  41
TORSDOF 14
ENDMDL
MODEL 4
REMARK VINA RESULT: -5.979872080      5.725     12.169
REMARK  14 active torsions:
REMARK  status: ('A' for Active; 'I' for Inactive)
REMARK    1  A    between atoms: C2_2  and  C3_3 
REMARK    2  A    between atoms: C3_3  and  O1_5 
REMARK    3  A    between atoms: C3_3  and  C5_7 
REMARK    4  A    between atoms: C5_7  and  C6_8 
REMARK    5  A    between atoms: C6_8  and  C7_9 
REMARK    6  A    between atoms: C7_9  and  C9_11 
REMARK    7  A    between atoms: C20_22  and  O2_23 
REMARK    8  A    between atoms: O2_23  and  C21_24 
REMARK    9  A    between atoms: C25_29  and  O4_30 
REMARK   10  A    between atoms: C27_32  and  N1_33 
REMARK   11  A    between atoms: C30_36  and  O5_37 
REMARK   12  A    between atoms: C31_39  and  O6_40 
REMARK   13  A    between atoms: O6_40  and  C32_41 
REMARK   14  A    between atoms: C35_45  and  O8_47 
ROOT
HETATM    1  C9  UNL     1       5.306  38.473  25.251  1.00  0.00     0.020 C 
HETATM    2  C10 UNL     1       5.463  37.274  24.316  1.00  0.00    -0.025 C 
HETATM    3  C11 UNL     1       4.498  36.437  24.212  1.00  0.00    -0.030 C 
HETATM    4  C12 UNL     1       3.180  36.463  24.905  1.00  0.00     0.033 C 
HETATM    5  C13 UNL     1       3.182  37.535  25.963  1.00  0.00     0.010 C 
HETATM    6  C14 UNL     1       4.597  37.847  26.435  1.00  0.00    -0.032 C 
HETATM    7  C15 UNL     1       5.399  36.609  26.773  1.00  0.00     0.016 C 
HETATM    8  C16 UNL     1       4.552  38.817  27.551  1.00  0.00     0.011 C 
HETATM    9  C17 UNL     1       3.534  38.501  28.633  1.00  0.00     0.013 C 
HETATM   10  C18 UNL     1       2.124  38.472  28.021  1.00  0.00    -0.005 C 
HETATM   11  C19 UNL     1       1.918  39.843  27.470  1.00  0.00     0.019 C 
HETATM   12  C20 UNL     1       1.132  38.207  29.125  1.00  0.00     0.163 C 
HETATM   13  C31 UNL     1      -0.253  37.892  28.588  1.00  0.00     0.164 C 
HETATM   14  C34 UNL     1      -0.288  36.976  27.431  1.00  0.00     0.073 C 
HETATM   15  C35 UNL     1       0.775  37.175  26.378  1.00  0.00     0.065 C 
HETATM   16  C36 UNL     1       0.303  38.192  25.430  1.00  0.00     0.047 C 
HETATM   17  C37 UNL     1       2.146  37.366  26.994  1.00  0.00     0.001 C 
HETATM   18  C38 UNL     1       2.323  36.050  27.753  1.00  0.00     0.019 C 
ENDROOT
BRANCH  12  19
HETATM   19  O2  UNL     1       0.941  39.266  29.993  1.00  0.00    -0.350 OA
BRANCH  19  20
HETATM   20  C21 UNL     1       0.263  38.977  31.151  1.00  0.00     0.292 C 
HETATM   21  O3  UNL     1       1.189  38.580  32.090  1.00  0.00    -0.346 OA
HETATM   22  C22 UNL     1       1.703  39.519  32.915  1.00  0.00     0.085 C 
HETATM   23  C23 UNL     1       2.584  38.791  33.936  1.00  0.00     0.048 C 
HETATM   24  C24 UNL     1       2.665  40.431  32.149  1.00  0.00     0.048 C 
HETATM   25  C25 UNL     1       0.693  40.305  33.709  1.00  0.00     0.179 C 
HETATM   26  C27 UNL     1      -0.697  40.217  33.137  1.00  0.00     0.144 C 
HETATM   27  C30 UNL     1      -0.697  40.015  31.630  1.00  0.00     0.198 C 
BRANCH  25  28
HETATM   28  O4  UNL     1       0.628  39.922  35.046  1.00  0.00    -0.386 OA
HETATM   29  C26 UNL     1       0.639  41.007  35.911  1.00  0.00     0.202 C 
ENDBRANCH  25  28
BRANCH  26  30
HETATM   30  N1  UNL     1      -1.590  39.387  33.841  1.00  0.00    -0.412 N 
HETATM   31  C28 UNL     1      -1.801  38.074  33.479  1.00  0.00     0.143 C 
HETATM   32  C29 UNL     1      -2.796  40.015  34.325  1.00  0.00     0.143 C 
ENDBRANCH  26  30
BRANCH  27  33
HETATM   33  O5  UNL     1      -2.031  39.726  31.309  1.00  0.00    -0.388 OA
ATOM     34  H5  UNL     1      -2.436  40.386  30.761  1.00  0.00     0.210 HD
ENDBRANCH  27  33
ENDBRANCH  19  20
ENDBRANCH  12  19
BRANCH  13  35
HETATM   35  O6  UNL     1      -1.036  39.009  28.304  1.00  0.00    -0.314 OA
BRANCH  35  36
HETATM   36  C32 UNL     1      -2.351  39.047  27.949  1.00  0.00     0.255 C 
HETATM   37  C33 UNL     1      -2.788  39.808  26.753  1.00  0.00     0.126 C 
HETATM   38  O7  UNL     1      -3.163  38.411  28.682  1.00  0.00    -0.266 OA
ENDBRANCH  35  36
ENDBRANCH  13  35
BRANCH  15  39
HETATM   39  O8  UNL     1       0.781  35.939  25.715  1.00  0.00    -0.389 OA
ATOM     40  H8  UNL     1       1.673  35.640  25.845  1.00  0.00     0.210 HD
ENDBRANCH  15  39
BRANCH   1  41
HETATM   41  C7  UNL     1       6.678  38.977  25.421  1.00  0.00    -0.010 C 
HETATM   42  C8  UNL     1       6.937  40.426  25.668  1.00  0.00     0.010 C 
BRANCH  41  43
HETATM   43  C6  UNL     1       7.568  38.617  24.214  1.00  0.00     0.008 C 
BRANCH  43  44
HETATM   44  C5  UNL     1       7.976  39.826  23.418  1.00  0.00     0.042 C 
BRANCH  44  45
HETATM   45  C3  UNL     1       8.942  39.429  22.312  1.00  0.00     0.071 C 
HETATM   46  C4  UNL     1       8.240  39.672  20.995  1.00  0.00     0.050 C 
BRANCH  45  47
HETATM   47  C2  UNL     1      10.187  40.219  22.409  1.00  0.00    -0.000 C 
HETATM   48  C1  UNL     1      10.204  41.474  22.827  1.00  0.00     0.010 C 
ENDBRANCH  45  47
BRANCH  45  49
HETATM   49  O1  UNL     1       9.252  38.075  22.400  1.00  0.00    -0.386 OA
ATOM     50  H1  UNL     1       9.554  37.881  23.280  1.00  0.00     0.211 HD
ENDBRANCH  45  49
ENDBRANCH  44  45
ENDBRANCH  43  44
ENDBRANCH  41  43
ENDBRANCH   1  41
TORSDOF 14
ENDMDL
MODEL 5
REMARK VINA RESULT: -5.944184476      5.929      9.167
REMARK  14 active torsions:
REMARK  status: ('A' for Active; 'I' for Inactive)
REMARK    1  A    between atoms: C2_2  and  C3_3 
REMARK    2  A    between atoms: C3_3  and  O1_5 
REMARK    3  A    between atoms: C3_3  and  C5_7 
REMARK    4  A    between atoms: C5_7  and  C6_8 
REMARK    5  A    between atoms: C6_8  and  C7_9 
REMARK    6  A    between atoms: C7_9  and  C9_11 
REMARK    7  A    between atoms: C20_22  and  O2_23 
REMARK    8  A    between atoms: O2_23  and  C21_24 
REMARK    9  A    between atoms: C25_29  and  O4_30 
REMARK   10  A    between atoms: C27_32  and  N1_33 
REMARK   11  A    between atoms: C30_36  and  O5_37 
REMARK   12  A    between atoms: C31_39  and  O6_40 
REMARK   13  A    between atoms: O6_40  and  C32_41 
REMARK   14  A    between atoms: C35_45  and  O8_47 
ROOT
HETATM    1  C9  UNL     1       6.884  36.772  27.906  1.00  0.00     0.020 C 
HETATM    2  C10 UNL     1       7.445  37.147  29.278  1.00  0.00    -0.025 C 
HETATM    3  C11 UNL     1       6.705  37.804  30.093  1.00  0.00    -0.030 C 
HETATM    4  C12 UNL     1       5.309  38.280  29.887  1.00  0.00     0.033 C 
HETATM    5  C13 UNL     1       4.906  38.072  28.451  1.00  0.00     0.010 C 
HETATM    6  C14 UNL     1       6.122  38.028  27.534  1.00  0.00    -0.032 C 
HETATM    7  C15 UNL     1       7.088  39.168  27.771  1.00  0.00     0.016 C 
HETATM    8  C16 UNL     1       5.684  37.938  26.123  1.00  0.00     0.011 C 
HETATM    9  C17 UNL     1       4.578  38.904  25.734  1.00  0.00     0.013 C 
HETATM   10  C18 UNL     1       3.334  38.637  26.596  1.00  0.00    -0.005 C 
HETATM   11  C19 UNL     1       2.952  37.229  26.291  1.00  0.00     0.019 C 
HETATM   12  C20 UNL     1       2.240  39.575  26.153  1.00  0.00     0.163 C 
HETATM   13  C31 UNL     1       1.065  39.579  27.115  1.00  0.00     0.164 C 
HETATM   14  C34 UNL     1       1.422  39.606  28.547  1.00  0.00     0.073 C 
HETATM   15  C35 UNL     1       2.589  38.748  28.970  1.00  0.00     0.065 C 
HETATM   16  C36 UNL     1       2.093  37.393  29.246  1.00  0.00     0.047 C 
HETATM   17  C37 UNL     1       3.762  38.891  28.021  1.00  0.00     0.001 C 
HETATM   18  C38 UNL     1       4.069  40.384  28.141  1.00  0.00     0.019 C 
ENDROOT
BRANCH  12  19
HETATM   19  O2  UNL     1       1.686  39.272  24.923  1.00  0.00    -0.350 OA
BRANCH  19  20
HETATM   20  C21 UNL     1       1.212  40.339  24.200  1.00  0.00     0.292 C 
HETATM   21  O3  UNL     1       2.295  40.982  23.644  1.00  0.00    -0.346 OA
HETATM   22  C22 UNL     1       2.678  40.623  22.398  1.00  0.00     0.085 C 
HETATM   23  C23 UNL     1       3.798  41.581  21.975  1.00  0.00     0.048 C 
HETATM   24  C24 UNL     1       3.336  39.241  22.421  1.00  0.00     0.048 C 
HETATM   25  C25 UNL     1       1.611  40.723  21.340  1.00  0.00     0.179 C 
HETATM   26  C27 UNL     1       0.221  40.781  21.914  1.00  0.00     0.144 C 
HETATM   27  C30 UNL     1       0.106  40.046  23.241  1.00  0.00     0.198 C 
BRANCH  25  28
HETATM   28  O4  UNL     1       1.772  41.824  20.502  1.00  0.00    -0.386 OA
HETATM   29  C26 UNL     1       1.428  41.546  19.187  1.00  0.00     0.202 C 
ENDBRANCH  25  28
BRANCH  26  30
HETATM   30  N1  UNL     1      -0.392  42.048  21.889  1.00  0.00    -0.412 N 
HETATM   31  C28 UNL     1      -0.276  42.932  22.938  1.00  0.00     0.143 C 
HETATM   32  C29 UNL     1      -1.694  42.111  21.269  1.00  0.00     0.143 C 
ENDBRANCH  26  30
BRANCH  27  33
HETATM   33  O5  UNL     1      -1.160  40.394  23.732  1.00  0.00    -0.388 OA
ATOM     34  H5  UNL     1      -1.125  40.874  24.551  1.00  0.00     0.210 HD
ENDBRANCH  27  33
ENDBRANCH  19  20
ENDBRANCH  12  19
BRANCH  13  35
HETATM   35  O6  UNL     1       0.132  38.567  26.901  1.00  0.00    -0.314 OA
BRANCH  35  36
HETATM   36  C32 UNL     1      -1.227  38.644  26.971  1.00  0.00     0.255 C 
HETATM   37  C33 UNL     1      -2.016  37.548  27.584  1.00  0.00     0.126 C 
HETATM   38  O7  UNL     1      -1.768  39.684  26.492  1.00  0.00    -0.266 OA
ENDBRANCH  35  36
ENDBRANCH  13  35
BRANCH  15  39
HETATM   39  O8  UNL     1       2.964  39.326  30.192  1.00  0.00    -0.389 OA
ATOM     40  H8  UNL     1       2.828  40.252  30.032  1.00  0.00     0.210 HD
ENDBRANCH  15  39
BRANCH   1  41
HETATM   41  C7  UNL     1       8.072  36.396  27.123  1.00  0.00    -0.010 C 
HETATM   42  C8  UNL     1       7.937  35.805  25.759  1.00  0.00     0.010 C 
BRANCH  41  43
HETATM   43  C6  UNL     1       8.970  35.407  27.895  1.00  0.00     0.008 C 
BRANCH  43  44
HETATM   44  C5  UNL     1       9.348  34.208  27.069  1.00  0.00     0.042 C 
BRANCH  44  45
HETATM   45  C3  UNL     1       9.982  33.141  27.947  1.00  0.00     0.071 C 
HETATM   46  C4  UNL     1       9.523  33.396  29.366  1.00  0.00     0.050 C 
BRANCH  45  47
HETATM   47  C2  UNL     1       9.583  31.793  27.489  1.00  0.00    -0.000 C 
HETATM   48  C1  UNL     1       9.966  30.689  28.108  1.00  0.00     0.010 C 
ENDBRANCH  45  47
BRANCH  45  49
HETATM   49  O1  UNL     1      11.370  33.243  27.912  1.00  0.00    -0.386 OA
ATOM     50  H1  UNL     1      11.611  34.138  27.705  1.00  0.00     0.211 HD
ENDBRANCH  45  49
ENDBRANCH  44  45
ENDBRANCH  43  44
ENDBRANCH  41  43
ENDBRANCH   1  41
TORSDOF 14
ENDMDL
