MODEL 1
REMARK VINA RESULT: -7.835573283      0.000      0.000
REMARK  15 active torsions:
REMARK  status: ('A' for Active; 'I' for Inactive)
REMARK    1  A    between atoms: C2_2  and  C4_4 
REMARK    2  A    between atoms: C6_6  and  C8_8 
REMARK    3  A    between atoms: C8_8  and  O1_9 
REMARK    4  A    between atoms: C11_12  and  C12_13 
REMARK    5  A    between atoms: C12_13  and  O2_14 
REMARK    6  A    between atoms: C12_13  and  C13_16 
REMARK    7  A    between atoms: C21_25  and  O4_26 
REMARK    8  A    between atoms: C24_31  and  O6_32 
REMARK    9  A    between atoms: O6_32  and  C25_33 
REMARK   10  A    between atoms: C25_33  and  C26_34 
REMARK   11  A    between atoms: C26_34  and  O7_35 
REMARK   12  A    between atoms: C26_34  and  C27_37 
REMARK   13  A    between atoms: C27_37  and  C34_46 
REMARK   14  A    between atoms: C28_38  and  O8_39 
REMARK   15  A    between atoms: C28_38  and  C29_41 
ROOT
HETATM    1  C13 UNL     1       4.202  40.511  25.381  1.00  0.00     0.158 C 
HETATM    2  O3  UNL     1       4.881  39.528  24.634  1.00  0.00    -0.366 OA
HETATM    3  C14 UNL     1       5.530  40.113  23.600  1.00  0.00     0.122 C 
HETATM    4  C15 UNL     1       4.717  39.887  22.308  1.00  0.00     0.052 C 
HETATM    5  C16 UNL     1       5.490  41.609  23.804  1.00  0.00     0.036 C 
HETATM    6  C17 UNL     1       6.693  42.213  24.414  1.00  0.00     0.046 C 
HETATM    7  C18 UNL     1       7.860  41.793  23.590  1.00  0.00    -0.035 C 
HETATM    8  C19 UNL     1       8.954  42.427  23.116  1.00  0.00    -0.050 C 
HETATM    9  C20 UNL     1       9.226  43.857  23.369  1.00  0.00     0.046 C 
HETATM   10  C21 UNL     1       9.803  41.459  22.359  1.00  0.00     0.150 C 
HETATM   11  C22 UNL     1       9.403  40.162  23.109  1.00  0.00     0.085 C 
HETATM   12  C23 UNL     1       7.908  40.409  23.151  1.00  0.00     0.150 A 
HETATM   13  O5  UNL     1       7.285  40.007  21.998  1.00  0.00    -0.328 OA
HETATM   14  C24 UNL     1       6.876  39.547  23.382  1.00  0.00     0.234 A 
HETATM   15  C38 UNL     1       4.216  41.763  24.634  1.00  0.00     0.020 C 
HETATM   16  C39 UNL     1       3.104  42.064  23.696  1.00  0.00     0.013 C 
ENDROOT
BRANCH  14  17
HETATM   17  O6  UNL     1       7.083  38.203  23.446  1.00  0.00    -0.347 OA
BRANCH  17  18
HETATM   18  C25 UNL     1       7.749  37.648  24.477  1.00  0.00     0.208 C 
BRANCH  18  19
HETATM   19  C26 UNL     1       6.928  37.420  25.712  1.00  0.00     0.174 C 
BRANCH  19  20
HETATM   20  O7  UNL     1       6.232  36.168  25.447  1.00  0.00    -0.389 OA
ATOM     21  H7  UNL     1       6.414  35.637  26.214  1.00  0.00     0.210 HD
ENDBRANCH  19  20
BRANCH  19  22
HETATM   22  C27 UNL     1       7.488  37.374  27.044  1.00  0.00    -0.008 C 
HETATM   23  C28 UNL     1       7.721  36.170  27.801  1.00  0.00     0.077 C 
BRANCH  23  24
HETATM   24  O8  UNL     1       6.781  35.996  28.712  1.00  0.00    -0.360 OA
ATOM     25  H8  UNL     1       6.572  35.075  28.812  1.00  0.00     0.217 HD
ENDBRANCH  23  24
BRANCH  23  26
HETATM   26  C29 UNL     1       8.694  35.153  27.791  1.00  0.00    -0.027 C 
HETATM   27  C30 UNL     1       9.192  34.595  26.502  1.00  0.00     0.051 C 
HETATM   28  C31 UNL     1       9.265  34.664  28.872  1.00  0.00    -0.079 C 
HETATM   29  C32 UNL     1       8.976  35.109  30.250  1.00  0.00     0.043 C 
HETATM   30  C33 UNL     1      10.297  33.569  28.760  1.00  0.00     0.043 C 
ENDBRANCH  23  26
BRANCH  22  31
HETATM   31  C34 UNL     1       6.955  38.469  27.975  1.00  0.00    -0.023 C 
HETATM   32  C35 UNL     1       7.799  38.483  29.236  1.00  0.00     0.019 C 
HETATM   33  C36 UNL     1       5.516  38.291  28.355  1.00  0.00     0.019 C 
HETATM   34  C37 UNL     1       7.099  39.828  27.302  1.00  0.00     0.019 C 
ENDBRANCH  22  31
ENDBRANCH  19  22
ENDBRANCH  18  19
ENDBRANCH  17  18
ENDBRANCH  14  17
BRANCH   1  35
HETATM   35  C12 UNL     1       2.967  39.916  25.873  1.00  0.00     0.176 C 
BRANCH  35  36
HETATM   36  C11 UNL     1       2.807  38.448  25.812  1.00  0.00     0.154 C 
HETATM   37  C10 UNL     1       1.579  38.116  26.664  1.00  0.00     0.046 C 
HETATM   38  C6  UNL     1       1.443  36.610  26.893  1.00  0.00    -0.018 C 
HETATM   39  C5  UNL     1       1.900  35.834  25.698  1.00  0.00     0.047 C 
HETATM   40  C7  UNL     1       2.207  36.319  28.140  1.00  0.00     0.018 C 
HETATM   41  C4  UNL     1       2.804  36.514  24.753  1.00  0.00     0.150 C 
HETATM   42  O9  UNL     1       2.529  37.894  24.578  1.00  0.00    -0.374 OA
BRANCH  38  43
HETATM   43  C8  UNL     1      -0.029  36.388  27.094  1.00  0.00     0.176 C 
BRANCH  43  44
HETATM   44  O1  UNL     1      -0.898  36.665  26.115  1.00  0.00    -0.395 OA
HETATM   45  C9  UNL     1      -1.965  35.894  25.882  1.00  0.00     0.201 C 
ENDBRANCH  43  44
ENDBRANCH  38  43
BRANCH  41  46
HETATM   46  C2  UNL     1       2.819  35.784  23.458  1.00  0.00    -0.065 C 
HETATM   47  C1  UNL     1       2.458  36.419  22.358  1.00  0.00     0.016 C 
HETATM   48  C3  UNL     1       3.225  34.365  23.366  1.00  0.00     0.045 C 
ENDBRANCH  41  46
ENDBRANCH  35  36
BRANCH  35  49
HETATM   49  O2  UNL     1       2.683  40.302  27.202  1.00  0.00    -0.390 OA
ATOM     50  H2  UNL     1       1.738  40.374  27.270  1.00  0.00     0.210 HD
ENDBRANCH  35  49
ENDBRANCH   1  35
BRANCH  10  51
HETATM   51  O4  UNL     1      11.143  41.715  22.453  1.00  0.00    -0.391 OA
ATOM     52  H4  UNL     1      11.628  41.042  22.916  1.00  0.00     0.210 HD
ENDBRANCH  10  51
TORSDOF 15
ENDMDL
MODEL 2
REMARK VINA RESULT: -7.677064640      2.810      7.553
REMARK  15 active torsions:
REMARK  status: ('A' for Active; 'I' for Inactive)
REMARK    1  A    between atoms: C2_2  and  C4_4 
REMARK    2  A    between atoms: C6_6  and  C8_8 
REMARK    3  A    between atoms: C8_8  and  O1_9 
REMARK    4  A    between atoms: C11_12  and  C12_13 
REMARK    5  A    between atoms: C12_13  and  O2_14 
REMARK    6  A    between atoms: C12_13  and  C13_16 
REMARK    7  A    between atoms: C21_25  and  O4_26 
REMARK    8  A    between atoms: C24_31  and  O6_32 
REMARK    9  A    between atoms: O6_32  and  C25_33 
REMARK   10  A    between atoms: C25_33  and  C26_34 
REMARK   11  A    between atoms: C26_34  and  O7_35 
REMARK   12  A    between atoms: C26_34  and  C27_37 
REMARK   13  A    between atoms: C27_37  and  C34_46 
REMARK   14  A    between atoms: C28_38  and  O8_39 
REMARK   15  A    between atoms: C28_38  and  C29_41 
ROOT
HETATM    1  C13 UNL     1       6.665  38.459  25.083  1.00  0.00     0.158 C 
HETATM    2  O3  UNL     1       6.629  38.634  26.480  1.00  0.00    -0.366 OA
HETATM    3  C14 UNL     1       6.577  37.426  27.087  1.00  0.00     0.122 C 
HETATM    4  C15 UNL     1       5.126  37.156  27.539  1.00  0.00     0.052 C 
HETATM    5  C16 UNL     1       6.843  36.364  26.046  1.00  0.00     0.036 C 
HETATM    6  C17 UNL     1       8.228  35.853  25.980  1.00  0.00     0.046 C 
HETATM    7  C18 UNL     1       8.593  35.397  27.349  1.00  0.00    -0.035 C 
HETATM    8  C19 UNL     1       9.237  34.316  27.840  1.00  0.00    -0.050 C 
HETATM    9  C20 UNL     1       9.770  33.240  26.980  1.00  0.00     0.046 C 
HETATM   10  C21 UNL     1       9.330  34.424  29.327  1.00  0.00     0.150 C 
HETATM   11  C22 UNL     1       9.323  35.969  29.450  1.00  0.00     0.085 C 
HETATM   12  C23 UNL     1       8.204  36.242  28.465  1.00  0.00     0.150 A 
HETATM   13  O5  UNL     1       6.966  36.129  29.044  1.00  0.00    -0.328 OA
HETATM   14  C24 UNL     1       7.435  37.355  28.287  1.00  0.00     0.234 A 
HETATM   15  C38 UNL     1       6.366  37.066  24.776  1.00  0.00     0.020 C 
HETATM   16  C39 UNL     1       4.957  36.658  24.540  1.00  0.00     0.013 C 
ENDROOT
BRANCH  14  17
HETATM   17  O6  UNL     1       7.480  38.391  29.170  1.00  0.00    -0.347 OA
BRANCH  17  18
HETATM   18  C25 UNL     1       8.482  39.291  29.138  1.00  0.00     0.208 C 
BRANCH  18  19
HETATM   19  C26 UNL     1       8.050  40.724  29.235  1.00  0.00     0.174 C 
BRANCH  19  20
HETATM   20  O7  UNL     1       7.096  40.879  28.144  1.00  0.00    -0.389 OA
ATOM     21  H7  UNL     1       6.870  41.802  28.166  1.00  0.00     0.210 HD
ENDBRANCH  19  20
BRANCH  19  22
HETATM   22  C27 UNL     1       7.492  41.309  30.433  1.00  0.00    -0.008 C 
HETATM   23  C28 UNL     1       6.085  41.419  30.721  1.00  0.00     0.077 C 
BRANCH  23  24
HETATM   24  O8  UNL     1       5.653  42.648  30.501  1.00  0.00    -0.360 OA
ATOM     25  H8  UNL     1       4.874  42.831  31.012  1.00  0.00     0.217 HD
ENDBRANCH  23  24
BRANCH  23  26
HETATM   26  C29 UNL     1       5.081  40.539  31.166  1.00  0.00    -0.027 C 
HETATM   27  C30 UNL     1       4.298  39.728  30.190  1.00  0.00     0.051 C 
HETATM   28  C31 UNL     1       4.794  40.323  32.433  1.00  0.00    -0.079 C 
HETATM   29  C32 UNL     1       5.480  40.965  33.572  1.00  0.00     0.043 C 
HETATM   30  C33 UNL     1       3.694  39.362  32.812  1.00  0.00     0.043 C 
ENDBRANCH  23  26
BRANCH  22  31
HETATM   31  C34 UNL     1       8.210  42.585  30.887  1.00  0.00    -0.023 C 
HETATM   32  C35 UNL     1       9.705  42.388  30.708  1.00  0.00     0.019 C 
HETATM   33  C36 UNL     1       7.937  42.956  32.313  1.00  0.00     0.019 C 
HETATM   34  C37 UNL     1       7.785  43.753  30.007  1.00  0.00     0.019 C 
ENDBRANCH  22  31
ENDBRANCH  19  22
ENDBRANCH  18  19
ENDBRANCH  17  18
ENDBRANCH  14  17
BRANCH   1  35
HETATM   35  C12 UNL     1       5.926  39.560  24.481  1.00  0.00     0.176 C 
BRANCH  35  36
HETATM   36  C11 UNL     1       6.515  40.268  23.324  1.00  0.00     0.154 C 
HETATM   37  C10 UNL     1       8.023  40.004  23.385  1.00  0.00     0.046 C 
HETATM   38  C6  UNL     1       8.787  40.880  22.391  1.00  0.00    -0.018 C 
HETATM   39  C5  UNL     1       7.998  41.099  21.139  1.00  0.00     0.047 C 
HETATM   40  C7  UNL     1       9.123  42.132  23.129  1.00  0.00     0.018 C 
HETATM   41  C4  UNL     1       6.540  40.899  21.212  1.00  0.00     0.150 C 
HETATM   42  O9  UNL     1       6.142  39.839  22.066  1.00  0.00    -0.374 OA
BRANCH  38  43
HETATM   43  C8  UNL     1      10.025  40.094  22.066  1.00  0.00     0.176 C 
BRANCH  43  44
HETATM   44  O1  UNL     1      11.208  40.448  22.581  1.00  0.00    -0.395 OA
HETATM   45  C9  UNL     1      12.292  40.603  21.815  1.00  0.00     0.201 C 
ENDBRANCH  43  44
ENDBRANCH  38  43
BRANCH  41  46
HETATM   46  C2  UNL     1       5.984  40.744  19.842  1.00  0.00    -0.065 C 
HETATM   47  C1  UNL     1       4.719  40.398  19.696  1.00  0.00     0.016 C 
HETATM   48  C3  UNL     1       6.810  40.964  18.634  1.00  0.00     0.045 C 
ENDBRANCH  41  46
ENDBRANCH  35  36
BRANCH  35  49
HETATM   49  O2  UNL     1       4.619  39.181  24.103  1.00  0.00    -0.390 OA
ATOM     50  H2  UNL     1       4.485  38.299  24.429  1.00  0.00     0.210 HD
ENDBRANCH  35  49
ENDBRANCH   1  35
BRANCH  10  51
HETATM   51  O4  UNL     1      10.468  33.872  29.847  1.00  0.00    -0.391 OA
ATOM     52  H4  UNL     1      10.306  33.125  30.410  1.00  0.00     0.210 HD
ENDBRANCH  10  51
TORSDOF 15
ENDMDL
MODEL 3
REMARK VINA RESULT: -7.646247622      3.001      6.697
REMARK  15 active torsions:
REMARK  status: ('A' for Active; 'I' for Inactive)
REMARK    1  A    between atoms: C2_2  and  C4_4 
REMARK    2  A    between atoms: C6_6  and  C8_8 
REMARK    3  A    between atoms: C8_8  and  O1_9 
REMARK    4  A    between atoms: C11_12  and  C12_13 
REMARK    5  A    between atoms: C12_13  and  O2_14 
REMARK    6  A    between atoms: C12_13  and  C13_16 
REMARK    7  A    between atoms: C21_25  and  O4_26 
REMARK    8  A    between atoms: C24_31  and  O6_32 
REMARK    9  A    between atoms: O6_32  and  C25_33 
REMARK   10  A    between atoms: C25_33  and  C26_34 
REMARK   11  A    between atoms: C26_34  and  O7_35 
REMARK   12  A    between atoms: C26_34  and  C27_37 
REMARK   13  A    between atoms: C27_37  and  C34_46 
REMARK   14  A    between atoms: C28_38  and  O8_39 
REMARK   15  A    between atoms: C28_38  and  C29_41 
ROOT
HETATM    1  C13 UNL     1       6.288  38.469  24.937  1.00  0.00     0.158 C 
HETATM    2  O3  UNL     1       6.301  38.617  26.338  1.00  0.00    -0.366 OA
HETATM    3  C14 UNL     1       6.338  37.396  26.922  1.00  0.00     0.122 C 
HETATM    4  C15 UNL     1       4.923  37.041  27.426  1.00  0.00     0.052 C 
HETATM    5  C16 UNL     1       6.616  36.369  25.849  1.00  0.00     0.036 C 
HETATM    6  C17 UNL     1       8.022  35.935  25.716  1.00  0.00     0.046 C 
HETATM    7  C18 UNL     1       8.468  35.474  27.060  1.00  0.00    -0.035 C 
HETATM    8  C19 UNL     1       9.188  34.421  27.501  1.00  0.00    -0.050 C 
HETATM    9  C20 UNL     1       9.740  33.391  26.599  1.00  0.00     0.046 C 
HETATM   10  C21 UNL     1       9.337  34.507  28.986  1.00  0.00     0.150 C 
HETATM   11  C22 UNL     1       9.254  36.047  29.140  1.00  0.00     0.085 C 
HETATM   12  C23 UNL     1       8.081  36.277  28.208  1.00  0.00     0.150 A 
HETATM   13  O5  UNL     1       6.877  36.087  28.834  1.00  0.00    -0.328 OA
HETATM   14  C24 UNL     1       7.248  37.350  28.084  1.00  0.00     0.234 A 
HETATM   15  C38 UNL     1       6.050  37.068  24.614  1.00  0.00     0.020 C 
HETATM   16  C39 UNL     1       4.656  36.590  24.427  1.00  0.00     0.013 C 
ENDROOT
BRANCH  14  17
HETATM   17  O6  UNL     1       7.275  38.370  28.985  1.00  0.00    -0.347 OA
BRANCH  17  18
HETATM   18  C25 UNL     1       8.299  39.246  29.015  1.00  0.00     0.208 C 
BRANCH  18  19
HETATM   19  C26 UNL     1       7.896  40.685  29.151  1.00  0.00     0.174 C 
BRANCH  19  20
HETATM   20  O7  UNL     1       6.929  40.884  28.078  1.00  0.00    -0.389 OA
ATOM     21  H7  UNL     1       6.580  41.752  28.242  1.00  0.00     0.210 HD
ENDBRANCH  19  20
BRANCH  19  22
HETATM   22  C27 UNL     1       7.369  41.254  30.370  1.00  0.00    -0.008 C 
HETATM   23  C28 UNL     1       5.969  41.377  30.686  1.00  0.00     0.077 C 
BRANCH  23  24
HETATM   24  O8  UNL     1       5.550  42.616  30.498  1.00  0.00    -0.360 OA
ATOM     25  H8  UNL     1       4.775  42.794  31.017  1.00  0.00     0.217 HD
ENDBRANCH  23  24
BRANCH  23  26
HETATM   26  C29 UNL     1       4.962  40.502  31.134  1.00  0.00    -0.027 C 
HETATM   27  C30 UNL     1       4.165  39.704  30.159  1.00  0.00     0.051 C 
HETATM   28  C31 UNL     1       4.684  40.279  32.402  1.00  0.00    -0.079 C 
HETATM   29  C32 UNL     1       5.385  40.908  33.539  1.00  0.00     0.043 C 
HETATM   30  C33 UNL     1       3.580  39.323  32.783  1.00  0.00     0.043 C 
ENDBRANCH  23  26
BRANCH  22  31
HETATM   31  C34 UNL     1       8.112  42.512  30.835  1.00  0.00    -0.023 C 
HETATM   32  C35 UNL     1       9.602  42.293  30.639  1.00  0.00     0.019 C 
HETATM   33  C36 UNL     1       7.858  42.868  32.268  1.00  0.00     0.019 C 
HETATM   34  C37 UNL     1       7.698  43.699  29.974  1.00  0.00     0.019 C 
ENDBRANCH  22  31
ENDBRANCH  19  22
ENDBRANCH  18  19
ENDBRANCH  17  18
ENDBRANCH  14  17
BRANCH   1  35
HETATM   35  C12 UNL     1       5.467  39.540  24.389  1.00  0.00     0.176 C 
BRANCH  35  36
HETATM   36  C11 UNL     1       5.206  39.567  22.933  1.00  0.00     0.154 C 
HETATM   37  C10 UNL     1       3.701  39.801  22.773  1.00  0.00     0.046 C 
HETATM   38  C6  UNL     1       3.252  39.604  21.324  1.00  0.00    -0.018 C 
HETATM   39  C5  UNL     1       4.304  40.057  20.362  1.00  0.00     0.047 C 
HETATM   40  C7  UNL     1       2.894  38.161  21.204  1.00  0.00     0.018 C 
HETATM   41  C4  UNL     1       5.688  40.148  20.862  1.00  0.00     0.150 C 
HETATM   42  O9  UNL     1       5.791  40.585  22.207  1.00  0.00    -0.374 OA
BRANCH  38  43
HETATM   43  C8  UNL     1       2.039  40.477  21.181  1.00  0.00     0.176 C 
BRANCH  43  44
HETATM   44  O1  UNL     1       1.810  41.139  20.041  1.00  0.00    -0.395 OA
HETATM   45  C9  UNL     1       0.602  41.157  19.468  1.00  0.00     0.201 C 
ENDBRANCH  43  44
ENDBRANCH  38  43
BRANCH  41  46
HETATM   46  C2  UNL     1       6.500  40.987  19.943  1.00  0.00    -0.065 C 
HETATM   47  C1  UNL     1       6.335  40.859  18.640  1.00  0.00     0.016 C 
HETATM   48  C3  UNL     1       7.492  41.962  20.447  1.00  0.00     0.045 C 
ENDBRANCH  41  46
ENDBRANCH  35  36
BRANCH  35  49
HETATM   49  O2  UNL     1       4.211  39.629  25.028  1.00  0.00    -0.390 OA
ATOM     50  H2  UNL     1       3.986  40.551  25.063  1.00  0.00     0.210 HD
ENDBRANCH  35  49
ENDBRANCH   1  35
BRANCH  10  51
HETATM   51  O4  UNL     1      10.524  34.007  29.447  1.00  0.00    -0.391 OA
ATOM     52  H4  UNL     1      10.798  34.381  30.276  1.00  0.00     0.210 HD
ENDBRANCH  10  51
TORSDOF 15
ENDMDL
MODEL 4
REMARK VINA RESULT: -7.600925502      2.465      7.424
REMARK  15 active torsions:
REMARK  status: ('A' for Active; 'I' for Inactive)
REMARK    1  A    between atoms: C2_2  and  C4_4 
REMARK    2  A    between atoms: C6_6  and  C8_8 
REMARK    3  A    between atoms: C8_8  and  O1_9 
REMARK    4  A    between atoms: C11_12  and  C12_13 
REMARK    5  A    between atoms: C12_13  and  O2_14 
REMARK    6  A    between atoms: C12_13  and  C13_16 
REMARK    7  A    between atoms: C21_25  and  O4_26 
REMARK    8  A    between atoms: C24_31  and  O6_32 
REMARK    9  A    between atoms: O6_32  and  C25_33 
REMARK   10  A    between atoms: C25_33  and  C26_34 
REMARK   11  A    between atoms: C26_34  and  O7_35 
REMARK   12  A    between atoms: C26_34  and  C27_37 
REMARK   13  A    between atoms: C27_37  and  C34_46 
REMARK   14  A    between atoms: C28_38  and  O8_39 
REMARK   15  A    between atoms: C28_38  and  C29_41 
ROOT
HETATM    1  C13 UNL     1       6.580  38.395  25.065  1.00  0.00     0.158 C 
HETATM    2  O3  UNL     1       6.529  38.564  26.463  1.00  0.00    -0.366 OA
HETATM    3  C14 UNL     1       6.508  37.352  27.065  1.00  0.00     0.122 C 
HETATM    4  C15 UNL     1       5.063  37.038  27.506  1.00  0.00     0.052 C 
HETATM    5  C16 UNL     1       6.813  36.302  26.023  1.00  0.00     0.036 C 
HETATM    6  C17 UNL     1       8.213  35.834  25.965  1.00  0.00     0.046 C 
HETATM    7  C18 UNL     1       8.582  35.383  27.335  1.00  0.00    -0.035 C 
HETATM    8  C19 UNL     1       9.254  34.320  27.827  1.00  0.00    -0.050 C 
HETATM    9  C20 UNL     1       9.825  33.264  26.967  1.00  0.00     0.046 C 
HETATM   10  C21 UNL     1       9.333  34.426  29.315  1.00  0.00     0.150 C 
HETATM   11  C22 UNL     1       9.279  35.970  29.443  1.00  0.00     0.085 C 
HETATM   12  C23 UNL     1       8.160  36.213  28.451  1.00  0.00     0.150 A 
HETATM   13  O5  UNL     1       6.922  36.061  29.020  1.00  0.00    -0.328 OA
HETATM   14  C24 UNL     1       7.359  37.303  28.271  1.00  0.00     0.234 A 
HETATM   15  C38 UNL     1       6.324  36.995  24.751  1.00  0.00     0.020 C 
HETATM   16  C39 UNL     1       4.930  36.546  24.504  1.00  0.00     0.013 C 
ENDROOT
BRANCH  14  17
HETATM   17  O6  UNL     1       7.367  38.336  29.157  1.00  0.00    -0.347 OA
BRANCH  17  18
HETATM   18  C25 UNL     1       8.201  39.383  29.000  1.00  0.00     0.208 C 
BRANCH  18  19
HETATM   19  C26 UNL     1       7.547  40.731  29.078  1.00  0.00     0.174 C 
BRANCH  19  20
HETATM   20  O7  UNL     1       7.113  40.992  27.712  1.00  0.00    -0.389 OA
ATOM     21  H7  UNL     1       6.956  41.929  27.695  1.00  0.00     0.210 HD
ENDBRANCH  19  20
BRANCH  19  22
HETATM   22  C27 UNL     1       6.463  41.039  29.983  1.00  0.00    -0.008 C 
HETATM   23  C28 UNL     1       5.079  41.164  29.602  1.00  0.00     0.077 C 
BRANCH  23  24
HETATM   24  O8  UNL     1       4.726  42.434  29.515  1.00  0.00    -0.360 OA
ATOM     25  H8  UNL     1       3.782  42.528  29.564  1.00  0.00     0.217 HD
ENDBRANCH  23  24
BRANCH  23  26
HETATM   26  C29 UNL     1       4.037  40.267  29.299  1.00  0.00    -0.027 C 
HETATM   27  C30 UNL     1       3.406  40.268  27.949  1.00  0.00     0.051 C 
HETATM   28  C31 UNL     1       3.586  39.349  30.129  1.00  0.00    -0.079 C 
HETATM   29  C32 UNL     1       4.103  39.122  31.494  1.00  0.00     0.043 C 
HETATM   30  C33 UNL     1       2.460  38.434  29.714  1.00  0.00     0.043 C 
ENDBRANCH  23  26
BRANCH  22  31
HETATM   31  C34 UNL     1       6.809  42.119  31.015  1.00  0.00    -0.023 C 
HETATM   32  C35 UNL     1       7.865  41.566  31.955  1.00  0.00     0.019 C 
HETATM   33  C36 UNL     1       5.634  42.581  31.823  1.00  0.00     0.019 C 
HETATM   34  C37 UNL     1       7.402  43.331  30.309  1.00  0.00     0.019 C 
ENDBRANCH  22  31
ENDBRANCH  19  22
ENDBRANCH  18  19
ENDBRANCH  17  18
ENDBRANCH  14  17
BRANCH   1  35
HETATM   35  C12 UNL     1       5.812  39.476  24.462  1.00  0.00     0.176 C 
BRANCH  35  36
HETATM   36  C11 UNL     1       6.392  40.212  23.318  1.00  0.00     0.154 C 
HETATM   37  C10 UNL     1       7.904  39.974  23.380  1.00  0.00     0.046 C 
HETATM   38  C6  UNL     1       8.656  40.879  22.402  1.00  0.00    -0.018 C 
HETATM   39  C5  UNL     1       7.868  41.102  21.150  1.00  0.00     0.047 C 
HETATM   40  C7  UNL     1       8.967  42.126  23.160  1.00  0.00     0.018 C 
HETATM   41  C4  UNL     1       6.413  40.874  21.215  1.00  0.00     0.150 C 
HETATM   42  O9  UNL     1       6.031  39.794  22.052  1.00  0.00    -0.374 OA
BRANCH  38  43
HETATM   43  C8  UNL     1       9.909  40.120  22.070  1.00  0.00     0.176 C 
BRANCH  43  44
HETATM   44  O1  UNL     1      11.073  40.449  22.642  1.00  0.00    -0.395 OA
HETATM   45  C9  UNL     1      12.190  40.607  21.925  1.00  0.00     0.201 C 
ENDBRANCH  43  44
ENDBRANCH  38  43
BRANCH  41  46
HETATM   46  C2  UNL     1       5.865  40.729  19.841  1.00  0.00    -0.065 C 
HETATM   47  C1  UNL     1       4.592  40.414  19.686  1.00  0.00     0.016 C 
HETATM   48  C3  UNL     1       6.705  40.927  18.640  1.00  0.00     0.045 C 
ENDBRANCH  41  46
ENDBRANCH  35  36
BRANCH  35  49
HETATM   49  O2  UNL     1       4.523  39.057  24.064  1.00  0.00    -0.390 OA
ATOM     50  H2  UNL     1       4.043  38.859  24.859  1.00  0.00     0.210 HD
ENDBRANCH  35  49
ENDBRANCH   1  35
BRANCH  10  51
HETATM   51  O4  UNL     1      10.484  33.906  29.841  1.00  0.00    -0.391 OA
ATOM     52  H4  UNL     1      10.693  34.241  30.704  1.00  0.00     0.210 HD
ENDBRANCH  10  51
TORSDOF 15
ENDMDL
MODEL 5
REMARK VINA RESULT: -7.546373344      2.726      8.032
REMARK  15 active torsions:
REMARK  status: ('A' for Active; 'I' for Inactive)
REMARK    1  A    between atoms: C2_2  and  C4_4 
REMARK    2  A    between atoms: C6_6  and  C8_8 
REMARK    3  A    between atoms: C8_8  and  O1_9 
REMARK    4  A    between atoms: C11_12  and  C12_13 
REMARK    5  A    between atoms: C12_13  and  O2_14 
REMARK    6  A    between atoms: C12_13  and  C13_16 
REMARK    7  A    between atoms: C21_25  and  O4_26 
REMARK    8  A    between atoms: C24_31  and  O6_32 
REMARK    9  A    between atoms: O6_32  and  C25_33 
REMARK   10  A    between atoms: C25_33  and  C26_34 
REMARK   11  A    between atoms: C26_34  and  O7_35 
REMARK   12  A    between atoms: C26_34  and  C27_37 
REMARK   13  A    between atoms: C27_37  and  C34_46 
REMARK   14  A    between atoms: C28_38  and  O8_39 
REMARK   15  A    between atoms: C28_38  and  C29_41 
ROOT
HETATM    1  C13 UNL     1       2.569  36.307  24.537  1.00  0.00     0.158 C 
HETATM    2  O3  UNL     1       2.531  37.195  25.630  1.00  0.00    -0.366 OA
HETATM    3  C14 UNL     1       1.318  37.791  25.688  1.00  0.00     0.122 C 
HETATM    4  C15 UNL     1       1.434  39.219  25.113  1.00  0.00     0.052 C 
HETATM    5  C16 UNL     1       0.397  37.080  24.725  1.00  0.00     0.036 C 
HETATM    6  C17 UNL     1      -0.492  36.057  25.314  1.00  0.00     0.046 C 
HETATM    7  C18 UNL     1      -1.241  36.712  26.421  1.00  0.00    -0.035 C 
HETATM    8  C19 UNL     1      -2.528  36.686  26.830  1.00  0.00    -0.050 C 
HETATM    9  C20 UNL     1      -3.570  35.889  26.153  1.00  0.00     0.046 C 
HETATM   10  C21 UNL     1      -2.681  37.544  28.045  1.00  0.00     0.150 C 
HETATM   11  C22 UNL     1      -1.244  37.408  28.609  1.00  0.00     0.085 C 
HETATM   12  C23 UNL     1      -0.498  37.596  27.304  1.00  0.00     0.150 A 
HETATM   13  O5  UNL     1      -0.318  38.919  26.996  1.00  0.00    -0.328 OA
HETATM   14  C24 UNL     1       0.809  37.910  27.069  1.00  0.00     0.234 A 
HETATM   15  C38 UNL     1       1.396  36.537  23.703  1.00  0.00     0.020 C 
HETATM   16  C39 UNL     1       1.475  37.517  22.589  1.00  0.00     0.013 C 
ENDROOT
BRANCH  14  17
HETATM   17  O6  UNL     1       1.635  38.288  28.083  1.00  0.00    -0.347 OA
BRANCH  17  18
HETATM   18  C25 UNL     1       1.980  37.426  29.060  1.00  0.00     0.208 C 
BRANCH  18  19
HETATM   19  C26 UNL     1       1.809  37.949  30.455  1.00  0.00     0.174 C 
BRANCH  19  20
HETATM   20  O7  UNL     1       2.185  36.824  31.302  1.00  0.00    -0.389 OA
ATOM     21  H7  UNL     1       2.692  37.222  32.000  1.00  0.00     0.210 HD
ENDBRANCH  19  20
BRANCH  19  22
HETATM   22  C27 UNL     1       2.459  39.143  30.944  1.00  0.00    -0.008 C 
HETATM   23  C28 UNL     1       3.885  39.321  31.056  1.00  0.00     0.077 C 
BRANCH  23  24
HETATM   24  O8  UNL     1       4.281  39.175  32.307  1.00  0.00    -0.360 OA
ATOM     25  H8  UNL     1       5.121  39.596  32.448  1.00  0.00     0.217 HD
ENDBRANCH  23  24
BRANCH  23  26
HETATM   26  C29 UNL     1       4.934  39.601  30.160  1.00  0.00    -0.027 C 
HETATM   27  C30 UNL     1       6.262  38.943  30.322  1.00  0.00     0.051 C 
HETATM   28  C31 UNL     1       4.822  40.391  29.113  1.00  0.00    -0.079 C 
HETATM   29  C32 UNL     1       3.586  41.098  28.721  1.00  0.00     0.043 C 
HETATM   30  C33 UNL     1       6.008  40.634  28.212  1.00  0.00     0.043 C 
ENDBRANCH  23  26
BRANCH  22  31
HETATM   31  C34 UNL     1       1.768  39.767  32.162  1.00  0.00    -0.023 C 
HETATM   32  C35 UNL     1       2.087  41.251  32.190  1.00  0.00     0.019 C 
HETATM   33  C36 UNL     1       2.179  39.158  33.468  1.00  0.00     0.019 C 
HETATM   34  C37 UNL     1       0.258  39.617  32.026  1.00  0.00     0.019 C 
ENDBRANCH  22  31
ENDBRANCH  19  22
ENDBRANCH  18  19
ENDBRANCH  17  18
ENDBRANCH  14  17
BRANCH   1  35
HETATM   35  C12 UNL     1       3.921  36.331  23.995  1.00  0.00     0.176 C 
BRANCH  35  36
HETATM   36  C11 UNL     1       4.965  37.095  24.712  1.00  0.00     0.154 C 
HETATM   37  C10 UNL     1       5.889  36.056  25.353  1.00  0.00     0.046 C 
HETATM   38  C6  UNL     1       6.871  36.704  26.331  1.00  0.00    -0.018 C 
HETATM   39  C5  UNL     1       7.290  38.062  25.863  1.00  0.00     0.047 C 
HETATM   40  C7  UNL     1       6.185  36.698  27.656  1.00  0.00     0.018 C 
HETATM   41  C4  UNL     1       6.415  38.746  24.894  1.00  0.00     0.150 C 
HETATM   42  O9  UNL     1       5.807  37.880  23.950  1.00  0.00    -0.374 OA
BRANCH  38  43
HETATM   43  C8  UNL     1       8.062  35.790  26.334  1.00  0.00     0.176 C 
BRANCH  43  44
HETATM   44  O1  UNL     1       8.903  35.774  27.375  1.00  0.00    -0.395 OA
HETATM   45  C9  UNL     1       9.289  34.631  27.951  1.00  0.00     0.201 C 
ENDBRANCH  43  44
ENDBRANCH  38  43
BRANCH  41  46
HETATM   46  C2  UNL     1       7.160  39.849  24.234  1.00  0.00    -0.065 C 
HETATM   47  C1  UNL     1       6.972  41.089  24.646  1.00  0.00     0.016 C 
HETATM   48  C3  UNL     1       8.108  39.598  23.127  1.00  0.00     0.045 C 
ENDBRANCH  41  46
ENDBRANCH  35  36
BRANCH  35  49
HETATM   49  O2  UNL     1       4.436  35.032  23.791  1.00  0.00    -0.390 OA
ATOM     50  H2  UNL     1       4.429  34.879  22.854  1.00  0.00     0.210 HD
ENDBRANCH  35  49
ENDBRANCH   1  35
BRANCH  10  51
HETATM   51  O4  UNL     1      -3.624  37.086  28.923  1.00  0.00    -0.391 OA
ATOM     52  H4  UNL     1      -4.511  37.126  28.584  1.00  0.00     0.210 HD
ENDBRANCH  10  51
TORSDOF 15
ENDMDL
