MODEL 1
REMARK VINA RESULT: -6.676365163      0.000      0.000
REMARK  13 active torsions:
REMARK  status: ('A' for Active; 'I' for Inactive)
REMARK    1  A    between atoms: C2_2  and  C3_3 
REMARK    2  A    between atoms: C3_3  and  C4_4 
REMARK    3  A    between atoms: C4_4  and  C5_5 
REMARK    4  A    between atoms: C5_5  and  C6_6 
REMARK    5  A    between atoms: C6_6  and  O1_7 
REMARK    6  A    between atoms: C13_16  and  C14_17 
REMARK    7  A    between atoms: C25_28  and  O3_29 
REMARK    8  A    between atoms: O3_29  and  C26_30 
REMARK    9  A    between atoms: C29_34  and  O5_35 
REMARK   10  A    between atoms: C30_37  and  O6_38 
REMARK   11  A    between atoms: C32_40  and  O7_41 
REMARK   12  A    between atoms: C37_48  and  C38_49 
REMARK   13  A    between atoms: C38_49  and  O9_50 
ROOT
HETATM    1  C6  UNL     1       3.064  39.106  30.060  1.00  0.00     0.070 C 
HETATM    2  C7  UNL     1       2.103  39.195  31.286  1.00  0.00     0.054 C 
HETATM    3  C8  UNL     1       1.131  38.490  30.317  1.00  0.00     0.030 C 
HETATM    4  C9  UNL     1       1.238  37.051  30.526  1.00  0.00     0.134 C 
HETATM    5  C10 UNL     1       1.344  36.241  29.299  1.00  0.00     0.036 C 
HETATM    6  C11 UNL     1       1.229  36.995  28.024  1.00  0.00     0.046 C 
HETATM    7  C12 UNL     1       1.855  38.336  27.909  1.00  0.00     0.098 C 
HETATM    8  O2  UNL     1       1.084  39.095  26.979  1.00  0.00    -0.365 OA
HETATM    9  C13 UNL     1       0.548  38.486  25.932  1.00  0.00     0.151 C 
HETATM   10  C17 UNL     1       1.069  38.868  24.533  1.00  0.00     0.037 C 
HETATM   11  C18 UNL     1       1.081  37.703  23.587  1.00  0.00     0.011 C 
HETATM   12  C19 UNL     1       2.323  37.521  22.782  1.00  0.00     0.010 C 
HETATM   13  C20 UNL     1       2.418  36.073  22.307  1.00  0.00     0.015 C 
HETATM   14  C21 UNL     1       3.578  38.015  23.332  1.00  0.00    -0.084 C 
HETATM   15  C22 UNL     1       4.328  39.075  22.532  1.00  0.00     0.043 C 
HETATM   16  C23 UNL     1       4.191  37.678  24.452  1.00  0.00    -0.021 C 
HETATM   17  C24 UNL     1       3.754  36.692  25.465  1.00  0.00     0.064 C 
HETATM   18  C25 UNL     1       4.010  37.151  26.880  1.00  0.00     0.159 C 
HETATM   19  C33 UNL     1       3.209  38.331  27.270  1.00  0.00    -0.025 C 
HETATM   20  C34 UNL     1       3.756  39.522  27.014  1.00  0.00     0.020 C 
HETATM   21  C35 UNL     1       1.848  39.144  29.223  1.00  0.00     0.035 C 
HETATM   22  C36 UNL     1       1.385  40.571  29.011  1.00  0.00     0.023 C 
HETATM   23  O8  UNL     1      -0.047  37.100  31.120  1.00  0.00    -0.377 OA
HETATM   24  C37 UNL     1      -0.191  38.472  30.775  1.00  0.00     0.158 C 
ENDROOT
BRANCH   9  25
HETATM   25  C14 UNL     1      -0.918  38.707  25.817  1.00  0.00    -0.065 C 
HETATM   26  C15 UNL     1      -1.413  39.841  25.385  1.00  0.00     0.016 C 
HETATM   27  C16 UNL     1      -1.924  37.629  26.145  1.00  0.00     0.045 C 
ENDBRANCH   9  25
BRANCH  18  28
HETATM   28  O3  UNL     1       5.354  37.576  26.895  1.00  0.00    -0.349 OA
BRANCH  28  29
HETATM   29  C26 UNL     1       6.119  37.110  27.916  1.00  0.00     0.292 C 
HETATM   30  O4  UNL     1       6.557  38.199  28.725  1.00  0.00    -0.351 OA
HETATM   31  C27 UNL     1       7.260  37.759  29.813  1.00  0.00     0.152 C 
HETATM   32  C28 UNL     1       8.577  38.539  29.857  1.00  0.00     0.042 C 
HETATM   33  C29 UNL     1       7.629  36.293  29.777  1.00  0.00     0.178 C 
HETATM   34  C30 UNL     1       8.277  36.006  28.469  1.00  0.00     0.185 C 
HETATM   35  C32 UNL     1       7.400  36.539  27.356  1.00  0.00     0.204 C 
BRANCH  33  36
HETATM   36  O5  UNL     1       8.536  36.042  30.815  1.00  0.00    -0.390 OA
ATOM     37  H5  UNL     1       9.322  36.551  30.654  1.00  0.00     0.210 HD
ENDBRANCH  33  36
BRANCH  34  38
HETATM   38  O6  UNL     1       8.608  34.674  28.282  1.00  0.00    -0.385 OA
HETATM   39  C31 UNL     1       9.946  34.406  28.303  1.00  0.00     0.202 C 
ENDBRANCH  34  38
BRANCH  35  40
HETATM   40  O7  UNL     1       7.175  35.628  26.367  1.00  0.00    -0.388 OA
ATOM     41  H7  UNL     1       7.667  34.826  26.495  1.00  0.00     0.210 HD
ENDBRANCH  35  40
ENDBRANCH  28  29
ENDBRANCH  18  28
BRANCH   1  42
HETATM   42  C5  UNL     1       4.031  40.185  30.291  1.00  0.00     0.039 C 
BRANCH  42  43
HETATM   43  C4  UNL     1       4.850  39.943  31.597  1.00  0.00     0.007 C 
BRANCH  43  44
HETATM   44  C3  UNL     1       6.103  40.809  31.540  1.00  0.00     0.026 C 
BRANCH  44  45
HETATM   45  C2  UNL     1       6.234  41.454  30.225  1.00  0.00    -0.037 C 
HETATM   46  C1  UNL     1       7.335  42.036  29.834  1.00  0.00     0.007 C 
ENDBRANCH  44  45
ENDBRANCH  43  44
ENDBRANCH  42  43
ENDBRANCH   1  42
BRANCH   1  47
HETATM   47  O1  UNL     1       3.721  37.868  30.192  1.00  0.00    -0.389 OA
ATOM     48  H1  UNL     1       4.091  37.625  29.352  1.00  0.00     0.210 HD
ENDBRANCH   1  47
BRANCH  24  49
HETATM   49  C38 UNL     1      -1.457  38.659  30.080  1.00  0.00     0.199 C 
BRANCH  49  50
HETATM   50  O9  UNL     1      -1.938  39.941  30.051  1.00  0.00    -0.393 OA
HETATM   51  C39 UNL     1      -2.375  40.477  28.892  1.00  0.00     0.201 C 
ENDBRANCH  49  50
ENDBRANCH  24  49
TORSDOF 13
ENDMDL
MODEL 2
REMARK VINA RESULT: -6.453437792      0.953      1.117
REMARK  13 active torsions:
REMARK  status: ('A' for Active; 'I' for Inactive)
REMARK    1  A    between atoms: C2_2  and  C3_3 
REMARK    2  A    between atoms: C3_3  and  C4_4 
REMARK    3  A    between atoms: C4_4  and  C5_5 
REMARK    4  A    between atoms: C5_5  and  C6_6 
REMARK    5  A    between atoms: C6_6  and  O1_7 
REMARK    6  A    between atoms: C13_16  and  C14_17 
REMARK    7  A    between atoms: C25_28  and  O3_29 
REMARK    8  A    between atoms: O3_29  and  C26_30 
REMARK    9  A    between atoms: C29_34  and  O5_35 
REMARK   10  A    between atoms: C30_37  and  O6_38 
REMARK   11  A    between atoms: C32_40  and  O7_41 
REMARK   12  A    between atoms: C37_48  and  C38_49 
REMARK   13  A    between atoms: C38_49  and  O9_50 
ROOT
HETATM    1  C6  UNL     1       3.262  39.039  29.595  1.00  0.00     0.070 C 
HETATM    2  C7  UNL     1       2.370  39.015  30.875  1.00  0.00     0.054 C 
HETATM    3  C8  UNL     1       1.307  38.507  29.877  1.00  0.00     0.030 C 
HETATM    4  C9  UNL     1       1.330  37.050  29.885  1.00  0.00     0.134 C 
HETATM    5  C10 UNL     1       1.322  36.412  28.556  1.00  0.00     0.036 C 
HETATM    6  C11 UNL     1       1.195  37.339  27.403  1.00  0.00     0.046 C 
HETATM    7  C12 UNL     1       1.900  38.645  27.433  1.00  0.00     0.098 C 
HETATM    8  O2  UNL     1       1.136  39.569  26.659  1.00  0.00    -0.365 OA
HETATM    9  C13 UNL     1       0.510  39.141  25.573  1.00  0.00     0.151 C 
HETATM   10  C17 UNL     1       0.987  39.681  24.210  1.00  0.00     0.037 C 
HETATM   11  C18 UNL     1       0.875  38.660  23.118  1.00  0.00     0.011 C 
HETATM   12  C19 UNL     1       2.062  38.518  22.225  1.00  0.00     0.010 C 
HETATM   13  C20 UNL     1       2.038  37.146  21.555  1.00  0.00     0.015 C 
HETATM   14  C21 UNL     1       3.372  38.857  22.762  1.00  0.00    -0.084 C 
HETATM   15  C22 UNL     1       4.150  39.971  22.071  1.00  0.00     0.043 C 
HETATM   16  C23 UNL     1       4.016  38.334  23.790  1.00  0.00    -0.021 C 
HETATM   17  C24 UNL     1       3.565  37.245  24.685  1.00  0.00     0.064 C 
HETATM   18  C25 UNL     1       3.920  37.490  26.132  1.00  0.00     0.159 C 
HETATM   19  C33 UNL     1       3.218  38.649  26.723  1.00  0.00    -0.025 C 
HETATM   20  C34 UNL     1       3.829  39.829  26.598  1.00  0.00     0.020 C 
HETATM   21  C35 UNL     1       2.011  39.263  28.842  1.00  0.00     0.035 C 
HETATM   22  C36 UNL     1       1.633  40.730  28.851  1.00  0.00     0.023 C 
HETATM   23  O8  UNL     1       0.082  37.091  30.553  1.00  0.00    -0.377 OA
HETATM   24  C37 UNL     1       0.011  38.503  30.405  1.00  0.00     0.158 C 
ENDROOT
BRANCH   9  25
HETATM   25  C14 UNL     1      -0.941  39.461  25.573  1.00  0.00    -0.065 C 
HETATM   26  C15 UNL     1      -1.821  38.673  26.144  1.00  0.00     0.016 C 
HETATM   27  C16 UNL     1      -1.489  40.729  24.961  1.00  0.00     0.045 C 
ENDBRANCH   9  25
BRANCH  18  28
HETATM   28  O3  UNL     1       5.288  37.829  26.126  1.00  0.00    -0.349 OA
BRANCH  28  29
HETATM   29  C26 UNL     1       6.085  37.119  26.966  1.00  0.00     0.292 C 
HETATM   30  O4  UNL     1       6.647  37.988  27.945  1.00  0.00    -0.351 OA
HETATM   31  C27 UNL     1       7.389  37.293  28.861  1.00  0.00     0.152 C 
HETATM   32  C28 UNL     1       8.756  37.976  28.962  1.00  0.00     0.042 C 
HETATM   33  C29 UNL     1       7.657  35.850  28.493  1.00  0.00     0.178 C 
HETATM   34  C30 UNL     1       8.197  35.813  27.107  1.00  0.00     0.185 C 
HETATM   35  C32 UNL     1       7.286  36.614  26.201  1.00  0.00     0.204 C 
BRANCH  33  36
HETATM   36  O5  UNL     1       8.611  35.339  29.383  1.00  0.00    -0.390 OA
ATOM     37  H5  UNL     1       9.415  35.834  29.275  1.00  0.00     0.210 HD
ENDBRANCH  33  36
BRANCH  34  38
HETATM   38  O6  UNL     1       8.425  34.536  26.624  1.00  0.00    -0.385 OA
HETATM   39  C31 UNL     1       9.730  34.253  26.341  1.00  0.00     0.202 C 
ENDBRANCH  34  38
BRANCH  35  40
HETATM   40  O7  UNL     1       6.936  35.946  25.065  1.00  0.00    -0.388 OA
ATOM     41  H7  UNL     1       7.558  35.264  24.841  1.00  0.00     0.210 HD
ENDBRANCH  35  40
ENDBRANCH  28  29
ENDBRANCH  18  28
BRANCH   1  42
HETATM   42  C5  UNL     1       4.307  40.018  29.912  1.00  0.00     0.039 C 
BRANCH  42  43
HETATM   43  C4  UNL     1       5.303  39.459  30.976  1.00  0.00     0.007 C 
BRANCH  43  44
HETATM   44  C3  UNL     1       6.569  40.308  30.935  1.00  0.00     0.026 C 
BRANCH  44  45
HETATM   45  C2  UNL     1       6.622  41.109  29.702  1.00  0.00    -0.037 C 
HETATM   46  C1  UNL     1       7.745  41.532  29.188  1.00  0.00     0.007 C 
ENDBRANCH  44  45
ENDBRANCH  43  44
ENDBRANCH  42  43
ENDBRANCH   1  42
BRANCH   1  47
HETATM   47  O1  UNL     1       3.842  37.759  29.521  1.00  0.00    -0.389 OA
ATOM     48  H1  UNL     1       3.434  37.276  28.812  1.00  0.00     0.210 HD
ENDBRANCH   1  47
BRANCH  24  49
HETATM   49  C38 UNL     1      -1.272  38.858  29.815  1.00  0.00     0.199 C 
BRANCH  49  50
HETATM   50  O9  UNL     1      -1.701  40.139  30.044  1.00  0.00    -0.393 OA
HETATM   51  C39 UNL     1      -1.441  40.741  31.225  1.00  0.00     0.201 C 
ENDBRANCH  49  50
ENDBRANCH  24  49
TORSDOF 13
ENDMDL
MODEL 3
REMARK VINA RESULT: -6.338518452      3.506      5.939
REMARK  13 active torsions:
REMARK  status: ('A' for Active; 'I' for Inactive)
REMARK    1  A    between atoms: C2_2  and  C3_3 
REMARK    2  A    between atoms: C3_3  and  C4_4 
REMARK    3  A    between atoms: C4_4  and  C5_5 
REMARK    4  A    between atoms: C5_5  and  C6_6 
REMARK    5  A    between atoms: C6_6  and  O1_7 
REMARK    6  A    between atoms: C13_16  and  C14_17 
REMARK    7  A    between atoms: C25_28  and  O3_29 
REMARK    8  A    between atoms: O3_29  and  C26_30 
REMARK    9  A    between atoms: C29_34  and  O5_35 
REMARK   10  A    between atoms: C30_37  and  O6_38 
REMARK   11  A    between atoms: C32_40  and  O7_41 
REMARK   12  A    between atoms: C37_48  and  C38_49 
REMARK   13  A    between atoms: C38_49  and  O9_50 
ROOT
HETATM    1  C6  UNL     1       6.977  41.216  24.503  1.00  0.00     0.070 C 
HETATM    2  C7  UNL     1       7.202  42.758  24.417  1.00  0.00     0.054 C 
HETATM    3  C8  UNL     1       5.663  42.783  24.526  1.00  0.00     0.030 C 
HETATM    4  C9  UNL     1       5.305  42.930  25.932  1.00  0.00     0.134 C 
HETATM    5  C10 UNL     1       4.247  42.022  26.411  1.00  0.00     0.036 C 
HETATM    6  C11 UNL     1       3.630  41.156  25.374  1.00  0.00     0.046 C 
HETATM    7  C12 UNL     1       4.482  40.569  24.310  1.00  0.00     0.098 C 
HETATM    8  O2  UNL     1       3.673  40.407  23.146  1.00  0.00    -0.365 OA
HETATM    9  C13 UNL     1       2.400  40.067  23.285  1.00  0.00     0.151 C 
HETATM   10  C17 UNL     1       1.964  38.686  22.758  1.00  0.00     0.037 C 
HETATM   11  C18 UNL     1       0.891  38.063  23.601  1.00  0.00     0.011 C 
HETATM   12  C19 UNL     1       1.088  36.629  23.963  1.00  0.00     0.010 C 
HETATM   13  C20 UNL     1       0.268  36.297  25.206  1.00  0.00     0.015 C 
HETATM   14  C21 UNL     1       2.449  36.117  24.035  1.00  0.00    -0.084 C 
HETATM   15  C22 UNL     1       2.821  34.969  23.102  1.00  0.00     0.043 C 
HETATM   16  C23 UNL     1       3.448  36.503  24.807  1.00  0.00    -0.021 C 
HETATM   17  C24 UNL     1       3.447  37.581  25.821  1.00  0.00     0.064 C 
HETATM   18  C25 UNL     1       4.724  38.387  25.823  1.00  0.00     0.159 C 
HETATM   19  C33 UNL     1       4.929  39.166  24.583  1.00  0.00    -0.025 C 
HETATM   20  C34 UNL     1       5.579  38.541  23.599  1.00  0.00     0.020 C 
HETATM   21  C35 UNL     1       5.660  41.469  23.885  1.00  0.00     0.035 C 
HETATM   22  C36 UNL     1       5.783  41.570  22.378  1.00  0.00     0.023 C 
HETATM   23  O8  UNL     1       4.890  44.249  25.629  1.00  0.00    -0.377 OA
HETATM   24  C37 UNL     1       5.109  44.036  24.241  1.00  0.00     0.158 C 
ENDROOT
BRANCH   9  25
HETATM   25  C14 UNL     1       1.470  41.000  22.596  1.00  0.00    -0.065 C 
HETATM   26  C15 UNL     1       0.837  41.947  23.244  1.00  0.00     0.016 C 
HETATM   27  C16 UNL     1       1.230  40.946  21.105  1.00  0.00     0.045 C 
ENDBRANCH   9  25
BRANCH  18  28
HETATM   28  O3  UNL     1       5.764  37.435  25.857  1.00  0.00    -0.349 OA
BRANCH  28  29
HETATM   29  C26 UNL     1       6.302  37.179  27.077  1.00  0.00     0.292 C 
HETATM   30  O4  UNL     1       6.642  38.405  27.719  1.00  0.00    -0.351 OA
HETATM   31  C27 UNL     1       7.109  38.190  28.987  1.00  0.00     0.152 C 
HETATM   32  C28 UNL     1       8.436  38.942  29.124  1.00  0.00     0.042 C 
HETATM   33  C29 UNL     1       7.400  36.742  29.317  1.00  0.00     0.178 C 
HETATM   34  C30 UNL     1       8.260  36.181  28.241  1.00  0.00     0.185 C 
HETATM   35  C32 UNL     1       7.632  36.486  26.897  1.00  0.00     0.204 C 
BRANCH  33  36
HETATM   36  O5  UNL     1       8.086  36.699  30.538  1.00  0.00    -0.390 OA
ATOM     37  H5  UNL     1       8.083  35.802  30.850  1.00  0.00     0.210 HD
ENDBRANCH  33  36
BRANCH  34  38
HETATM   38  O6  UNL     1       8.547  34.835  28.391  1.00  0.00    -0.385 OA
HETATM   39  C31 UNL     1       9.863  34.550  28.615  1.00  0.00     0.202 C 
ENDBRANCH  34  38
BRANCH  35  40
HETATM   40  O7  UNL     1       7.543  35.393  26.086  1.00  0.00    -0.388 OA
ATOM     41  H7  UNL     1       8.227  34.757  26.260  1.00  0.00     0.210 HD
ENDBRANCH  35  40
ENDBRANCH  28  29
ENDBRANCH  18  28
BRANCH   1  42
HETATM   42  C5  UNL     1       8.173  40.650  23.870  1.00  0.00     0.039 C 
BRANCH  42  43
HETATM   43  C4  UNL     1       9.052  41.765  23.220  1.00  0.00     0.007 C 
BRANCH  43  44
HETATM   44  C3  UNL     1       9.899  41.126  22.126  1.00  0.00     0.026 C 
BRANCH  44  45
HETATM   45  C2  UNL     1       9.638  39.681  22.039  1.00  0.00    -0.037 C 
HETATM   46  C1  UNL     1       9.744  39.014  20.922  1.00  0.00     0.007 C 
ENDBRANCH  44  45
ENDBRANCH  43  44
ENDBRANCH  42  43
ENDBRANCH   1  42
BRANCH   1  47
HETATM   47  O1  UNL     1       7.000  40.913  25.877  1.00  0.00    -0.389 OA
ATOM     48  H1  UNL     1       6.109  40.899  26.205  1.00  0.00     0.210 HD
ENDBRANCH   1  47
BRANCH  24  49
HETATM   49  C38 UNL     1       3.912  44.417  23.504  1.00  0.00     0.199 C 
BRANCH  49  50
HETATM   50  O9  UNL     1       3.880  45.706  23.042  1.00  0.00    -0.393 OA
HETATM   51  C39 UNL     1       2.940  46.565  23.490  1.00  0.00     0.201 C 
ENDBRANCH  49  50
ENDBRANCH  24  49
TORSDOF 13
ENDMDL
MODEL 4
REMARK VINA RESULT: -6.334977925      3.348      6.849
REMARK  13 active torsions:
REMARK  status: ('A' for Active; 'I' for Inactive)
REMARK    1  A    between atoms: C2_2  and  C3_3 
REMARK    2  A    between atoms: C3_3  and  C4_4 
REMARK    3  A    between atoms: C4_4  and  C5_5 
REMARK    4  A    between atoms: C5_5  and  C6_6 
REMARK    5  A    between atoms: C6_6  and  O1_7 
REMARK    6  A    between atoms: C13_16  and  C14_17 
REMARK    7  A    between atoms: C25_28  and  O3_29 
REMARK    8  A    between atoms: O3_29  and  C26_30 
REMARK    9  A    between atoms: C29_34  and  O5_35 
REMARK   10  A    between atoms: C30_37  and  O6_38 
REMARK   11  A    between atoms: C32_40  and  O7_41 
REMARK   12  A    between atoms: C37_48  and  C38_49 
REMARK   13  A    between atoms: C38_49  and  O9_50 
ROOT
HETATM    1  C6  UNL     1       2.281  39.370  22.865  1.00  0.00     0.070 C 
HETATM    2  C7  UNL     1       0.779  39.793  22.835  1.00  0.00     0.054 C 
HETATM    3  C8  UNL     1       0.952  39.762  24.368  1.00  0.00     0.030 C 
HETATM    4  C9  UNL     1       1.304  41.103  24.818  1.00  0.00     0.134 C 
HETATM    5  C10 UNL     1       2.423  41.174  25.775  1.00  0.00     0.036 C 
HETATM    6  C11 UNL     1       2.967  39.865  26.219  1.00  0.00     0.046 C 
HETATM    7  C12 UNL     1       3.088  38.754  25.243  1.00  0.00     0.098 C 
HETATM    8  O2  UNL     1       2.948  37.528  25.960  1.00  0.00    -0.365 OA
HETATM    9  C13 UNL     1       3.446  37.435  27.185  1.00  0.00     0.151 C 
HETATM   10  C17 UNL     1       4.620  36.464  27.411  1.00  0.00     0.037 C 
HETATM   11  C18 UNL     1       5.590  36.967  28.439  1.00  0.00     0.011 C 
HETATM   12  C19 UNL     1       7.036  36.876  28.081  1.00  0.00     0.010 C 
HETATM   13  C20 UNL     1       7.834  37.872  28.918  1.00  0.00     0.015 C 
HETATM   14  C21 UNL     1       7.399  36.909  26.671  1.00  0.00    -0.084 C 
HETATM   15  C22 UNL     1       8.139  35.702  26.105  1.00  0.00     0.043 C 
HETATM   16  C23 UNL     1       7.181  37.853  25.773  1.00  0.00    -0.021 C 
HETATM   17  C24 UNL     1       6.494  39.149  25.966  1.00  0.00     0.064 C 
HETATM   18  C25 UNL     1       5.603  39.521  24.806  1.00  0.00     0.159 C 
HETATM   19  C33 UNL     1       4.449  38.613  24.635  1.00  0.00    -0.025 C 
HETATM   20  C34 UNL     1       4.652  37.547  23.858  1.00  0.00     0.020 C 
HETATM   21  C35 UNL     1       1.981  38.743  24.168  1.00  0.00     0.035 C 
HETATM   22  C36 UNL     1       1.387  37.363  23.978  1.00  0.00     0.023 C 
HETATM   23  O8  UNL     1       0.008  41.193  25.381  1.00  0.00    -0.377 OA
HETATM   24  C37 UNL     1      -0.262  39.834  25.062  1.00  0.00     0.158 C 
ENDROOT
BRANCH   9  25
HETATM   25  C14 UNL     1       2.443  36.991  28.188  1.00  0.00    -0.065 C 
HETATM   26  C15 UNL     1       1.823  35.841  28.081  1.00  0.00     0.016 C 
HETATM   27  C16 UNL     1       2.109  37.810  29.413  1.00  0.00     0.045 C 
ENDBRANCH   9  25
BRANCH  18  28
HETATM   28  O3  UNL     1       6.401  39.350  23.656  1.00  0.00    -0.349 OA
BRANCH  28  29
HETATM   29  C26 UNL     1       7.404  40.250  23.484  1.00  0.00     0.292 C 
HETATM   30  O4  UNL     1       6.905  41.404  22.812  1.00  0.00    -0.351 OA
HETATM   31  C27 UNL     1       7.869  42.368  22.697  1.00  0.00     0.152 C 
HETATM   32  C28 UNL     1       7.916  42.801  21.229  1.00  0.00     0.042 C 
HETATM   33  C29 UNL     1       9.266  41.913  23.056  1.00  0.00     0.178 C 
HETATM   34  C30 UNL     1       9.556  40.660  22.307  1.00  0.00     0.185 C 
HETATM   35  C32 UNL     1       8.419  39.683  22.520  1.00  0.00     0.204 C 
BRANCH  33  36
HETATM   36  O5  UNL     1      10.168  42.912  22.668  1.00  0.00    -0.390 OA
ATOM     37  H5  UNL     1      10.974  42.495  22.391  1.00  0.00     0.210 HD
ENDBRANCH  33  36
BRANCH  34  38
HETATM   38  O6  UNL     1      10.789  40.101  22.598  1.00  0.00    -0.385 OA
HETATM   39  C31 UNL     1      11.687  40.124  21.571  1.00  0.00     0.202 C 
ENDBRANCH  34  38
BRANCH  35  40
HETATM   40  O7  UNL     1       8.842  38.439  22.882  1.00  0.00    -0.388 OA
ATOM     41  H7  UNL     1       9.759  38.294  22.679  1.00  0.00     0.210 HD
ENDBRANCH  35  40
ENDBRANCH  28  29
ENDBRANCH  18  28
BRANCH   1  42
HETATM   42  C5  UNL     1       2.485  38.704  21.574  1.00  0.00     0.039 C 
BRANCH  42  43
HETATM   43  C4  UNL     1       2.989  39.709  20.491  1.00  0.00     0.007 C 
BRANCH  43  44
HETATM   44  C3  UNL     1       4.417  39.329  20.116  1.00  0.00     0.026 C 
BRANCH  44  45
HETATM   45  C2  UNL     1       5.242  40.529  19.915  1.00  0.00    -0.037 C 
HETATM   46  C1  UNL     1       5.907  40.748  18.813  1.00  0.00     0.007 C 
ENDBRANCH  44  45
ENDBRANCH  43  44
ENDBRANCH  42  43
ENDBRANCH   1  42
BRANCH   1  47
HETATM   47  O1  UNL     1       3.008  40.575  22.878  1.00  0.00    -0.389 OA
ATOM     48  H1  UNL     1       2.628  41.171  22.243  1.00  0.00     0.210 HD
ENDBRANCH   1  47
BRANCH  24  49
HETATM   49  C38 UNL     1      -0.733  39.147  26.256  1.00  0.00     0.199 C 
BRANCH  49  50
HETATM   50  O9  UNL     1      -1.663  38.162  26.051  1.00  0.00    -0.393 OA
HETATM   51  C39 UNL     1      -1.415  36.899  26.456  1.00  0.00     0.201 C 
ENDBRANCH  49  50
ENDBRANCH  24  49
TORSDOF 13
ENDMDL
MODEL 5
REMARK VINA RESULT: -6.281887120      3.451      6.033
REMARK  13 active torsions:
REMARK  status: ('A' for Active; 'I' for Inactive)
REMARK    1  A    between atoms: C2_2  and  C3_3 
REMARK    2  A    between atoms: C3_3  and  C4_4 
REMARK    3  A    between atoms: C4_4  and  C5_5 
REMARK    4  A    between atoms: C5_5  and  C6_6 
REMARK    5  A    between atoms: C6_6  and  O1_7 
REMARK    6  A    between atoms: C13_16  and  C14_17 
REMARK    7  A    between atoms: C25_28  and  O3_29 
REMARK    8  A    between atoms: O3_29  and  C26_30 
REMARK    9  A    between atoms: C29_34  and  O5_35 
REMARK   10  A    between atoms: C30_37  and  O6_38 
REMARK   11  A    between atoms: C32_40  and  O7_41 
REMARK   12  A    between atoms: C37_48  and  C38_49 
REMARK   13  A    between atoms: C38_49  and  O9_50 
ROOT
HETATM    1  C6  UNL     1       6.349  41.336  27.057  1.00  0.00     0.070 C 
HETATM    2  C7  UNL     1       6.820  41.673  28.506  1.00  0.00     0.054 C 
HETATM    3  C8  UNL     1       6.295  40.250  28.789  1.00  0.00     0.030 C 
HETATM    4  C9  UNL     1       7.408  39.317  28.662  1.00  0.00     0.134 C 
HETATM    5  C10 UNL     1       7.124  38.100  27.879  1.00  0.00     0.036 C 
HETATM    6  C11 UNL     1       5.721  37.952  27.414  1.00  0.00     0.046 C 
HETATM    7  C12 UNL     1       4.976  39.148  26.949  1.00  0.00     0.098 C 
HETATM    8  O2  UNL     1       3.592  38.930  27.221  1.00  0.00    -0.365 OA
HETATM    9  C13 UNL     1       3.093  37.708  27.100  1.00  0.00     0.151 C 
HETATM   10  C17 UNL     1       2.054  37.464  25.989  1.00  0.00     0.037 C 
HETATM   11  C18 UNL     1       2.163  36.091  25.394  1.00  0.00     0.011 C 
HETATM   12  C19 UNL     1       2.133  36.015  23.904  1.00  0.00     0.010 C 
HETATM   13  C20 UNL     1       2.777  34.709  23.445  1.00  0.00     0.015 C 
HETATM   14  C21 UNL     1       2.599  37.168  23.146  1.00  0.00    -0.084 C 
HETATM   15  C22 UNL     1       1.606  37.840  22.204  1.00  0.00     0.043 C 
HETATM   16  C23 UNL     1       3.788  37.743  23.146  1.00  0.00    -0.021 C 
HETATM   17  C24 UNL     1       4.981  37.363  23.933  1.00  0.00     0.064 C 
HETATM   18  C25 UNL     1       5.739  38.555  24.465  1.00  0.00     0.159 C 
HETATM   19  C33 UNL     1       4.981  39.338  25.463  1.00  0.00    -0.025 C 
HETATM   20  C34 UNL     1       4.211  40.315  24.980  1.00  0.00     0.020 C 
HETATM   21  C35 UNL     1       5.352  40.448  27.689  1.00  0.00     0.035 C 
HETATM   22  C36 UNL     1       4.130  41.231  28.120  1.00  0.00     0.023 C 
HETATM   23  O8  UNL     1       7.365  39.164  30.069  1.00  0.00    -0.377 OA
HETATM   24  C37 UNL     1       6.191  39.961  30.155  1.00  0.00     0.158 C 
ENDROOT
BRANCH   9  25
HETATM   25  C14 UNL     1       2.393  37.241  28.325  1.00  0.00    -0.065 C 
HETATM   26  C15 UNL     1       2.226  38.023  29.364  1.00  0.00     0.016 C 
HETATM   27  C16 UNL     1       1.792  35.859  28.435  1.00  0.00     0.045 C 
ENDBRANCH   9  25
BRANCH  18  28
HETATM   28  O3  UNL     1       5.912  39.409  23.356  1.00  0.00    -0.349 OA
BRANCH  28  29
HETATM   29  C26 UNL     1       7.092  39.299  22.693  1.00  0.00     0.292 C 
HETATM   30  O4  UNL     1       8.110  40.001  23.404  1.00  0.00    -0.351 OA
HETATM   31  C27 UNL     1       9.332  39.842  22.810  1.00  0.00     0.152 C 
HETATM   32  C28 UNL     1       9.939  41.235  22.622  1.00  0.00     0.042 C 
HETATM   33  C29 UNL     1       9.291  39.202  21.439  1.00  0.00     0.178 C 
HETATM   34  C30 UNL     1       8.295  39.935  20.611  1.00  0.00     0.185 C 
HETATM   35  C32 UNL     1       6.995  40.039  21.380  1.00  0.00     0.204 C 
BRANCH  33  36
HETATM   36  O5  UNL     1      10.561  39.320  20.861  1.00  0.00    -0.390 OA
ATOM     37  H5  UNL     1      10.457  39.360  19.918  1.00  0.00     0.210 HD
ENDBRANCH  33  36
BRANCH  34  38
HETATM   38  O6  UNL     1       8.114  39.404  19.345  1.00  0.00    -0.385 OA
HETATM   39  C31 UNL     1       8.388  40.261  18.319  1.00  0.00     0.202 C 
ENDBRANCH  34  38
BRANCH  35  40
HETATM   40  O7  UNL     1       5.908  39.660  20.649  1.00  0.00    -0.388 OA
ATOM     41  H7  UNL     1       5.810  38.717  20.609  1.00  0.00     0.210 HD
ENDBRANCH  35  40
ENDBRANCH  28  29
ENDBRANCH  18  28
BRANCH   1  42
HETATM   42  C5  UNL     1       6.122  42.650  26.445  1.00  0.00     0.039 C 
BRANCH  42  43
HETATM   43  C4  UNL     1       7.085  42.888  25.241  1.00  0.00     0.007 C 
BRANCH  43  44
HETATM   44  C3  UNL     1       6.240  43.170  24.004  1.00  0.00     0.026 C 
BRANCH  44  45
HETATM   45  C2  UNL     1       5.015  43.901  24.362  1.00  0.00    -0.037 C 
HETATM   46  C1  UNL     1       3.913  43.806  23.671  1.00  0.00     0.007 C 
ENDBRANCH  44  45
ENDBRANCH  43  44
ENDBRANCH  42  43
ENDBRANCH   1  42
BRANCH   1  47
HETATM   47  O1  UNL     1       7.457  40.728  26.437  1.00  0.00    -0.389 OA
ATOM     48  H1  UNL     1       8.242  41.212  26.666  1.00  0.00     0.210 HD
ENDBRANCH   1  47
BRANCH  24  49
HETATM   49  C38 UNL     1       5.179  39.241  30.915  1.00  0.00     0.199 C 
BRANCH  49  50
HETATM   50  O9  UNL     1       4.971  39.679  32.196  1.00  0.00    -0.393 OA
HETATM   51  C39 UNL     1       5.568  40.808  32.633  1.00  0.00     0.201 C 
ENDBRANCH  49  50
ENDBRANCH  24  49
TORSDOF 13
ENDMDL
