MODEL 1
REMARK VINA RESULT: -5.670871172      0.000      0.000
REMARK  3 active torsions:
REMARK  status: ('A' for Active; 'I' for Inactive)
REMARK    1  A    between atoms: C3_4  and  C4_5 
REMARK    2  A    between atoms: C4_5  and  N1_6 
REMARK    3  A    between atoms: C6_10  and  N3_11 
ROOT
HETATM    1  N1  UNL     1      -8.007  36.558  29.026  1.00  0.00    -0.267 N 
HETATM    2  C5  UNL     1      -6.822  36.499  28.382  1.00  0.00     0.218 A 
HETATM    3  N2  UNL     1      -7.009  36.339  27.059  1.00  0.00    -0.185 N 
ATOM      4  H2  UNL     1      -6.292  36.263  26.338  1.00  0.00     0.185 HD
HETATM    5  C6  UNL     1      -8.342  36.298  26.893  1.00  0.00     0.691 A 
HETATM    6  N4  UNL     1      -8.936  36.432  28.093  1.00  0.00    -0.129 N 
ATOM      7  H4  UNL     1      -9.943  36.436  28.256  1.00  0.00     0.206 HD
ENDROOT
BRANCH   1   8
HETATM    8  C4  UNL     1      -8.218  36.728  30.465  1.00  0.00     0.217 C 
BRANCH   8   9
HETATM    9  C3  UNL     1      -8.315  35.415  31.157  1.00  0.00     0.090 A 
HETATM   10  O1  UNL     1      -8.567  35.182  32.427  1.00  0.00    -0.299 OA
HETATM   11  C2  UNL     1      -8.568  33.877  32.640  1.00  0.00     0.121 A 
HETATM   12  C1  UNL     1      -8.815  33.214  33.959  1.00  0.00     0.098 C 
HETATM   13  N5  UNL     1      -8.311  33.241  31.492  1.00  0.00    -0.343 N 
HETATM   14  C7  UNL     1      -8.153  34.196  30.560  1.00  0.00     0.126 A 
HETATM   15  C8  UNL     1      -8.226  31.790  31.310  1.00  0.00     0.157 C 
ENDBRANCH   8   9
ENDBRANCH   1   8
BRANCH   5  16
HETATM   16  N3  UNL     1      -8.958  36.153  25.753  1.00  0.00    -0.233 N 
ATOM     17  H32 UNL     1      -9.844  35.665  25.615  1.00  0.00     0.174 HD
ATOM     18  H31 UNL     1      -8.633  36.508  24.854  1.00  0.00     0.174 HD
ENDBRANCH   5  16
TORSDOF 3
ENDMDL
MODEL 2
REMARK VINA RESULT: -5.556347634      1.681      5.607
REMARK  3 active torsions:
REMARK  status: ('A' for Active; 'I' for Inactive)
REMARK    1  A    between atoms: C3_4  and  C4_5 
REMARK    2  A    between atoms: C4_5  and  N1_6 
REMARK    3  A    between atoms: C6_10  and  N3_11 
ROOT
HETATM    1  N1  UNL     1      -8.570  32.758  31.601  1.00  0.00    -0.267 N 
HETATM    2  C5  UNL     1      -8.009  31.651  32.134  1.00  0.00     0.218 A 
HETATM    3  N2  UNL     1      -7.900  31.771  33.469  1.00  0.00    -0.185 N 
ATOM      4  H2  UNL     1      -7.515  31.089  34.122  1.00  0.00     0.185 HD
HETATM    5  C6  UNL     1      -8.406  32.982  33.758  1.00  0.00     0.691 A 
HETATM    6  N4  UNL     1      -8.809  33.570  32.617  1.00  0.00    -0.129 N 
ATOM      7  H4  UNL     1      -9.232  34.496  32.547  1.00  0.00     0.206 HD
ENDROOT
BRANCH   1   8
HETATM    8  C4  UNL     1      -8.855  33.004  30.186  1.00  0.00     0.217 C 
BRANCH   8   9
HETATM    9  C3  UNL     1      -8.239  34.277  29.724  1.00  0.00     0.090 A 
HETATM   10  O1  UNL     1      -8.335  35.471  30.267  1.00  0.00    -0.299 OA
HETATM   11  C2  UNL     1      -7.639  36.336  29.549  1.00  0.00     0.121 A 
HETATM   12  C1  UNL     1      -7.501  37.797  29.844  1.00  0.00     0.098 C 
HETATM   13  N5  UNL     1      -7.077  35.700  28.516  1.00  0.00    -0.343 N 
HETATM   14  C7  UNL     1      -7.447  34.413  28.618  1.00  0.00     0.126 A 
HETATM   15  C8  UNL     1      -6.227  36.307  27.487  1.00  0.00     0.157 C 
ENDBRANCH   8   9
ENDBRANCH   1   8
BRANCH   5  16
HETATM   16  N3  UNL     1      -8.493  33.501  34.952  1.00  0.00    -0.233 N 
ATOM     17  H32 UNL     1      -7.934  33.228  35.760  1.00  0.00     0.174 HD
ATOM     18  H31 UNL     1      -9.131  34.247  35.227  1.00  0.00     0.174 HD
ENDBRANCH   5  16
TORSDOF 3
ENDMDL
MODEL 3
REMARK VINA RESULT: -5.281218535      1.877      5.700
REMARK  3 active torsions:
REMARK  status: ('A' for Active; 'I' for Inactive)
REMARK    1  A    between atoms: C3_4  and  C4_5 
REMARK    2  A    between atoms: C4_5  and  N1_6 
REMARK    3  A    between atoms: C6_10  and  N3_11 
ROOT
HETATM    1  N1  UNL     1      -8.451  33.152  31.179  1.00  0.00    -0.267 N 
HETATM    2  C5  UNL     1      -8.580  34.414  31.642  1.00  0.00     0.218 A 
HETATM    3  N2  UNL     1      -8.602  34.426  32.986  1.00  0.00    -0.185 N 
ATOM      4  H2  UNL     1      -8.690  35.238  33.597  1.00  0.00     0.185 HD
HETATM    5  C6  UNL     1      -8.484  33.139  33.354  1.00  0.00     0.691 A 
HETATM    6  N4  UNL     1      -8.394  32.376  32.249  1.00  0.00    -0.129 N 
ATOM      7  H4  UNL     1      -8.296  31.361  32.238  1.00  0.00     0.206 HD
ENDROOT
BRANCH   1   8
HETATM    8  C4  UNL     1      -8.388  32.732  29.778  1.00  0.00     0.217 C 
BRANCH   8   9
HETATM    9  C3  UNL     1      -7.990  33.859  28.892  1.00  0.00     0.090 A 
HETATM   10  O1  UNL     1      -6.835  34.486  28.842  1.00  0.00    -0.299 OA
HETATM   11  C2  UNL     1      -6.888  35.429  27.917  1.00  0.00     0.121 A 
HETATM   12  C1  UNL     1      -5.770  36.358  27.560  1.00  0.00     0.098 C 
HETATM   13  N5  UNL     1      -8.099  35.423  27.349  1.00  0.00    -0.343 N 
HETATM   14  C7  UNL     1      -8.793  34.444  27.953  1.00  0.00     0.126 A 
HETATM   15  C8  UNL     1      -8.555  36.316  26.281  1.00  0.00     0.157 C 
ENDBRANCH   8   9
ENDBRANCH   1   8
BRANCH   5  16
HETATM   16  N3  UNL     1      -8.461  32.701  34.582  1.00  0.00    -0.233 N 
ATOM     17  H32 UNL     1      -8.116  33.218  35.391  1.00  0.00     0.174 HD
ATOM     18  H31 UNL     1      -8.786  31.784  34.889  1.00  0.00     0.174 HD
ENDBRANCH   5  16
TORSDOF 3
ENDMDL
MODEL 4
REMARK VINA RESULT: -5.110877245      1.641      2.362
REMARK  3 active torsions:
REMARK  status: ('A' for Active; 'I' for Inactive)
REMARK    1  A    between atoms: C3_4  and  C4_5 
REMARK    2  A    between atoms: C4_5  and  N1_6 
REMARK    3  A    between atoms: C6_10  and  N3_11 
ROOT
HETATM    1  N1  UNL     1      -7.504  35.345  27.494  1.00  0.00    -0.267 N 
HETATM    2  C5  UNL     1      -7.114  35.561  26.220  1.00  0.00     0.218 A 
HETATM    3  N2  UNL     1      -5.914  36.168  26.187  1.00  0.00    -0.185 N 
ATOM      4  H2  UNL     1      -5.384  36.448  25.362  1.00  0.00     0.185 HD
HETATM    5  C6  UNL     1      -5.564  36.328  27.475  1.00  0.00     0.691 A 
HETATM    6  N4  UNL     1      -6.536  35.825  28.258  1.00  0.00    -0.129 N 
ATOM      7  H4  UNL     1      -6.528  35.816  29.277  1.00  0.00     0.206 HD
ENDROOT
BRANCH   1   8
HETATM    8  C4  UNL     1      -8.746  34.709  27.937  1.00  0.00     0.217 C 
BRANCH   8   9
HETATM    9  C3  UNL     1      -8.634  34.218  29.336  1.00  0.00     0.090 A 
HETATM   10  O1  UNL     1      -8.775  34.902  30.452  1.00  0.00    -0.299 OA
HETATM   11  C2  UNL     1      -8.598  34.095  31.484  1.00  0.00     0.121 A 
HETATM   12  C1  UNL     1      -8.677  34.497  32.924  1.00  0.00     0.098 C 
HETATM   13  N5  UNL     1      -8.335  32.861  31.041  1.00  0.00    -0.343 N 
HETATM   14  C7  UNL     1      -8.356  32.930  29.700  1.00  0.00     0.126 A 
HETATM   15  C8  UNL     1      -8.078  31.682  31.872  1.00  0.00     0.157 C 
ENDBRANCH   8   9
ENDBRANCH   1   8
BRANCH   5  16
HETATM   16  N3  UNL     1      -4.460  36.881  27.897  1.00  0.00    -0.233 N 
ATOM     17  H32 UNL     1      -3.685  37.184  27.307  1.00  0.00     0.174 HD
ATOM     18  H31 UNL     1      -4.234  37.081  28.870  1.00  0.00     0.174 HD
ENDBRANCH   5  16
TORSDOF 3
ENDMDL
MODEL 5
REMARK VINA RESULT: -5.102577447      1.832      5.480
REMARK  3 active torsions:
REMARK  status: ('A' for Active; 'I' for Inactive)
REMARK    1  A    between atoms: C3_4  and  C4_5 
REMARK    2  A    between atoms: C4_5  and  N1_6 
REMARK    3  A    between atoms: C6_10  and  N3_11 
ROOT
HETATM    1  N1  UNL     1      -8.606  34.126  30.843  1.00  0.00    -0.267 N 
HETATM    2  C5  UNL     1      -8.214  32.938  30.334  1.00  0.00     0.218 A 
HETATM    3  N2  UNL     1      -7.985  32.052  31.319  1.00  0.00    -0.185 N 
ATOM      4  H2  UNL     1      -7.680  31.083  31.222  1.00  0.00     0.185 HD
HETATM    5  C6  UNL     1      -8.242  32.716  32.459  1.00  0.00     0.691 A 
HETATM    6  N4  UNL     1      -8.618  33.972  32.157  1.00  0.00    -0.129 N 
ATOM      7  H4  UNL     1      -8.871  34.692  32.834  1.00  0.00     0.206 HD
ENDROOT
BRANCH   1   8
HETATM    8  C4  UNL     1      -8.947  35.335  30.092  1.00  0.00     0.217 C 
BRANCH   8   9
HETATM    9  C3  UNL     1      -7.931  35.627  29.046  1.00  0.00     0.090 A 
HETATM   10  O1  UNL     1      -6.720  36.118  29.203  1.00  0.00    -0.299 OA
HETATM   11  C2  UNL     1      -6.136  36.227  28.021  1.00  0.00     0.121 A 
HETATM   12  C1  UNL     1      -4.752  36.745  27.782  1.00  0.00     0.098 C 
HETATM   13  N5  UNL     1      -6.976  35.803  27.072  1.00  0.00    -0.343 N 
HETATM   14  C7  UNL     1      -8.100  35.426  27.704  1.00  0.00     0.126 A 
HETATM   15  C8  UNL     1      -6.705  35.765  25.632  1.00  0.00     0.157 C 
ENDBRANCH   8   9
ENDBRANCH   1   8
BRANCH   5  16
HETATM   16  N3  UNL     1      -8.144  32.221  33.662  1.00  0.00    -0.233 N 
ATOM     17  H32 UNL     1      -8.872  32.249  34.377  1.00  0.00     0.174 HD
ATOM     18  H31 UNL     1      -7.327  31.744  34.041  1.00  0.00     0.174 HD
ENDBRANCH   5  16
TORSDOF 3
ENDMDL
