MODEL 1
REMARK VINA RESULT: -6.663302256      0.000      0.000
REMARK  3 active torsions:
REMARK  status: ('A' for Active; 'I' for Inactive)
REMARK    1  A    between atoms: C6_7  and  C7_8 
REMARK    2  A    between atoms: C7_8  and  C8_9 
REMARK    3  A    between atoms: C9_14  and  N4_15 
ROOT
HETATM    1  C8  UNL     1      -2.627  37.700  28.314  1.00  0.00     0.115 A 
HETATM    2  N2  UNL     1      -2.861  38.942  28.744  1.00  0.00    -0.274 N 
ATOM      3  H2  UNL     1      -3.789  39.355  28.834  1.00  0.00     0.189 HD
HETATM    4  N3  UNL     1      -1.736  39.569  29.036  1.00  0.00    -0.131 N 
ATOM      5  H3  UNL     1      -1.644  40.524  29.383  1.00  0.00     0.205 HD
HETATM    6  C9  UNL     1      -0.727  38.698  28.786  1.00  0.00     0.691 A 
HETATM    7  N5  UNL     1      -1.289  37.555  28.343  1.00  0.00    -0.178 N 
ATOM      8  H5  UNL     1      -0.781  36.713  28.073  1.00  0.00     0.185 HD
ENDROOT
BRANCH   1   9
HETATM    9  C7  UNL     1      -3.672  36.724  27.901  1.00  0.00     0.108 C 
BRANCH   9  10
HETATM   10  C6  UNL     1      -4.964  36.971  28.579  1.00  0.00     0.010 C 
HETATM   11  C5  UNL     1      -6.101  36.649  27.998  1.00  0.00     0.030 A 
HETATM   12  N1  UNL     1      -7.422  36.820  28.515  1.00  0.00    -0.361 N 
HETATM   13  C4  UNL     1      -6.291  36.041  26.685  1.00  0.00     0.030 A 
HETATM   14  C1  UNL     1      -7.682  37.402  29.818  1.00  0.00     0.155 C 
HETATM   15  C2  UNL     1      -8.283  36.394  27.671  1.00  0.00     0.090 A 
HETATM   16  C3  UNL     1      -7.609  35.884  26.482  1.00  0.00     0.019 A 
ENDBRANCH   9  10
ENDBRANCH   1   9
BRANCH   6  17
HETATM   17  N4  UNL     1       0.536  38.906  28.937  1.00  0.00    -0.233 N 
ATOM     18  H42 UNL     1       1.067  39.673  28.525  1.00  0.00     0.174 HD
ATOM     19  H41 UNL     1       1.192  38.346  29.482  1.00  0.00     0.174 HD
ENDBRANCH   6  17
TORSDOF 3
ENDMDL
MODEL 2
REMARK VINA RESULT: -6.486939340      1.084      1.875
REMARK  3 active torsions:
REMARK  status: ('A' for Active; 'I' for Inactive)
REMARK    1  A    between atoms: C6_7  and  C7_8 
REMARK    2  A    between atoms: C7_8  and  C8_9 
REMARK    3  A    between atoms: C9_14  and  N4_15 
ROOT
HETATM    1  C8  UNL     1      -2.845  37.943  28.540  1.00  0.00     0.115 A 
HETATM    2  N2  UNL     1      -2.429  39.174  28.849  1.00  0.00    -0.274 N 
ATOM      3  H2  UNL     1      -2.928  39.811  29.470  1.00  0.00     0.189 HD
HETATM    4  N3  UNL     1      -1.290  39.460  28.246  1.00  0.00    -0.131 N 
ATOM      5  H3  UNL     1      -0.767  40.333  28.317  1.00  0.00     0.205 HD
HETATM    6  C9  UNL     1      -0.949  38.370  27.515  1.00  0.00     0.691 A 
HETATM    7  N5  UNL     1      -1.914  37.447  27.706  1.00  0.00    -0.178 N 
ATOM      8  H5  UNL     1      -1.934  36.518  27.284  1.00  0.00     0.185 HD
ENDROOT
BRANCH   1   9
HETATM    9  C7  UNL     1      -4.091  37.306  29.048  1.00  0.00     0.108 C 
BRANCH   9  10
HETATM   10  C6  UNL     1      -4.907  36.729  27.957  1.00  0.00     0.010 C 
HETATM   11  C5  UNL     1      -6.219  36.678  28.052  1.00  0.00     0.030 A 
HETATM   12  N1  UNL     1      -7.142  36.157  27.094  1.00  0.00    -0.361 N 
HETATM   13  C4  UNL     1      -7.051  37.141  29.157  1.00  0.00     0.030 A 
HETATM   14  C1  UNL     1      -6.718  35.589  25.829  1.00  0.00     0.155 C 
HETATM   15  C2  UNL     1      -8.339  36.274  27.527  1.00  0.00     0.090 A 
HETATM   16  C3  UNL     1      -8.335  36.900  28.846  1.00  0.00     0.019 A 
ENDBRANCH   9  10
ENDBRANCH   1   9
BRANCH   6  17
HETATM   17  N4  UNL     1       0.094  38.226  26.772  1.00  0.00    -0.233 N 
ATOM     18  H42 UNL     1       0.094  38.137  25.756  1.00  0.00     0.174 HD
ATOM     19  H41 UNL     1       1.066  38.179  27.078  1.00  0.00     0.174 HD
ENDBRANCH   6  17
TORSDOF 3
ENDMDL
MODEL 3
REMARK VINA RESULT: -6.431582494      0.996      1.960
REMARK  3 active torsions:
REMARK  status: ('A' for Active; 'I' for Inactive)
REMARK    1  A    between atoms: C6_7  and  C7_8 
REMARK    2  A    between atoms: C7_8  and  C8_9 
REMARK    3  A    between atoms: C9_14  and  N4_15 
ROOT
HETATM    1  C8  UNL     1      -2.684  37.685  28.440  1.00  0.00     0.115 A 
HETATM    2  N2  UNL     1      -2.237  37.469  27.201  1.00  0.00    -0.274 N 
ATOM      3  H2  UNL     1      -2.772  37.003  26.469  1.00  0.00     0.189 HD
HETATM    4  N3  UNL     1      -1.012  37.937  27.044  1.00  0.00    -0.131 N 
ATOM      5  H3  UNL     1      -0.450  37.898  26.194  1.00  0.00     0.205 HD
HETATM    6  C9  UNL     1      -0.646  38.480  28.233  1.00  0.00     0.691 A 
HETATM    7  N5  UNL     1      -1.683  38.318  29.079  1.00  0.00    -0.178 N 
ATOM      8  H5  UNL     1      -1.705  38.626  30.052  1.00  0.00     0.185 HD
ENDROOT
BRANCH   1   9
HETATM    9  C7  UNL     1      -4.024  37.284  28.951  1.00  0.00     0.108 C 
BRANCH   9  10
HETATM   10  C6  UNL     1      -4.877  36.710  27.887  1.00  0.00     0.010 C 
HETATM   11  C5  UNL     1      -6.186  36.671  28.022  1.00  0.00     0.030 A 
HETATM   12  N1  UNL     1      -7.141  36.154  27.093  1.00  0.00    -0.361 N 
HETATM   13  C4  UNL     1      -6.980  37.143  29.150  1.00  0.00     0.030 A 
HETATM   14  C1  UNL     1      -6.760  35.578  25.818  1.00  0.00     0.155 C 
HETATM   15  C2  UNL     1      -8.324  36.282  27.563  1.00  0.00     0.090 A 
HETATM   16  C3  UNL     1      -8.275  36.911  28.878  1.00  0.00     0.019 A 
ENDBRANCH   9  10
ENDBRANCH   1   9
BRANCH   6  17
HETATM   17  N4  UNL     1       0.476  39.048  28.516  1.00  0.00    -0.233 N 
ATOM     18  H42 UNL     1       0.832  39.225  29.455  1.00  0.00     0.174 HD
ATOM     19  H41 UNL     1       1.170  39.403  27.859  1.00  0.00     0.174 HD
ENDBRANCH   6  17
TORSDOF 3
ENDMDL
MODEL 4
REMARK VINA RESULT: -5.985692236      4.500      7.210
REMARK  3 active torsions:
REMARK  status: ('A' for Active; 'I' for Inactive)
REMARK    1  A    between atoms: C6_7  and  C7_8 
REMARK    2  A    between atoms: C7_8  and  C8_9 
REMARK    3  A    between atoms: C9_14  and  N4_15 
ROOT
HETATM    1  C8  UNL     1      -8.432  33.050  31.999  1.00  0.00     0.115 A 
HETATM    2  N2  UNL     1      -7.975  31.882  32.458  1.00  0.00    -0.274 N 
ATOM      3  H2  UNL     1      -7.635  31.125  31.866  1.00  0.00     0.189 HD
HETATM    4  N3  UNL     1      -8.020  31.833  33.777  1.00  0.00    -0.131 N 
ATOM      5  H3  UNL     1      -7.730  31.054  34.367  1.00  0.00     0.205 HD
HETATM    6  C9  UNL     1      -8.528  33.020  34.194  1.00  0.00     0.691 A 
HETATM    7  N5  UNL     1      -8.776  33.756  33.092  1.00  0.00    -0.178 N 
ATOM      8  H5  UNL     1      -9.163  34.700  33.087  1.00  0.00     0.185 HD
ENDROOT
BRANCH   1   9
HETATM    9  C7  UNL     1      -8.518  33.434  30.564  1.00  0.00     0.108 C 
BRANCH   9  10
HETATM   10  C6  UNL     1      -8.142  34.847  30.340  1.00  0.00     0.010 C 
HETATM   11  C5  UNL     1      -7.807  35.273  29.140  1.00  0.00     0.030 A 
HETATM   12  N1  UNL     1      -7.423  36.596  28.762  1.00  0.00    -0.361 N 
HETATM   13  C4  UNL     1      -7.745  34.499  27.905  1.00  0.00     0.030 A 
HETATM   14  C1  UNL     1      -7.352  37.690  29.710  1.00  0.00     0.155 C 
HETATM   15  C2  UNL     1      -7.165  36.638  27.510  1.00  0.00     0.090 A 
HETATM   16  C3  UNL     1      -7.358  35.320  26.915  1.00  0.00     0.019 A 
ENDBRANCH   9  10
ENDBRANCH   1   9
BRANCH   6  17
HETATM   17  N4  UNL     1      -8.741  33.391  35.410  1.00  0.00    -0.233 N 
ATOM     18  H42 UNL     1      -9.633  33.336  35.902  1.00  0.00     0.174 HD
ATOM     19  H41 UNL     1      -8.063  33.789  36.060  1.00  0.00     0.174 HD
ENDBRANCH   6  17
TORSDOF 3
ENDMDL
MODEL 5
REMARK VINA RESULT: -5.585819581      3.323      6.339
REMARK  3 active torsions:
REMARK  status: ('A' for Active; 'I' for Inactive)
REMARK    1  A    between atoms: C6_7  and  C7_8 
REMARK    2  A    between atoms: C7_8  and  C8_9 
REMARK    3  A    between atoms: C9_14  and  N4_15 
ROOT
HETATM    1  C8  UNL     1      -8.339  35.308  31.240  1.00  0.00     0.115 A 
HETATM    2  N2  UNL     1      -8.524  35.244  32.560  1.00  0.00    -0.274 N 
ATOM      3  H2  UNL     1      -8.636  36.057  33.166  1.00  0.00     0.189 HD
HETATM    4  N3  UNL     1      -8.544  33.993  32.982  1.00  0.00    -0.131 N 
ATOM      5  H3  UNL     1      -8.670  33.677  33.943  1.00  0.00     0.205 HD
HETATM    6  C9  UNL     1      -8.364  33.209  31.889  1.00  0.00     0.691 A 
HETATM    7  N5  UNL     1      -8.239  34.031  30.827  1.00  0.00    -0.178 N 
ATOM      8  H5  UNL     1      -8.093  33.732  29.863  1.00  0.00     0.185 HD
ENDROOT
BRANCH   1   9
HETATM    9  C7  UNL     1      -8.266  36.564  30.444  1.00  0.00     0.108 C 
BRANCH   9  10
HETATM   10  C6  UNL     1      -7.029  36.643  29.637  1.00  0.00     0.010 C 
HETATM   11  C5  UNL     1      -7.048  36.379  28.347  1.00  0.00     0.030 A 
HETATM   12  N1  UNL     1      -5.948  36.410  27.436  1.00  0.00    -0.361 N 
HETATM   13  C4  UNL     1      -8.194  35.989  27.534  1.00  0.00     0.030 A 
HETATM   14  C1  UNL     1      -4.602  36.757  27.847  1.00  0.00     0.155 C 
HETATM   15  C2  UNL     1      -6.341  36.094  26.261  1.00  0.00     0.090 A 
HETATM   16  C3  UNL     1      -7.773  35.816  26.271  1.00  0.00     0.019 A 
ENDBRANCH   9  10
ENDBRANCH   1   9
BRANCH   6  17
HETATM   17  N4  UNL     1      -8.317  31.922  31.854  1.00  0.00    -0.233 N 
ATOM     18  H42 UNL     1      -7.512  31.348  32.103  1.00  0.00     0.174 HD
ATOM     19  H41 UNL     1      -9.064  31.285  31.576  1.00  0.00     0.174 HD
ENDBRANCH   6  17
TORSDOF 3
ENDMDL
