MODEL 1
REMARK VINA RESULT: -6.657792914      0.000      0.000
REMARK  2 active torsions:
REMARK  status: ('A' for Active; 'I' for Inactive)
REMARK    1  A    between atoms: C4_4  and  C5_5 
REMARK    2  A    between atoms: C5_5  and  N1_6 
ROOT
HETATM    1  C1  UNL     1      -3.558  36.879  28.450  1.00  0.00     0.068 C 
HETATM    2  C2  UNL     1      -4.922  36.661  27.889  1.00  0.00     0.007 A 
HETATM    3  C3  UNL     1      -6.090  36.855  28.593  1.00  0.00     0.036 A 
HETATM    4  C4  UNL     1      -7.173  36.559  27.767  1.00  0.00     0.005 A 
HETATM    5  C8  UNL     1      -6.632  36.187  26.568  1.00  0.00     0.124 A 
HETATM    6  N4  UNL     1      -7.403  35.797  25.427  1.00  0.00    -0.082 NA
HETATM    7  N5  UNL     1      -5.289  36.258  26.673  1.00  0.00    -0.348 N 
ATOM      8  H5  UNL     1      -4.638  36.031  25.921  1.00  0.00     0.167 HD
ENDROOT
BRANCH   4   9
HETATM    9  C5  UNL     1      -8.611  36.638  28.133  1.00  0.00     0.192 C 
BRANCH   9  10
HETATM   10  N1  UNL     1      -9.095  35.297  28.450  1.00  0.00    -0.282 N 
HETATM   11  C6  UNL     1      -8.993  34.693  29.644  1.00  0.00     0.201 A 
HETATM   12  N2  UNL     1      -9.539  33.472  29.586  1.00  0.00    -0.346 N 
HETATM   13  C7  UNL     1      -9.983  33.333  28.324  1.00  0.00     0.198 A 
ATOM     14  H2  UNL     1      -9.605  32.789  30.341  1.00  0.00     0.167 HD
HETATM   15  N3  UNL     1      -9.706  34.456  27.638  1.00  0.00    -0.293 N 
ATOM     16  H3  UNL     1      -9.929  34.629  26.657  1.00  0.00     0.188 HD
ENDBRANCH   9  10
ENDBRANCH   4   9
TORSDOF 2
ENDMDL
MODEL 2
REMARK VINA RESULT: -6.433905384      1.476      4.494
REMARK  2 active torsions:
REMARK  status: ('A' for Active; 'I' for Inactive)
REMARK    1  A    between atoms: C4_4  and  C5_5 
REMARK    2  A    between atoms: C5_5  and  N1_6 
ROOT
HETATM    1  C1  UNL     1      -8.066  32.247  31.983  1.00  0.00     0.068 C 
HETATM    2  C2  UNL     1      -8.497  33.081  30.824  1.00  0.00     0.007 A 
HETATM    3  C3  UNL     1      -8.093  34.381  30.613  1.00  0.00     0.036 A 
HETATM    4  C4  UNL     1      -8.683  34.855  29.443  1.00  0.00     0.005 A 
HETATM    5  C8  UNL     1      -9.439  33.821  28.965  1.00  0.00     0.124 A 
HETATM    6  N4  UNL     1     -10.220  33.885  27.767  1.00  0.00    -0.082 NA
HETATM    7  N5  UNL     1      -9.308  32.779  29.812  1.00  0.00    -0.348 N 
ATOM      8  H5  UNL     1      -9.769  31.877  29.692  1.00  0.00     0.167 HD
ENDROOT
BRANCH   4   9
HETATM    9  C5  UNL     1      -8.512  36.208  28.852  1.00  0.00     0.192 C 
BRANCH   9  10
HETATM   10  N1  UNL     1      -7.641  36.110  27.685  1.00  0.00    -0.282 N 
HETATM   11  C6  UNL     1      -6.311  36.297  27.685  1.00  0.00     0.201 A 
HETATM   12  N2  UNL     1      -5.827  36.131  26.448  1.00  0.00    -0.346 N 
HETATM   13  C7  UNL     1      -6.890  35.837  25.678  1.00  0.00     0.198 A 
ATOM     14  H2  UNL     1      -4.854  36.211  26.150  1.00  0.00     0.167 HD
HETATM   15  N3  UNL     1      -7.995  35.827  26.446  1.00  0.00    -0.293 N 
ATOM     16  H3  UNL     1      -8.944  35.634  26.125  1.00  0.00     0.188 HD
ENDBRANCH   9  10
ENDBRANCH   4   9
TORSDOF 2
ENDMDL
MODEL 3
REMARK VINA RESULT: -6.362018618      0.871      1.139
REMARK  2 active torsions:
REMARK  status: ('A' for Active; 'I' for Inactive)
REMARK    1  A    between atoms: C4_4  and  C5_5 
REMARK    2  A    between atoms: C5_5  and  N1_6 
ROOT
HETATM    1  C1  UNL     1      -3.431  37.295  28.655  1.00  0.00     0.068 C 
HETATM    2  C2  UNL     1      -4.799  36.902  28.211  1.00  0.00     0.007 A 
HETATM    3  C3  UNL     1      -5.940  37.085  28.960  1.00  0.00     0.036 A 
HETATM    4  C4  UNL     1      -7.036  36.607  28.245  1.00  0.00     0.005 A 
HETATM    5  C8  UNL     1      -6.530  36.139  27.064  1.00  0.00     0.124 A 
HETATM    6  N4  UNL     1      -7.325  35.555  26.027  1.00  0.00    -0.082 NA
HETATM    7  N5  UNL     1      -5.194  36.328  27.075  1.00  0.00    -0.348 N 
ATOM      8  H5  UNL     1      -4.568  36.067  26.314  1.00  0.00     0.167 HD
ENDROOT
BRANCH   4   9
HETATM    9  C5  UNL     1      -8.453  36.614  28.690  1.00  0.00     0.192 C 
BRANCH   9  10
HETATM   10  N1  UNL     1      -8.825  35.267  29.113  1.00  0.00    -0.282 N 
HETATM   11  C6  UNL     1      -9.864  34.560  28.641  1.00  0.00     0.201 A 
HETATM   12  N2  UNL     1      -9.915  33.366  29.244  1.00  0.00    -0.346 N 
HETATM   13  C7  UNL     1      -8.882  33.349  30.104  1.00  0.00     0.198 A 
ATOM     14  H2  UNL     1     -10.597  32.623  29.085  1.00  0.00     0.167 HD
HETATM   15  N3  UNL     1      -8.222  34.518  30.016  1.00  0.00    -0.293 N 
ATOM     16  H3  UNL     1      -7.396  34.781  30.554  1.00  0.00     0.188 HD
ENDBRANCH   9  10
ENDBRANCH   4   9
TORSDOF 2
ENDMDL
MODEL 4
REMARK VINA RESULT: -6.341628152      1.515      2.023
REMARK  2 active torsions:
REMARK  status: ('A' for Active; 'I' for Inactive)
REMARK    1  A    between atoms: C4_4  and  C5_5 
REMARK    2  A    between atoms: C5_5  and  N1_6 
ROOT
HETATM    1  C1  UNL     1      -3.170  37.089  28.276  1.00  0.00     0.068 C 
HETATM    2  C2  UNL     1      -4.654  36.957  28.352  1.00  0.00     0.007 A 
HETATM    3  C3  UNL     1      -5.414  36.227  27.465  1.00  0.00     0.036 A 
HETATM    4  C4  UNL     1      -6.755  36.320  27.831  1.00  0.00     0.005 A 
HETATM    5  C8  UNL     1      -6.780  37.114  28.944  1.00  0.00     0.124 A 
HETATM    6  N4  UNL     1      -7.973  37.470  29.650  1.00  0.00    -0.082 NA
HETATM    7  N5  UNL     1      -5.512  37.478  29.228  1.00  0.00    -0.348 N 
ATOM      8  H5  UNL     1      -5.244  38.075  30.012  1.00  0.00     0.167 HD
ENDROOT
BRANCH   4   9
HETATM    9  C5  UNL     1      -7.906  35.681  27.142  1.00  0.00     0.192 C 
BRANCH   9  10
HETATM   10  N1  UNL     1      -8.467  34.650  28.011  1.00  0.00    -0.282 N 
HETATM   11  C6  UNL     1      -9.775  34.438  28.226  1.00  0.00     0.201 A 
HETATM   12  N2  UNL     1      -9.938  33.415  29.075  1.00  0.00    -0.346 N 
HETATM   13  C7  UNL     1      -8.697  32.998  29.382  1.00  0.00     0.198 A 
ATOM     14  H2  UNL     1     -10.819  33.033  29.418  1.00  0.00     0.167 HD
HETATM   15  N3  UNL     1      -7.805  33.761  28.726  1.00  0.00    -0.293 N 
ATOM     16  H3  UNL     1      -6.790  33.668  28.772  1.00  0.00     0.188 HD
ENDBRANCH   9  10
ENDBRANCH   4   9
TORSDOF 2
ENDMDL
MODEL 5
REMARK VINA RESULT: -6.317936424      1.439      1.893
REMARK  2 active torsions:
REMARK  status: ('A' for Active; 'I' for Inactive)
REMARK    1  A    between atoms: C4_4  and  C5_5 
REMARK    2  A    between atoms: C5_5  and  N1_6 
ROOT
HETATM    1  C1  UNL     1      -3.251  36.972  28.291  1.00  0.00     0.068 C 
HETATM    2  C2  UNL     1      -4.740  36.906  28.344  1.00  0.00     0.007 A 
HETATM    3  C3  UNL     1      -5.521  36.264  27.408  1.00  0.00     0.036 A 
HETATM    4  C4  UNL     1      -6.861  36.400  27.764  1.00  0.00     0.005 A 
HETATM    5  C8  UNL     1      -6.864  37.129  28.921  1.00  0.00     0.124 A 
HETATM    6  N4  UNL     1      -8.049  37.499  29.632  1.00  0.00    -0.082 NA
HETATM    7  N5  UNL     1      -5.584  37.415  29.239  1.00  0.00    -0.348 N 
ATOM      8  H5  UNL     1      -5.300  37.952  30.059  1.00  0.00     0.167 HD
ENDROOT
BRANCH   4   9
HETATM    9  C5  UNL     1      -8.031  35.857  27.026  1.00  0.00     0.192 C 
BRANCH   9  10
HETATM   10  N1  UNL     1      -8.702  34.866  27.862  1.00  0.00    -0.282 N 
HETATM   11  C6  UNL     1      -8.154  33.727  28.316  1.00  0.00     0.201 A 
HETATM   12  N2  UNL     1      -9.045  33.053  29.053  1.00  0.00    -0.346 N 
HETATM   13  C7  UNL     1     -10.162  33.803  29.046  1.00  0.00     0.198 A 
ATOM     14  H2  UNL     1      -8.906  32.158  29.522  1.00  0.00     0.167 HD
HETATM   15  N3  UNL     1      -9.940  34.909  28.314  1.00  0.00    -0.293 N 
ATOM     16  H3  UNL     1     -10.614  35.655  28.138  1.00  0.00     0.188 HD
ENDBRANCH   9  10
ENDBRANCH   4   9
TORSDOF 2
ENDMDL
