MODEL 1
REMARK VINA RESULT: -5.004929563      0.000      0.000
REMARK  3 active torsions:
REMARK  status: ('A' for Active; 'I' for Inactive)
REMARK    1  A    between atoms: C3_4  and  N2_5 
REMARK    2  A    between atoms: C6_14  and  C7_15 
REMARK    3  A    between atoms: C7_15  and  N6_16 
ROOT
HETATM    1  C1  UNL     1      -8.371  36.787  29.610  1.00  0.00     0.157 C 
HETATM    2  N1  UNL     1      -7.120  36.722  28.909  1.00  0.00    -0.346 N 
HETATM    3  C2  UNL     1      -5.991  37.303  29.329  1.00  0.00     0.142 A 
HETATM    4  C3  UNL     1      -5.008  37.022  28.398  1.00  0.00     0.145 A 
HETATM    5  N5  UNL     1      -5.616  36.277  27.458  1.00  0.00    -0.328 N 
ATOM      6  H5  UNL     1      -5.150  35.909  26.629  1.00  0.00     0.169 HD
HETATM    7  C6  UNL     1      -6.916  36.076  27.746  1.00  0.00     0.110 A 
ENDROOT
BRANCH   4   8
HETATM    8  N2  UNL     1      -3.632  37.435  28.424  1.00  0.00    -0.233 N 
HETATM    9  C4  UNL     1      -2.562  36.748  27.990  1.00  0.00     0.209 A 
HETATM   10  N3  UNL     1      -1.426  37.445  28.171  1.00  0.00    -0.346 N 
HETATM   11  C5  UNL     1      -1.825  38.609  28.743  1.00  0.00     0.199 A 
ATOM     12  H3  UNL     1      -0.476  37.161  27.932  1.00  0.00     0.167 HD
HETATM   13  N4  UNL     1      -3.177  38.565  28.880  1.00  0.00    -0.287 N 
ATOM     14  H4  UNL     1      -3.750  39.308  29.281  1.00  0.00     0.188 HD
ENDBRANCH   4   8
BRANCH   7  15
HETATM   15  C7  UNL     1      -7.900  35.308  26.946  1.00  0.00     0.306 C 
BRANCH  15  16
HETATM   16  N6  UNL     1      -8.615  36.138  26.000  1.00  0.00    -0.073 N 
ATOM     17  H63 UNL     1      -9.561  36.336  26.328  1.00  0.00     0.274 HD
ATOM     18  H62 UNL     1      -8.243  37.088  25.989  1.00  0.00     0.274 HD
ATOM     19  H61 UNL     1      -8.629  35.739  25.061  1.00  0.00     0.274 HD
ENDBRANCH  15  16
ENDBRANCH   7  15
TORSDOF 3
ENDMDL
MODEL 2
REMARK VINA RESULT: -4.838422788      4.043      6.333
REMARK  3 active torsions:
REMARK  status: ('A' for Active; 'I' for Inactive)
REMARK    1  A    between atoms: C3_4  and  N2_5 
REMARK    2  A    between atoms: C6_14  and  C7_15 
REMARK    3  A    between atoms: C7_15  and  N6_16 
ROOT
HETATM    1  C1  UNL     1      -9.474  34.315  27.439  1.00  0.00     0.157 C 
HETATM    2  N1  UNL     1      -9.018  34.456  28.793  1.00  0.00    -0.346 N 
HETATM    3  C2  UNL     1      -9.113  33.497  29.722  1.00  0.00     0.142 A 
HETATM    4  C3  UNL     1      -8.573  33.998  30.892  1.00  0.00     0.145 A 
HETATM    5  N5  UNL     1      -8.179  35.248  30.591  1.00  0.00    -0.328 N 
ATOM      6  H5  UNL     1      -7.737  35.884  31.254  1.00  0.00     0.169 HD
HETATM    7  C6  UNL     1      -8.441  35.557  29.306  1.00  0.00     0.110 A 
ENDROOT
BRANCH   4   8
HETATM    8  N2  UNL     1      -8.455  33.331  32.159  1.00  0.00    -0.233 N 
HETATM    9  C4  UNL     1      -8.064  32.066  32.387  1.00  0.00     0.209 A 
HETATM   10  N3  UNL     1      -8.073  31.780  33.701  1.00  0.00    -0.346 N 
HETATM   11  C5  UNL     1      -8.489  32.924  34.299  1.00  0.00     0.199 A 
ATOM     12  H3  UNL     1      -7.822  30.898  34.148  1.00  0.00     0.167 HD
HETATM   13  N4  UNL     1      -8.712  33.847  33.325  1.00  0.00    -0.287 N 
ATOM     14  H4  UNL     1      -9.033  34.802  33.486  1.00  0.00     0.188 HD
ENDBRANCH   4   8
BRANCH   7  15
HETATM   15  C7  UNL     1      -8.150  36.838  28.619  1.00  0.00     0.306 C 
BRANCH  15  16
HETATM   16  N6  UNL     1      -6.838  36.853  28.006  1.00  0.00    -0.073 N 
ATOM     17  H63 UNL     1      -6.736  36.088  27.339  1.00  0.00     0.274 HD
ATOM     18  H62 UNL     1      -6.741  37.642  27.366  1.00  0.00     0.274 HD
ATOM     19  H61 UNL     1      -6.085  36.844  28.694  1.00  0.00     0.274 HD
ENDBRANCH  15  16
ENDBRANCH   7  15
TORSDOF 3
ENDMDL
MODEL 3
REMARK VINA RESULT: -4.837063650      3.722      5.279
REMARK  3 active torsions:
REMARK  status: ('A' for Active; 'I' for Inactive)
REMARK    1  A    between atoms: C3_4  and  N2_5 
REMARK    2  A    between atoms: C6_14  and  C7_15 
REMARK    3  A    between atoms: C7_15  and  N6_16 
ROOT
HETATM    1  C1  UNL     1      -8.713  34.860  32.492  1.00  0.00     0.157 C 
HETATM    2  N1  UNL     1      -8.379  34.488  31.147  1.00  0.00    -0.346 N 
HETATM    3  C2  UNL     1      -8.268  35.354  30.133  1.00  0.00     0.142 A 
HETATM    4  C3  UNL     1      -7.937  34.629  29.003  1.00  0.00     0.145 A 
HETATM    5  N5  UNL     1      -7.867  33.350  29.412  1.00  0.00    -0.328 N 
ATOM      6  H5  UNL     1      -7.640  32.565  28.802  1.00  0.00     0.169 HD
HETATM    7  C6  UNL     1      -8.135  33.233  30.727  1.00  0.00     0.110 A 
ENDROOT
BRANCH   4   8
HETATM    8  N2  UNL     1      -7.714  35.130  27.674  1.00  0.00    -0.233 N 
HETATM    9  C4  UNL     1      -8.588  35.774  26.884  1.00  0.00     0.209 A 
HETATM   10  N3  UNL     1      -8.034  36.097  25.701  1.00  0.00    -0.346 N 
HETATM   11  C5  UNL     1      -6.765  35.625  25.777  1.00  0.00     0.199 A 
ATOM     12  H3  UNL     1      -8.472  36.587  24.921  1.00  0.00     0.167 HD
HETATM   13  N4  UNL     1      -6.608  35.042  26.996  1.00  0.00    -0.287 N 
ATOM     14  H4  UNL     1      -5.750  34.601  27.329  1.00  0.00     0.188 HD
ENDBRANCH   4   8
BRANCH   7  15
HETATM   15  C7  UNL     1      -8.153  31.985  31.527  1.00  0.00     0.306 C 
BRANCH  15  16
HETATM   16  N6  UNL     1      -8.059  32.237  32.950  1.00  0.00    -0.073 N 
ATOM     17  H63 UNL     1      -7.118  32.535  33.209  1.00  0.00     0.274 HD
ATOM     18  H62 UNL     1      -8.575  33.078  33.209  1.00  0.00     0.274 HD
ATOM     19  H61 UNL     1      -8.357  31.437  33.509  1.00  0.00     0.274 HD
ENDBRANCH  15  16
ENDBRANCH   7  15
TORSDOF 3
ENDMDL
MODEL 4
REMARK VINA RESULT: -4.752591800      3.787      5.438
REMARK  3 active torsions:
REMARK  status: ('A' for Active; 'I' for Inactive)
REMARK    1  A    between atoms: C3_4  and  N2_5 
REMARK    2  A    between atoms: C6_14  and  C7_15 
REMARK    3  A    between atoms: C7_15  and  N6_16 
ROOT
HETATM    1  C1  UNL     1      -8.149  32.121  31.541  1.00  0.00     0.157 C 
HETATM    2  N1  UNL     1      -8.131  33.309  30.736  1.00  0.00    -0.346 N 
HETATM    3  C2  UNL     1      -7.869  33.324  29.424  1.00  0.00     0.142 A 
HETATM    4  C3  UNL     1      -7.943  34.638  29.001  1.00  0.00     0.145 A 
HETATM    5  N5  UNL     1      -8.251  35.346  30.102  1.00  0.00    -0.328 N 
ATOM      6  H5  UNL     1      -8.376  36.358  30.116  1.00  0.00     0.169 HD
HETATM    7  C6  UNL     1      -8.373  34.554  31.184  1.00  0.00     0.110 A 
ENDROOT
BRANCH   4   8
HETATM    8  N2  UNL     1      -7.736  35.145  27.672  1.00  0.00    -0.233 N 
HETATM    9  C4  UNL     1      -8.615  35.807  26.901  1.00  0.00     0.209 A 
HETATM   10  N3  UNL     1      -8.077  36.130  25.712  1.00  0.00    -0.346 N 
HETATM   11  C5  UNL     1      -6.813  35.641  25.762  1.00  0.00     0.199 A 
ATOM     12  H3  UNL     1      -8.522  36.632  24.942  1.00  0.00     0.167 HD
HETATM   13  N4  UNL     1      -6.643  35.047  26.974  1.00  0.00    -0.287 N 
ATOM     14  H4  UNL     1      -5.786  34.593  27.289  1.00  0.00     0.188 HD
ENDBRANCH   4   8
BRANCH   7  15
HETATM   15  C7  UNL     1      -8.702  34.976  32.567  1.00  0.00     0.306 C 
BRANCH  15  16
HETATM   16  N6  UNL     1      -8.660  33.877  33.508  1.00  0.00    -0.073 N 
ATOM     17  H63 UNL     1      -7.799  33.339  33.405  1.00  0.00     0.274 HD
ATOM     18  H62 UNL     1      -8.529  34.215  34.462  1.00  0.00     0.274 HD
ATOM     19  H61 UNL     1      -9.479  33.273  33.442  1.00  0.00     0.274 HD
ENDBRANCH  15  16
ENDBRANCH   7  15
TORSDOF 3
ENDMDL
MODEL 5
REMARK VINA RESULT: -4.683378300      4.100      6.007
REMARK  3 active torsions:
REMARK  status: ('A' for Active; 'I' for Inactive)
REMARK    1  A    between atoms: C3_4  and  N2_5 
REMARK    2  A    between atoms: C6_14  and  C7_15 
REMARK    3  A    between atoms: C7_15  and  N6_16 
ROOT
HETATM    1  C1  UNL     1      -8.397  37.144  28.734  1.00  0.00     0.157 C 
HETATM    2  N1  UNL     1      -8.409  35.829  29.308  1.00  0.00    -0.346 N 
HETATM    3  C2  UNL     1      -8.372  35.581  30.622  1.00  0.00     0.142 A 
HETATM    4  C3  UNL     1      -8.399  34.208  30.786  1.00  0.00     0.145 A 
HETATM    5  N5  UNL     1      -8.450  33.705  29.540  1.00  0.00    -0.328 N 
ATOM      6  H5  UNL     1      -8.479  32.708  29.326  1.00  0.00     0.169 HD
HETATM    7  C6  UNL     1      -8.457  34.679  28.610  1.00  0.00     0.110 A 
ENDROOT
BRANCH   4   8
HETATM    8  N2  UNL     1      -8.376  33.472  32.020  1.00  0.00    -0.233 N 
HETATM    9  C4  UNL     1      -8.071  32.175  32.196  1.00  0.00     0.209 A 
HETATM   10  N3  UNL     1      -8.154  31.824  33.491  1.00  0.00    -0.346 N 
HETATM   11  C5  UNL     1      -8.527  32.960  34.132  1.00  0.00     0.199 A 
ATOM     12  H3  UNL     1      -7.975  30.907  33.901  1.00  0.00     0.167 HD
HETATM   13  N4  UNL     1      -8.652  33.943  33.201  1.00  0.00    -0.287 N 
ATOM     14  H4  UNL     1      -8.923  34.906  33.399  1.00  0.00     0.188 HD
ENDBRANCH   4   8
BRANCH   7  15
HETATM   15  C7  UNL     1      -8.508  34.508  27.139  1.00  0.00     0.306 C 
BRANCH  15  16
HETATM   16  N6  UNL     1      -7.246  34.819  26.500  1.00  0.00    -0.073 N 
ATOM     17  H63 UNL     1      -6.665  35.404  27.101  1.00  0.00     0.274 HD
ATOM     18  H62 UNL     1      -6.648  33.994  26.446  1.00  0.00     0.274 HD
ATOM     19  H61 UNL     1      -7.367  35.245  25.581  1.00  0.00     0.274 HD
ENDBRANCH  15  16
ENDBRANCH   7  15
TORSDOF 3
ENDMDL
