MODEL 1
REMARK VINA RESULT: -5.125314267      0.000      0.000
REMARK  2 active torsions:
REMARK  status: ('A' for Active; 'I' for Inactive)
REMARK    1  A    between atoms: C2_2  and  N1_3 
REMARK    2  A    between atoms: C3_6  and  N3_7 
ROOT
HETATM    1  N1  UNL     1      -8.765  34.982  28.213  1.00  0.00    -0.267 N 
HETATM    2  N2  UNL     1      -8.140  34.678  27.082  1.00  0.00    -0.129 N 
ATOM      3  H2  UNL     1      -8.575  34.018  26.438  1.00  0.00     0.206 HD
HETATM    4  C3  UNL     1      -6.949  35.216  26.759  1.00  0.00     0.694 A 
HETATM    5  N4  UNL     1      -6.361  36.089  27.598  1.00  0.00    -0.168 N 
HETATM    6  C4  UNL     1      -5.083  36.646  27.217  1.00  0.00     0.177 C 
HETATM    7  C5  UNL     1      -6.951  36.445  28.778  1.00  0.00     0.166 A 
HETATM    8  N5  UNL     1      -6.823  37.199  29.884  1.00  0.00    -0.308 N 
ATOM      9  H5  UNL     1      -6.100  37.842  30.208  1.00  0.00     0.176 HD
HETATM   10  S1  UNL     1      -8.279  36.696  30.533  1.00  0.00     0.011 SA
HETATM   11  C6  UNL     1      -8.188  35.851  29.054  1.00  0.00     0.154 A 
ENDROOT
BRANCH   4  12
HETATM   12  N3  UNL     1      -6.344  34.917  25.656  1.00  0.00    -0.233 N 
ATOM     13  H32 UNL     1      -6.352  35.596  24.896  1.00  0.00     0.174 HD
ATOM     14  H31 UNL     1      -5.862  34.026  25.532  1.00  0.00     0.174 HD
ENDBRANCH   4  12
BRANCH   1  15
HETATM   15  C2  UNL     1     -10.048  34.380  28.522  1.00  0.00     0.146 C 
HETATM   16  C1  UNL     1      -9.822  33.202  29.426  1.00  0.00     0.028 C 
ENDBRANCH   1  15
TORSDOF 2
ENDMDL
MODEL 2
REMARK VINA RESULT: -4.836216612      1.598      3.396
REMARK  2 active torsions:
REMARK  status: ('A' for Active; 'I' for Inactive)
REMARK    1  A    between atoms: C2_2  and  N1_3 
REMARK    2  A    between atoms: C3_6  and  N3_7 
ROOT
HETATM    1  N1  UNL     1      -8.197  35.419  27.605  1.00  0.00    -0.267 N 
HETATM    2  N2  UNL     1      -8.497  34.129  27.689  1.00  0.00    -0.129 N 
ATOM      3  H2  UNL     1      -8.649  33.599  26.831  1.00  0.00     0.206 HD
HETATM    4  C3  UNL     1      -8.607  33.497  28.873  1.00  0.00     0.694 A 
HETATM    5  N4  UNL     1      -8.410  34.182  30.015  1.00  0.00    -0.168 N 
HETATM    6  C4  UNL     1      -8.537  33.470  31.267  1.00  0.00     0.177 C 
HETATM    7  C5  UNL     1      -8.097  35.512  29.999  1.00  0.00     0.166 A 
HETATM    8  N5  UNL     1      -7.821  36.582  30.765  1.00  0.00    -0.308 N 
ATOM      9  H5  UNL     1      -7.756  36.718  31.774  1.00  0.00     0.176 HD
HETATM   10  S1  UNL     1      -7.622  37.607  29.460  1.00  0.00     0.011 SA
HETATM   11  C6  UNL     1      -7.998  36.108  28.737  1.00  0.00     0.154 A 
ENDROOT
BRANCH   4  12
HETATM   12  N3  UNL     1      -8.901  32.241  28.950  1.00  0.00    -0.233 N 
ATOM     13  H32 UNL     1      -8.677  31.740  29.809  1.00  0.00     0.174 HD
ATOM     14  H31 UNL     1      -9.347  31.745  28.178  1.00  0.00     0.174 HD
ENDBRANCH   4  12
BRANCH   1  15
HETATM   15  C2  UNL     1      -8.087  36.060  26.308  1.00  0.00     0.146 C 
HETATM   16  C1  UNL     1      -6.708  35.813  25.765  1.00  0.00     0.028 C 
ENDBRANCH   1  15
TORSDOF 2
ENDMDL
MODEL 3
REMARK VINA RESULT: -4.620856660      1.757      2.849
REMARK  2 active torsions:
REMARK  status: ('A' for Active; 'I' for Inactive)
REMARK    1  A    between atoms: C2_2  and  N1_3 
REMARK    2  A    between atoms: C3_6  and  N3_7 
ROOT
HETATM    1  N1  UNL     1      -7.960  36.149  29.761  1.00  0.00    -0.267 N 
HETATM    2  N2  UNL     1      -6.789  36.590  29.318  1.00  0.00    -0.129 N 
ATOM      3  H2  UNL     1      -6.193  37.128  29.946  1.00  0.00     0.206 HD
HETATM    4  C3  UNL     1      -6.364  36.349  28.063  1.00  0.00     0.694 A 
HETATM    5  N4  UNL     1      -7.138  35.640  27.221  1.00  0.00    -0.168 N 
HETATM    6  C4  UNL     1      -6.647  35.400  25.882  1.00  0.00     0.177 C 
HETATM    7  C5  UNL     1      -8.354  35.156  27.613  1.00  0.00     0.166 A 
HETATM    8  N5  UNL     1      -9.433  34.455  27.222  1.00  0.00    -0.308 N 
ATOM      9  H5  UNL     1      -9.688  34.001  26.345  1.00  0.00     0.176 HD
HETATM   10  S1  UNL     1     -10.203  34.601  28.699  1.00  0.00     0.011 SA
HETATM   11  C6  UNL     1      -8.737  35.442  28.929  1.00  0.00     0.154 A 
ENDROOT
BRANCH   4  12
HETATM   12  N3  UNL     1      -5.222  36.781  27.637  1.00  0.00    -0.233 N 
ATOM     13  H32 UNL     1      -5.206  37.380  26.811  1.00  0.00     0.174 HD
ATOM     14  H31 UNL     1      -4.348  36.540  28.103  1.00  0.00     0.174 HD
ENDBRANCH   4  12
BRANCH   1  15
HETATM   15  C2  UNL     1      -8.380  36.431  31.120  1.00  0.00     0.146 C 
HETATM   16  C1  UNL     1      -8.441  35.139  31.883  1.00  0.00     0.028 C 
ENDBRANCH   1  15
TORSDOF 2
ENDMDL
MODEL 4
REMARK VINA RESULT: -4.523382616      1.954      4.363
REMARK  2 active torsions:
REMARK  status: ('A' for Active; 'I' for Inactive)
REMARK    1  A    between atoms: C2_2  and  N1_3 
REMARK    2  A    between atoms: C3_6  and  N3_7 
ROOT
HETATM    1  N1  UNL     1      -7.253  36.220  29.000  1.00  0.00    -0.267 N 
HETATM    2  N2  UNL     1      -7.469  35.510  30.100  1.00  0.00    -0.129 N 
ATOM      3  H2  UNL     1      -6.914  35.707  30.933  1.00  0.00     0.206 HD
HETATM    4  C3  UNL     1      -8.400  34.538  30.151  1.00  0.00     0.694 A 
HETATM    5  N4  UNL     1      -9.140  34.266  29.062  1.00  0.00    -0.168 N 
HETATM    6  C4  UNL     1     -10.130  33.216  29.154  1.00  0.00     0.177 C 
HETATM    7  C5  UNL     1      -8.970  34.960  27.897  1.00  0.00     0.166 A 
HETATM    8  N5  UNL     1      -9.393  35.092  26.627  1.00  0.00    -0.308 N 
ATOM      9  H5  UNL     1     -10.104  34.610  26.077  1.00  0.00     0.176 HD
HETATM   10  S1  UNL     1      -8.328  36.333  26.282  1.00  0.00     0.011 SA
HETATM   11  C6  UNL     1      -7.987  35.956  27.910  1.00  0.00     0.154 A 
ENDROOT
BRANCH   4  12
HETATM   12  N3  UNL     1      -8.606  33.849  31.226  1.00  0.00    -0.233 N 
ATOM     13  H32 UNL     1      -7.921  33.142  31.490  1.00  0.00     0.174 HD
ATOM     14  H31 UNL     1      -9.430  33.997  31.809  1.00  0.00     0.174 HD
ENDBRANCH   4  12
BRANCH   1  15
HETATM   15  C2  UNL     1      -6.241  37.259  28.988  1.00  0.00     0.146 C 
HETATM   16  C1  UNL     1      -5.043  36.755  28.234  1.00  0.00     0.028 C 
ENDBRANCH   1  15
TORSDOF 2
ENDMDL
MODEL 5
REMARK VINA RESULT: -4.470832594      2.118      4.543
REMARK  2 active torsions:
REMARK  status: ('A' for Active; 'I' for Inactive)
REMARK    1  A    between atoms: C2_2  and  N1_3 
REMARK    2  A    between atoms: C3_6  and  N3_7 
ROOT
HETATM    1  N1  UNL     1      -5.942  36.564  28.125  1.00  0.00    -0.267 N 
HETATM    2  N2  UNL     1      -6.402  36.744  29.358  1.00  0.00    -0.129 N 
ATOM      3  H2  UNL     1      -5.752  37.022  30.093  1.00  0.00     0.206 HD
HETATM    4  C3  UNL     1      -7.701  36.572  29.667  1.00  0.00     0.694 A 
HETATM    5  N4  UNL     1      -8.571  36.206  28.708  1.00  0.00    -0.168 N 
HETATM    6  C4  UNL     1      -9.959  36.030  29.077  1.00  0.00     0.177 C 
HETATM    7  C5  UNL     1      -8.164  36.005  27.419  1.00  0.00     0.166 A 
HETATM    8  N5  UNL     1      -8.568  35.666  26.182  1.00  0.00    -0.308 N 
ATOM      9  H5  UNL     1      -9.476  35.415  25.790  1.00  0.00     0.176 HD
HETATM   10  S1  UNL     1      -7.039  35.806  25.522  1.00  0.00     0.011 SA
HETATM   11  C6  UNL     1      -6.802  36.200  27.165  1.00  0.00     0.154 A 
ENDROOT
BRANCH   4  12
HETATM   12  N3  UNL     1      -8.144  36.747  30.868  1.00  0.00    -0.233 N 
ATOM     13  H32 UNL     1      -7.481  36.713  31.642  1.00  0.00     0.174 HD
ATOM     14  H31 UNL     1      -9.132  36.920  31.057  1.00  0.00     0.174 HD
ENDBRANCH   4  12
BRANCH   1  15
HETATM   15  C2  UNL     1      -4.534  36.762  27.836  1.00  0.00     0.146 C 
HETATM   16  C1  UNL     1      -3.926  37.578  28.941  1.00  0.00     0.028 C 
ENDBRANCH   1  15
TORSDOF 2
ENDMDL
