MODEL 1
REMARK VINA RESULT: -6.080640133      0.000      0.000
REMARK  5 active torsions:
REMARK  status: ('A' for Active; 'I' for Inactive)
REMARK    1  A    between atoms: C2_2  and  C3_3 
REMARK    2  A    between atoms: C6_8  and  C7_9 
REMARK    3  A    between atoms: C7_9  and  C8_10 
REMARK    4  A    between atoms: C8_10  and  N2_11 
REMARK    5  A    between atoms: N2_11  and  N3_13 
ROOT
HETATM    1  C3  UNL     1      54.078 -27.348   8.290  1.00  0.00     0.101 A 
HETATM    2  N1  UNL     1      53.220 -27.356   7.257  1.00  0.00    -0.344 N 
ATOM      3  H1  UNL     1      53.312 -27.936   6.423  1.00  0.00     0.167 HD
HETATM    4  C4  UNL     1      52.218 -26.487   7.487  1.00  0.00     0.033 A 
HETATM    5  C5  UNL     1      51.098 -26.235   6.569  1.00  0.00     0.070 C 
HETATM    6  C6  UNL     1      52.456 -25.897   8.730  1.00  0.00     0.054 A 
HETATM    7  N4  UNL     1      53.602 -26.461   9.172  1.00  0.00    -0.341 N 
ATOM      8  H4  UNL     1      54.047 -26.239  10.063  1.00  0.00     0.167 HD
ENDROOT
BRANCH   6   9
HETATM    9  C7  UNL     1      51.747 -25.003   9.353  1.00  0.00     0.043 C 
BRANCH   9  10
HETATM   10  C8  UNL     1      50.887 -25.204  10.519  1.00  0.00     0.371 C 
BRANCH  10  11
HETATM   11  N2  UNL     1      49.539 -25.624  10.147  1.00  0.00     0.102 N 
HETATM   12  C9  UNL     1      49.395 -27.041  10.066  1.00  0.00     0.389 C 
HETATM   13  O1  UNL     1      48.647 -25.176  11.089  1.00  0.00    -0.043 OA
BRANCH  11  14
HETATM   14  N3  UNL     1      49.134 -25.058   8.933  1.00  0.00    -0.211 N 
ATOM     15  H32 UNL     1      49.543 -25.311   8.033  1.00  0.00     0.192 HD
ATOM     16  H31 UNL     1      48.391 -24.373   9.064  1.00  0.00     0.192 HD
ENDBRANCH  11  14
ENDBRANCH  10  11
ENDBRANCH   9  10
ENDBRANCH   6   9
BRANCH   1  17
HETATM   17  C2  UNL     1      55.196 -28.091   8.405  1.00  0.00     0.017 C 
HETATM   18  C1  UNL     1      55.549 -29.142   7.456  1.00  0.00     0.040 C 
ENDBRANCH   1  17
TORSDOF 5
ENDMDL
MODEL 2
REMARK VINA RESULT: -5.618919172      2.814      5.068
REMARK  5 active torsions:
REMARK  status: ('A' for Active; 'I' for Inactive)
REMARK    1  A    between atoms: C2_2  and  C3_3 
REMARK    2  A    between atoms: C6_8  and  C7_9 
REMARK    3  A    between atoms: C7_9  and  C8_10 
REMARK    4  A    between atoms: C8_10  and  N2_11 
REMARK    5  A    between atoms: N2_11  and  N3_13 
ROOT
HETATM    1  C3  UNL     1      49.698 -27.916  12.344  1.00  0.00     0.101 A 
HETATM    2  N1  UNL     1      50.864 -27.275  12.529  1.00  0.00    -0.344 N 
ATOM      3  H1  UNL     1      51.501 -27.432  13.310  1.00  0.00     0.167 HD
HETATM    4  C4  UNL     1      51.065 -26.394  11.532  1.00  0.00     0.033 A 
HETATM    5  C5  UNL     1      52.239 -25.517  11.412  1.00  0.00     0.070 C 
HETATM    6  C6  UNL     1      49.970 -26.482  10.671  1.00  0.00     0.054 A 
HETATM    7  N4  UNL     1      49.171 -27.426  11.216  1.00  0.00    -0.341 N 
ATOM      8  H4  UNL     1      48.281 -27.726  10.819  1.00  0.00     0.167 HD
ENDROOT
BRANCH   6   9
HETATM    9  C7  UNL     1      49.743 -25.819   9.575  1.00  0.00     0.043 C 
BRANCH   9  10
HETATM   10  C8  UNL     1      49.985 -26.260   8.202  1.00  0.00     0.371 C 
BRANCH  10  11
HETATM   11  N2  UNL     1      51.179 -25.648   7.626  1.00  0.00     0.102 N 
HETATM   12  C9  UNL     1      52.352 -26.443   7.789  1.00  0.00     0.389 C 
HETATM   13  O1  UNL     1      50.992 -25.467   6.279  1.00  0.00    -0.043 OA
BRANCH  11  14
HETATM   14  N3  UNL     1      51.418 -24.375   8.157  1.00  0.00    -0.211 N 
ATOM     15  H32 UNL     1      51.534 -23.541   7.581  1.00  0.00     0.192 HD
ATOM     16  H31 UNL     1      51.460 -24.392   9.176  1.00  0.00     0.192 HD
ENDBRANCH  11  14
ENDBRANCH  10  11
ENDBRANCH   9  10
ENDBRANCH   6   9
BRANCH   1  17
HETATM   17  C2  UNL     1      49.174 -28.865  13.143  1.00  0.00     0.017 C 
HETATM   18  C1  UNL     1      49.741 -29.209  14.443  1.00  0.00     0.040 C 
ENDBRANCH   1  17
TORSDOF 5
ENDMDL
MODEL 3
REMARK VINA RESULT: -5.593188002      1.320      2.032
REMARK  5 active torsions:
REMARK  status: ('A' for Active; 'I' for Inactive)
REMARK    1  A    between atoms: C2_2  and  C3_3 
REMARK    2  A    between atoms: C6_8  and  C7_9 
REMARK    3  A    between atoms: C7_9  and  C8_10 
REMARK    4  A    between atoms: C8_10  and  N2_11 
REMARK    5  A    between atoms: N2_11  and  N3_13 
ROOT
HETATM    1  C3  UNL     1      54.274 -27.688   7.987  1.00  0.00     0.101 A 
HETATM    2  N1  UNL     1      54.644 -26.956   9.050  1.00  0.00    -0.344 N 
ATOM      3  H1  UNL     1      55.559 -26.995   9.499  1.00  0.00     0.167 HD
HETATM    4  C4  UNL     1      53.627 -26.161   9.434  1.00  0.00     0.033 A 
HETATM    5  C5  UNL     1      53.677 -25.224  10.566  1.00  0.00     0.070 C 
HETATM    6  C6  UNL     1      52.559 -26.404   8.570  1.00  0.00     0.054 A 
HETATM    7  N4  UNL     1      53.012 -27.343   7.708  1.00  0.00    -0.341 N 
ATOM      8  H4  UNL     1      52.462 -27.736   6.945  1.00  0.00     0.167 HD
ENDROOT
BRANCH   6   9
HETATM    9  C7  UNL     1      51.378 -25.861   8.565  1.00  0.00     0.043 C 
BRANCH   9  10
HETATM   10  C8  UNL     1      50.156 -26.383   9.177  1.00  0.00     0.371 C 
BRANCH  10  11
HETATM   11  N2  UNL     1      49.815 -25.687  10.415  1.00  0.00     0.102 N 
HETATM   12  C9  UNL     1      48.432 -25.784  10.750  1.00  0.00     0.389 C 
HETATM   13  O1  UNL     1      50.526 -26.232  11.454  1.00  0.00    -0.043 OA
BRANCH  11  14
HETATM   14  N3  UNL     1      50.175 -24.335  10.367  1.00  0.00    -0.211 N 
ATOM     15  H32 UNL     1      50.394 -23.784  11.197  1.00  0.00     0.192 HD
ATOM     16  H31 UNL     1      50.190 -23.981   9.411  1.00  0.00     0.192 HD
ENDBRANCH  11  14
ENDBRANCH  10  11
ENDBRANCH   9  10
ENDBRANCH   6   9
BRANCH   1  17
HETATM   17  C2  UNL     1      55.034 -28.590   7.336  1.00  0.00     0.017 C 
HETATM   18  C1  UNL     1      56.414 -28.880   7.710  1.00  0.00     0.040 C 
ENDBRANCH   1  17
TORSDOF 5
ENDMDL
MODEL 4
REMARK VINA RESULT: -5.570324683      2.429      4.815
REMARK  5 active torsions:
REMARK  status: ('A' for Active; 'I' for Inactive)
REMARK    1  A    between atoms: C2_2  and  C3_3 
REMARK    2  A    between atoms: C6_8  and  C7_9 
REMARK    3  A    between atoms: C7_9  and  C8_10 
REMARK    4  A    between atoms: C8_10  and  N2_11 
REMARK    5  A    between atoms: N2_11  and  N3_13 
ROOT
HETATM    1  C3  UNL     1      49.937 -27.418  12.111  1.00  0.00     0.101 A 
HETATM    2  N1  UNL     1      51.176 -27.098  12.517  1.00  0.00    -0.344 N 
ATOM      3  H1  UNL     1      51.678 -27.552  13.280  1.00  0.00     0.167 HD
HETATM    4  C4  UNL     1      51.658 -26.090  11.766  1.00  0.00     0.033 A 
HETATM    5  C5  UNL     1      52.986 -25.482  11.930  1.00  0.00     0.070 C 
HETATM    6  C6  UNL     1      50.671 -25.754  10.837  1.00  0.00     0.054 A 
HETATM    7  N4  UNL     1      49.646 -26.597  11.095  1.00  0.00    -0.341 N 
ATOM      8  H4  UNL     1      48.765 -26.607  10.581  1.00  0.00     0.167 HD
ENDROOT
BRANCH   6   9
HETATM    9  C7  UNL     1      50.702 -24.840   9.913  1.00  0.00     0.043 C 
BRANCH   9  10
HETATM   10  C8  UNL     1      51.587 -24.780   8.751  1.00  0.00     0.371 C 
BRANCH  10  11
HETATM   11  N2  UNL     1      51.259 -25.793   7.751  1.00  0.00     0.102 N 
HETATM   12  C9  UNL     1      52.334 -26.693   7.490  1.00  0.00     0.389 C 
HETATM   13  O1  UNL     1      50.198 -26.542   8.193  1.00  0.00    -0.043 OA
BRANCH  11  14
HETATM   14  N3  UNL     1      50.849 -25.217   6.543  1.00  0.00    -0.211 N 
ATOM     15  H32 UNL     1      50.257 -24.388   6.491  1.00  0.00     0.192 HD
ATOM     16  H31 UNL     1      51.213 -25.726   5.738  1.00  0.00     0.192 HD
ENDBRANCH  11  14
ENDBRANCH  10  11
ENDBRANCH   9  10
ENDBRANCH   6   9
BRANCH   1  17
HETATM   17  C2  UNL     1      49.150 -28.380  12.631  1.00  0.00     0.017 C 
HETATM   18  C1  UNL     1      49.509 -29.136  13.827  1.00  0.00     0.040 C 
ENDBRANCH   1  17
TORSDOF 5
ENDMDL
MODEL 5
REMARK VINA RESULT: -5.564767487      1.195      1.918
REMARK  5 active torsions:
REMARK  status: ('A' for Active; 'I' for Inactive)
REMARK    1  A    between atoms: C2_2  and  C3_3 
REMARK    2  A    between atoms: C6_8  and  C7_9 
REMARK    3  A    between atoms: C7_9  and  C8_10 
REMARK    4  A    between atoms: C8_10  and  N2_11 
REMARK    5  A    between atoms: N2_11  and  N3_13 
ROOT
HETATM    1  C3  UNL     1      53.724 -27.208   8.150  1.00  0.00     0.101 A 
HETATM    2  N1  UNL     1      54.205 -26.670   9.283  1.00  0.00    -0.344 N 
ATOM      3  H1  UNL     1      55.125 -26.863   9.679  1.00  0.00     0.167 HD
HETATM    4  C4  UNL     1      53.293 -25.836   9.817  1.00  0.00     0.033 A 
HETATM    5  C5  UNL     1      53.480 -25.074  11.059  1.00  0.00     0.070 C 
HETATM    6  C6  UNL     1      52.177 -25.849   8.979  1.00  0.00     0.054 A 
HETATM    7  N4  UNL     1      52.497 -26.701   7.980  1.00  0.00    -0.341 N 
ATOM      8  H4  UNL     1      51.884 -26.929   7.198  1.00  0.00     0.167 HD
ENDROOT
BRANCH   6   9
HETATM    9  C7  UNL     1      51.061 -25.193   9.103  1.00  0.00     0.043 C 
BRANCH   9  10
HETATM   10  C8  UNL     1      50.193 -25.127  10.278  1.00  0.00     0.371 C 
BRANCH  10  11
HETATM   11  N2  UNL     1      49.250 -26.240  10.335  1.00  0.00     0.102 N 
HETATM   12  C9  UNL     1      49.683 -27.300  11.187  1.00  0.00     0.389 C 
HETATM   13  O1  UNL     1      48.047 -25.793  10.819  1.00  0.00    -0.043 OA
BRANCH  11  14
HETATM   14  N3  UNL     1      48.985 -26.762   9.063  1.00  0.00    -0.211 N 
ATOM     15  H32 UNL     1      49.675 -27.273   8.513  1.00  0.00     0.192 HD
ATOM     16  H31 UNL     1      48.029 -26.567   8.766  1.00  0.00     0.192 HD
ENDBRANCH  11  14
ENDBRANCH  10  11
ENDBRANCH   9  10
ENDBRANCH   6   9
BRANCH   1  17
HETATM   17  C2  UNL     1      54.361 -28.084   7.350  1.00  0.00     0.017 C 
HETATM   18  C1  UNL     1      55.535 -28.839   7.777  1.00  0.00     0.040 C 
ENDBRANCH   1  17
TORSDOF 5
ENDMDL
