MODEL 1
REMARK VINA RESULT: -5.475817089      0.000      0.000
REMARK  2 active torsions:
REMARK  status: ('A' for Active; 'I' for Inactive)
REMARK    1  A    between atoms: N2_5  and  C4_6 
REMARK    2  A    between atoms: C4_6  and  C5_7 
ROOT
HETATM    1  C5  UNL     1      52.179 -25.482   9.477  1.00  0.00     0.060 A 
HETATM    2  C6  UNL     1      52.479 -26.354   8.459  1.00  0.00     0.133 A 
HETATM    3  N3  UNL     1      51.775 -26.038   7.351  1.00  0.00    -0.200 N 
ATOM      4  H3  UNL     1      51.806 -26.520   6.453  1.00  0.00     0.183 HD
HETATM    5  C7  UNL     1      51.023 -24.961   7.660  1.00  0.00     0.676 A 
HETATM    6  N4  UNL     1      50.216 -24.374   6.843  1.00  0.00    -0.234 N 
ATOM      7  H41 UNL     1      49.648 -23.560   7.077  1.00  0.00     0.174 HD
ATOM      8  H42 UNL     1      50.025 -24.620   5.872  1.00  0.00     0.174 HD
HETATM    9  N5  UNL     1      51.277 -24.634   8.952  1.00  0.00    -0.193 N 
ATOM     10  H5  UNL     1      50.846 -23.856   9.454  1.00  0.00     0.184 HD
ENDROOT
BRANCH   1  11
HETATM   11  C4  UNL     1      52.751 -25.506  10.847  1.00  0.00     0.188 C 
BRANCH  11  12
HETATM   12  N2  UNL     1      51.905 -26.201  11.781  1.00  0.00    -0.346 N 
HETATM   13  C3  UNL     1      52.013 -26.173  13.119  1.00  0.00     0.109 A 
HETATM   14  C2  UNL     1      51.037 -26.954  13.675  1.00  0.00     0.108 A 
HETATM   15  N1  UNL     1      50.327 -27.462  12.669  1.00  0.00    -0.356 N 
HETATM   16  C1  UNL     1      49.171 -28.360  12.738  1.00  0.00     0.156 C 
HETATM   17  C8  UNL     1      50.865 -26.995  11.507  1.00  0.00     0.185 A 
ENDBRANCH  11  12
ENDBRANCH   1  11
TORSDOF 2
ENDMDL
MODEL 2
REMARK VINA RESULT: -5.342862100      1.204      1.704
REMARK  2 active torsions:
REMARK  status: ('A' for Active; 'I' for Inactive)
REMARK    1  A    between atoms: N2_5  and  C4_6 
REMARK    2  A    between atoms: C4_6  and  C5_7 
ROOT
HETATM    1  C5  UNL     1      51.544 -25.823   9.335  1.00  0.00     0.060 A 
HETATM    2  C6  UNL     1      52.608 -26.560   8.880  1.00  0.00     0.133 A 
HETATM    3  N3  UNL     1      52.556 -26.675   7.535  1.00  0.00    -0.200 N 
ATOM      4  H3  UNL     1      53.221 -27.169   6.941  1.00  0.00     0.183 HD
HETATM    5  C7  UNL     1      51.455 -26.009   7.129  1.00  0.00     0.676 A 
HETATM    6  N4  UNL     1      51.077 -25.900   5.901  1.00  0.00    -0.234 N 
ATOM      7  H41 UNL     1      50.245 -25.397   5.594  1.00  0.00     0.174 HD
ATOM      8  H42 UNL     1      51.532 -26.285   5.073  1.00  0.00     0.174 HD
HETATM    9  N5  UNL     1      50.849 -25.496   8.230  1.00  0.00    -0.193 N 
ATOM     10  H5  UNL     1      49.992 -24.944   8.221  1.00  0.00     0.184 HD
ENDROOT
BRANCH   1  11
HETATM   11  C4  UNL     1      51.257 -25.481  10.752  1.00  0.00     0.188 C 
BRANCH  11  12
HETATM   12  N2  UNL     1      50.599 -26.553  11.451  1.00  0.00    -0.346 N 
HETATM   13  C3  UNL     1      49.655 -27.364  10.947  1.00  0.00     0.109 A 
HETATM   14  C2  UNL     1      49.262 -28.261  11.903  1.00  0.00     0.108 A 
HETATM   15  N1  UNL     1      49.972 -27.995  12.998  1.00  0.00    -0.356 N 
HETATM   16  C1  UNL     1      49.922 -28.674  14.297  1.00  0.00     0.156 C 
HETATM   17  C8  UNL     1      50.791 -26.945  12.715  1.00  0.00     0.185 A 
ENDBRANCH  11  12
ENDBRANCH   1  11
TORSDOF 2
ENDMDL
MODEL 3
REMARK VINA RESULT: -5.198643737      1.279      1.930
REMARK  2 active torsions:
REMARK  status: ('A' for Active; 'I' for Inactive)
REMARK    1  A    between atoms: N2_5  and  C4_6 
REMARK    2  A    between atoms: C4_6  and  C5_7 
ROOT
HETATM    1  C5  UNL     1      51.312 -25.576   9.371  1.00  0.00     0.060 A 
HETATM    2  C6  UNL     1      51.014 -24.447   8.649  1.00  0.00     0.133 A 
HETATM    3  N3  UNL     1      50.878 -24.753   7.340  1.00  0.00    -0.200 N 
ATOM      4  H3  UNL     1      50.658 -24.104   6.585  1.00  0.00     0.183 HD
HETATM    5  C7  UNL     1      51.089 -26.080   7.225  1.00  0.00     0.676 A 
HETATM    6  N4  UNL     1      51.041 -26.735   6.115  1.00  0.00    -0.234 N 
ATOM      7  H41 UNL     1      51.201 -27.738   6.028  1.00  0.00     0.174 HD
ATOM      8  H42 UNL     1      50.844 -26.368   5.184  1.00  0.00     0.174 HD
HETATM    9  N5  UNL     1      51.351 -26.569   8.464  1.00  0.00    -0.193 N 
ATOM     10  H5  UNL     1      51.549 -27.547   8.676  1.00  0.00     0.184 HD
ENDROOT
BRANCH   1  11
HETATM   11  C4  UNL     1      51.534 -25.644  10.838  1.00  0.00     0.188 C 
BRANCH  11  12
HETATM   12  N2  UNL     1      50.600 -26.520  11.493  1.00  0.00    -0.346 N 
HETATM   13  C3  UNL     1      49.307 -26.683  11.171  1.00  0.00     0.109 A 
HETATM   14  C2  UNL     1      48.735 -27.596  12.014  1.00  0.00     0.108 A 
HETATM   15  N1  UNL     1      49.686 -27.994  12.858  1.00  0.00    -0.356 N 
HETATM   16  C1  UNL     1      49.580 -28.965  13.951  1.00  0.00     0.156 C 
HETATM   17  C8  UNL     1      50.830 -27.330  12.533  1.00  0.00     0.185 A 
ENDBRANCH  11  12
ENDBRANCH   1  11
TORSDOF 2
ENDMDL
MODEL 4
REMARK VINA RESULT: -5.099658074      1.817      5.490
REMARK  2 active torsions:
REMARK  status: ('A' for Active; 'I' for Inactive)
REMARK    1  A    between atoms: N2_5  and  C4_6 
REMARK    2  A    between atoms: C4_6  and  C5_7 
ROOT
HETATM    1  C5  UNL     1      49.493 -27.551  12.287  1.00  0.00     0.060 A 
HETATM    2  C6  UNL     1      49.155 -28.809  12.720  1.00  0.00     0.133 A 
HETATM    3  N3  UNL     1      49.691 -29.044  13.937  1.00  0.00    -0.200 N 
ATOM      4  H3  UNL     1      49.598 -29.897  14.487  1.00  0.00     0.183 HD
HETATM    5  C7  UNL     1      50.374 -27.934  14.284  1.00  0.00     0.676 A 
HETATM    6  N4  UNL     1      51.022 -27.789  15.389  1.00  0.00    -0.234 N 
ATOM      7  H41 UNL     1      51.538 -26.949  15.651  1.00  0.00     0.174 HD
ATOM      8  H42 UNL     1      51.119 -28.464  16.148  1.00  0.00     0.174 HD
HETATM    9  N5  UNL     1      50.246 -27.035  13.275  1.00  0.00    -0.193 N 
ATOM     10  H5  UNL     1      50.661 -26.102  13.267  1.00  0.00     0.184 HD
ENDROOT
BRANCH   1  11
HETATM   11  C4  UNL     1      49.091 -26.931  10.999  1.00  0.00     0.188 C 
BRANCH  11  12
HETATM   12  N2  UNL     1      50.221 -26.465  10.240  1.00  0.00    -0.346 N 
HETATM   13  C3  UNL     1      50.687 -25.206  10.205  1.00  0.00     0.109 A 
HETATM   14  C2  UNL     1      51.773 -25.141   9.375  1.00  0.00     0.108 A 
HETATM   15  N1  UNL     1      51.971 -26.370   8.900  1.00  0.00    -0.356 N 
HETATM   16  C1  UNL     1      53.011 -26.825   7.972  1.00  0.00     0.156 C 
HETATM   17  C8  UNL     1      51.015 -27.179   9.435  1.00  0.00     0.185 A 
ENDBRANCH  11  12
ENDBRANCH   1  11
TORSDOF 2
ENDMDL
MODEL 5
REMARK VINA RESULT: -5.055788357      1.909      2.811
REMARK  2 active torsions:
REMARK  status: ('A' for Active; 'I' for Inactive)
REMARK    1  A    between atoms: N2_5  and  C4_6 
REMARK    2  A    between atoms: C4_6  and  C5_7 
ROOT
HETATM    1  C5  UNL     1      52.446 -25.992   8.817  1.00  0.00     0.060 A 
HETATM    2  C6  UNL     1      52.097 -26.417   7.559  1.00  0.00     0.133 A 
HETATM    3  N3  UNL     1      53.034 -27.262   7.076  1.00  0.00    -0.200 N 
ATOM      4  H3  UNL     1      53.025 -27.723   6.167  1.00  0.00     0.183 HD
HETATM    5  C7  UNL     1      53.984 -27.377   8.027  1.00  0.00     0.676 A 
HETATM    6  N4  UNL     1      55.042 -28.106   7.920  1.00  0.00    -0.234 N 
ATOM      7  H41 UNL     1      55.760 -28.193   8.639  1.00  0.00     0.174 HD
ATOM      8  H42 UNL     1      55.319 -28.689   7.130  1.00  0.00     0.174 HD
HETATM    9  N5  UNL     1      53.616 -26.602   9.079  1.00  0.00    -0.193 N 
ATOM     10  H5  UNL     1      54.149 -26.497   9.942  1.00  0.00     0.184 HD
ENDROOT
BRANCH   1  11
HETATM   11  C4  UNL     1      51.668 -25.058   9.672  1.00  0.00     0.188 C 
BRANCH  11  12
HETATM   12  N2  UNL     1      50.633 -25.728  10.413  1.00  0.00    -0.346 N 
HETATM   13  C3  UNL     1      49.332 -25.399  10.430  1.00  0.00     0.109 A 
HETATM   14  C2  UNL     1      48.651 -26.260  11.247  1.00  0.00     0.108 A 
HETATM   15  N1  UNL     1      49.543 -27.121  11.732  1.00  0.00    -0.356 N 
HETATM   16  C1  UNL     1      49.315 -28.239  12.653  1.00  0.00     0.156 C 
HETATM   17  C8  UNL     1      50.760 -26.790  11.216  1.00  0.00     0.185 A 
ENDBRANCH  11  12
ENDBRANCH   1  11
TORSDOF 2
ENDMDL
