MODEL 1
REMARK VINA RESULT: -6.002230453      0.000      0.000
REMARK  5 active torsions:
REMARK  status: ('A' for Active; 'I' for Inactive)
REMARK    1  A    between atoms: C2_2  and  C3_3 
REMARK    2  A    between atoms: C3_3  and  C4_4 
REMARK    3  A    between atoms: C5_5  and  N1_6 
REMARK    4  A    between atoms: N1_6  and  O1_8 
REMARK    5  A    between atoms: C8_15  and  N4_16 
ROOT
HETATM    1  C4  UNL     1      50.676 -26.188  10.721  1.00  0.00     0.049 A 
HETATM    2  C5  UNL     1      50.607 -26.124   9.362  1.00  0.00     0.139 A 
HETATM    3  N2  UNL     1      51.665 -25.827   8.582  1.00  0.00    -0.332 N 
HETATM    4  C6  UNL     1      51.511 -25.772   7.152  1.00  0.00     0.158 C 
HETATM    5  C7  UNL     1      52.821 -25.593   9.219  1.00  0.00     0.186 A 
HETATM    6  N3  UNL     1      52.972 -25.638  10.535  1.00  0.00    -0.327 N 
ATOM      7  H3  UNL     1      53.884 -25.450  10.951  1.00  0.00     0.169 HD
HETATM    8  C8  UNL     1      51.882 -25.944  11.348  1.00  0.00     0.188 A 
ENDROOT
BRANCH   2   9
HETATM    9  N1  UNL     1      49.401 -26.429   8.710  1.00  0.00    -0.252 N 
ATOM     10  H1  UNL     1      49.149 -27.312   8.264  1.00  0.00     0.196 HD
BRANCH   9  11
HETATM   11  O1  UNL     1      48.621 -25.284   8.798  1.00  0.00    -0.288 OA
ATOM     12  H1  UNL     1      48.070 -25.284   8.023  1.00  0.00     0.244 HD
ENDBRANCH   9  11
ENDBRANCH   2   9
BRANCH   1  13
HETATM   13  C3  UNL     1      49.480 -26.448  11.530  1.00  0.00     0.074 C 
BRANCH  13  14
HETATM   14  C2  UNL     1      49.369 -27.933  11.660  1.00  0.00    -0.032 C 
HETATM   15  C1  UNL     1      49.401 -28.557  12.826  1.00  0.00     0.007 C 
ENDBRANCH  13  14
ENDBRANCH   1  13
BRANCH   8  16
HETATM   16  N4  UNL     1      52.056 -26.002  12.538  1.00  0.00    -0.410 NA
HETATM   17  C9  UNL     1      52.021 -26.400  13.806  1.00  0.00     0.231 C 
ENDBRANCH   8  16
TORSDOF 5
ENDMDL
MODEL 2
REMARK VINA RESULT: -5.668976671      1.860      4.697
REMARK  5 active torsions:
REMARK  status: ('A' for Active; 'I' for Inactive)
REMARK    1  A    between atoms: C2_2  and  C3_3 
REMARK    2  A    between atoms: C3_3  and  C4_4 
REMARK    3  A    between atoms: C5_5  and  N1_6 
REMARK    4  A    between atoms: N1_6  and  O1_8 
REMARK    5  A    between atoms: C8_15  and  N4_16 
ROOT
HETATM    1  C4  UNL     1      51.597 -26.023   9.969  1.00  0.00     0.049 A 
HETATM    2  C5  UNL     1      51.367 -26.511  11.220  1.00  0.00     0.139 A 
HETATM    3  N2  UNL     1      50.226 -27.136  11.570  1.00  0.00    -0.332 N 
HETATM    4  C6  UNL     1      50.054 -27.618  12.915  1.00  0.00     0.158 C 
HETATM    5  C7  UNL     1      49.301 -27.261  10.607  1.00  0.00     0.186 A 
HETATM    6  N3  UNL     1      49.449 -26.818   9.367  1.00  0.00    -0.327 N 
ATOM      7  H3  UNL     1      48.702 -26.951   8.684  1.00  0.00     0.169 HD
HETATM    8  C8  UNL     1      50.626 -26.170   8.997  1.00  0.00     0.188 A 
ENDROOT
BRANCH   2   9
HETATM    9  N1  UNL     1      52.370 -26.420  12.199  1.00  0.00    -0.252 N 
ATOM     10  H1  UNL     1      53.021 -27.153  12.481  1.00  0.00     0.196 HD
BRANCH   9  11
HETATM   11  O1  UNL     1      52.294 -25.129  12.703  1.00  0.00    -0.288 OA
ATOM     12  H1  UNL     1      51.508 -25.103  13.236  1.00  0.00     0.244 HD
ENDBRANCH   9  11
ENDBRANCH   2   9
BRANCH   1  13
HETATM   13  C3  UNL     1      52.828 -25.289   9.656  1.00  0.00     0.074 C 
BRANCH  13  14
HETATM   14  C2  UNL     1      53.895 -26.316   9.452  1.00  0.00    -0.032 C 
HETATM   15  C1  UNL     1      53.879 -27.181   8.452  1.00  0.00     0.007 C 
ENDBRANCH  13  14
ENDBRANCH   1  13
BRANCH   8  16
HETATM   16  N4  UNL     1      50.741 -25.800   7.857  1.00  0.00    -0.410 NA
HETATM   17  C9  UNL     1      51.058 -25.750   6.567  1.00  0.00     0.231 C 
ENDBRANCH   8  16
TORSDOF 5
ENDMDL
MODEL 3
REMARK VINA RESULT: -5.209792897      1.283      1.481
REMARK  5 active torsions:
REMARK  status: ('A' for Active; 'I' for Inactive)
REMARK    1  A    between atoms: C2_2  and  C3_3 
REMARK    2  A    between atoms: C3_3  and  C4_4 
REMARK    3  A    between atoms: C5_5  and  N1_6 
REMARK    4  A    between atoms: N1_6  and  O1_8 
REMARK    5  A    between atoms: C8_15  and  N4_16 
ROOT
HETATM    1  C4  UNL     1      50.988 -25.416   9.882  1.00  0.00     0.049 A 
HETATM    2  C5  UNL     1      50.915 -25.601   8.534  1.00  0.00     0.139 A 
HETATM    3  N2  UNL     1      51.925 -26.111   7.803  1.00  0.00    -0.332 N 
HETATM    4  C6  UNL     1      51.775 -26.270   6.381  1.00  0.00     0.158 C 
HETATM    5  C7  UNL     1      53.036 -26.440   8.479  1.00  0.00     0.186 A 
HETATM    6  N3  UNL     1      53.185 -26.294   9.788  1.00  0.00    -0.327 N 
ATOM      7  H3  UNL     1      54.059 -26.568  10.236  1.00  0.00     0.169 HD
HETATM    8  C8  UNL     1      52.144 -25.767  10.550  1.00  0.00     0.188 A 
ENDROOT
BRANCH   2   9
HETATM    9  N1  UNL     1      49.723 -25.304   7.852  1.00  0.00    -0.252 N 
ATOM     10  H1  UNL     1      48.830 -25.792   7.935  1.00  0.00     0.196 HD
BRANCH   9  11
HETATM   11  O1  UNL     1      50.008 -24.212   7.044  1.00  0.00    -0.288 OA
ATOM     12  H1  UNL     1      50.321 -24.572   6.222  1.00  0.00     0.244 HD
ENDBRANCH   9  11
ENDBRANCH   2   9
BRANCH   1  13
HETATM   13  C3  UNL     1      49.885 -24.792  10.621  1.00  0.00     0.074 C 
BRANCH  13  14
HETATM   14  C2  UNL     1      48.847 -25.851  10.810  1.00  0.00    -0.032 C 
HETATM   15  C1  UNL     1      49.038 -26.920  11.564  1.00  0.00     0.007 C 
ENDBRANCH  13  14
ENDBRANCH   1  13
BRANCH   8  16
HETATM   16  N4  UNL     1      52.300 -25.669  11.740  1.00  0.00    -0.410 NA
HETATM   17  C9  UNL     1      52.439 -25.966  13.028  1.00  0.00     0.231 C 
ENDBRANCH   8  16
TORSDOF 5
ENDMDL
MODEL 4
REMARK VINA RESULT: -4.770577491      1.374      1.786
REMARK  5 active torsions:
REMARK  status: ('A' for Active; 'I' for Inactive)
REMARK    1  A    between atoms: C2_2  and  C3_3 
REMARK    2  A    between atoms: C3_3  and  C4_4 
REMARK    3  A    between atoms: C5_5  and  N1_6 
REMARK    4  A    between atoms: N1_6  and  O1_8 
REMARK    5  A    between atoms: C8_15  and  N4_16 
ROOT
HETATM    1  C4  UNL     1      50.543 -26.625  11.798  1.00  0.00     0.049 A 
HETATM    2  C5  UNL     1      50.955 -26.161  10.585  1.00  0.00     0.139 A 
HETATM    3  N2  UNL     1      52.141 -25.551  10.392  1.00  0.00    -0.332 N 
HETATM    4  C6  UNL     1      52.503 -25.082   9.081  1.00  0.00     0.158 C 
HETATM    5  C7  UNL     1      52.919 -25.417  11.476  1.00  0.00     0.186 A 
HETATM    6  N3  UNL     1      52.593 -25.842  12.687  1.00  0.00    -0.327 N 
ATOM      7  H3  UNL     1      53.237 -25.708  13.467  1.00  0.00     0.169 HD
HETATM    8  C8  UNL     1      51.368 -26.475  12.895  1.00  0.00     0.188 A 
ENDROOT
BRANCH   2   9
HETATM    9  N1  UNL     1      50.151 -26.363   9.451  1.00  0.00    -0.252 N 
ATOM     10  H1  UNL     1      49.374 -25.780   9.137  1.00  0.00     0.196 HD
BRANCH   9  11
HETATM   11  O1  UNL     1      50.629 -27.517   8.846  1.00  0.00    -0.288 OA
ATOM     12  H1  UNL     1      51.553 -27.365   8.688  1.00  0.00     0.244 HD
ENDBRANCH   9  11
ENDBRANCH   2   9
BRANCH   1  13
HETATM   13  C3  UNL     1      49.213 -27.222  11.969  1.00  0.00     0.074 C 
BRANCH  13  14
HETATM   14  C2  UNL     1      49.425 -28.691  12.135  1.00  0.00    -0.032 C 
HETATM   15  C1  UNL     1      49.032 -29.358  13.208  1.00  0.00     0.007 C 
ENDBRANCH  13  14
ENDBRANCH   1  13
BRANCH   8  16
HETATM   16  N4  UNL     1      51.110 -26.872  14.002  1.00  0.00    -0.410 NA
HETATM   17  C9  UNL     1      51.226 -27.247  15.272  1.00  0.00     0.231 C 
ENDBRANCH   8  16
TORSDOF 5
ENDMDL
MODEL 5
REMARK VINA RESULT: -4.632717330      1.699      2.848
REMARK  5 active torsions:
REMARK  status: ('A' for Active; 'I' for Inactive)
REMARK    1  A    between atoms: C2_2  and  C3_3 
REMARK    2  A    between atoms: C3_3  and  C4_4 
REMARK    3  A    between atoms: C5_5  and  N1_6 
REMARK    4  A    between atoms: N1_6  and  O1_8 
REMARK    5  A    between atoms: C8_15  and  N4_16 
ROOT
HETATM    1  C4  UNL     1      50.757 -26.843  10.763  1.00  0.00     0.049 A 
HETATM    2  C5  UNL     1      51.791 -26.088  10.295  1.00  0.00     0.139 A 
HETATM    3  N2  UNL     1      52.767 -25.602  11.085  1.00  0.00    -0.332 N 
HETATM    4  C6  UNL     1      53.823 -24.806  10.518  1.00  0.00     0.158 C 
HETATM    5  C7  UNL     1      52.676 -25.902  12.389  1.00  0.00     0.186 A 
HETATM    6  N3  UNL     1      51.707 -26.631  12.922  1.00  0.00    -0.327 N 
ATOM      7  H3  UNL     1      51.702 -26.822  13.925  1.00  0.00     0.169 HD
HETATM    8  C8  UNL     1      50.693 -27.138  12.111  1.00  0.00     0.188 A 
ENDROOT
BRANCH   2   9
HETATM    9  N1  UNL     1      51.900 -25.833   8.918  1.00  0.00    -0.252 N 
ATOM     10  H1  UNL     1      52.251 -26.468   8.201  1.00  0.00     0.196 HD
BRANCH   9  11
HETATM   11  O1  UNL     1      51.431 -24.539   8.733  1.00  0.00    -0.288 OA
ATOM     12  H1  UNL     1      52.103 -24.088   8.234  1.00  0.00     0.244 HD
ENDBRANCH   9  11
ENDBRANCH   2   9
BRANCH   1  13
HETATM   13  C3  UNL     1      49.682 -27.291   9.871  1.00  0.00     0.074 C 
BRANCH  13  14
HETATM   14  C2  UNL     1      48.745 -26.136   9.720  1.00  0.00    -0.032 C 
HETATM   15  C1  UNL     1      48.189 -25.521  10.750  1.00  0.00     0.007 C 
ENDBRANCH  13  14
ENDBRANCH   1  13
BRANCH   8  16
HETATM   16  N4  UNL     1      49.838 -27.816  12.620  1.00  0.00    -0.410 NA
HETATM   17  C9  UNL     1      49.174 -28.856  13.115  1.00  0.00     0.231 C 
ENDBRANCH   8  16
TORSDOF 5
ENDMDL
