MODEL 1
REMARK VINA RESULT: -6.928884848      0.000      0.000
REMARK  5 active torsions:
REMARK  status: ('A' for Active; 'I' for Inactive)
REMARK    1  A    between atoms: C3_5  and  N2_6 
REMARK    2  A    between atoms: N3_9  and  O1_10 
REMARK    3  A    between atoms: C6_14  and  C7_15 
REMARK    4  A    between atoms: C7_15  and  C8_16 
REMARK    5  A    between atoms: N4_17  and  O2_19 
ROOT
HETATM    1  C1  UNL     1      53.697 -25.222  10.521  1.00  0.00     0.069 C 
HETATM    2  C2  UNL     1      52.371 -25.774  10.857  1.00  0.00     0.031 A 
HETATM    3  N1  UNL     1      52.136 -26.269  12.110  1.00  0.00    -0.194 N 
ATOM      4  H1  UNL     1      52.880 -26.237  12.806  1.00  0.00     0.184 HD
HETATM    5  C3  UNL     1      50.948 -26.794  12.444  1.00  0.00     0.702 A 
HETATM    6  N3  UNL     1      49.978 -26.832  11.522  1.00  0.00    -0.057 N 
HETATM    7  C4  UNL     1      50.160 -26.353  10.261  1.00  0.00     0.063 A 
HETATM    8  C5  UNL     1      49.051 -26.430   9.341  1.00  0.00     0.072 C 
HETATM    9  C6  UNL     1      51.369 -25.814   9.913  1.00  0.00    -0.005 A 
ENDROOT
BRANCH   9  10
HETATM   10  C7  UNL     1      51.573 -25.278   8.588  1.00  0.00     0.089 C 
BRANCH  10  11
HETATM   11  C8  UNL     1      52.080 -26.403   7.714  1.00  0.00     0.091 C 
HETATM   12  N4  UNL     1      51.716 -26.503   6.486  1.00  0.00    -0.284 N 
ATOM     13  H4  UNL     1      52.064 -27.264   5.903  1.00  0.00     0.192 HD
BRANCH  12  14
HETATM   14  O2  UNL     1      50.853 -25.571   5.971  1.00  0.00    -0.291 OA
ATOM     15  H2  UNL     1      51.153 -25.001   5.273  1.00  0.00     0.244 HD
ENDBRANCH  12  14
ENDBRANCH  10  11
ENDBRANCH   9  10
BRANCH   6  16
HETATM   16  O1  UNL     1      48.774 -27.378  11.906  1.00  0.00    -0.269 OA
ATOM     17  H1  UNL     1      48.317 -26.954  12.622  1.00  0.00     0.245 HD
ENDBRANCH   6  16
BRANCH   5  18
HETATM   18  N2  UNL     1      50.800 -27.241  13.646  1.00  0.00    -0.232 N 
ATOM     19  H22 UNL     1      51.581 -27.402  14.282  1.00  0.00     0.174 HD
ATOM     20  H21 UNL     1      49.853 -27.439  13.969  1.00  0.00     0.174 HD
ENDBRANCH   5  18
TORSDOF 5
ENDMDL
MODEL 2
REMARK VINA RESULT: -6.636864330      1.225      2.559
REMARK  5 active torsions:
REMARK  status: ('A' for Active; 'I' for Inactive)
REMARK    1  A    between atoms: C3_5  and  N2_6 
REMARK    2  A    between atoms: N3_9  and  O1_10 
REMARK    3  A    between atoms: C6_14  and  C7_15 
REMARK    4  A    between atoms: C7_15  and  C8_16 
REMARK    5  A    between atoms: N4_17  and  O2_19 
ROOT
HETATM    1  C1  UNL     1      48.910 -26.466   9.353  1.00  0.00     0.069 C 
HETATM    2  C2  UNL     1      50.037 -26.409  10.302  1.00  0.00     0.031 A 
HETATM    3  N1  UNL     1      49.888 -26.906  11.567  1.00  0.00    -0.194 N 
ATOM      4  H1  UNL     1      48.998 -27.325  11.836  1.00  0.00     0.184 HD
HETATM    5  C3  UNL     1      50.885 -26.855  12.462  1.00  0.00     0.702 A 
HETATM    6  N3  UNL     1      52.049 -26.301  12.099  1.00  0.00    -0.057 N 
HETATM    7  C4  UNL     1      52.250 -25.792  10.852  1.00  0.00     0.063 A 
HETATM    8  C5  UNL     1      53.541 -25.224  10.553  1.00  0.00     0.072 C 
HETATM    9  C6  UNL     1      51.237 -25.842   9.933  1.00  0.00    -0.005 A 
ENDROOT
BRANCH   9  10
HETATM   10  C7  UNL     1      51.438 -25.330   8.599  1.00  0.00     0.089 C 
BRANCH  10  11
HETATM   11  C8  UNL     1      51.981 -26.459   7.753  1.00  0.00     0.091 C 
HETATM   12  N4  UNL     1      51.698 -26.545   6.503  1.00  0.00    -0.284 N 
ATOM     13  H4  UNL     1      52.070 -27.310   5.939  1.00  0.00     0.192 HD
BRANCH  12  14
HETATM   14  O2  UNL     1      50.889 -25.594   5.937  1.00  0.00    -0.291 OA
ATOM     15  H2  UNL     1      50.083 -25.353   6.379  1.00  0.00     0.244 HD
ENDBRANCH  12  14
ENDBRANCH  10  11
ENDBRANCH   9  10
BRANCH   6  16
HETATM   16  O1  UNL     1      53.047 -26.269  13.046  1.00  0.00    -0.269 OA
ATOM     17  H1  UNL     1      53.523 -25.452  13.143  1.00  0.00     0.245 HD
ENDBRANCH   6  16
BRANCH   5  18
HETATM   18  N2  UNL     1      50.671 -27.344  13.637  1.00  0.00    -0.232 N 
ATOM     19  H22 UNL     1      51.153 -28.169  13.995  1.00  0.00     0.174 HD
ATOM     20  H21 UNL     1      49.986 -26.878  14.232  1.00  0.00     0.174 HD
ENDBRANCH   5  18
TORSDOF 5
ENDMDL
MODEL 3
REMARK VINA RESULT: -6.066537336      1.967      4.543
REMARK  5 active torsions:
REMARK  status: ('A' for Active; 'I' for Inactive)
REMARK    1  A    between atoms: C3_5  and  N2_6 
REMARK    2  A    between atoms: N3_9  and  O1_10 
REMARK    3  A    between atoms: C6_14  and  C7_15 
REMARK    4  A    between atoms: C7_15  and  C8_16 
REMARK    5  A    between atoms: N4_17  and  O2_19 
ROOT
HETATM    1  C1  UNL     1      53.640 -25.719  10.318  1.00  0.00     0.069 C 
HETATM    2  C2  UNL     1      52.247 -25.541   9.870  1.00  0.00     0.031 A 
HETATM    3  N1  UNL     1      51.989 -25.145   8.587  1.00  0.00    -0.194 N 
ATOM      4  H1  UNL     1      52.768 -24.990   7.947  1.00  0.00     0.184 HD
HETATM    5  C3  UNL     1      50.735 -24.956   8.151  1.00  0.00     0.702 A 
HETATM    6  N3  UNL     1      49.719 -25.160   8.999  1.00  0.00    -0.057 N 
HETATM    7  C4  UNL     1      49.921 -25.555  10.285  1.00  0.00     0.063 A 
HETATM    8  C5  UNL     1      48.763 -25.758  11.121  1.00  0.00     0.072 C 
HETATM    9  C6  UNL     1      51.198 -25.751  10.738  1.00  0.00    -0.005 A 
ENDROOT
BRANCH   9  10
HETATM   10  C7  UNL     1      51.431 -26.194  12.092  1.00  0.00     0.089 C 
BRANCH  10  11
HETATM   11  C8  UNL     1      50.545 -27.393  12.341  1.00  0.00     0.091 C 
HETATM   12  N4  UNL     1      50.371 -27.854  13.527  1.00  0.00    -0.284 N 
ATOM     13  H4  UNL     1      49.771 -28.662  13.686  1.00  0.00     0.192 HD
BRANCH  12  14
HETATM   14  O2  UNL     1      51.006 -27.242  14.577  1.00  0.00    -0.291 OA
ATOM     15  H2  UNL     1      51.442 -27.780  15.228  1.00  0.00     0.244 HD
ENDBRANCH  12  14
ENDBRANCH  10  11
ENDBRANCH   9  10
BRANCH   6  16
HETATM   16  O1  UNL     1      48.449 -24.956   8.512  1.00  0.00    -0.269 OA
ATOM     17  H1  UNL     1      48.100 -25.618   7.927  1.00  0.00     0.245 HD
ENDBRANCH   6  16
BRANCH   5  18
HETATM   18  N2  UNL     1      50.570 -24.582   6.926  1.00  0.00    -0.232 N 
ATOM     19  H22 UNL     1      50.437 -23.608   6.652  1.00  0.00     0.174 HD
ATOM     20  H21 UNL     1      50.574 -25.300   6.202  1.00  0.00     0.174 HD
ENDBRANCH   5  18
TORSDOF 5
ENDMDL
MODEL 4
REMARK VINA RESULT: -5.969070782      1.620      2.768
REMARK  5 active torsions:
REMARK  status: ('A' for Active; 'I' for Inactive)
REMARK    1  A    between atoms: C3_5  and  N2_6 
REMARK    2  A    between atoms: N3_9  and  O1_10 
REMARK    3  A    between atoms: C6_14  and  C7_15 
REMARK    4  A    between atoms: C7_15  and  C8_16 
REMARK    5  A    between atoms: N4_17  and  O2_19 
ROOT
HETATM    1  C1  UNL     1      48.660 -27.383  10.032  1.00  0.00     0.069 C 
HETATM    2  C2  UNL     1      49.914 -26.975  10.692  1.00  0.00     0.031 A 
HETATM    3  N1  UNL     1      50.029 -27.063  12.052  1.00  0.00    -0.194 N 
ATOM      4  H1  UNL     1      49.246 -27.424  12.595  1.00  0.00     0.184 HD
HETATM    5  C3  UNL     1      51.148 -26.684  12.685  1.00  0.00     0.702 A 
HETATM    6  N3  UNL     1      52.170 -26.209  11.962  1.00  0.00    -0.057 N 
HETATM    7  C4  UNL     1      52.107 -26.102  10.607  1.00  0.00     0.063 A 
HETATM    8  C5  UNL     1      53.263 -25.587   9.914  1.00  0.00     0.072 C 
HETATM    9  C6  UNL     1      50.969 -26.488   9.952  1.00  0.00    -0.005 A 
ENDROOT
BRANCH   9  10
HETATM   10  C7  UNL     1      50.892 -26.405   8.513  1.00  0.00     0.089 C 
BRANCH  10  11
HETATM   11  C8  UNL     1      50.533 -24.980   8.155  1.00  0.00     0.091 C 
HETATM   12  N4  UNL     1      50.543 -24.581   6.934  1.00  0.00    -0.284 N 
ATOM     13  H4  UNL     1      50.299 -23.619   6.702  1.00  0.00     0.192 HD
BRANCH  12  14
HETATM   14  O2  UNL     1      50.887 -25.469   5.948  1.00  0.00    -0.291 OA
ATOM     15  H2  UNL     1      50.200 -25.859   5.420  1.00  0.00     0.244 HD
ENDBRANCH  12  14
ENDBRANCH  10  11
ENDBRANCH   9  10
BRANCH   6  16
HETATM   16  O1  UNL     1      53.300 -25.832  12.651  1.00  0.00    -0.269 OA
ATOM     17  H1  UNL     1      54.128 -25.899  12.190  1.00  0.00     0.245 HD
ENDBRANCH   6  16
BRANCH   5  18
HETATM   18  N2  UNL     1      51.183 -26.795  13.971  1.00  0.00    -0.232 N 
ATOM     19  H22 UNL     1      50.686 -26.166  14.601  1.00  0.00     0.174 HD
ATOM     20  H21 UNL     1      51.736 -27.554  14.370  1.00  0.00     0.174 HD
ENDBRANCH   5  18
TORSDOF 5
ENDMDL
MODEL 5
REMARK VINA RESULT: -5.570999798      1.584      2.642
REMARK  5 active torsions:
REMARK  status: ('A' for Active; 'I' for Inactive)
REMARK    1  A    between atoms: C3_5  and  N2_6 
REMARK    2  A    between atoms: N3_9  and  O1_10 
REMARK    3  A    between atoms: C6_14  and  C7_15 
REMARK    4  A    between atoms: C7_15  and  C8_16 
REMARK    5  A    between atoms: N4_17  and  O2_19 
ROOT
HETATM    1  C1  UNL     1      49.535 -26.648   8.508  1.00  0.00     0.069 C 
HETATM    2  C2  UNL     1      50.027 -26.737   9.895  1.00  0.00     0.031 A 
HETATM    3  N1  UNL     1      49.296 -27.407  10.836  1.00  0.00    -0.194 N 
ATOM      4  H1  UNL     1      48.420 -27.852  10.562  1.00  0.00     0.184 HD
HETATM    5  C3  UNL     1      49.705 -27.492  12.110  1.00  0.00     0.702 A 
HETATM    6  N3  UNL     1      50.855 -26.903  12.459  1.00  0.00    -0.057 N 
HETATM    7  C4  UNL     1      51.621 -26.224  11.562  1.00  0.00     0.063 A 
HETATM    8  C5  UNL     1      52.849 -25.631  12.031  1.00  0.00     0.072 C 
HETATM    9  C6  UNL     1      51.211 -26.134  10.259  1.00  0.00    -0.005 A 
ENDROOT
BRANCH   9  10
HETATM   10  C7  UNL     1      52.021 -25.439   9.287  1.00  0.00     0.089 C 
BRANCH  10  11
HETATM   11  C8  UNL     1      53.169 -26.350   8.913  1.00  0.00     0.091 C 
HETATM   12  N4  UNL     1      53.194 -26.953   7.779  1.00  0.00    -0.284 N 
ATOM     13  H4  UNL     1      53.972 -27.565   7.535  1.00  0.00     0.192 HD
BRANCH  12  14
HETATM   14  O2  UNL     1      52.157 -26.762   6.902  1.00  0.00    -0.291 OA
ATOM     15  H2  UNL     1      51.591 -26.008   7.015  1.00  0.00     0.244 HD
ENDBRANCH  12  14
ENDBRANCH  10  11
ENDBRANCH   9  10
BRANCH   6  16
HETATM   16  O1  UNL     1      51.239 -27.015  13.776  1.00  0.00    -0.269 OA
ATOM     17  H1  UNL     1      51.274 -26.213  14.284  1.00  0.00     0.245 HD
ENDBRANCH   6  16
BRANCH   5  18
HETATM   18  N2  UNL     1      48.962 -28.142  12.942  1.00  0.00    -0.232 N 
ATOM     19  H22 UNL     1      48.101 -27.763  13.337  1.00  0.00     0.174 HD
ATOM     20  H21 UNL     1      49.255 -29.081  13.213  1.00  0.00     0.174 HD
ENDBRANCH   5  18
TORSDOF 5
ENDMDL
