MODEL 1
REMARK VINA RESULT: -5.899051222      0.000      0.000
REMARK  4 active torsions:
REMARK  status: ('A' for Active; 'I' for Inactive)
REMARK    1  A    between atoms: C5_8  and  N3_9 
REMARK    2  A    between atoms: N3_9  and  C6_11 
REMARK    3  A    between atoms: C6_11  and  C7_12 
REMARK    4  A    between atoms: C7_12  and  N4_13 
ROOT
HETATM    1  C1  UNL     1      51.764 -24.935   8.838  1.00  0.00     0.154 C 
HETATM    2  N1  UNL     1      51.181 -25.808   9.835  1.00  0.00    -0.368 N 
HETATM    3  C2  UNL     1      50.173 -26.614   9.462  1.00  0.00     0.092 A 
HETATM    4  C3  UNL     1      49.594 -27.452  10.367  1.00  0.00     0.049 A 
HETATM    5  C4  UNL     1      50.069 -27.448  11.668  1.00  0.00     0.079 A 
HETATM    6  N2  UNL     1      49.707 -28.146  12.757  1.00  0.00    -0.190 N 
ATOM      7  H2  UNL     1      48.962 -28.843  12.781  1.00  0.00     0.184 HD
HETATM    8  C5  UNL     1      50.465 -27.798  13.809  1.00  0.00     0.679 A 
HETATM    9  N5  UNL     1      51.318 -26.860  13.358  1.00  0.00    -0.188 N 
ATOM     10  H5  UNL     1      52.028 -26.394  13.923  1.00  0.00     0.184 HD
HETATM   11  C8  UNL     1      51.093 -26.628  12.045  1.00  0.00     0.092 A 
HETATM   12  C9  UNL     1      51.651 -25.794  11.093  1.00  0.00     0.122 A 
ENDROOT
BRANCH   8  13
HETATM   13  N3  UNL     1      50.452 -28.214  15.016  1.00  0.00    -0.224 N 
ATOM     14  H3  UNL     1      50.337 -29.216  15.168  1.00  0.00     0.177 HD
BRANCH  13  15
HETATM   15  C6  UNL     1      50.589 -27.377  16.178  1.00  0.00     0.165 C 
BRANCH  15  16
HETATM   16  C7  UNL     1      51.284 -28.226  17.249  1.00  0.00     0.249 C 
BRANCH  16  17
HETATM   17  N4  UNL     1      52.672 -28.427  16.934  1.00  0.00    -0.078 N 
ATOM     18  H43 UNL     1      52.790 -29.086  16.165  1.00  0.00     0.274 HD
ATOM     19  H42 UNL     1      53.081 -27.601  16.498  1.00  0.00     0.274 HD
ATOM     20  H41 UNL     1      53.199 -28.715  17.758  1.00  0.00     0.274 HD
ENDBRANCH  16  17
ENDBRANCH  15  16
ENDBRANCH  13  15
ENDBRANCH   8  13
TORSDOF 4
ENDMDL
MODEL 2
REMARK VINA RESULT: -5.384755111      1.610      5.963
REMARK  4 active torsions:
REMARK  status: ('A' for Active; 'I' for Inactive)
REMARK    1  A    between atoms: C5_8  and  N3_9 
REMARK    2  A    between atoms: N3_9  and  C6_11 
REMARK    3  A    between atoms: C6_11  and  C7_12 
REMARK    4  A    between atoms: C7_12  and  N4_13 
ROOT
HETATM    1  C1  UNL     1      50.774 -27.864  15.895  1.00  0.00     0.154 C 
HETATM    2  N1  UNL     1      50.469 -27.862  14.480  1.00  0.00    -0.368 N 
HETATM    3  C2  UNL     1      49.625 -28.794  14.011  1.00  0.00     0.092 A 
HETATM    4  C3  UNL     1      49.310 -28.831  12.685  1.00  0.00     0.049 A 
HETATM    5  C4  UNL     1      49.879 -27.888  11.846  1.00  0.00     0.079 A 
HETATM    6  N2  UNL     1      49.763 -27.676  10.524  1.00  0.00    -0.190 N 
ATOM      7  H2  UNL     1      49.183 -28.232   9.895  1.00  0.00     0.184 HD
HETATM    8  C5  UNL     1      50.516 -26.630  10.150  1.00  0.00     0.679 A 
HETATM    9  N5  UNL     1      51.113 -26.183  11.269  1.00  0.00    -0.188 N 
ATOM     10  H5  UNL     1      51.754 -25.390  11.315  1.00  0.00     0.184 HD
HETATM   11  C8  UNL     1      50.738 -26.941  12.324  1.00  0.00     0.092 A 
HETATM   12  C9  UNL     1      51.029 -26.942  13.676  1.00  0.00     0.122 A 
ENDROOT
BRANCH   8  13
HETATM   13  N3  UNL     1      50.689 -26.100   9.001  1.00  0.00    -0.224 N 
ATOM     14  H3  UNL     1      50.153 -25.260   8.784  1.00  0.00     0.177 HD
BRANCH  13  15
HETATM   15  C6  UNL     1      51.583 -26.597   7.990  1.00  0.00     0.165 C 
BRANCH  15  16
HETATM   16  C7  UNL     1      51.193 -25.903   6.681  1.00  0.00     0.249 C 
BRANCH  16  17
HETATM   17  N4  UNL     1      50.505 -24.666   6.933  1.00  0.00    -0.078 N 
ATOM     18  H43 UNL     1      49.777 -24.779   7.638  1.00  0.00     0.274 HD
ATOM     19  H42 UNL     1      51.099 -24.000   7.427  1.00  0.00     0.274 HD
ATOM     20  H41 UNL     1      50.133 -24.268   6.071  1.00  0.00     0.274 HD
ENDBRANCH  16  17
ENDBRANCH  15  16
ENDBRANCH  13  15
ENDBRANCH   8  13
TORSDOF 4
ENDMDL
MODEL 3
REMARK VINA RESULT: -5.293642896      1.239      2.187
REMARK  4 active torsions:
REMARK  status: ('A' for Active; 'I' for Inactive)
REMARK    1  A    between atoms: C5_8  and  N3_9 
REMARK    2  A    between atoms: N3_9  and  C6_11 
REMARK    3  A    between atoms: C6_11  and  C7_12 
REMARK    4  A    between atoms: C7_12  and  N4_13 
ROOT
HETATM    1  C1  UNL     1      50.913 -26.366   7.294  1.00  0.00     0.154 C 
HETATM    2  N1  UNL     1      51.362 -26.187   8.659  1.00  0.00    -0.368 N 
HETATM    3  C2  UNL     1      52.454 -25.437   8.874  1.00  0.00     0.092 A 
HETATM    4  C3  UNL     1      52.913 -25.241  10.142  1.00  0.00     0.049 A 
HETATM    5  C4  UNL     1      52.228 -25.833  11.191  1.00  0.00     0.079 A 
HETATM    6  N2  UNL     1      52.435 -25.821  12.518  1.00  0.00    -0.190 N 
ATOM      7  H2  UNL     1      53.197 -25.329  12.984  1.00  0.00     0.184 HD
HETATM    8  C5  UNL     1      51.496 -26.549  13.144  1.00  0.00     0.679 A 
HETATM    9  N5  UNL     1      50.687 -27.022  12.178  1.00  0.00    -0.188 N 
ATOM     10  H5  UNL     1      49.872 -27.614  12.335  1.00  0.00     0.184 HD
HETATM   11  C8  UNL     1      51.118 -26.595  10.969  1.00  0.00     0.092 A 
HETATM   12  C9  UNL     1      50.688 -26.767   9.666  1.00  0.00     0.122 A 
ENDROOT
BRANCH   8  13
HETATM   13  N3  UNL     1      51.326 -26.795  14.386  1.00  0.00    -0.224 N 
ATOM     14  H3  UNL     1      51.794 -26.183  15.055  1.00  0.00     0.177 HD
BRANCH  13  15
HETATM   15  C6  UNL     1      50.525 -27.867  14.912  1.00  0.00     0.165 C 
BRANCH  15  16
HETATM   16  C7  UNL     1      50.706 -27.843  16.433  1.00  0.00     0.249 C 
BRANCH  16  17
HETATM   17  N4  UNL     1      51.811 -28.669  16.839  1.00  0.00    -0.078 N 
ATOM     18  H43 UNL     1      51.540 -29.651  16.904  1.00  0.00     0.274 HD
ATOM     19  H42 UNL     1      52.511 -28.748  16.102  1.00  0.00     0.274 HD
ATOM     20  H41 UNL     1      52.221 -28.336  17.711  1.00  0.00     0.274 HD
ENDBRANCH  16  17
ENDBRANCH  15  16
ENDBRANCH  13  15
ENDBRANCH   8  13
TORSDOF 4
ENDMDL
MODEL 4
REMARK VINA RESULT: -4.976176955      1.246      2.309
REMARK  4 active torsions:
REMARK  status: ('A' for Active; 'I' for Inactive)
REMARK    1  A    between atoms: C5_8  and  N3_9 
REMARK    2  A    between atoms: N3_9  and  C6_11 
REMARK    3  A    between atoms: C6_11  and  C7_12 
REMARK    4  A    between atoms: C7_12  and  N4_13 
ROOT
HETATM    1  C1  UNL     1      51.387 -25.910   6.704  1.00  0.00     0.154 C 
HETATM    2  N1  UNL     1      51.381 -26.066   8.144  1.00  0.00    -0.368 N 
HETATM    3  C2  UNL     1      52.356 -25.473   8.851  1.00  0.00     0.092 A 
HETATM    4  C3  UNL     1      52.390 -25.593  10.208  1.00  0.00     0.049 A 
HETATM    5  C4  UNL     1      51.401 -26.338  10.829  1.00  0.00     0.079 A 
HETATM    6  N2  UNL     1      51.176 -26.629  12.121  1.00  0.00    -0.190 N 
ATOM      7  H2  UNL     1      51.756 -26.314  12.899  1.00  0.00     0.184 HD
HETATM    8  C5  UNL     1      50.080 -27.394  12.244  1.00  0.00     0.679 A 
HETATM    9  N5  UNL     1      49.614 -27.580  10.995  1.00  0.00    -0.188 N 
ATOM     10  H5  UNL     1      48.785 -28.122  10.753  1.00  0.00     0.184 HD
HETATM   11  C8  UNL     1      50.411 -26.940  10.109  1.00  0.00     0.092 A 
HETATM   12  C9  UNL     1      50.416 -26.792   8.734  1.00  0.00     0.122 A 
ENDROOT
BRANCH   8  13
HETATM   13  N3  UNL     1      49.522 -27.887  13.282  1.00  0.00    -0.224 N 
ATOM     14  H3  UNL     1      48.519 -27.738  13.393  1.00  0.00     0.177 HD
BRANCH  13  15
HETATM   15  C6  UNL     1      50.200 -28.635  14.306  1.00  0.00     0.165 C 
BRANCH  15  16
HETATM   16  C7  UNL     1      50.518 -27.646  15.433  1.00  0.00     0.249 C 
BRANCH  16  17
HETATM   17  N4  UNL     1      51.316 -28.264  16.457  1.00  0.00    -0.078 N 
ATOM     18  H43 UNL     1      51.953 -27.595  16.889  1.00  0.00     0.274 HD
ATOM     19  H42 UNL     1      50.757 -28.500  17.276  1.00  0.00     0.274 HD
ATOM     20  H41 UNL     1      51.814 -29.077  16.096  1.00  0.00     0.274 HD
ENDBRANCH  16  17
ENDBRANCH  15  16
ENDBRANCH  13  15
ENDBRANCH   8  13
TORSDOF 4
ENDMDL
MODEL 5
REMARK VINA RESULT: -4.753052294      4.556      6.649
REMARK  4 active torsions:
REMARK  status: ('A' for Active; 'I' for Inactive)
REMARK    1  A    between atoms: C5_8  and  N3_9 
REMARK    2  A    between atoms: N3_9  and  C6_11 
REMARK    3  A    between atoms: C6_11  and  C7_12 
REMARK    4  A    between atoms: C7_12  and  N4_13 
ROOT
HETATM    1  C1  UNL     1      50.119 -24.377  10.556  1.00  0.00     0.154 C 
HETATM    2  N1  UNL     1      50.943 -25.202   9.697  1.00  0.00    -0.368 N 
HETATM    3  C2  UNL     1      50.409 -25.660   8.554  1.00  0.00     0.092 A 
HETATM    4  C3  UNL     1      51.147 -26.440   7.715  1.00  0.00     0.049 A 
HETATM    5  C4  UNL     1      52.451 -26.743   8.072  1.00  0.00     0.079 A 
HETATM    6  N2  UNL     1      53.402 -27.471   7.464  1.00  0.00    -0.190 N 
ATOM      7  H2  UNL     1      53.287 -27.948   6.570  1.00  0.00     0.184 HD
HETATM    8  C5  UNL     1      54.525 -27.482   8.200  1.00  0.00     0.679 A 
HETATM    9  N5  UNL     1      54.262 -26.740   9.291  1.00  0.00    -0.188 N 
ATOM     10  H5  UNL     1      54.921 -26.556  10.047  1.00  0.00     0.184 HD
HETATM   11  C8  UNL     1      52.992 -26.276   9.235  1.00  0.00     0.092 A 
HETATM   12  C9  UNL     1      52.206 -25.488  10.056  1.00  0.00     0.122 A 
ENDROOT
BRANCH   8  13
HETATM   13  N3  UNL     1      55.651 -28.046   7.989  1.00  0.00    -0.224 N 
ATOM     14  H3  UNL     1      56.491 -27.546   8.282  1.00  0.00     0.177 HD
BRANCH  13  15
HETATM   15  C6  UNL     1      55.826 -29.332   7.369  1.00  0.00     0.165 C 
BRANCH  15  16
HETATM   16  C7  UNL     1      57.245 -29.350   6.791  1.00  0.00     0.249 C 
BRANCH  16  17
HETATM   17  N4  UNL     1      58.038 -28.277   7.326  1.00  0.00    -0.078 N 
ATOM     18  H43 UNL     1      57.466 -27.463   7.549  1.00  0.00     0.274 HD
ATOM     19  H42 UNL     1      58.376 -28.492   8.264  1.00  0.00     0.274 HD
ATOM     20  H41 UNL     1      58.805 -28.036   6.698  1.00  0.00     0.274 HD
ENDBRANCH  16  17
ENDBRANCH  15  16
ENDBRANCH  13  15
ENDBRANCH   8  13
TORSDOF 4
ENDMDL
