MODEL 1
REMARK VINA RESULT: -7.006272706      0.000      0.000
REMARK  3 active torsions:
REMARK  status: ('A' for Active; 'I' for Inactive)
REMARK    1  A    between atoms: C3_4  and  C4_5 
REMARK    2  A    between atoms: C4_5  and  N2_6 
REMARK    3  A    between atoms: C7_9  and  N3_10 
ROOT
HETATM    1  N2  UNL     1     -28.694  31.755 -27.272  1.00  0.00    -0.349 N 
HETATM    2  C5  UNL     1     -28.619  30.409 -27.259  1.00  0.00     0.096 A 
HETATM    3  C6  UNL     1     -27.696  29.731 -26.457  1.00  0.00     0.065 A 
HETATM    4  C7  UNL     1     -26.830  30.457 -25.651  1.00  0.00     0.100 A 
HETATM    5  N4  UNL     1     -26.935  31.791 -25.692  1.00  0.00    -0.339 N 
ATOM      6  H4  UNL     1     -26.313  32.354 -25.112  1.00  0.00     0.168 HD
HETATM    7  C8  UNL     1     -27.837  32.418 -26.476  1.00  0.00     0.184 A 
ENDROOT
BRANCH   1   8
HETATM    8  C4  UNL     1     -29.637  32.476 -28.090  1.00  0.00     0.169 C 
BRANCH   8   9
HETATM    9  C3  UNL     1     -30.969  32.613 -27.512  1.00  0.00    -0.024 A 
HETATM   10  C2  UNL     1     -31.793  33.688 -27.744  1.00  0.00     0.100 A 
HETATM   11  N1  UNL     1     -33.012  33.834 -27.227  1.00  0.00    -0.349 N 
HETATM   12  C1  UNL     1     -33.849  35.009 -27.511  1.00  0.00     0.156 C 
HETATM   13  C11 UNL     1     -33.461  32.856 -26.424  1.00  0.00     0.117 A 
HETATM   14  C10 UNL     1     -32.702  31.753 -26.144  1.00  0.00     0.046 A 
HETATM   15  N5  UNL     1     -34.775  32.974 -25.843  1.00  0.00    -0.083 NA
HETATM   16  C9  UNL     1     -31.439  31.617 -26.688  1.00  0.00     0.013 A 
ENDBRANCH   8   9
ENDBRANCH   1   8
BRANCH   4  17
HETATM   17  N3  UNL     1     -25.955  29.922 -24.888  1.00  0.00    -0.385 N 
ATOM     18  H32 UNL     1     -24.966  30.112 -25.052  1.00  0.00     0.157 HD
ATOM     19  H31 UNL     1     -26.184  29.306 -24.108  1.00  0.00     0.157 HD
ENDBRANCH   4  17
TORSDOF 3
ENDMDL
MODEL 2
REMARK VINA RESULT: -6.790858763      1.418      1.501
REMARK  3 active torsions:
REMARK  status: ('A' for Active; 'I' for Inactive)
REMARK    1  A    between atoms: C3_4  and  C4_5 
REMARK    2  A    between atoms: C4_5  and  N2_6 
REMARK    3  A    between atoms: C7_9  and  N3_10 
ROOT
HETATM    1  N2  UNL     1     -27.640  31.748 -27.806  1.00  0.00    -0.349 N 
HETATM    2  C5  UNL     1     -27.530  30.586 -28.482  1.00  0.00     0.096 A 
HETATM    3  C6  UNL     1     -26.563  29.632 -28.153  1.00  0.00     0.065 A 
HETATM    4  C7  UNL     1     -25.688  29.880 -27.104  1.00  0.00     0.100 A 
HETATM    5  N4  UNL     1     -25.829  31.045 -26.457  1.00  0.00    -0.339 N 
ATOM      6  H4  UNL     1     -25.202  31.257 -25.681  1.00  0.00     0.168 HD
HETATM    7  C8  UNL     1     -26.773  31.947 -26.798  1.00  0.00     0.184 A 
ENDROOT
BRANCH   1   8
HETATM    8  C4  UNL     1     -28.628  32.746 -28.127  1.00  0.00     0.169 C 
BRANCH   8   9
HETATM    9  C3  UNL     1     -29.935  32.533 -27.516  1.00  0.00    -0.024 A 
HETATM   10  C2  UNL     1     -31.085  33.156 -27.938  1.00  0.00     0.100 A 
HETATM   11  N1  UNL     1     -32.287  32.976 -27.393  1.00  0.00    -0.349 N 
HETATM   12  C1  UNL     1     -33.484  33.672 -27.890  1.00  0.00     0.156 C 
HETATM   13  C11 UNL     1     -32.374  32.124 -26.360  1.00  0.00     0.117 A 
HETATM   14  C10 UNL     1     -31.276  31.464 -25.881  1.00  0.00     0.046 A 
HETATM   15  N5  UNL     1     -33.657  31.901 -25.742  1.00  0.00    -0.083 NA
HETATM   16  C9  UNL     1     -30.035  31.662 -26.456  1.00  0.00     0.013 A 
ENDBRANCH   8   9
ENDBRANCH   1   8
BRANCH   4  17
HETATM   17  N3  UNL     1     -24.775  29.067 -26.733  1.00  0.00    -0.385 N 
ATOM     18  H32 UNL     1     -23.971  29.421 -26.215  1.00  0.00     0.157 HD
ATOM     19  H31 UNL     1     -24.795  28.065 -26.925  1.00  0.00     0.157 HD
ENDBRANCH   4  17
TORSDOF 3
ENDMDL
MODEL 3
REMARK VINA RESULT: -6.738803622      1.931      6.305
REMARK  3 active torsions:
REMARK  status: ('A' for Active; 'I' for Inactive)
REMARK    1  A    between atoms: C3_4  and  C4_5 
REMARK    2  A    between atoms: C4_5  and  N2_6 
REMARK    3  A    between atoms: C7_9  and  N3_10 
ROOT
HETATM    1  N2  UNL     1     -29.682  32.555 -27.489  1.00  0.00    -0.349 N 
HETATM    2  C5  UNL     1     -30.756  33.040 -28.143  1.00  0.00     0.096 A 
HETATM    3  C6  UNL     1     -32.061  32.774 -27.716  1.00  0.00     0.065 A 
HETATM    4  C7  UNL     1     -32.263  31.990 -26.588  1.00  0.00     0.100 A 
HETATM    5  N4  UNL     1     -31.171  31.527 -25.966  1.00  0.00    -0.339 N 
ATOM      6  H4  UNL     1     -31.285  30.947 -25.135  1.00  0.00     0.168 HD
HETATM    7  C8  UNL     1     -29.924  31.801 -26.403  1.00  0.00     0.184 A 
ENDROOT
BRANCH   1   8
HETATM    8  C4  UNL     1     -28.329  32.816 -27.910  1.00  0.00     0.169 C 
BRANCH   8   9
HETATM    9  C3  UNL     1     -27.389  31.728 -27.663  1.00  0.00    -0.024 A 
HETATM   10  C2  UNL     1     -27.453  30.508 -28.291  1.00  0.00     0.100 A 
HETATM   11  N1  UNL     1     -26.606  29.502 -28.081  1.00  0.00    -0.349 N 
HETATM   12  C1  UNL     1     -26.726  28.216 -28.785  1.00  0.00     0.156 C 
HETATM   13  C11 UNL     1     -25.622  29.703 -27.191  1.00  0.00     0.117 A 
HETATM   14  C10 UNL     1     -25.489  30.889 -26.524  1.00  0.00     0.046 A 
HETATM   15  N5  UNL     1     -24.683  28.639 -26.933  1.00  0.00    -0.083 NA
HETATM   16  C9  UNL     1     -26.376  31.924 -26.753  1.00  0.00     0.013 A 
ENDBRANCH   8   9
ENDBRANCH   1   8
BRANCH   4  17
HETATM   17  N3  UNL     1     -33.417  31.695 -26.126  1.00  0.00    -0.385 N 
ATOM     18  H32 UNL     1     -34.146  32.409 -26.111  1.00  0.00     0.157 HD
ATOM     19  H31 UNL     1     -33.665  30.775 -25.764  1.00  0.00     0.157 HD
ENDBRANCH   4  17
TORSDOF 3
ENDMDL
MODEL 4
REMARK VINA RESULT: -6.719093915      2.261      6.237
REMARK  3 active torsions:
REMARK  status: ('A' for Active; 'I' for Inactive)
REMARK    1  A    between atoms: C3_4  and  C4_5 
REMARK    2  A    between atoms: C4_5  and  N2_6 
REMARK    3  A    between atoms: C7_9  and  N3_10 
ROOT
HETATM    1  N2  UNL     1     -29.996  32.109 -26.860  1.00  0.00    -0.349 N 
HETATM    2  C5  UNL     1     -30.487  32.997 -27.748  1.00  0.00     0.096 A 
HETATM    3  C6  UNL     1     -31.862  33.200 -27.901  1.00  0.00     0.065 A 
HETATM    4  C7  UNL     1     -32.751  32.470 -27.123  1.00  0.00     0.100 A 
HETATM    5  N4  UNL     1     -32.223  31.598 -26.253  1.00  0.00    -0.339 N 
ATOM      6  H4  UNL     1     -32.850  31.047 -25.667  1.00  0.00     0.168 HD
HETATM    7  C8  UNL     1     -30.891  31.425 -26.127  1.00  0.00     0.184 A 
ENDROOT
BRANCH   1   8
HETATM    8  C4  UNL     1     -28.583  31.884 -26.684  1.00  0.00     0.169 C 
BRANCH   8   9
HETATM    9  C3  UNL     1     -28.058  30.713 -27.378  1.00  0.00    -0.024 A 
HETATM   10  C2  UNL     1     -27.575  30.742 -28.664  1.00  0.00     0.100 A 
HETATM   11  N1  UNL     1     -27.091  29.686 -29.316  1.00  0.00    -0.349 N 
HETATM   12  C1  UNL     1     -26.589  29.779 -30.694  1.00  0.00     0.156 C 
HETATM   13  C11 UNL     1     -27.077  28.514 -28.662  1.00  0.00     0.117 A 
HETATM   14  C10 UNL     1     -27.539  28.402 -27.380  1.00  0.00     0.046 A 
HETATM   15  N5  UNL     1     -26.561  27.345 -29.332  1.00  0.00    -0.083 NA
HETATM   16  C9  UNL     1     -28.038  29.507 -26.717  1.00  0.00     0.013 A 
ENDBRANCH   8   9
ENDBRANCH   1   8
BRANCH   4  17
HETATM   17  N3  UNL     1     -34.021  32.589 -27.196  1.00  0.00    -0.385 N 
ATOM     18  H32 UNL     1     -34.421  33.323 -27.781  1.00  0.00     0.157 HD
ATOM     19  H31 UNL     1     -34.676  31.986 -26.698  1.00  0.00     0.157 HD
ENDBRANCH   4  17
TORSDOF 3
ENDMDL
MODEL 5
REMARK VINA RESULT: -6.648914472      2.345      6.285
REMARK  3 active torsions:
REMARK  status: ('A' for Active; 'I' for Inactive)
REMARK    1  A    between atoms: C3_4  and  C4_5 
REMARK    2  A    between atoms: C4_5  and  N2_6 
REMARK    3  A    between atoms: C7_9  and  N3_10 
ROOT
HETATM    1  N2  UNL     1     -29.460  32.003 -26.923  1.00  0.00    -0.349 N 
HETATM    2  C5  UNL     1     -30.439  31.443 -26.184  1.00  0.00     0.096 A 
HETATM    3  C6  UNL     1     -31.782  31.789 -26.359  1.00  0.00     0.065 A 
HETATM    4  C7  UNL     1     -32.124  32.735 -27.316  1.00  0.00     0.100 A 
HETATM    5  N4  UNL     1     -31.123  33.268 -28.029  1.00  0.00    -0.339 N 
ATOM      6  H4  UNL     1     -31.341  33.966 -28.741  1.00  0.00     0.168 HD
HETATM    7  C8  UNL     1     -29.835  32.913 -27.838  1.00  0.00     0.184 A 
ENDROOT
BRANCH   1   8
HETATM    8  C4  UNL     1     -28.069  31.661 -26.761  1.00  0.00     0.169 C 
BRANCH   8   9
HETATM    9  C3  UNL     1     -27.657  30.434 -27.433  1.00  0.00    -0.024 A 
HETATM   10  C2  UNL     1     -27.297  30.374 -28.758  1.00  0.00     0.100 A 
HETATM   11  N1  UNL     1     -26.917  29.265 -29.390  1.00  0.00    -0.349 N 
HETATM   12  C1  UNL     1     -26.543  29.263 -30.813  1.00  0.00     0.156 C 
HETATM   13  C11 UNL     1     -26.887  28.129 -28.676  1.00  0.00     0.117 A 
HETATM   14  C10 UNL     1     -27.230  28.105 -27.353  1.00  0.00     0.046 A 
HETATM   15  N5  UNL     1     -26.482  26.906 -29.323  1.00  0.00    -0.083 NA
HETATM   16  C9  UNL     1     -27.622  29.264 -26.710  1.00  0.00     0.013 A 
ENDBRANCH   8   9
ENDBRANCH   1   8
BRANCH   4  17
HETATM   17  N3  UNL     1     -33.323  33.113 -27.545  1.00  0.00    -0.385 N 
ATOM     18  H32 UNL     1     -33.537  34.110 -27.569  1.00  0.00     0.157 HD
ATOM     19  H31 UNL     1     -34.099  32.470 -27.708  1.00  0.00     0.157 HD
ENDBRANCH   4  17
TORSDOF 3
ENDMDL
