MODEL 1
REMARK VINA RESULT: -6.220660677      0.000      0.000
REMARK  5 active torsions:
REMARK  status: ('A' for Active; 'I' for Inactive)
REMARK    1  A    between atoms: C3_3  and  C4_4 
REMARK    2  A    between atoms: C4_4  and  C5_5 
REMARK    3  A    between atoms: C9_10  and  N2_11 
REMARK    4  A    between atoms: C10_16  and  N4_17 
REMARK    5  A    between atoms: N4_17  and  C11_19 
ROOT
HETATM    1  C1  UNL     1     -31.387  32.070 -26.801  1.00  0.00     0.012 C 
HETATM    2  C2  UNL     1     -30.463  32.553 -27.406  1.00  0.00    -0.114 C 
HETATM    3  C3  UNL     1     -29.348  33.151 -28.133  1.00  0.00     0.121 C 
ENDROOT
BRANCH   3   4
HETATM    4  C4  UNL     1     -28.064  32.848 -27.500  1.00  0.00     0.000 C 
BRANCH   4   5
HETATM    5  C5  UNL     1     -27.702  31.626 -27.252  1.00  0.00     0.007 C 
HETATM    6  C6  UNL     1     -28.112  30.680 -28.197  1.00  0.00     0.033 C 
HETATM    7  C7  UNL     1     -27.403  29.541 -28.604  1.00  0.00     0.114 C 
HETATM    8  N1  UNL     1     -26.356  28.981 -27.981  1.00  0.00    -0.179 N 
HETATM    9  C8  UNL     1     -26.075  27.799 -28.350  1.00  0.00     0.146 C 
HETATM   10  C9  UNL     1     -25.575  29.518 -27.021  1.00  0.00     0.682 C 
HETATM   11  N3  UNL     1     -25.870  30.528 -26.148  1.00  0.00    -0.176 N 
HETATM   12  C10 UNL     1     -26.972  31.354 -26.129  1.00  0.00     0.127 C 
ATOM     13  H3  UNL     1     -25.182  30.691 -25.413  1.00  0.00     0.186 HD
BRANCH  10  14
HETATM   14  N2  UNL     1     -24.400  29.021 -26.905  1.00  0.00    -0.234 N 
ATOM     15  H22 UNL     1     -23.720  29.345 -27.593  1.00  0.00     0.174 HD
ATOM     16  H21 UNL     1     -24.266  28.357 -26.143  1.00  0.00     0.174 HD
ENDBRANCH  10  14
BRANCH  12  17
HETATM   17  N4  UNL     1     -27.275  31.797 -25.043  1.00  0.00    -0.376 N 
ATOM     18  H4  UNL     1     -26.982  32.770 -24.952  1.00  0.00     0.161 HD
BRANCH  17  19
HETATM   19  C11 UNL     1     -27.906  31.365 -23.887  1.00  0.00     0.116 C 
HETATM   20  C12 UNL     1     -29.219  30.624 -24.150  1.00  0.00     0.026 C 
ENDBRANCH  17  19
ENDBRANCH  12  17
ENDBRANCH   4   5
ENDBRANCH   3   4
TORSDOF 5
ENDMDL
MODEL 2
REMARK VINA RESULT: -6.054928169      2.475      5.353
REMARK  5 active torsions:
REMARK  status: ('A' for Active; 'I' for Inactive)
REMARK    1  A    between atoms: C3_3  and  C4_4 
REMARK    2  A    between atoms: C4_4  and  C5_5 
REMARK    3  A    between atoms: C9_10  and  N2_11 
REMARK    4  A    between atoms: C10_16  and  N4_17 
REMARK    5  A    between atoms: N4_17  and  C11_19 
ROOT
HETATM    1  C1  UNL     1     -25.251  29.142 -26.446  1.00  0.00     0.012 C 
HETATM    2  C2  UNL     1     -25.888  29.939 -25.804  1.00  0.00    -0.114 C 
HETATM    3  C3  UNL     1     -26.647  30.910 -25.022  1.00  0.00     0.121 C 
ENDROOT
BRANCH   3   4
HETATM    4  C4  UNL     1     -27.212  31.962 -25.867  1.00  0.00     0.000 C 
BRANCH   4   5
HETATM    5  C5  UNL     1     -28.345  31.804 -26.480  1.00  0.00     0.007 C 
HETATM    6  C6  UNL     1     -29.299  31.052 -25.785  1.00  0.00     0.033 C 
HETATM    7  C7  UNL     1     -30.687  31.247 -25.795  1.00  0.00     0.114 C 
HETATM    8  N1  UNL     1     -31.390  31.980 -26.669  1.00  0.00    -0.179 N 
HETATM    9  C8  UNL     1     -32.642  31.765 -26.674  1.00  0.00     0.146 C 
HETATM   10  C9  UNL     1     -30.932  32.907 -27.536  1.00  0.00     0.682 C 
HETATM   11  N3  UNL     1     -29.675  33.038 -28.058  1.00  0.00    -0.176 N 
HETATM   12  C10 UNL     1     -28.526  32.360 -27.716  1.00  0.00     0.127 C 
ATOM     13  H3  UNL     1     -29.575  33.732 -28.799  1.00  0.00     0.186 HD
BRANCH  10  14
HETATM   14  N2  UNL     1     -31.780  33.784 -27.926  1.00  0.00    -0.234 N 
ATOM     15  H22 UNL     1     -32.760  33.527 -27.802  1.00  0.00     0.174 HD
ATOM     16  H21 UNL     1     -31.393  34.642 -28.316  1.00  0.00     0.174 HD
ENDBRANCH  10  14
BRANCH  12  17
HETATM   17  N4  UNL     1     -27.698  32.255 -28.595  1.00  0.00    -0.376 N 
ATOM     18  H4  UNL     1     -26.963  32.953 -28.485  1.00  0.00     0.161 HD
BRANCH  17  19
HETATM   19  C11 UNL     1     -27.462  31.462 -29.706  1.00  0.00     0.116 C 
HETATM   20  C12 UNL     1     -27.126  30.010 -29.358  1.00  0.00     0.026 C 
ENDBRANCH  17  19
ENDBRANCH  12  17
ENDBRANCH   4   5
ENDBRANCH   3   4
TORSDOF 5
ENDMDL
MODEL 3
REMARK VINA RESULT: -5.794755254      1.734      3.522
REMARK  5 active torsions:
REMARK  status: ('A' for Active; 'I' for Inactive)
REMARK    1  A    between atoms: C3_3  and  C4_4 
REMARK    2  A    between atoms: C4_4  and  C5_5 
REMARK    3  A    between atoms: C9_10  and  N2_11 
REMARK    4  A    between atoms: C10_16  and  N4_17 
REMARK    5  A    between atoms: N4_17  and  C11_19 
ROOT
HETATM    1  C1  UNL     1     -33.391  32.926 -27.761  1.00  0.00     0.012 C 
HETATM    2  C2  UNL     1     -32.382  32.449 -27.305  1.00  0.00    -0.114 C 
HETATM    3  C3  UNL     1     -31.163  31.857 -26.762  1.00  0.00     0.121 C 
ENDROOT
BRANCH   3   4
HETATM    4  C4  UNL     1     -29.967  32.375 -27.425  1.00  0.00     0.000 C 
BRANCH   4   5
HETATM    5  C5  UNL     1     -28.797  31.851 -27.221  1.00  0.00     0.007 C 
HETATM    6  C6  UNL     1     -28.246  32.098 -25.959  1.00  0.00     0.033 C 
HETATM    7  C7  UNL     1     -27.446  31.224 -25.209  1.00  0.00     0.114 C 
HETATM    8  N1  UNL     1     -26.820  30.126 -25.653  1.00  0.00    -0.179 N 
HETATM    9  C8  UNL     1     -25.914  29.670 -24.889  1.00  0.00     0.146 C 
HETATM   10  C9  UNL     1     -27.035  29.454 -26.803  1.00  0.00     0.682 C 
HETATM   11  N3  UNL     1     -27.587  29.912 -27.967  1.00  0.00    -0.176 N 
HETATM   12  C10 UNL     1     -28.203  31.120 -28.211  1.00  0.00     0.127 C 
ATOM     13  H3  UNL     1     -27.536  29.273 -28.762  1.00  0.00     0.186 HD
BRANCH  10  14
HETATM   14  N2  UNL     1     -26.677  28.224 -26.815  1.00  0.00    -0.234 N 
ATOM     15  H22 UNL     1     -26.261  27.884 -25.947  1.00  0.00     0.174 HD
ATOM     16  H21 UNL     1     -26.844  27.715 -27.682  1.00  0.00     0.174 HD
ENDBRANCH  10  14
BRANCH  12  17
HETATM   17  N4  UNL     1     -28.154  31.511 -29.357  1.00  0.00    -0.376 N 
ATOM     18  H4  UNL     1     -29.028  31.963 -29.624  1.00  0.00     0.161 HD
BRANCH  17  19
HETATM   19  C11 UNL     1     -27.252  31.522 -30.409  1.00  0.00     0.116 C 
HETATM   20  C12 UNL     1     -26.708  30.136 -30.760  1.00  0.00     0.026 C 
ENDBRANCH  17  19
ENDBRANCH  12  17
ENDBRANCH   4   5
ENDBRANCH   3   4
TORSDOF 5
ENDMDL
MODEL 4
REMARK VINA RESULT: -5.673933213      1.532      3.898
REMARK  5 active torsions:
REMARK  status: ('A' for Active; 'I' for Inactive)
REMARK    1  A    between atoms: C3_3  and  C4_4 
REMARK    2  A    between atoms: C4_4  and  C5_5 
REMARK    3  A    between atoms: C9_10  and  N2_11 
REMARK    4  A    between atoms: C10_16  and  N4_17 
REMARK    5  A    between atoms: N4_17  and  C11_19 
ROOT
HETATM    1  C1  UNL     1     -30.566  32.564 -27.369  1.00  0.00     0.012 C 
HETATM    2  C2  UNL     1     -29.697  32.502 -28.202  1.00  0.00    -0.114 C 
HETATM    3  C3  UNL     1     -28.638  32.440 -29.205  1.00  0.00     0.121 C 
ENDROOT
BRANCH   3   4
HETATM    4  C4  UNL     1     -27.707  31.344 -28.941  1.00  0.00     0.000 C 
BRANCH   4   5
HETATM    5  C5  UNL     1     -27.440  30.956 -27.731  1.00  0.00     0.007 C 
HETATM    6  C6  UNL     1     -26.696  31.861 -26.967  1.00  0.00     0.033 C 
HETATM    7  C7  UNL     1     -26.815  32.089 -25.588  1.00  0.00     0.114 C 
HETATM    8  N1  UNL     1     -27.438  31.308 -24.695  1.00  0.00    -0.179 N 
HETATM    9  C8  UNL     1     -27.157  31.543 -23.479  1.00  0.00     0.146 C 
HETATM   10  C9  UNL     1     -28.318  30.313 -24.931  1.00  0.00     0.682 C 
HETATM   11  N3  UNL     1     -28.475  29.565 -26.065  1.00  0.00    -0.176 N 
HETATM   12  C10 UNL     1     -27.888  29.739 -27.299  1.00  0.00     0.127 C 
ATOM     13  H3  UNL     1     -29.113  28.773 -25.986  1.00  0.00     0.186 HD
BRANCH  10  14
HETATM   14  N2  UNL     1     -29.115  30.024 -23.971  1.00  0.00    -0.234 N 
ATOM     15  H22 UNL     1     -30.055  30.411 -24.054  1.00  0.00     0.174 HD
ATOM     16  H21 UNL     1     -28.731  29.442 -23.227  1.00  0.00     0.174 HD
ENDBRANCH  10  14
BRANCH  12  17
HETATM   17  N4  UNL     1     -27.759  28.734 -27.964  1.00  0.00    -0.376 N 
ATOM     18  H4  UNL     1     -28.647  28.463 -28.386  1.00  0.00     0.161 HD
BRANCH  17  19
HETATM   19  C11 UNL     1     -26.755  27.848 -28.317  1.00  0.00     0.116 C 
HETATM   20  C12 UNL     1     -26.887  27.315 -29.746  1.00  0.00     0.026 C 
ENDBRANCH  17  19
ENDBRANCH  12  17
ENDBRANCH   4   5
ENDBRANCH   3   4
TORSDOF 5
ENDMDL
MODEL 5
REMARK VINA RESULT: -5.607989889      1.881      2.463
REMARK  5 active torsions:
REMARK  status: ('A' for Active; 'I' for Inactive)
REMARK    1  A    between atoms: C3_3  and  C4_4 
REMARK    2  A    between atoms: C4_4  and  C5_5 
REMARK    3  A    between atoms: C9_10  and  N2_11 
REMARK    4  A    between atoms: C10_16  and  N4_17 
REMARK    5  A    between atoms: N4_17  and  C11_19 
ROOT
HETATM    1  C1  UNL     1     -32.823  31.749 -26.959  1.00  0.00     0.012 C 
HETATM    2  C2  UNL     1     -31.632  31.854 -26.801  1.00  0.00    -0.114 C 
HETATM    3  C3  UNL     1     -30.193  31.986 -26.596  1.00  0.00     0.121 C 
ENDROOT
BRANCH   3   4
HETATM    4  C4  UNL     1     -29.550  30.684 -26.422  1.00  0.00     0.000 C 
BRANCH   4   5
HETATM    5  C5  UNL     1     -28.501  30.349 -27.111  1.00  0.00     0.007 C 
HETATM    6  C6  UNL     1     -28.246  28.975 -27.176  1.00  0.00     0.033 C 
HETATM    7  C7  UNL     1     -27.710  28.274 -28.265  1.00  0.00     0.114 C 
HETATM    8  N1  UNL     1     -27.077  28.796 -29.325  1.00  0.00    -0.179 N 
HETATM    9  C8  UNL     1     -26.412  27.969 -30.022  1.00  0.00     0.146 C 
HETATM   10  C9  UNL     1     -27.064  30.082 -29.735  1.00  0.00     0.682 C 
HETATM   11  N3  UNL     1     -27.292  31.212 -29.001  1.00  0.00    -0.176 N 
HETATM   12  C10 UNL     1     -27.745  31.321 -27.705  1.00  0.00     0.127 C 
ATOM     13  H3  UNL     1     -27.102  32.094 -29.478  1.00  0.00     0.186 HD
BRANCH  10  14
HETATM   14  N2  UNL     1     -26.802  30.277 -30.973  1.00  0.00    -0.234 N 
ATOM     15  H22 UNL     1     -25.882  29.960 -31.279  1.00  0.00     0.174 HD
ATOM     16  H21 UNL     1     -27.535  30.725 -31.523  1.00  0.00     0.174 HD
ENDBRANCH  10  14
BRANCH  12  17
HETATM   17  N4  UNL     1     -27.400  32.318 -27.111  1.00  0.00    -0.376 N 
ATOM     18  H4  UNL     1     -27.796  33.153 -27.542  1.00  0.00     0.161 HD
BRANCH  17  19
HETATM   19  C11 UNL     1     -26.622  32.653 -26.014  1.00  0.00     0.116 C 
HETATM   20  C12 UNL     1     -27.007  31.898 -24.740  1.00  0.00     0.026 C 
ENDBRANCH  17  19
ENDBRANCH  12  17
ENDBRANCH   4   5
ENDBRANCH   3   4
TORSDOF 5
ENDMDL
