MODEL 1
REMARK VINA RESULT: -6.919653619      0.000      0.000
REMARK  4 active torsions:
REMARK  status: ('A' for Active; 'I' for Inactive)
REMARK    1  A    between atoms: N1_5  and  C5_6 
REMARK    2  A    between atoms: C5_6  and  C6_7 
REMARK    3  A    between atoms: C8_11  and  N3_12 
REMARK    4  A    between atoms: N5_17  and  O1_18 
ROOT
HETATM    1  C5  UNL     1     -28.435  31.907 -26.757  1.00  0.00     0.209 C 
ENDROOT
BRANCH   1   2
HETATM    2  N1  UNL     1     -27.980  30.751 -27.504  1.00  0.00    -0.272 N 
HETATM    3  C4  UNL     1     -28.049  29.541 -26.928  1.00  0.00     0.113 A 
HETATM    4  C3  UNL     1     -27.639  28.394 -27.563  1.00  0.00     0.027 A 
HETATM    5  C2  UNL     1     -27.138  28.501 -28.845  1.00  0.00    -0.034 A 
HETATM    6  C1  UNL     1     -26.689  27.292 -29.556  1.00  0.00     0.050 C 
HETATM    7  C9  UNL     1     -27.074  29.750 -29.419  1.00  0.00     0.061 A 
HETATM    8  N5  UNL     1     -27.496  30.832 -28.732  1.00  0.00    -0.166 N 
HETATM    9  C10 UNL     1     -26.548  29.925 -30.784  1.00  0.00     0.073 C 
BRANCH   8  10
HETATM   10  O1  UNL     1     -27.413  32.072 -29.353  1.00  0.00    -0.268 OA
ATOM     11  H1  UNL     1     -27.322  32.116 -30.298  1.00  0.00     0.247 HD
ENDBRANCH   8  10
ENDBRANCH   1   2
BRANCH   1  12
HETATM   12  C6  UNL     1     -29.894  32.140 -26.930  1.00  0.00     0.062 A 
HETATM   13  C7  UNL     1     -30.483  33.032 -27.826  1.00  0.00     0.133 A 
HETATM   14  N2  UNL     1     -31.803  32.977 -27.706  1.00  0.00    -0.200 N 
HETATM   15  C8  UNL     1     -32.070  32.055 -26.738  1.00  0.00     0.676 A 
ATOM     16  H2  UNL     1     -32.486  33.519 -28.236  1.00  0.00     0.183 HD
HETATM   17  N4  UNL     1     -30.911  31.551 -26.270  1.00  0.00    -0.193 N 
ATOM     18  H4  UNL     1     -30.820  30.845 -25.541  1.00  0.00     0.184 HD
BRANCH  15  19
HETATM   19  N3  UNL     1     -33.247  31.734 -26.350  1.00  0.00    -0.234 N 
ATOM     20  H32 UNL     1     -34.123  31.991 -26.803  1.00  0.00     0.174 HD
ATOM     21  H31 UNL     1     -33.447  31.172 -25.522  1.00  0.00     0.174 HD
ENDBRANCH  15  19
ENDBRANCH   1  12
TORSDOF 4
ENDMDL
MODEL 2
REMARK VINA RESULT: -6.687473322      0.699      1.071
REMARK  4 active torsions:
REMARK  status: ('A' for Active; 'I' for Inactive)
REMARK    1  A    between atoms: N1_5  and  C5_6 
REMARK    2  A    between atoms: C5_6  and  C6_7 
REMARK    3  A    between atoms: C8_11  and  N3_12 
REMARK    4  A    between atoms: N5_17  and  O1_18 
ROOT
HETATM    1  C5  UNL     1     -28.587  32.179 -27.138  1.00  0.00     0.209 C 
ENDROOT
BRANCH   1   2
HETATM    2  N1  UNL     1     -28.096  30.962 -27.754  1.00  0.00    -0.272 N 
HETATM    3  C4  UNL     1     -28.211  29.806 -27.084  1.00  0.00     0.113 A 
HETATM    4  C3  UNL     1     -27.772  28.608 -27.593  1.00  0.00     0.027 A 
HETATM    5  C2  UNL     1     -27.191  28.604 -28.845  1.00  0.00    -0.034 A 
HETATM    6  C1  UNL     1     -26.708  27.338 -29.422  1.00  0.00     0.050 C 
HETATM    7  C9  UNL     1     -27.081  29.800 -29.517  1.00  0.00     0.061 A 
HETATM    8  N5  UNL     1     -27.536  30.938 -28.952  1.00  0.00    -0.166 N 
HETATM    9  C10 UNL     1     -26.469  29.857 -30.856  1.00  0.00     0.073 C 
BRANCH   8  10
HETATM   10  O1  UNL     1     -27.403  32.120 -29.669  1.00  0.00    -0.268 OA
ATOM     11  H1  UNL     1     -28.173  32.648 -29.845  1.00  0.00     0.247 HD
ENDBRANCH   8  10
ENDBRANCH   1   2
BRANCH   1  12
HETATM   12  C6  UNL     1     -30.070  32.179 -27.013  1.00  0.00     0.062 A 
HETATM   13  C7  UNL     1     -30.808  31.561 -26.005  1.00  0.00     0.133 A 
HETATM   14  N2  UNL     1     -32.103  31.767 -26.211  1.00  0.00    -0.200 N 
HETATM   15  C8  UNL     1     -32.203  32.514 -27.347  1.00  0.00     0.676 A 
ATOM     16  H2  UNL     1     -32.873  31.432 -25.633  1.00  0.00     0.183 HD
HETATM   17  N4  UNL     1     -30.970  32.762 -27.829  1.00  0.00    -0.193 N 
ATOM     18  H4  UNL     1     -30.755  33.298 -28.669  1.00  0.00     0.184 HD
BRANCH  15  19
HETATM   19  N3  UNL     1     -33.309  32.909 -27.857  1.00  0.00    -0.234 N 
ATOM     20  H32 UNL     1     -34.007  32.322 -28.313  1.00  0.00     0.174 HD
ATOM     21  H31 UNL     1     -33.626  33.879 -27.866  1.00  0.00     0.174 HD
ENDBRANCH  15  19
ENDBRANCH   1  12
TORSDOF 4
ENDMDL
MODEL 3
REMARK VINA RESULT: -6.408213817      2.260      2.795
REMARK  4 active torsions:
REMARK  status: ('A' for Active; 'I' for Inactive)
REMARK    1  A    between atoms: N1_5  and  C5_6 
REMARK    2  A    between atoms: C5_6  and  C6_7 
REMARK    3  A    between atoms: C8_11  and  N3_12 
REMARK    4  A    between atoms: N5_17  and  O1_18 
ROOT
HETATM    1  C5  UNL     1     -27.898  31.658 -27.780  1.00  0.00     0.209 C 
ENDROOT
BRANCH   1   2
HETATM    2  N1  UNL     1     -27.565  30.386 -28.391  1.00  0.00    -0.272 N 
HETATM    3  C4  UNL     1     -27.772  29.259 -27.693  1.00  0.00     0.113 A 
HETATM    4  C3  UNL     1     -27.485  28.013 -28.196  1.00  0.00     0.027 A 
HETATM    5  C2  UNL     1     -26.964  27.928 -29.470  1.00  0.00    -0.034 A 
HETATM    6  C1  UNL     1     -26.643  26.608 -30.042  1.00  0.00     0.050 C 
HETATM    7  C9  UNL     1     -26.758  29.094 -30.172  1.00  0.00     0.061 A 
HETATM    8  N5  UNL     1     -27.064  30.283 -29.611  1.00  0.00    -0.166 N 
HETATM    9  C10 UNL     1     -26.203  29.065 -31.536  1.00  0.00     0.073 C 
BRANCH   8  10
HETATM   10  O1  UNL     1     -26.839  31.433 -30.357  1.00  0.00    -0.268 OA
ATOM     11  H1  UNL     1     -26.412  31.365 -31.202  1.00  0.00     0.247 HD
ENDBRANCH   8  10
ENDBRANCH   1   2
BRANCH   1  12
HETATM   12  C6  UNL     1     -27.876  31.583 -26.294  1.00  0.00     0.062 A 
HETATM   13  C7  UNL     1     -26.793  31.893 -25.473  1.00  0.00     0.133 A 
HETATM   14  N2  UNL     1     -27.132  31.712 -24.202  1.00  0.00    -0.200 N 
HETATM   15  C8  UNL     1     -28.426  31.286 -24.200  1.00  0.00     0.676 A 
ATOM     16  H2  UNL     1     -26.538  31.862 -23.386  1.00  0.00     0.183 HD
HETATM   17  N4  UNL     1     -28.873  31.210 -25.468  1.00  0.00    -0.193 N 
ATOM     18  H4  UNL     1     -29.808  30.918 -25.755  1.00  0.00     0.184 HD
BRANCH  15  19
HETATM   19  N3  UNL     1     -29.095  31.009 -23.144  1.00  0.00    -0.234 N 
ATOM     20  H32 UNL     1     -28.775  31.120 -22.182  1.00  0.00     0.174 HD
ATOM     21  H31 UNL     1     -30.045  30.637 -23.144  1.00  0.00     0.174 HD
ENDBRANCH  15  19
ENDBRANCH   1  12
TORSDOF 4
ENDMDL
MODEL 4
REMARK VINA RESULT: -6.401372731      3.155      4.186
REMARK  4 active torsions:
REMARK  status: ('A' for Active; 'I' for Inactive)
REMARK    1  A    between atoms: N1_5  and  C5_6 
REMARK    2  A    between atoms: C5_6  and  C6_7 
REMARK    3  A    between atoms: C8_11  and  N3_12 
REMARK    4  A    between atoms: N5_17  and  O1_18 
ROOT
HETATM    1  C5  UNL     1     -32.293  31.794 -26.240  1.00  0.00     0.209 C 
ENDROOT
BRANCH   1   2
HETATM    2  N1  UNL     1     -30.888  31.934 -26.568  1.00  0.00    -0.272 N 
HETATM    3  C4  UNL     1     -30.548  32.347 -27.799  1.00  0.00     0.113 A 
HETATM    4  C3  UNL     1     -29.243  32.507 -28.193  1.00  0.00     0.027 A 
HETATM    5  C2  UNL     1     -28.247  32.229 -27.279  1.00  0.00    -0.034 A 
HETATM    6  C1  UNL     1     -26.834  32.389 -27.667  1.00  0.00     0.050 C 
HETATM    7  C9  UNL     1     -28.613  31.807 -26.021  1.00  0.00     0.061 A 
HETATM    8  N5  UNL     1     -29.918  31.673 -25.707  1.00  0.00    -0.166 N 
HETATM    9  C10 UNL     1     -27.593  31.496 -25.005  1.00  0.00     0.073 C 
BRANCH   8  10
HETATM   10  O1  UNL     1     -30.240  31.244 -24.425  1.00  0.00    -0.268 OA
ATOM     11  H1  UNL     1     -30.679  31.840 -23.830  1.00  0.00     0.247 HD
ENDBRANCH   8  10
ENDBRANCH   1   2
BRANCH   1  12
HETATM   12  C6  UNL     1     -33.145  32.715 -27.039  1.00  0.00     0.062 A 
HETATM   13  C7  UNL     1     -32.971  34.094 -27.163  1.00  0.00     0.133 A 
HETATM   14  N2  UNL     1     -33.915  34.592 -27.952  1.00  0.00    -0.200 N 
HETATM   15  C8  UNL     1     -34.696  33.543 -28.337  1.00  0.00     0.676 A 
ATOM     16  H2  UNL     1     -34.033  35.569 -28.218  1.00  0.00     0.183 HD
HETATM   17  N4  UNL     1     -34.226  32.409 -27.782  1.00  0.00    -0.193 N 
ATOM     18  H4  UNL     1     -34.623  31.477 -27.904  1.00  0.00     0.184 HD
BRANCH  15  19
HETATM   19  N3  UNL     1     -35.713  33.644 -29.108  1.00  0.00    -0.234 N 
ATOM     20  H32 UNL     1     -36.418  32.927 -29.274  1.00  0.00     0.174 HD
ATOM     21  H31 UNL     1     -35.940  34.474 -29.658  1.00  0.00     0.174 HD
ENDBRANCH  15  19
ENDBRANCH   1  12
TORSDOF 4
ENDMDL
MODEL 5
REMARK VINA RESULT: -6.208403763      1.320      1.972
REMARK  4 active torsions:
REMARK  status: ('A' for Active; 'I' for Inactive)
REMARK    1  A    between atoms: N1_5  and  C5_6 
REMARK    2  A    between atoms: C5_6  and  C6_7 
REMARK    3  A    between atoms: C8_11  and  N3_12 
REMARK    4  A    between atoms: N5_17  and  O1_18 
ROOT
HETATM    1  C5  UNL     1     -28.525  31.726 -26.677  1.00  0.00     0.209 C 
ENDROOT
BRANCH   1   2
HETATM    2  N1  UNL     1     -27.954  31.051 -27.825  1.00  0.00    -0.272 N 
HETATM    3  C4  UNL     1     -27.625  31.777 -28.905  1.00  0.00     0.113 A 
HETATM    4  C3  UNL     1     -27.079  31.218 -30.035  1.00  0.00     0.027 A 
HETATM    5  C2  UNL     1     -26.865  29.855 -30.051  1.00  0.00    -0.034 A 
HETATM    6  C1  UNL     1     -26.282  29.222 -31.246  1.00  0.00     0.050 C 
HETATM    7  C9  UNL     1     -27.208  29.127 -28.935  1.00  0.00     0.061 A 
HETATM    8  N5  UNL     1     -27.741  29.747 -27.861  1.00  0.00    -0.166 N 
HETATM    9  C10 UNL     1     -27.003  27.669 -28.895  1.00  0.00     0.073 C 
BRANCH   8  10
HETATM   10  O1  UNL     1     -28.072  28.970 -26.758  1.00  0.00    -0.268 OA
ATOM     11  H1  UNL     1     -27.941  29.319 -25.884  1.00  0.00     0.247 HD
ENDBRANCH   8  10
ENDBRANCH   1   2
BRANCH   1  12
HETATM   12  C6  UNL     1     -29.971  32.023 -26.869  1.00  0.00     0.062 A 
HETATM   13  C7  UNL     1     -30.506  32.955 -27.757  1.00  0.00     0.133 A 
HETATM   14  N2  UNL     1     -31.830  32.953 -27.660  1.00  0.00    -0.200 N 
HETATM   15  C8  UNL     1     -32.150  32.025 -26.715  1.00  0.00     0.676 A 
ATOM     16  H2  UNL     1     -32.480  33.532 -28.191  1.00  0.00     0.183 HD
HETATM   17  N4  UNL     1     -31.022  31.465 -26.238  1.00  0.00    -0.193 N 
ATOM     18  H4  UNL     1     -30.973  30.741 -25.521  1.00  0.00     0.184 HD
BRANCH  15  19
HETATM   19  N3  UNL     1     -33.346  31.746 -26.352  1.00  0.00    -0.234 N 
ATOM     20  H32 UNL     1     -33.819  32.090 -25.517  1.00  0.00     0.174 HD
ATOM     21  H31 UNL     1     -33.977  31.133 -26.869  1.00  0.00     0.174 HD
ENDBRANCH  15  19
ENDBRANCH   1  12
TORSDOF 4
ENDMDL
