MODEL 1
REMARK VINA RESULT: -7.074686926      0.000      0.000
REMARK  4 active torsions:
REMARK  status: ('A' for Active; 'I' for Inactive)
REMARK    1  A    between atoms: C5_5  and  C6_6 
REMARK    2  A    between atoms: C6_6  and  C7_7 
REMARK    3  A    between atoms: C10_16  and  N4_17 
REMARK    4  A    between atoms: N4_17  and  C11_19 
ROOT
HETATM    1  C1  UNL     1     -27.051  31.855 -25.605  1.00  0.00     0.027 C 
HETATM    2  C2  UNL     1     -28.326  31.841 -25.983  1.00  0.00    -0.002 A 
HETATM    3  C3  UNL     1     -29.321  31.480 -25.102  1.00  0.00     0.016 A 
HETATM    4  C4  UNL     1     -30.637  31.479 -25.534  1.00  0.00     0.030 A 
HETATM    5  C5  UNL     1     -31.004  31.825 -26.820  1.00  0.00     0.035 A 
HETATM    6  N3  UNL     1     -30.003  32.171 -27.651  1.00  0.00    -0.342 N 
ATOM      7  H3  UNL     1     -30.230  32.433 -28.610  1.00  0.00     0.167 HD
HETATM    8  C10 UNL     1     -28.713  32.183 -27.263  1.00  0.00     0.111 A 
ENDROOT
BRANCH   5   9
HETATM    9  C6  UNL     1     -32.272  31.813 -27.201  1.00  0.00     0.060 C 
BRANCH   9  10
HETATM   10  C7  UNL     1     -33.025  33.065 -27.241  1.00  0.00     0.050 A 
HETATM   11  C8  UNL     1     -34.329  33.262 -26.830  1.00  0.00     0.118 A 
HETATM   12  N1  UNL     1     -34.670  34.543 -27.021  1.00  0.00    -0.360 N 
HETATM   13  C9  UNL     1     -33.593  35.148 -27.548  1.00  0.00     0.180 A 
ATOM     14  H1  UNL     1     -35.570  34.974 -26.808  1.00  0.00     0.166 HD
HETATM   15  N2  UNL     1     -32.610  34.267 -27.679  1.00  0.00    -0.351 N 
ATOM     16  H2  UNL     1     -31.684  34.470 -28.053  1.00  0.00     0.166 HD
ENDBRANCH   9  10
ENDBRANCH   5   9
BRANCH   8  17
HETATM   17  N4  UNL     1     -27.772  32.519 -28.081  1.00  0.00    -0.376 N 
ATOM     18  H4  UNL     1     -27.183  33.309 -27.818  1.00  0.00     0.161 HD
BRANCH  17  19
HETATM   19  C11 UNL     1     -27.490  31.876 -29.322  1.00  0.00     0.116 C 
HETATM   20  C12 UNL     1     -27.223  30.406 -29.057  1.00  0.00     0.026 C 
ENDBRANCH  17  19
ENDBRANCH   8  17
TORSDOF 4
ENDMDL
MODEL 2
REMARK VINA RESULT: -7.012548669      0.708      1.018
REMARK  4 active torsions:
REMARK  status: ('A' for Active; 'I' for Inactive)
REMARK    1  A    between atoms: C5_5  and  C6_6 
REMARK    2  A    between atoms: C6_6  and  C7_7 
REMARK    3  A    between atoms: C10_16  and  N4_17 
REMARK    4  A    between atoms: N4_17  and  C11_19 
ROOT
HETATM    1  C1  UNL     1     -27.475  31.752 -25.246  1.00  0.00     0.027 C 
HETATM    2  C2  UNL     1     -28.633  31.822 -25.897  1.00  0.00    -0.002 A 
HETATM    3  C3  UNL     1     -29.816  31.496 -25.272  1.00  0.00     0.016 A 
HETATM    4  C4  UNL     1     -31.001  31.583 -25.984  1.00  0.00     0.030 A 
HETATM    5  C5  UNL     1     -31.054  31.983 -27.305  1.00  0.00     0.035 A 
HETATM    6  N3  UNL     1     -29.877  32.292 -27.880  1.00  0.00    -0.342 N 
ATOM      7  H3  UNL     1     -29.870  32.592 -28.855  1.00  0.00     0.167 HD
HETATM    8  C10 UNL     1     -28.707  32.219 -27.216  1.00  0.00     0.111 A 
ENDROOT
BRANCH   5   9
HETATM    9  C6  UNL     1     -32.203  32.054 -27.957  1.00  0.00     0.060 C 
BRANCH   9  10
HETATM   10  C7  UNL     1     -33.226  33.002 -27.517  1.00  0.00     0.050 A 
HETATM   11  C8  UNL     1     -33.171  34.380 -27.600  1.00  0.00     0.118 A 
HETATM   12  N1  UNL     1     -34.295  34.904 -27.095  1.00  0.00    -0.360 N 
HETATM   13  C9  UNL     1     -35.051  33.868 -26.696  1.00  0.00     0.180 A 
ATOM     14  H1  UNL     1     -34.530  35.894 -27.027  1.00  0.00     0.166 HD
HETATM   15  N2  UNL     1     -34.414  32.732 -26.948  1.00  0.00    -0.351 N 
ATOM     16  H2  UNL     1     -34.771  31.799 -26.743  1.00  0.00     0.166 HD
ENDBRANCH   9  10
ENDBRANCH   5   9
BRANCH   8  17
HETATM   17  N4  UNL     1     -27.592  32.522 -27.792  1.00  0.00    -0.376 N 
ATOM     18  H4  UNL     1     -26.966  33.157 -27.296  1.00  0.00     0.161 HD
BRANCH  17  19
HETATM   19  C11 UNL     1     -27.163  32.041 -29.064  1.00  0.00     0.116 C 
HETATM   20  C12 UNL     1     -27.207  30.524 -29.049  1.00  0.00     0.026 C 
ENDBRANCH  17  19
ENDBRANCH   8  17
TORSDOF 4
ENDMDL
MODEL 3
REMARK VINA RESULT: -6.838101334      1.927      2.586
REMARK  4 active torsions:
REMARK  status: ('A' for Active; 'I' for Inactive)
REMARK    1  A    between atoms: C5_5  and  C6_6 
REMARK    2  A    between atoms: C6_6  and  C7_7 
REMARK    3  A    between atoms: C10_16  and  N4_17 
REMARK    4  A    between atoms: N4_17  and  C11_19 
ROOT
HETATM    1  C1  UNL     1     -26.174  29.342 -25.552  1.00  0.00     0.027 C 
HETATM    2  C2  UNL     1     -27.079  30.169 -26.067  1.00  0.00    -0.002 A 
HETATM    3  C3  UNL     1     -27.400  31.349 -25.434  1.00  0.00     0.016 A 
HETATM    4  C4  UNL     1     -28.347  32.184 -26.005  1.00  0.00     0.030 A 
HETATM    5  C5  UNL     1     -28.992  31.887 -27.189  1.00  0.00     0.035 A 
HETATM    6  N3  UNL     1     -28.651  30.725 -27.777  1.00  0.00    -0.342 N 
ATOM      7  H3  UNL     1     -29.104  30.467 -28.653  1.00  0.00     0.167 HD
HETATM    8  C10 UNL     1     -27.735  29.890 -27.249  1.00  0.00     0.111 A 
ENDROOT
BRANCH   5   9
HETATM    9  C6  UNL     1     -29.893  32.707 -27.707  1.00  0.00     0.060 C 
BRANCH   9  10
HETATM   10  C7  UNL     1     -31.302  32.549 -27.349  1.00  0.00     0.050 A 
HETATM   11  C8  UNL     1     -31.846  31.581 -26.527  1.00  0.00     0.118 A 
HETATM   12  N1  UNL     1     -33.170  31.761 -26.438  1.00  0.00    -0.360 N 
HETATM   13  C9  UNL     1     -33.459  32.830 -27.198  1.00  0.00     0.180 A 
ATOM     14  H1  UNL     1     -33.828  31.197 -25.900  1.00  0.00     0.166 HD
HETATM   15  N2  UNL     1     -32.345  33.302 -27.741  1.00  0.00    -0.351 N 
ATOM     16  H2  UNL     1     -32.288  34.110 -28.360  1.00  0.00     0.166 HD
ENDBRANCH   9  10
ENDBRANCH   5   9
BRANCH   8  17
HETATM   17  N4  UNL     1     -27.426  28.781 -27.834  1.00  0.00    -0.376 N 
ATOM     18  H4  UNL     1     -27.586  27.918 -27.314  1.00  0.00     0.161 HD
BRANCH  17  19
HETATM   19  C11 UNL     1     -26.881  28.665 -29.146  1.00  0.00     0.116 C 
HETATM   20  C12 UNL     1     -26.826  27.195 -29.520  1.00  0.00     0.026 C 
ENDBRANCH  17  19
ENDBRANCH   8  17
TORSDOF 4
ENDMDL
MODEL 4
REMARK VINA RESULT: -6.350919093      1.636      2.287
REMARK  4 active torsions:
REMARK  status: ('A' for Active; 'I' for Inactive)
REMARK    1  A    between atoms: C5_5  and  C6_6 
REMARK    2  A    between atoms: C6_6  and  C7_7 
REMARK    3  A    between atoms: C10_16  and  N4_17 
REMARK    4  A    between atoms: N4_17  and  C11_19 
ROOT
HETATM    1  C1  UNL     1     -26.968  32.477 -27.299  1.00  0.00     0.027 C 
HETATM    2  C2  UNL     1     -28.280  32.318 -27.151  1.00  0.00    -0.002 A 
HETATM    3  C3  UNL     1     -29.169  32.972 -27.975  1.00  0.00     0.016 A 
HETATM    4  C4  UNL     1     -30.528  32.779 -27.789  1.00  0.00     0.030 A 
HETATM    5  C5  UNL     1     -31.040  31.955 -26.806  1.00  0.00     0.035 A 
HETATM    6  N3  UNL     1     -30.140  31.335 -26.021  1.00  0.00    -0.342 N 
ATOM      7  H3  UNL     1     -30.476  30.718 -25.282  1.00  0.00     0.167 HD
HETATM    8  C10 UNL     1     -28.812  31.500 -26.175  1.00  0.00     0.111 A 
ENDROOT
BRANCH   5   9
HETATM    9  C6  UNL     1     -32.346  31.794 -26.655  1.00  0.00     0.060 C 
BRANCH   9  10
HETATM   10  C7  UNL     1     -33.265  32.776 -27.228  1.00  0.00     0.050 A 
HETATM   11  C8  UNL     1     -33.274  34.138 -26.997  1.00  0.00     0.118 A 
HETATM   12  N1  UNL     1     -34.263  34.705 -27.700  1.00  0.00    -0.360 N 
HETATM   13  C9  UNL     1     -34.873  33.710 -28.366  1.00  0.00     0.180 A 
ATOM     14  H1  UNL     1     -34.505  35.695 -27.724  1.00  0.00     0.166 HD
HETATM   15  N2  UNL     1     -34.278  32.559 -28.086  1.00  0.00    -0.351 N 
ATOM     16  H2  UNL     1     -34.546  31.650 -28.463  1.00  0.00     0.166 HD
ENDBRANCH   9  10
ENDBRANCH   5   9
BRANCH   8  17
HETATM   17  N4  UNL     1     -27.970  30.892 -25.408  1.00  0.00    -0.376 N 
ATOM     18  H4  UNL     1     -27.593  31.417 -24.618  1.00  0.00     0.161 HD
BRANCH  17  19
HETATM   19  C11 UNL     1     -27.523  29.548 -25.574  1.00  0.00     0.116 C 
HETATM   20  C12 UNL     1     -26.007  29.545 -25.634  1.00  0.00     0.026 C 
ENDBRANCH  17  19
ENDBRANCH   8  17
TORSDOF 4
ENDMDL
MODEL 5
REMARK VINA RESULT: -6.268883445      1.911      3.025
REMARK  4 active torsions:
REMARK  status: ('A' for Active; 'I' for Inactive)
REMARK    1  A    between atoms: C5_5  and  C6_6 
REMARK    2  A    between atoms: C6_6  and  C7_7 
REMARK    3  A    between atoms: C10_16  and  N4_17 
REMARK    4  A    between atoms: N4_17  and  C11_19 
ROOT
HETATM    1  C1  UNL     1     -26.596  30.081 -29.760  1.00  0.00     0.027 C 
HETATM    2  C2  UNL     1     -27.512  30.552 -28.918  1.00  0.00    -0.002 A 
HETATM    3  C3  UNL     1     -28.068  31.798 -29.102  1.00  0.00     0.016 A 
HETATM    4  C4  UNL     1     -29.020  32.252 -28.204  1.00  0.00     0.030 A 
HETATM    5  C5  UNL     1     -29.443  31.507 -27.121  1.00  0.00     0.035 A 
HETATM    6  N3  UNL     1     -28.876  30.295 -26.974  1.00  0.00    -0.342 N 
ATOM      7  H3  UNL     1     -29.160  29.712 -26.187  1.00  0.00     0.167 HD
HETATM    8  C10 UNL     1     -27.948  29.824 -27.830  1.00  0.00     0.111 A 
ENDROOT
BRANCH   5   9
HETATM    9  C6  UNL     1     -30.355  31.971 -26.280  1.00  0.00     0.060 C 
BRANCH   9  10
HETATM   10  C7  UNL     1     -31.693  32.294 -26.774  1.00  0.00     0.050 A 
HETATM   11  C8  UNL     1     -32.838  31.536 -26.624  1.00  0.00     0.118 A 
HETATM   12  N1  UNL     1     -33.868  32.160 -27.210  1.00  0.00    -0.360 N 
HETATM   13  C9  UNL     1     -33.377  33.299 -27.726  1.00  0.00     0.180 A 
ATOM     14  H1  UNL     1     -34.833  31.834 -27.255  1.00  0.00     0.166 HD
HETATM   15  N2  UNL     1     -32.080  33.381 -27.465  1.00  0.00    -0.351 N 
ATOM     16  H2  UNL     1     -31.470  34.148 -27.746  1.00  0.00     0.166 HD
ENDBRANCH   9  10
ENDBRANCH   5   9
BRANCH   8  17
HETATM   17  N4  UNL     1     -27.420  28.657 -27.666  1.00  0.00    -0.376 N 
ATOM     18  H4  UNL     1     -27.520  27.987 -28.429  1.00  0.00     0.161 HD
BRANCH  17  19
HETATM   19  C11 UNL     1     -26.709  28.228 -26.507  1.00  0.00     0.116 C 
HETATM   20  C12 UNL     1     -25.472  29.094 -26.349  1.00  0.00     0.026 C 
ENDBRANCH  17  19
ENDBRANCH   8  17
TORSDOF 4
ENDMDL
