MODEL 1
REMARK VINA RESULT: -9.379446244      0.000      0.000
REMARK  2 active torsions:
REMARK  status: ('A' for Active; 'I' for Inactive)
REMARK    1  A    between atoms: C3_3  and  C4_4 
REMARK    2  A    between atoms: C9_13  and  N3_14 
ROOT
HETATM    1  C1  UNL     1       3.771 -10.054 -23.562  1.00  0.00     0.006 A 
HETATM    2  C2  UNL     1       2.468 -10.458 -23.715  1.00  0.00     0.025 A 
HETATM    3  C3  UNL     1       2.154 -11.666 -24.293  1.00  0.00     0.015 A 
HETATM    4  N2  UNL     1       3.149 -12.456 -24.711  1.00  0.00    -0.346 N 
ATOM      5  H2  UNL     1       2.912 -13.352 -25.139  1.00  0.00     0.167 HD
HETATM    6  C9  UNL     1       4.468 -12.121 -24.592  1.00  0.00     0.104 A 
HETATM    7  C19 UNL     1       4.775 -10.924 -24.019  1.00  0.00     0.048 A 
ENDROOT
BRANCH   6   8
HETATM    8  N3  UNL     1       5.474 -12.995 -25.062  1.00  0.00    -0.358 N 
HETATM    9  C10 UNL     1       5.151 -14.045 -26.047  1.00  0.00     0.087 C 
HETATM   10  C11 UNL     1       5.535 -15.355 -25.408  1.00  0.00     0.030 C 
HETATM   11  C15 UNL     1       5.993 -13.858 -27.280  1.00  0.00     0.030 C 
HETATM   12  C12 UNL     1       7.020 -15.353 -25.114  1.00  0.00    -0.010 C 
HETATM   13  C13 UNL     1       7.862 -15.072 -26.320  1.00  0.00     0.009 C 
HETATM   14  C18 UNL     1       7.293 -14.277 -24.089  1.00  0.00     0.030 C 
HETATM   15  C14 UNL     1       7.443 -13.718 -26.884  1.00  0.00    -0.010 C 
HETATM   16  C16 UNL     1       7.685 -12.650 -25.867  1.00  0.00     0.030 C 
HETATM   17  C17 UNL     1       6.834 -12.931 -24.629  1.00  0.00     0.087 C 
ENDBRANCH   6   8
BRANCH   3  18
HETATM   18  C4  UNL     1       0.713 -12.088 -24.451  1.00  0.00     0.038 C 
HETATM   19  C5  UNL     1       0.328 -12.859 -23.238  1.00  0.00     0.030 C 
HETATM   20  C6  UNL     1      -1.059 -12.596 -22.733  1.00  0.00     0.114 C 
HETATM   21  N1  UNL     1      -2.029 -12.269 -23.708  1.00  0.00    -0.421 N 
HETATM   22  C7  UNL     1      -1.594 -11.413 -24.766  1.00  0.00     0.114 C 
ATOM     23  H1  UNL     1      -2.984 -12.623 -23.659  1.00  0.00     0.153 HD
HETATM   24  C8  UNL     1      -0.193 -10.883 -24.567  1.00  0.00     0.030 C 
ENDBRANCH   3  18
TORSDOF 2
ENDMDL
MODEL 2
REMARK VINA RESULT: -9.376495241      0.086      1.816
REMARK  2 active torsions:
REMARK  status: ('A' for Active; 'I' for Inactive)
REMARK    1  A    between atoms: C3_3  and  C4_4 
REMARK    2  A    between atoms: C9_13  and  N3_14 
ROOT
HETATM    1  C1  UNL     1       3.798 -10.126 -23.511  1.00  0.00     0.006 A 
HETATM    2  C2  UNL     1       2.493 -10.520 -23.669  1.00  0.00     0.025 A 
HETATM    3  C3  UNL     1       2.170 -11.701 -24.294  1.00  0.00     0.015 A 
HETATM    4  N2  UNL     1       3.160 -12.475 -24.756  1.00  0.00    -0.346 N 
ATOM      5  H2  UNL     1       2.916 -13.351 -25.219  1.00  0.00     0.167 HD
HETATM    6  C9  UNL     1       4.481 -12.147 -24.635  1.00  0.00     0.104 A 
HETATM    7  C19 UNL     1       4.796 -10.977 -24.015  1.00  0.00     0.048 A 
ENDROOT
BRANCH   6   8
HETATM    8  N3  UNL     1       5.480 -13.002 -25.152  1.00  0.00    -0.358 N 
HETATM    9  C10 UNL     1       6.867 -12.914 -24.659  1.00  0.00     0.087 C 
HETATM   10  C11 UNL     1       7.726 -12.623 -25.863  1.00  0.00     0.030 C 
HETATM   11  C15 UNL     1       7.288 -14.243 -24.092  1.00  0.00     0.030 C 
HETATM   12  C12 UNL     1       7.595 -13.756 -26.859  1.00  0.00    -0.010 C 
HETATM   13  C13 UNL     1       7.920 -15.097 -26.274  1.00  0.00     0.009 C 
HETATM   14  C18 UNL     1       6.166 -13.790 -27.345  1.00  0.00     0.030 C 
HETATM   15  C14 UNL     1       6.988 -15.335 -25.091  1.00  0.00    -0.010 C 
HETATM   16  C16 UNL     1       5.569 -15.343 -25.558  1.00  0.00     0.030 C 
HETATM   17  C17 UNL     1       5.229 -13.981 -26.162  1.00  0.00     0.087 C 
ENDBRANCH   6   8
BRANCH   3  18
HETATM   18  C4  UNL     1       0.727 -12.113 -24.456  1.00  0.00     0.038 C 
HETATM   19  C5  UNL     1       0.328 -12.864 -23.235  1.00  0.00     0.030 C 
HETATM   20  C6  UNL     1      -1.061 -12.583 -22.742  1.00  0.00     0.114 C 
HETATM   21  N1  UNL     1      -2.021 -12.261 -23.728  1.00  0.00    -0.421 N 
HETATM   22  C7  UNL     1      -1.572 -11.424 -24.795  1.00  0.00     0.114 C 
ATOM     23  H1  UNL     1      -2.979 -12.607 -23.681  1.00  0.00     0.153 HD
HETATM   24  C8  UNL     1      -0.168 -10.903 -24.595  1.00  0.00     0.030 C 
ENDBRANCH   3  18
TORSDOF 2
ENDMDL
MODEL 3
REMARK VINA RESULT: -8.851004599      0.912      1.493
REMARK  2 active torsions:
REMARK  status: ('A' for Active; 'I' for Inactive)
REMARK    1  A    between atoms: C3_3  and  C4_4 
REMARK    2  A    between atoms: C9_13  and  N3_14 
ROOT
HETATM    1  C1  UNL     1       4.885  -9.448 -23.477  1.00  0.00     0.006 A 
HETATM    2  C2  UNL     1       3.518  -9.554 -23.536  1.00  0.00     0.025 A 
HETATM    3  C3  UNL     1       2.906 -10.661 -24.076  1.00  0.00     0.015 A 
HETATM    4  N2  UNL     1       3.671 -11.650 -24.551  1.00  0.00    -0.346 N 
ATOM      5  H2  UNL     1       3.214 -12.470 -24.951  1.00  0.00     0.167 HD
HETATM    6  C9  UNL     1       5.037 -11.614 -24.526  1.00  0.00     0.104 A 
HETATM    7  C19 UNL     1       5.639 -10.517 -23.991  1.00  0.00     0.048 A 
ENDROOT
BRANCH   6   8
HETATM    8  N3  UNL     1       5.790 -12.687 -25.052  1.00  0.00    -0.358 N 
HETATM    9  C10 UNL     1       5.188 -13.615 -26.029  1.00  0.00     0.087 C 
HETATM   10  C11 UNL     1       5.288 -14.991 -25.421  1.00  0.00     0.030 C 
HETATM   11  C15 UNL     1       5.993 -13.603 -27.301  1.00  0.00     0.030 C 
HETATM   12  C12 UNL     1       6.745 -15.338 -25.200  1.00  0.00    -0.010 C 
HETATM   13  C13 UNL     1       7.573 -15.235 -26.445  1.00  0.00     0.009 C 
HETATM   14  C18 UNL     1       7.306 -14.374 -24.181  1.00  0.00     0.030 C 
HETATM   15  C14 UNL     1       7.452 -13.810 -26.976  1.00  0.00    -0.010 C 
HETATM   16  C16 UNL     1       7.981 -12.846 -25.963  1.00  0.00     0.030 C 
HETATM   17  C17 UNL     1       7.146 -12.948 -24.687  1.00  0.00     0.087 C 
ENDBRANCH   6   8
BRANCH   3  18
HETATM   18  C4  UNL     1       1.400 -10.754 -24.130  1.00  0.00     0.038 C 
HETATM   19  C5  UNL     1       0.940 -10.001 -25.327  1.00  0.00     0.030 C 
HETATM   20  C6  UNL     1      -0.195 -10.633 -26.077  1.00  0.00     0.114 C 
HETATM   21  N1  UNL     1      -1.115 -11.379 -25.306  1.00  0.00    -0.421 N 
HETATM   22  C7  UNL     1      -0.559 -12.175 -24.258  1.00  0.00     0.114 C 
ATOM     23  H1  UNL     1      -2.119 -11.351 -25.487  1.00  0.00     0.153 HD
HETATM   24  C8  UNL     1       0.951 -12.192 -24.259  1.00  0.00     0.030 C 
ENDBRANCH   3  18
TORSDOF 2
ENDMDL
MODEL 4
REMARK VINA RESULT: -8.801805497      0.895      2.325
REMARK  2 active torsions:
REMARK  status: ('A' for Active; 'I' for Inactive)
REMARK    1  A    between atoms: C3_3  and  C4_4 
REMARK    2  A    between atoms: C9_13  and  N3_14 
ROOT
HETATM    1  C1  UNL     1       4.815  -9.496 -23.433  1.00  0.00     0.006 A 
HETATM    2  C2  UNL     1       3.447  -9.594 -23.499  1.00  0.00     0.025 A 
HETATM    3  C3  UNL     1       2.833 -10.680 -24.078  1.00  0.00     0.015 A 
HETATM    4  N2  UNL     1       3.596 -11.655 -24.584  1.00  0.00    -0.346 N 
ATOM      5  H2  UNL     1       3.137 -12.459 -25.013  1.00  0.00     0.167 HD
HETATM    6  C9  UNL     1       4.962 -11.625 -24.554  1.00  0.00     0.104 A 
HETATM    7  C19 UNL     1       5.566 -10.549 -23.980  1.00  0.00     0.048 A 
ENDROOT
BRANCH   6   8
HETATM    8  N3  UNL     1       5.713 -12.683 -25.115  1.00  0.00    -0.358 N 
HETATM    9  C10 UNL     1       7.123 -12.883 -24.732  1.00  0.00     0.087 C 
HETATM   10  C11 UNL     1       7.923 -12.803 -26.008  1.00  0.00     0.030 C 
HETATM   11  C15 UNL     1       7.300 -14.260 -24.152  1.00  0.00     0.030 C 
HETATM   12  C12 UNL     1       7.475 -13.901 -26.949  1.00  0.00    -0.010 C 
HETATM   13  C13 UNL     1       7.558 -15.269 -26.344  1.00  0.00     0.009 C 
HETATM   14  C18 UNL     1       6.036 -13.639 -27.325  1.00  0.00     0.030 C 
HETATM   15  C14 UNL     1       6.696 -15.282 -25.085  1.00  0.00    -0.010 C 
HETATM   16  C16 UNL     1       5.274 -14.997 -25.443  1.00  0.00     0.030 C 
HETATM   17  C17 UNL     1       5.180 -13.605 -26.067  1.00  0.00     0.087 C 
ENDBRANCH   6   8
BRANCH   3  18
HETATM   18  C4  UNL     1       1.327 -10.765 -24.139  1.00  0.00     0.038 C 
HETATM   19  C5  UNL     1       0.877 -10.025 -25.349  1.00  0.00     0.030 C 
HETATM   20  C6  UNL     1      -0.257 -10.660 -26.097  1.00  0.00     0.114 C 
HETATM   21  N1  UNL     1      -1.185 -11.392 -25.322  1.00  0.00    -0.421 N 
HETATM   22  C7  UNL     1      -0.639 -12.177 -24.261  1.00  0.00     0.114 C 
ATOM     23  H1  UNL     1      -2.188 -11.360 -25.509  1.00  0.00     0.153 HD
HETATM   24  C8  UNL     1       0.871 -12.202 -24.253  1.00  0.00     0.030 C 
ENDBRANCH   3  18
TORSDOF 2
ENDMDL
MODEL 5
REMARK VINA RESULT: -8.793502355      2.892      3.613
REMARK  2 active torsions:
REMARK  status: ('A' for Active; 'I' for Inactive)
REMARK    1  A    between atoms: C3_3  and  C4_4 
REMARK    2  A    between atoms: C9_13  and  N3_14 
ROOT
HETATM    1  C1  UNL     1       7.673  -9.739 -23.296  1.00  0.00     0.006 A 
HETATM    2  C2  UNL     1       6.479  -9.130 -23.000  1.00  0.00     0.025 A 
HETATM    3  C3  UNL     1       5.277  -9.702 -23.344  1.00  0.00     0.015 A 
HETATM    4  N2  UNL     1       5.284 -10.879 -23.982  1.00  0.00    -0.346 N 
ATOM      5  H2  UNL     1       4.391 -11.300 -24.236  1.00  0.00     0.167 HD
HETATM    6  C9  UNL     1       6.434 -11.542 -24.309  1.00  0.00     0.104 A 
HETATM    7  C19 UNL     1       7.621 -10.973 -23.967  1.00  0.00     0.048 A 
ENDROOT
BRANCH   6   8
HETATM    8  N3  UNL     1       6.376 -12.778 -24.992  1.00  0.00    -0.358 N 
HETATM    9  C10 UNL     1       5.100 -13.266 -25.548  1.00  0.00     0.087 C 
HETATM   10  C11 UNL     1       4.845 -14.606 -24.906  1.00  0.00     0.030 C 
HETATM   11  C15 UNL     1       5.241 -13.475 -27.032  1.00  0.00     0.030 C 
HETATM   12  C12 UNL     1       5.968 -15.555 -25.264  1.00  0.00    -0.010 C 
HETATM   13  C13 UNL     1       6.178 -15.695 -26.741  1.00  0.00     0.009 C 
HETATM   14  C18 UNL     1       7.244 -15.022 -24.656  1.00  0.00     0.030 C 
HETATM   15  C14 UNL     1       6.468 -14.309 -27.310  1.00  0.00    -0.010 C 
HETATM   16  C16 UNL     1       7.714 -13.761 -26.695  1.00  0.00     0.030 C 
HETATM   17  C17 UNL     1       7.513 -13.621 -25.186  1.00  0.00     0.087 C 
ENDBRANCH   6   8
BRANCH   3  18
HETATM   18  C4  UNL     1       3.976  -9.014 -23.008  1.00  0.00     0.038 C 
HETATM   19  C5  UNL     1       4.301  -7.666 -22.469  1.00  0.00     0.030 C 
HETATM   20  C6  UNL     1       3.378  -6.567 -22.908  1.00  0.00     0.114 C 
HETATM   21  N1  UNL     1       2.035  -6.937 -23.146  1.00  0.00    -0.421 N 
HETATM   22  C7  UNL     1       1.833  -8.196 -23.789  1.00  0.00     0.114 C 
ATOM     23  H1  UNL     1       1.255  -6.339 -22.874  1.00  0.00     0.153 HD
HETATM   24  C8  UNL     1       3.117  -8.849 -24.241  1.00  0.00     0.030 C 
ENDBRANCH   3  18
TORSDOF 2
ENDMDL
