MODEL 1
REMARK VINA RESULT: -8.936008334      0.000      0.000
REMARK  2 active torsions:
REMARK  status: ('A' for Active; 'I' for Inactive)
REMARK    1  A    between atoms: C6_9  and  C7_10 
REMARK    2  A    between atoms: N3_13  and  C10_14 
ROOT
HETATM    1  C1  UNL     1       3.297  -5.452 -19.742  1.00  0.00     0.151 C 
HETATM    2  N1  UNL     1       3.650  -5.290 -21.156  1.00  0.00    -0.370 N 
HETATM    3  C2  UNL     1       3.454  -4.036 -21.857  1.00  0.00     0.124 C 
HETATM    4  C3  UNL     1       4.735  -3.708 -22.551  1.00  0.00     0.026 C 
HETATM    5  C4  UNL     1       5.268  -4.767 -23.446  1.00  0.00     0.063 C 
HETATM    6  C5  UNL     1       4.976  -6.138 -22.988  1.00  0.00     0.055 A 
HETATM    7  N2  UNL     1       5.349  -7.333 -23.472  1.00  0.00    -0.346 N 
ATOM      8  H2  UNL     1       5.937  -7.477 -24.293  1.00  0.00     0.167 HD
HETATM    9  C6  UNL     1       4.825  -8.322 -22.703  1.00  0.00     0.087 A 
HETATM   10  N4  UNL     1       4.120  -7.714 -21.734  1.00  0.00    -0.330 N 
ATOM     11  H4  UNL     1       3.605  -8.191 -20.994  1.00  0.00     0.168 HD
HETATM   12  C18 UNL     1       4.199  -6.369 -21.889  1.00  0.00     0.127 A 
ENDROOT
BRANCH   9  13
HETATM   13  C7  UNL     1       4.985  -9.795 -22.884  1.00  0.00     0.056 C 
HETATM   14  C8  UNL     1       6.417 -10.144 -23.245  1.00  0.00     0.032 C 
HETATM   15  C9  UNL     1       6.484 -11.268 -24.265  1.00  0.00     0.118 C 
HETATM   16  N3  UNL     1       5.485 -12.230 -23.974  1.00  0.00    -0.408 N 
HETATM   17  C16 UNL     1       4.139 -11.738 -24.106  1.00  0.00     0.118 C 
HETATM   18  C17 UNL     1       4.103 -10.219 -24.059  1.00  0.00     0.032 C 
BRANCH  16  19
HETATM   19  C10 UNL     1       5.684 -13.552 -24.459  1.00  0.00     0.079 C 
HETATM   20  C11 UNL     1       4.384 -14.243 -24.868  1.00  0.00     0.025 C 
HETATM   21  C12 UNL     1       4.766 -15.671 -25.238  1.00  0.00     0.002 C 
HETATM   22  C13 UNL     1       5.626 -15.596 -26.481  1.00  0.00     0.000 C 
HETATM   23  C14 UNL     1       6.964 -14.987 -26.049  1.00  0.00     0.002 C 
HETATM   24  C15 UNL     1       6.729 -13.580 -25.522  1.00  0.00     0.025 C 
ENDBRANCH  16  19
ENDBRANCH   9  13
TORSDOF 2
ENDMDL
MODEL 2
REMARK VINA RESULT: -8.899572273      0.670      1.228
REMARK  2 active torsions:
REMARK  status: ('A' for Active; 'I' for Inactive)
REMARK    1  A    between atoms: C6_9  and  C7_10 
REMARK    2  A    between atoms: N3_13  and  C10_14 
ROOT
HETATM    1  C1  UNL     1       3.546  -5.702 -19.071  1.00  0.00     0.151 C 
HETATM    2  N1  UNL     1       3.758  -5.352 -20.479  1.00  0.00    -0.370 N 
HETATM    3  C2  UNL     1       3.564  -4.002 -20.972  1.00  0.00     0.124 C 
HETATM    4  C3  UNL     1       4.781  -3.632 -21.751  1.00  0.00     0.026 C 
HETATM    5  C4  UNL     1       5.155  -4.572 -22.840  1.00  0.00     0.063 C 
HETATM    6  C5  UNL     1       4.834  -5.981 -22.548  1.00  0.00     0.055 A 
HETATM    7  N2  UNL     1       5.084  -7.109 -23.232  1.00  0.00    -0.346 N 
ATOM      8  H2  UNL     1       5.573  -7.157 -24.126  1.00  0.00     0.167 HD
HETATM    9  C6  UNL     1       4.586  -8.175 -22.556  1.00  0.00     0.087 A 
HETATM   10  N4  UNL     1       4.024  -7.684 -21.438  1.00  0.00    -0.330 N 
ATOM     11  H4  UNL     1       3.561  -8.241 -20.719  1.00  0.00     0.168 HD
HETATM   12  C18 UNL     1       4.164  -6.336 -21.412  1.00  0.00     0.127 A 
ENDROOT
BRANCH   9  13
HETATM   13  C7  UNL     1       4.641  -9.612 -22.957  1.00  0.00     0.056 C 
HETATM   14  C8  UNL     1       6.073 -10.056 -23.187  1.00  0.00     0.032 C 
HETATM   15  C9  UNL     1       6.186 -11.011 -24.364  1.00  0.00     0.118 C 
HETATM   16  N3  UNL     1       5.075 -11.891 -24.364  1.00  0.00    -0.408 N 
HETATM   17  C16 UNL     1       3.809 -11.241 -24.581  1.00  0.00     0.118 C 
HETATM   18  C17 UNL     1       3.901  -9.752 -24.288  1.00  0.00     0.032 C 
BRANCH  16  19
HETATM   19  C10 UNL     1       5.224 -13.138 -25.033  1.00  0.00     0.079 C 
HETATM   20  C11 UNL     1       6.564 -13.815 -24.748  1.00  0.00     0.025 C 
HETATM   21  C12 UNL     1       6.602 -15.057 -25.630  1.00  0.00     0.002 C 
HETATM   22  C13 UNL     1       5.527 -15.996 -25.127  1.00  0.00     0.000 C 
HETATM   23  C14 UNL     1       4.184 -15.358 -25.499  1.00  0.00     0.002 C 
HETATM   24  C15 UNL     1       4.049 -14.021 -24.785  1.00  0.00     0.025 C 
ENDBRANCH  16  19
ENDBRANCH   9  13
TORSDOF 2
ENDMDL
MODEL 3
REMARK VINA RESULT: -8.746362420      0.711      1.731
REMARK  2 active torsions:
REMARK  status: ('A' for Active; 'I' for Inactive)
REMARK    1  A    between atoms: C6_9  and  C7_10 
REMARK    2  A    between atoms: N3_13  and  C10_14 
ROOT
HETATM    1  C1  UNL     1       5.174  -4.621 -25.002  1.00  0.00     0.151 C 
HETATM    2  N1  UNL     1       5.009  -4.861 -23.565  1.00  0.00    -0.370 N 
HETATM    3  C2  UNL     1       5.047  -3.781 -22.598  1.00  0.00     0.124 C 
HETATM    4  C3  UNL     1       3.844  -3.920 -21.725  1.00  0.00     0.026 C 
HETATM    5  C4  UNL     1       3.675  -5.245 -21.073  1.00  0.00     0.063 C 
HETATM    6  C5  UNL     1       4.168  -6.375 -21.882  1.00  0.00     0.055 A 
HETATM    7  N2  UNL     1       4.121  -7.701 -21.676  1.00  0.00    -0.346 N 
ATOM      8  H2  UNL     1       3.703  -8.155 -20.863  1.00  0.00     0.167 HD
HETATM    9  C6  UNL     1       4.715  -8.347 -22.711  1.00  0.00     0.087 A 
HETATM   10  N4  UNL     1       5.130  -7.393 -23.563  1.00  0.00    -0.330 N 
ATOM     11  H4  UNL     1       5.617  -7.563 -24.444  1.00  0.00     0.168 HD
HETATM   12  C18 UNL     1       4.804  -6.172 -23.073  1.00  0.00     0.127 A 
ENDROOT
BRANCH   9  13
HETATM   13  C7  UNL     1       4.886  -9.820 -22.886  1.00  0.00     0.056 C 
HETATM   14  C8  UNL     1       6.319 -10.158 -23.254  1.00  0.00     0.032 C 
HETATM   15  C9  UNL     1       6.390 -11.286 -24.269  1.00  0.00     0.118 C 
HETATM   16  N3  UNL     1       5.400 -12.255 -23.969  1.00  0.00    -0.408 N 
HETATM   17  C16 UNL     1       4.049 -11.775 -24.096  1.00  0.00     0.118 C 
HETATM   18  C17 UNL     1       4.002 -10.255 -24.056  1.00  0.00     0.032 C 
BRANCH  16  19
HETATM   19  C10 UNL     1       5.607 -13.577 -24.449  1.00  0.00     0.079 C 
HETATM   20  C11 UNL     1       4.318 -14.258 -24.908  1.00  0.00     0.025 C 
HETATM   21  C12 UNL     1       4.704 -15.688 -25.267  1.00  0.00     0.002 C 
HETATM   22  C13 UNL     1       5.610 -15.616 -26.476  1.00  0.00     0.000 C 
HETATM   23  C14 UNL     1       6.936 -15.019 -25.993  1.00  0.00     0.002 C 
HETATM   24  C15 UNL     1       6.691 -13.611 -25.472  1.00  0.00     0.025 C 
ENDBRANCH  16  19
ENDBRANCH   9  13
TORSDOF 2
ENDMDL
MODEL 4
REMARK VINA RESULT: -8.678896838      1.034      1.923
REMARK  2 active torsions:
REMARK  status: ('A' for Active; 'I' for Inactive)
REMARK    1  A    between atoms: C6_9  and  C7_10 
REMARK    2  A    between atoms: N3_13  and  C10_14 
ROOT
HETATM    1  C1  UNL     1       3.847  -6.629 -18.550  1.00  0.00     0.151 C 
HETATM    2  N1  UNL     1       3.653  -5.844 -19.773  1.00  0.00    -0.370 N 
HETATM    3  C2  UNL     1       3.088  -4.508 -19.745  1.00  0.00     0.124 C 
HETATM    4  C3  UNL     1       3.994  -3.624 -20.537  1.00  0.00     0.026 C 
HETATM    5  C4  UNL     1       4.281  -4.077 -21.922  1.00  0.00     0.063 C 
HETATM    6  C5  UNL     1       4.319  -5.543 -22.075  1.00  0.00     0.055 A 
HETATM    7  N2  UNL     1       4.618  -6.318 -23.129  1.00  0.00    -0.346 N 
ATOM      8  H2  UNL     1       4.886  -5.976 -24.052  1.00  0.00     0.167 HD
HETATM    9  C6  UNL     1       4.511  -7.626 -22.782  1.00  0.00     0.087 A 
HETATM   10  N4  UNL     1       4.139  -7.644 -21.490  1.00  0.00    -0.330 N 
ATOM     11  H4  UNL     1       3.976  -8.486 -20.937  1.00  0.00     0.168 HD
HETATM   12  C18 UNL     1       4.015  -6.373 -21.035  1.00  0.00     0.127 A 
ENDROOT
BRANCH   9  13
HETATM   13  C7  UNL     1       4.751  -8.819 -23.646  1.00  0.00     0.056 C 
HETATM   14  C8  UNL     1       3.544  -9.739 -23.646  1.00  0.00     0.032 C 
HETATM   15  C9  UNL     1       3.950 -11.203 -23.654  1.00  0.00     0.118 C 
HETATM   16  N3  UNL     1       5.076 -11.376 -24.496  1.00  0.00    -0.408 N 
HETATM   17  C16 UNL     1       6.263 -10.702 -24.038  1.00  0.00     0.118 C 
HETATM   18  C17 UNL     1       5.920  -9.602 -23.046  1.00  0.00     0.032 C 
BRANCH  16  19
HETATM   19  C10 UNL     1       5.301 -12.672 -25.036  1.00  0.00     0.079 C 
HETATM   20  C11 UNL     1       6.630 -13.284 -24.595  1.00  0.00     0.025 C 
HETATM   21  C12 UNL     1       6.761 -14.599 -25.354  1.00  0.00     0.002 C 
HETATM   22  C13 UNL     1       5.672 -15.518 -24.846  1.00  0.00     0.000 C 
HETATM   23  C14 UNL     1       4.346 -14.954 -25.369  1.00  0.00     0.002 C 
HETATM   24  C15 UNL     1       4.131 -13.563 -24.792  1.00  0.00     0.025 C 
ENDBRANCH  16  19
ENDBRANCH   9  13
TORSDOF 2
ENDMDL
MODEL 5
REMARK VINA RESULT: -8.632132479      0.881      2.068
REMARK  2 active torsions:
REMARK  status: ('A' for Active; 'I' for Inactive)
REMARK    1  A    between atoms: C6_9  and  C7_10 
REMARK    2  A    between atoms: N3_13  and  C10_14 
ROOT
HETATM    1  C1  UNL     1       5.280  -4.138 -24.401  1.00  0.00     0.151 C 
HETATM    2  N1  UNL     1       5.106  -4.557 -23.007  1.00  0.00    -0.370 N 
HETATM    3  C2  UNL     1       5.232  -3.625 -21.904  1.00  0.00     0.124 C 
HETATM    4  C3  UNL     1       4.028  -3.791 -21.038  1.00  0.00     0.026 C 
HETATM    5  C4  UNL     1       3.763  -5.176 -20.568  1.00  0.00     0.063 C 
HETATM    6  C5  UNL     1       4.164  -6.220 -21.529  1.00  0.00     0.055 A 
HETATM    7  N2  UNL     1       4.018  -7.554 -21.503  1.00  0.00    -0.346 N 
ATOM      8  H2  UNL     1       3.572  -8.081 -20.752  1.00  0.00     0.167 HD
HETATM    9  C6  UNL     1       4.555  -8.096 -22.626  1.00  0.00     0.087 A 
HETATM   10  N4  UNL     1       5.035  -7.069 -23.348  1.00  0.00    -0.330 N 
ATOM     11  H4  UNL     1       5.502  -7.153 -24.252  1.00  0.00     0.168 HD
HETATM   12  C18 UNL     1       4.806  -5.905 -22.692  1.00  0.00     0.127 A 
ENDROOT
BRANCH   9  13
HETATM   13  C7  UNL     1       4.612  -9.540 -23.001  1.00  0.00     0.056 C 
HETATM   14  C8  UNL     1       6.046  -9.984 -23.223  1.00  0.00     0.032 C 
HETATM   15  C9  UNL     1       6.161 -10.961 -24.381  1.00  0.00     0.118 C 
HETATM   16  N3  UNL     1       5.052 -11.843 -24.366  1.00  0.00    -0.408 N 
HETATM   17  C16 UNL     1       3.786 -11.200 -24.595  1.00  0.00     0.118 C 
HETATM   18  C17 UNL     1       3.873  -9.706 -24.329  1.00  0.00     0.032 C 
BRANCH  16  19
HETATM   19  C10 UNL     1       5.205 -13.101 -25.011  1.00  0.00     0.079 C 
HETATM   20  C11 UNL     1       6.526 -13.792 -24.675  1.00  0.00     0.025 C 
HETATM   21  C12 UNL     1       6.574 -15.048 -25.537  1.00  0.00     0.002 C 
HETATM   22  C13 UNL     1       5.471 -15.964 -25.055  1.00  0.00     0.000 C 
HETATM   23  C14 UNL     1       4.149 -15.314 -25.476  1.00  0.00     0.002 C 
HETATM   24  C15 UNL     1       4.011 -13.966 -24.787  1.00  0.00     0.025 C 
ENDBRANCH  16  19
ENDBRANCH   9  13
TORSDOF 2
ENDMDL
