MODEL 1
REMARK VINA RESULT: -7.637162662      0.000      0.000
REMARK  2 active torsions:
REMARK  status: ('A' for Active; 'I' for Inactive)
REMARK    1  A    between atoms: C2_2  and  C4_4 
REMARK    2  A    between atoms: C4_4  and  C5_5 
ROOT
HETATM    1  C5  UNL     1       6.037 -12.407 -24.659  1.00  0.00     0.122 C 
HETATM    2  C6  UNL     1       4.763 -12.343 -23.949  1.00  0.00     0.032 C 
HETATM    3  C7  UNL     1       4.037 -11.019 -24.022  1.00  0.00     0.011 C 
HETATM    4  C8  UNL     1       4.896  -9.828 -24.219  1.00  0.00     0.034 C 
HETATM    5  C9  UNL     1       6.350 -10.163 -24.063  1.00  0.00     0.218 C 
HETATM    6  O1  UNL     1       6.741 -11.226 -24.805  1.00  0.00    -0.371 OA
HETATM    7  C10 UNL     1       6.769 -10.187 -22.638  1.00  0.00     0.247 C 
HETATM    8  O2  UNL     1       7.975 -10.442 -22.400  1.00  0.00    -0.271 OA
HETATM    9  N1  UNL     1       5.808  -9.927 -21.627  1.00  0.00    -0.358 N 
ATOM     10  H1  UNL     1       5.944 -10.345 -20.707  1.00  0.00     0.162 HD
HETATM   11  C11 UNL     1       4.646  -9.094 -21.842  1.00  0.00     0.132 C 
HETATM   12  C12 UNL     1       4.493  -8.706 -23.299  1.00  0.00    -0.018 C 
HETATM   13  C13 UNL     1       3.018  -8.383 -23.532  1.00  0.00     0.011 C 
HETATM   14  C14 UNL     1       2.829  -7.551 -24.786  1.00  0.00     0.001 C 
HETATM   15  C15 UNL     1       2.646  -6.092 -24.432  1.00  0.00     0.000 C 
HETATM   16  C16 UNL     1       3.908  -5.442 -23.979  1.00  0.00     0.000 C 
HETATM   17  C17 UNL     1       4.694  -6.255 -22.984  1.00  0.00     0.001 C 
HETATM   18  C18 UNL     1       5.313  -7.493 -23.600  1.00  0.00     0.011 C 
ENDROOT
BRANCH   1  19
HETATM   19  C4  UNL     1       6.971 -13.428 -24.095  1.00  0.00     0.035 C 
BRANCH  19  20
HETATM   20  C2  UNL     1       7.395 -14.557 -24.948  1.00  0.00    -0.020 C 
HETATM   21  C1  UNL     1       6.081 -15.376 -25.184  1.00  0.00     0.009 C 
HETATM   22  C3  UNL     1       7.877 -14.256 -26.324  1.00  0.00     0.009 C 
ENDBRANCH  19  20
ENDBRANCH   1  19
TORSDOF 2
ENDMDL
MODEL 2
REMARK VINA RESULT: -7.451367084      0.863      1.154
REMARK  2 active torsions:
REMARK  status: ('A' for Active; 'I' for Inactive)
REMARK    1  A    between atoms: C2_2  and  C4_4 
REMARK    2  A    between atoms: C4_4  and  C5_5 
ROOT
HETATM    1  C5  UNL     1       4.706 -12.452 -24.775  1.00  0.00     0.122 C 
HETATM    2  C6  UNL     1       3.591 -12.102 -23.900  1.00  0.00     0.032 C 
HETATM    3  C7  UNL     1       3.186 -10.646 -23.906  1.00  0.00     0.011 C 
HETATM    4  C8  UNL     1       4.258  -9.683 -24.248  1.00  0.00     0.034 C 
HETATM    5  C9  UNL     1       5.604 -10.345 -24.283  1.00  0.00     0.218 C 
HETATM    6  O1  UNL     1       5.634 -11.465 -25.045  1.00  0.00    -0.371 OA
HETATM    7  C10 UNL     1       6.200 -10.476 -22.929  1.00  0.00     0.247 C 
HETATM    8  O2  UNL     1       7.336 -11.004 -22.851  1.00  0.00    -0.271 OA
HETATM    9  N1  UNL     1       5.474 -10.008 -21.803  1.00  0.00    -0.358 N 
ATOM     10  H1  UNL     1       5.636 -10.453 -20.900  1.00  0.00     0.162 HD
HETATM   11  C11 UNL     1       4.515  -8.928 -21.879  1.00  0.00     0.132 C 
HETATM   12  C12 UNL     1       4.255  -8.505 -23.310  1.00  0.00    -0.018 C 
HETATM   13  C13 UNL     1       2.876  -7.849 -23.348  1.00  0.00     0.011 C 
HETATM   14  C14 UNL     1       2.711  -6.987 -24.585  1.00  0.00     0.001 C 
HETATM   15  C15 UNL     1       2.918  -5.527 -24.246  1.00  0.00     0.000 C 
HETATM   16  C16 UNL     1       4.346  -5.190 -23.986  1.00  0.00     0.000 C 
HETATM   17  C17 UNL     1       5.054  -6.169 -23.087  1.00  0.00     0.001 C 
HETATM   18  C18 UNL     1       5.282  -7.511 -23.750  1.00  0.00     0.011 C 
ENDROOT
BRANCH   1  19
HETATM   19  C4  UNL     1       5.450 -13.666 -24.318  1.00  0.00     0.035 C 
BRANCH  19  20
HETATM   20  C2  UNL     1       5.846 -14.679 -25.317  1.00  0.00    -0.020 C 
HETATM   21  C1  UNL     1       7.276 -15.128 -24.863  1.00  0.00     0.009 C 
HETATM   22  C3  UNL     1       5.074 -15.952 -25.371  1.00  0.00     0.009 C 
ENDBRANCH  19  20
ENDBRANCH   1  19
TORSDOF 2
ENDMDL
MODEL 3
REMARK VINA RESULT: -6.997389547      2.422      3.524
REMARK  2 active torsions:
REMARK  status: ('A' for Active; 'I' for Inactive)
REMARK    1  A    between atoms: C2_2  and  C4_4 
REMARK    2  A    between atoms: C4_4  and  C5_5 
ROOT
HETATM    1  C5  UNL     1       4.014 -12.266 -23.889  1.00  0.00     0.122 C 
HETATM    2  C6  UNL     1       4.848 -11.362 -24.674  1.00  0.00     0.032 C 
HETATM    3  C7  UNL     1       4.807  -9.909 -24.261  1.00  0.00     0.011 C 
HETATM    4  C8  UNL     1       3.557  -9.464 -23.603  1.00  0.00     0.034 C 
HETATM    5  C9  UNL     1       2.481 -10.504 -23.700  1.00  0.00     0.218 C 
HETATM    6  O1  UNL     1       2.883 -11.734 -23.298  1.00  0.00    -0.371 OA
HETATM    7  C10 UNL     1       1.771 -10.457 -25.004  1.00  0.00     0.247 C 
HETATM    8  O2  UNL     1       0.839 -11.279 -25.179  1.00  0.00    -0.271 OA
HETATM    9  N1  UNL     1       2.169  -9.503 -25.976  1.00  0.00    -0.358 N 
ATOM     10  H1  UNL     1       2.023  -9.722 -26.961  1.00  0.00     0.162 HD
HETATM   11  C11 UNL     1       2.772  -8.234 -25.633  1.00  0.00     0.132 C 
HETATM   12  C12 UNL     1       3.089  -8.143 -24.154  1.00  0.00    -0.018 C 
HETATM   13  C13 UNL     1       4.209  -7.116 -23.991  1.00  0.00     0.011 C 
HETATM   14  C14 UNL     1       4.281  -6.604 -22.565  1.00  0.00     0.001 C 
HETATM   15  C15 UNL     1       3.613  -5.251 -22.452  1.00  0.00     0.000 C 
HETATM   16  C16 UNL     1       2.128  -5.330 -22.535  1.00  0.00     0.000 C 
HETATM   17  C17 UNL     1       1.620  -6.211 -23.647  1.00  0.00     0.001 C 
HETATM   18  C18 UNL     1       1.887  -7.681 -23.395  1.00  0.00     0.011 C 
ENDROOT
BRANCH   1  19
HETATM   19  C4  UNL     1       3.601 -13.488 -24.645  1.00  0.00     0.035 C 
BRANCH  19  20
HETATM   20  C2  UNL     1       4.527 -14.637 -24.706  1.00  0.00    -0.020 C 
HETATM   21  C1  UNL     1       4.114 -15.396 -26.012  1.00  0.00     0.009 C 
HETATM   22  C3  UNL     1       5.978 -14.360 -24.901  1.00  0.00     0.009 C 
ENDBRANCH  19  20
ENDBRANCH   1  19
TORSDOF 2
ENDMDL
MODEL 4
REMARK VINA RESULT: -6.877548351      2.224      3.889
REMARK  2 active torsions:
REMARK  status: ('A' for Active; 'I' for Inactive)
REMARK    1  A    between atoms: C2_2  and  C4_4 
REMARK    2  A    between atoms: C4_4  and  C5_5 
ROOT
HETATM    1  C5  UNL     1       8.167 -14.760 -26.323  1.00  0.00     0.122 C 
HETATM    2  C6  UNL     1       7.380 -15.195 -25.173  1.00  0.00     0.032 C 
HETATM    3  C7  UNL     1       6.161 -14.359 -24.859  1.00  0.00     0.011 C 
HETATM    4  C8  UNL     1       6.230 -12.941 -25.281  1.00  0.00     0.034 C 
HETATM    5  C9  UNL     1       7.612 -12.563 -25.725  1.00  0.00     0.218 C 
HETATM    6  O1  UNL     1       8.136 -13.415 -26.639  1.00  0.00    -0.371 OA
HETATM    7  C10 UNL     1       8.498 -12.230 -24.580  1.00  0.00     0.247 C 
HETATM    8  O2  UNL     1       9.675 -11.884 -24.847  1.00  0.00    -0.271 OA
HETATM    9  N1  UNL     1       7.985 -12.315 -23.260  1.00  0.00    -0.358 N 
ATOM     10  H1  UNL     1       8.633 -12.517 -22.499  1.00  0.00     0.162 HD
HETATM   11  C11 UNL     1       6.586 -12.127 -22.945  1.00  0.00     0.132 C 
HETATM   12  C12 UNL     1       5.738 -12.022 -24.195  1.00  0.00    -0.018 C 
HETATM   13  C13 UNL     1       4.315 -12.428 -23.814  1.00  0.00     0.011 C 
HETATM   14  C14 UNL     1       3.308 -11.923 -24.830  1.00  0.00     0.001 C 
HETATM   15  C15 UNL     1       2.624 -10.673 -24.323  1.00  0.00     0.000 C 
HETATM   16  C16 UNL     1       3.511  -9.477 -24.346  1.00  0.00     0.000 C 
HETATM   17  C17 UNL     1       4.892  -9.726 -23.797  1.00  0.00     0.001 C 
HETATM   18  C18 UNL     1       5.726 -10.614 -24.697  1.00  0.00     0.011 C 
ENDROOT
BRANCH   1  19
HETATM   19  C4  UNL     1       9.600 -15.177 -26.243  1.00  0.00     0.035 C 
BRANCH  19  20
HETATM   20  C2  UNL     1      10.636 -14.283 -26.798  1.00  0.00    -0.020 C 
HETATM   21  C1  UNL     1      11.855 -14.457 -25.830  1.00  0.00     0.009 C 
HETATM   22  C3  UNL     1      11.199 -14.606 -28.139  1.00  0.00     0.009 C 
ENDBRANCH  19  20
ENDBRANCH   1  19
TORSDOF 2
ENDMDL
MODEL 5
REMARK VINA RESULT: -6.802621128      1.295      1.987
REMARK  2 active torsions:
REMARK  status: ('A' for Active; 'I' for Inactive)
REMARK    1  A    between atoms: C2_2  and  C4_4 
REMARK    2  A    between atoms: C4_4  and  C5_5 
ROOT
HETATM    1  C5  UNL     1       3.716 -11.475 -24.585  1.00  0.00     0.122 C 
HETATM    2  C6  UNL     1       2.669 -10.913 -23.738  1.00  0.00     0.032 C 
HETATM    3  C7  UNL     1       2.549  -9.406 -23.756  1.00  0.00     0.011 C 
HETATM    4  C8  UNL     1       3.793  -8.668 -24.074  1.00  0.00     0.034 C 
HETATM    5  C9  UNL     1       4.988  -9.574 -24.076  1.00  0.00     0.218 C 
HETATM    6  O1  UNL     1       4.821 -10.684 -24.835  1.00  0.00    -0.371 OA
HETATM    7  C10 UNL     1       5.517  -9.808 -22.708  1.00  0.00     0.247 C 
HETATM    8  O2  UNL     1       6.530 -10.542 -22.602  1.00  0.00    -0.271 OA
HETATM    9  N1  UNL     1       4.868  -9.203 -21.601  1.00  0.00    -0.358 N 
ATOM     10  H1  UNL     1       4.922  -9.666 -20.693  1.00  0.00     0.162 HD
HETATM   11  C11 UNL     1       4.135  -7.961 -21.701  1.00  0.00     0.132 C 
HETATM   12  C12 UNL     1       3.993  -7.505 -23.138  1.00  0.00    -0.018 C 
HETATM   13  C13 UNL     1       2.765  -6.599 -23.210  1.00  0.00     0.011 C 
HETATM   14  C14 UNL     1       2.797  -5.728 -24.452  1.00  0.00     0.001 C 
HETATM   15  C15 UNL     1       3.270  -4.333 -24.111  1.00  0.00     0.000 C 
HETATM   16  C16 UNL     1       4.729  -4.272 -23.818  1.00  0.00     0.000 C 
HETATM   17  C17 UNL     1       5.218  -5.363 -22.901  1.00  0.00     0.001 C 
HETATM   18  C18 UNL     1       5.200  -6.728 -23.556  1.00  0.00     0.011 C 
ENDROOT
BRANCH   1  19
HETATM   19  C4  UNL     1       4.204 -12.805 -24.109  1.00  0.00     0.035 C 
BRANCH  19  20
HETATM   20  C2  UNL     1       4.742 -13.764 -25.095  1.00  0.00    -0.020 C 
HETATM   21  C1  UNL     1       6.245 -13.931 -24.690  1.00  0.00     0.009 C 
HETATM   22  C3  UNL     1       4.214 -15.156 -25.082  1.00  0.00     0.009 C 
ENDBRANCH  19  20
ENDBRANCH   1  19
TORSDOF 2
ENDMDL
