MODEL 1
REMARK VINA RESULT: -9.193121117      0.000      0.000
REMARK  3 active torsions:
REMARK  status: ('A' for Active; 'I' for Inactive)
REMARK    1  A    between atoms: C2_2  and  C3_4 
REMARK    2  A    between atoms: C3_4  and  C4_5 
REMARK    3  A    between atoms: C4_5  and  O2_6 
ROOT
HETATM    1  C4  UNL     1       8.208 -14.001 -26.500  1.00  0.00     0.072 C 
HETATM    2  C5  UNL     1       7.558 -13.200 -27.560  1.00  0.00     0.039 C 
HETATM    3  C6  UNL     1       6.133 -13.766 -27.548  1.00  0.00     0.009 C 
HETATM    4  C7  UNL     1       5.933 -14.325 -26.141  1.00  0.00     0.001 C 
HETATM    5  C8  UNL     1       4.648 -13.856 -25.633  1.00  0.00    -0.003 C 
HETATM    6  C9  UNL     1       3.646 -14.858 -25.199  1.00  0.00     0.008 C 
HETATM    7  C10 UNL     1       2.656 -13.991 -24.402  1.00  0.00     0.039 C 
HETATM    8  C11 UNL     1       3.320 -12.627 -24.267  1.00  0.00     0.067 C 
HETATM    9  C12 UNL     1       2.858 -11.818 -23.131  1.00  0.00     0.065 C 
HETATM   10  C13 UNL     1       1.938 -11.285 -24.238  1.00  0.00     0.171 C 
HETATM   11  O3  UNL     1       2.892 -11.681 -25.187  1.00  0.00    -0.380 OA
HETATM   12  C14 UNL     1       4.761 -13.015 -24.346  1.00  0.00     0.025 C 
HETATM   13  C15 UNL     1       5.720 -11.941 -24.656  1.00  0.00     0.009 C 
HETATM   14  C16 UNL     1       7.098 -12.546 -24.798  1.00  0.00     0.013 C 
HETATM   15  C17 UNL     1       7.142 -13.892 -25.388  1.00  0.00    -0.009 C 
HETATM   16  C18 UNL     1       7.537 -14.985 -24.398  1.00  0.00     0.019 C 
ENDROOT
BRANCH   1  17
HETATM   17  C3  UNL     1       9.541 -13.577 -26.032  1.00  0.00     0.116 C 
BRANCH  17  18
HETATM   18  C2  UNL     1      10.593 -14.125 -26.897  1.00  0.00     0.126 C 
HETATM   19  C1  UNL     1      11.466 -15.212 -26.384  1.00  0.00     0.091 C 
HETATM   20  O1  UNL     1      10.761 -13.709 -28.021  1.00  0.00    -0.298 OA
ENDBRANCH  17  18
ENDBRANCH   1  17
BRANCH   1  21
HETATM   21  O2  UNL     1       8.278 -15.333 -26.909  1.00  0.00    -0.389 OA
ATOM     22  H2  UNL     1       7.410 -15.716 -26.853  1.00  0.00     0.210 HD
ENDBRANCH   1  21
TORSDOF 3
ENDMDL
MODEL 2
REMARK VINA RESULT: -7.750733791      1.244      1.511
REMARK  3 active torsions:
REMARK  status: ('A' for Active; 'I' for Inactive)
REMARK    1  A    between atoms: C2_2  and  C3_4 
REMARK    2  A    between atoms: C3_4  and  C4_5 
REMARK    3  A    between atoms: C4_5  and  O2_6 
ROOT
HETATM    1  C4  UNL     1       8.208 -13.986 -26.127  1.00  0.00     0.072 C 
HETATM    2  C5  UNL     1       7.710 -13.122 -27.220  1.00  0.00     0.039 C 
HETATM    3  C6  UNL     1       6.192 -13.235 -27.038  1.00  0.00     0.009 C 
HETATM    4  C7  UNL     1       5.986 -13.586 -25.566  1.00  0.00     0.001 C 
HETATM    5  C8  UNL     1       4.952 -12.714 -25.021  1.00  0.00    -0.003 C 
HETATM    6  C9  UNL     1       3.753 -13.330 -24.404  1.00  0.00     0.008 C 
HETATM    7  C10 UNL     1       3.145 -12.142 -23.638  1.00  0.00     0.039 C 
HETATM    8  C11 UNL     1       4.185 -11.032 -23.708  1.00  0.00     0.067 C 
HETATM    9  C12 UNL     1       4.097 -10.027 -22.639  1.00  0.00     0.065 C 
HETATM   10  C13 UNL     1       3.260  -9.342 -23.727  1.00  0.00     0.171 C 
HETATM   11  O3  UNL     1       3.955 -10.085 -24.694  1.00  0.00    -0.380 OA
HETATM   12  C14 UNL     1       5.436 -11.837 -23.848  1.00  0.00     0.025 C 
HETATM   13  C15 UNL     1       6.626 -11.128 -24.347  1.00  0.00     0.009 C 
HETATM   14  C16 UNL     1       7.749 -12.126 -24.522  1.00  0.00     0.013 C 
HETATM   15  C17 UNL     1       7.340 -13.470 -24.959  1.00  0.00    -0.009 C 
HETATM   16  C18 UNL     1       7.503 -14.542 -23.884  1.00  0.00     0.019 C 
ENDROOT
BRANCH   1  17
HETATM   17  C3  UNL     1       9.648 -13.940 -25.811  1.00  0.00     0.116 C 
BRANCH  17  18
HETATM   18  C2  UNL     1      10.343 -15.095 -26.389  1.00  0.00     0.126 C 
HETATM   19  C1  UNL     1      11.406 -14.873 -27.404  1.00  0.00     0.091 C 
HETATM   20  O1  UNL     1      10.068 -16.225 -26.055  1.00  0.00    -0.298 OA
ENDBRANCH  17  18
ENDBRANCH   1  17
BRANCH   1  21
HETATM   21  O2  UNL     1       7.847 -15.308 -26.387  1.00  0.00    -0.389 OA
ATOM     22  H2  UNL     1       7.169 -15.567 -25.774  1.00  0.00     0.210 HD
ENDBRANCH   1  21
TORSDOF 3
ENDMDL
MODEL 3
REMARK VINA RESULT: -7.102841292      1.492      2.658
REMARK  3 active torsions:
REMARK  status: ('A' for Active; 'I' for Inactive)
REMARK    1  A    between atoms: C2_2  and  C3_4 
REMARK    2  A    between atoms: C3_4  and  C4_5 
REMARK    3  A    between atoms: C4_5  and  O2_6 
ROOT
HETATM    1  C4  UNL     1       7.355 -13.770 -25.401  1.00  0.00     0.072 C 
HETATM    2  C5  UNL     1       7.351 -13.737 -23.922  1.00  0.00     0.039 C 
HETATM    3  C6  UNL     1       6.521 -12.480 -23.640  1.00  0.00     0.009 C 
HETATM    4  C7  UNL     1       5.633 -12.298 -24.870  1.00  0.00     0.001 C 
HETATM    5  C8  UNL     1       4.266 -12.051 -24.424  1.00  0.00    -0.003 C 
HETATM    6  C9  UNL     1       3.587 -10.810 -24.865  1.00  0.00     0.008 C 
HETATM    7  C10 UNL     1       2.117 -11.118 -24.529  1.00  0.00     0.039 C 
HETATM    8  C11 UNL     1       2.082 -12.591 -24.148  1.00  0.00     0.067 C 
HETATM    9  C12 UNL     1       0.777 -13.247 -24.310  1.00  0.00     0.065 C 
HETATM   10  C13 UNL     1       0.696 -12.839 -22.833  1.00  0.00     0.171 C 
HETATM   11  O3  UNL     1       2.098 -12.836 -22.782  1.00  0.00    -0.380 OA
HETATM   12  C14 UNL     1       3.254 -13.103 -24.921  1.00  0.00     0.025 C 
HETATM   13  C15 UNL     1       3.801 -14.406 -24.509  1.00  0.00     0.009 C 
HETATM   14  C16 UNL     1       5.036 -14.698 -25.331  1.00  0.00     0.013 C 
HETATM   15  C17 UNL     1       5.856 -13.527 -25.679  1.00  0.00    -0.009 C 
HETATM   16  C18 UNL     1       5.815 -13.168 -27.163  1.00  0.00     0.019 C 
ENDROOT
BRANCH   1  17
HETATM   17  C3  UNL     1       7.852 -14.989 -26.065  1.00  0.00     0.116 C 
BRANCH  17  18
HETATM   18  C2  UNL     1       9.249 -14.821 -26.481  1.00  0.00     0.126 C 
HETATM   19  C1  UNL     1      10.251 -15.854 -26.110  1.00  0.00     0.091 C 
HETATM   20  O1  UNL     1       9.601 -13.856 -27.121  1.00  0.00    -0.298 OA
ENDBRANCH  17  18
ENDBRANCH   1  17
BRANCH   1  21
HETATM   21  O2  UNL     1       8.070 -12.672 -25.881  1.00  0.00    -0.389 OA
ATOM     22  H2  UNL     1       8.831 -12.986 -26.356  1.00  0.00     0.210 HD
ENDBRANCH   1  21
TORSDOF 3
ENDMDL
MODEL 4
REMARK VINA RESULT: -6.905013434      3.194      4.408
REMARK  3 active torsions:
REMARK  status: ('A' for Active; 'I' for Inactive)
REMARK    1  A    between atoms: C2_2  and  C3_4 
REMARK    2  A    between atoms: C3_4  and  C4_5 
REMARK    3  A    between atoms: C4_5  and  O2_6 
ROOT
HETATM    1  C4  UNL     1       5.640 -11.493 -24.239  1.00  0.00     0.072 C 
HETATM    2  C5  UNL     1       5.337 -12.251 -25.472  1.00  0.00     0.039 C 
HETATM    3  C6  UNL     1       4.130 -13.089 -25.034  1.00  0.00     0.009 C 
HETATM    4  C7  UNL     1       3.488 -12.305 -23.891  1.00  0.00     0.001 C 
HETATM    5  C8  UNL     1       2.050 -12.233 -24.128  1.00  0.00    -0.003 C 
HETATM    6  C9  UNL     1       1.131 -12.753 -23.088  1.00  0.00     0.008 C 
HETATM    7  C10 UNL     1      -0.215 -12.151 -23.526  1.00  0.00     0.039 C 
HETATM    8  C11 UNL     1       0.118 -11.162 -24.635  1.00  0.00     0.067 C 
HETATM    9  C12 UNL     1      -0.874 -10.097 -24.839  1.00  0.00     0.065 C 
HETATM   10  C13 UNL     1      -1.361 -11.124 -25.870  1.00  0.00     0.171 C 
HETATM   11  O3  UNL     1      -0.062 -11.653 -25.920  1.00  0.00    -0.380 OA
HETATM   12  C14 UNL     1       1.517 -10.793 -24.262  1.00  0.00     0.025 C 
HETATM   13  C15 UNL     1       2.336 -10.161 -25.310  1.00  0.00     0.009 C 
HETATM   14  C16 UNL     1       3.738  -9.964 -24.778  1.00  0.00     0.013 C 
HETATM   15  C17 UNL     1       4.222 -11.010 -23.864  1.00  0.00    -0.009 C 
HETATM   16  C18 UNL     1       4.367 -10.543 -22.418  1.00  0.00     0.019 C 
ENDROOT
BRANCH   1  17
HETATM   17  C3  UNL     1       6.599 -10.376 -24.332  1.00  0.00     0.116 C 
BRANCH  17  18
HETATM   18  C2  UNL     1       7.842 -10.700 -23.623  1.00  0.00     0.126 C 
HETATM   19  C1  UNL     1       8.161  -9.999 -22.352  1.00  0.00     0.091 C 
HETATM   20  O1  UNL     1       8.613 -11.528 -24.054  1.00  0.00    -0.298 OA
ENDBRANCH  17  18
ENDBRANCH   1  17
BRANCH   1  21
HETATM   21  O2  UNL     1       6.074 -12.377 -23.252  1.00  0.00    -0.389 OA
ATOM     22  H2  UNL     1       5.410 -13.044 -23.124  1.00  0.00     0.210 HD
ENDBRANCH   1  21
TORSDOF 3
ENDMDL
MODEL 5
REMARK VINA RESULT: -6.456752643      1.557      2.050
REMARK  3 active torsions:
REMARK  status: ('A' for Active; 'I' for Inactive)
REMARK    1  A    between atoms: C2_2  and  C3_4 
REMARK    2  A    between atoms: C3_4  and  C4_5 
REMARK    3  A    between atoms: C4_5  and  O2_6 
ROOT
HETATM    1  C4  UNL     1       8.468 -14.556 -26.540  1.00  0.00     0.072 C 
HETATM    2  C5  UNL     1       8.434 -13.357 -27.407  1.00  0.00     0.039 C 
HETATM    3  C6  UNL     1       6.966 -12.931 -27.290  1.00  0.00     0.009 C 
HETATM    4  C7  UNL     1       6.490 -13.483 -25.948  1.00  0.00     0.001 C 
HETATM    5  C8  UNL     1       5.784 -12.425 -25.234  1.00  0.00    -0.003 C 
HETATM    6  C9  UNL     1       4.385 -12.665 -24.807  1.00  0.00     0.008 C 
HETATM    7  C10 UNL     1       4.164 -11.528 -23.795  1.00  0.00     0.039 C 
HETATM    8  C11 UNL     1       5.533 -10.899 -23.576  1.00  0.00     0.067 C 
HETATM    9  C12 UNL     1       5.696 -10.186 -22.302  1.00  0.00     0.065 C 
HETATM   10  C13 UNL     1       5.283  -9.024 -23.215  1.00  0.00     0.171 C 
HETATM   11  O3  UNL     1       5.766  -9.748 -24.315  1.00  0.00    -0.380 OA
HETATM   12  C14 UNL     1       6.421 -12.063 -23.877  1.00  0.00     0.025 C 
HETATM   13  C15 UNL     1       7.832 -11.762 -24.168  1.00  0.00     0.009 C 
HETATM   14  C16 UNL     1       8.535 -13.045 -24.550  1.00  0.00     0.013 C 
HETATM   15  C17 UNL     1       7.722 -14.013 -25.302  1.00  0.00    -0.009 C 
HETATM   16  C18 UNL     1       7.373 -15.270 -24.508  1.00  0.00     0.019 C 
ENDROOT
BRANCH   1  17
HETATM   17  C3  UNL     1       9.785 -15.119 -26.190  1.00  0.00     0.116 C 
BRANCH  17  18
HETATM   18  C2  UNL     1      10.864 -14.334 -26.803  1.00  0.00     0.126 C 
HETATM   19  C1  UNL     1      11.982 -13.844 -25.955  1.00  0.00     0.091 C 
HETATM   20  O1  UNL     1      10.860 -14.079 -27.986  1.00  0.00    -0.298 OA
ENDBRANCH  17  18
ENDBRANCH   1  17
BRANCH   1  21
HETATM   21  O2  UNL     1       7.688 -15.559 -27.114  1.00  0.00    -0.389 OA
ATOM     22  H2  UNL     1       6.783 -15.272 -27.131  1.00  0.00     0.210 HD
ENDBRANCH   1  21
TORSDOF 3
ENDMDL
