MODEL 1
REMARK VINA RESULT: -8.097523827      0.000      0.000
REMARK  2 active torsions:
REMARK  status: ('A' for Active; 'I' for Inactive)
REMARK    1  A    between atoms: C2_2  and  C4_4 
REMARK    2  A    between atoms: C12_12  and  O1_13 
ROOT
HETATM    1  C4  UNL     1       2.800 -11.223 -23.614  1.00  0.00     0.128 C 
HETATM    2  C5  UNL     1       2.508 -10.730 -24.985  1.00  0.00     0.041 C 
HETATM    3  C6  UNL     1       2.489  -9.278 -25.230  1.00  0.00     0.032 C 
HETATM    4  C7  UNL     1       3.754  -8.691 -24.585  1.00  0.00     0.077 C 
HETATM    5  C8  UNL     1       3.964  -7.412 -25.290  1.00  0.00     0.039 C 
HETATM    6  C9  UNL     1       2.775  -6.800 -25.940  1.00  0.00     0.009 C 
HETATM    7  C10 UNL     1       1.436  -7.176 -25.442  1.00  0.00     0.002 A 
HETATM    8  C11 UNL     1       1.270  -7.410 -23.912  1.00  0.00     0.028 A 
HETATM    9  C12 UNL     1       2.237  -6.667 -23.142  1.00  0.00     0.124 C 
HETATM   10  C13 UNL     1       3.458  -7.353 -22.576  1.00  0.00     0.044 C 
HETATM   11  C14 UNL     1       3.433  -8.725 -23.154  1.00  0.00     0.079 C 
HETATM   12  C15 UNL     1       4.268  -9.773 -22.485  1.00  0.00     0.271 C 
HETATM   13  O2  UNL     1       4.026 -10.973 -23.097  1.00  0.00    -0.355 OA
HETATM   14  O3  UNL     1       5.593  -9.443 -22.651  1.00  0.00    -0.326 OA
HETATM   15  C16 UNL     1       5.884  -9.456 -24.012  1.00  0.00     0.161 C 
HETATM   16  C17 UNL     1       6.794  -8.294 -24.282  1.00  0.00     0.078 C 
HETATM   17  C18 UNL     1       6.728 -10.724 -24.233  1.00  0.00     0.078 C 
HETATM   18  O4  UNL     1       4.808  -9.568 -24.832  1.00  0.00    -0.344 OA
HETATM   19  C19 UNL     1       1.348  -8.508 -24.741  1.00  0.00    -0.027 A 
HETATM   20  C20 UNL     1       0.055  -9.315 -25.019  1.00  0.00     0.016 C 
ENDROOT
BRANCH   1  21
HETATM   21  C2  UNL     1       2.711 -12.766 -23.735  1.00  0.00     0.006 C 
HETATM   22  C1  UNL     1       3.825 -13.196 -24.632  1.00  0.00     0.012 C 
HETATM   23  C3  UNL     1       1.360 -13.222 -24.133  1.00  0.00     0.012 C 
ENDBRANCH   1  21
BRANCH   9  24
HETATM   24  O1  UNL     1       1.657  -6.031 -21.999  1.00  0.00    -0.395 OA
ATOM     25  H1  UNL     1       2.171  -5.292 -21.694  1.00  0.00     0.210 HD
ENDBRANCH   9  24
TORSDOF 2
ENDMDL
MODEL 2
REMARK VINA RESULT: -7.826266992      0.756      1.077
REMARK  2 active torsions:
REMARK  status: ('A' for Active; 'I' for Inactive)
REMARK    1  A    between atoms: C2_2  and  C4_4 
REMARK    2  A    between atoms: C12_12  and  O1_13 
ROOT
HETATM    1  C4  UNL     1       2.752 -10.689 -23.888  1.00  0.00     0.128 C 
HETATM    2  C5  UNL     1       2.627  -9.914 -25.149  1.00  0.00     0.041 C 
HETATM    3  C6  UNL     1       2.857  -8.459 -25.116  1.00  0.00     0.032 C 
HETATM    4  C7  UNL     1       4.159  -8.222 -24.334  1.00  0.00     0.077 C 
HETATM    5  C8  UNL     1       4.614  -6.891 -24.778  1.00  0.00     0.039 C 
HETATM    6  C9  UNL     1       3.581  -5.979 -25.336  1.00  0.00     0.009 C 
HETATM    7  C10 UNL     1       2.171  -6.206 -24.958  1.00  0.00     0.002 A 
HETATM    8  C11 UNL     1       1.877  -6.682 -23.505  1.00  0.00     0.028 A 
HETATM    9  C12 UNL     1       2.903  -6.266 -22.580  1.00  0.00     0.124 C 
HETATM   10  C13 UNL     1       3.961  -7.240 -22.118  1.00  0.00     0.044 C 
HETATM   11  C14 UNL     1       3.750  -8.460 -22.945  1.00  0.00     0.079 C 
HETATM   12  C15 UNL     1       4.363  -9.738 -22.462  1.00  0.00     0.271 C 
HETATM   13  O2  UNL     1       3.968 -10.749 -23.296  1.00  0.00    -0.355 OA
HETATM   14  O3  UNL     1       5.732  -9.613 -22.523  1.00  0.00    -0.326 OA
HETATM   15  C16 UNL     1       6.099  -9.428 -23.853  1.00  0.00     0.161 C 
HETATM   16  C17 UNL     1       7.199  -8.408 -23.871  1.00  0.00     0.078 C 
HETATM   17  C18 UNL     1       6.739 -10.760 -24.285  1.00  0.00     0.078 C 
HETATM   18  O4  UNL     1       5.071  -9.205 -24.711  1.00  0.00    -0.344 OA
HETATM   19  C19 UNL     1       1.828  -7.608 -24.524  1.00  0.00    -0.027 A 
HETATM   20  C20 UNL     1       0.441  -8.120 -24.987  1.00  0.00     0.016 C 
ENDROOT
BRANCH   1  21
HETATM   21  C2  UNL     1       2.423 -12.146 -24.301  1.00  0.00     0.006 C 
HETATM   22  C1  UNL     1       1.377 -12.640 -23.357  1.00  0.00     0.012 C 
HETATM   23  C3  UNL     1       3.635 -12.989 -24.407  1.00  0.00     0.012 C 
ENDBRANCH   1  21
BRANCH   9  24
HETATM   24  O1  UNL     1       2.365  -5.759 -21.355  1.00  0.00    -0.395 OA
ATOM     25  H1  UNL     1       2.392  -4.810 -21.311  1.00  0.00     0.210 HD
ENDBRANCH   9  24
TORSDOF 2
ENDMDL
MODEL 3
REMARK VINA RESULT: -7.817459039      1.817      4.568
REMARK  2 active torsions:
REMARK  status: ('A' for Active; 'I' for Inactive)
REMARK    1  A    between atoms: C2_2  and  C4_4 
REMARK    2  A    between atoms: C12_12  and  O1_13 
ROOT
HETATM    1  C4  UNL     1       2.499  -9.121 -25.698  1.00  0.00     0.128 C 
HETATM    2  C5  UNL     1       2.610 -10.087 -24.576  1.00  0.00     0.041 C 
HETATM    3  C6  UNL     1       3.761  -9.987 -23.661  1.00  0.00     0.032 C 
HETATM    4  C7  UNL     1       3.897  -8.509 -23.261  1.00  0.00     0.077 C 
HETATM    5  C8  UNL     1       4.656  -8.541 -21.997  1.00  0.00     0.039 C 
HETATM    6  C9  UNL     1       5.491  -9.745 -21.745  1.00  0.00     0.009 C 
HETATM    7  C10 UNL     1       5.925 -10.550 -22.905  1.00  0.00     0.002 A 
HETATM    8  C11 UNL     1       6.284  -9.794 -24.219  1.00  0.00     0.028 A 
HETATM    9  C12 UNL     1       6.723  -8.443 -23.965  1.00  0.00     0.124 C 
HETATM   10  C13 UNL     1       5.784  -7.279 -24.179  1.00  0.00     0.044 C 
HETATM   11  C14 UNL     1       4.461  -7.898 -24.470  1.00  0.00     0.079 C 
HETATM   12  C15 UNL     1       3.422  -7.036 -25.119  1.00  0.00     0.271 C 
HETATM   13  O2  UNL     1       2.329  -7.812 -25.396  1.00  0.00    -0.355 OA
HETATM   14  O3  UNL     1       3.061  -6.049 -24.231  1.00  0.00    -0.326 OA
HETATM   15  C16 UNL     1       2.492  -6.651 -23.111  1.00  0.00     0.161 C 
HETATM   16  C17 UNL     1       2.981  -5.898 -21.909  1.00  0.00     0.078 C 
HETATM   17  C18 UNL     1       0.984  -6.361 -23.218  1.00  0.00     0.078 C 
HETATM   18  O4  UNL     1       2.617  -8.001 -23.055  1.00  0.00    -0.344 OA
HETATM   19  C19 UNL     1       5.067 -10.435 -24.139  1.00  0.00    -0.027 A 
HETATM   20  C20 UNL     1       4.874 -11.752 -24.933  1.00  0.00     0.016 C 
ENDROOT
BRANCH   1  21
HETATM   21  C2  UNL     1       1.206  -9.543 -26.439  1.00  0.00     0.006 C 
HETATM   22  C1  UNL     1       0.968  -8.531 -27.511  1.00  0.00     0.012 C 
HETATM   23  C3  UNL     1       0.073  -9.768 -25.513  1.00  0.00     0.012 C 
ENDBRANCH   1  21
BRANCH   9  24
HETATM   24  O1  UNL     1       7.873  -8.086 -24.736  1.00  0.00    -0.395 OA
ATOM     25  H1  UNL     1       8.218  -7.232 -24.500  1.00  0.00     0.210 HD
ENDBRANCH   9  24
TORSDOF 2
ENDMDL
MODEL 4
REMARK VINA RESULT: -7.411929015      2.262      3.481
REMARK  2 active torsions:
REMARK  status: ('A' for Active; 'I' for Inactive)
REMARK    1  A    between atoms: C2_2  and  C4_4 
REMARK    2  A    between atoms: C12_12  and  O1_13 
ROOT
HETATM    1  C4  UNL     1       4.271 -13.050 -24.451  1.00  0.00     0.128 C 
HETATM    2  C5  UNL     1       4.039 -11.849 -25.294  1.00  0.00     0.041 C 
HETATM    3  C6  UNL     1       4.559 -10.548 -24.837  1.00  0.00     0.032 C 
HETATM    4  C7  UNL     1       6.018 -10.767 -24.406  1.00  0.00     0.077 C 
HETATM    5  C8  UNL     1       6.626  -9.425 -24.483  1.00  0.00     0.039 C 
HETATM    6  C9  UNL     1       5.703  -8.262 -24.399  1.00  0.00     0.009 C 
HETATM    7  C10 UNL     1       4.390  -8.459 -23.751  1.00  0.00     0.002 A 
HETATM    8  C11 UNL     1       4.322  -9.411 -22.521  1.00  0.00     0.028 A 
HETATM    9  C12 UNL     1       5.584  -9.489 -21.825  1.00  0.00     0.124 C 
HETATM   10  C13 UNL     1       6.498 -10.675 -22.024  1.00  0.00     0.044 C 
HETATM   11  C14 UNL     1       5.875 -11.463 -23.123  1.00  0.00     0.079 C 
HETATM   12  C15 UNL     1       6.307 -12.888 -23.283  1.00  0.00     0.271 C 
HETATM   13  O2  UNL     1       5.548 -13.461 -24.268  1.00  0.00    -0.355 OA
HETATM   14  O3  UNL     1       7.628 -12.900 -23.668  1.00  0.00    -0.326 OA
HETATM   15  C16 UNL     1       7.732 -12.270 -24.905  1.00  0.00     0.161 C 
HETATM   16  C17 UNL     1       8.985 -11.445 -24.877  1.00  0.00     0.078 C 
HETATM   17  C18 UNL     1       7.985 -13.403 -25.916  1.00  0.00     0.078 C 
HETATM   18  O4  UNL     1       6.612 -11.630 -25.324  1.00  0.00    -0.344 OA
HETATM   19  C19 UNL     1       3.872  -9.875 -23.738  1.00  0.00    -0.027 A 
HETATM   20  C20 UNL     1       2.344 -10.020 -23.951  1.00  0.00     0.016 C 
ENDROOT
BRANCH   1  21
HETATM   21  C2  UNL     1       3.576 -14.199 -25.224  1.00  0.00     0.006 C 
HETATM   22  C1  UNL     1       2.244 -14.410 -24.583  1.00  0.00     0.012 C 
HETATM   23  C3  UNL     1       4.430 -15.404 -25.330  1.00  0.00     0.012 C 
ENDBRANCH   1  21
BRANCH   9  24
HETATM   24  O1  UNL     1       5.432  -9.423 -20.405  1.00  0.00    -0.395 OA
ATOM     25  H1  UNL     1       5.088 -10.230 -20.038  1.00  0.00     0.210 HD
ENDBRANCH   9  24
TORSDOF 2
ENDMDL
MODEL 5
REMARK VINA RESULT: -7.102426757      1.549      3.000
REMARK  2 active torsions:
REMARK  status: ('A' for Active; 'I' for Inactive)
REMARK    1  A    between atoms: C2_2  and  C4_4 
REMARK    2  A    between atoms: C12_12  and  O1_13 
ROOT
HETATM    1  C4  UNL     1       1.620 -10.145 -24.864  1.00  0.00     0.128 C 
HETATM    2  C5  UNL     1       2.404  -9.184 -25.682  1.00  0.00     0.041 C 
HETATM    3  C6  UNL     1       3.594  -8.549 -25.089  1.00  0.00     0.032 C 
HETATM    4  C7  UNL     1       4.421  -9.662 -24.426  1.00  0.00     0.077 C 
HETATM    5  C8  UNL     1       5.783  -9.102 -24.341  1.00  0.00     0.039 C 
HETATM    6  C9  UNL     1       5.904  -7.621 -24.366  1.00  0.00     0.009 C 
HETATM    7  C10 UNL     1       4.733  -6.817 -23.961  1.00  0.00     0.002 A 
HETATM    8  C11 UNL     1       3.847  -7.360 -22.801  1.00  0.00     0.028 A 
HETATM    9  C12 UNL     1       4.589  -8.213 -21.905  1.00  0.00     0.124 C 
HETATM   10  C13 UNL     1       4.462  -9.715 -21.995  1.00  0.00     0.044 C 
HETATM   11  C14 UNL     1       3.646  -9.962 -23.216  1.00  0.00     0.079 C 
HETATM   12  C15 UNL     1       3.007 -11.308 -23.361  1.00  0.00     0.271 C 
HETATM   13  O2  UNL     1       2.224 -11.296 -24.483  1.00  0.00    -0.355 OA
HETATM   14  O3  UNL     1       4.001 -12.247 -23.515  1.00  0.00    -0.326 OA
HETATM   15  C16 UNL     1       4.694 -11.965 -24.688  1.00  0.00     0.161 C 
HETATM   16  C17 UNL     1       6.149 -12.211 -24.413  1.00  0.00     0.078 C 
HETATM   17  C18 UNL     1       4.256 -13.050 -25.688  1.00  0.00     0.078 C 
HETATM   18  O4  UNL     1       4.396 -10.773 -25.265  1.00  0.00    -0.344 OA
HETATM   19  C19 UNL     1       3.394  -7.497 -24.096  1.00  0.00    -0.027 A 
HETATM   20  C20 UNL     1       2.237  -6.584 -24.572  1.00  0.00     0.016 C 
ENDROOT
BRANCH   1  21
HETATM   21  C2  UNL     1       0.457 -10.578 -25.791  1.00  0.00     0.006 C 
HETATM   22  C1  UNL     1      -0.013  -9.350 -26.500  1.00  0.00     0.012 C 
HETATM   23  C3  UNL     1      -0.588 -11.336 -25.068  1.00  0.00     0.012 C 
ENDBRANCH   1  21
BRANCH   9  24
HETATM   24  O1  UNL     1       4.308  -7.940 -20.529  1.00  0.00    -0.395 OA
ATOM     25  H1  UNL     1       5.075  -7.642 -20.053  1.00  0.00     0.210 HD
ENDBRANCH   9  24
TORSDOF 2
ENDMDL
