MODEL 1
REMARK VINA RESULT: -6.425649668      0.000      0.000
REMARK  3 active torsions:
REMARK  status: ('A' for Active; 'I' for Inactive)
REMARK    1  A    between atoms: O1_2  and  C2_3 
REMARK    2  A    between atoms: C9_10  and  C14_15 
REMARK    3  A    between atoms: C17_18  and  O2_19 
ROOT
HETATM    1  C2  UNL     1       0.725  -9.870 -24.511  1.00  0.00     0.042 C 
HETATM    2  C3  UNL     1       1.058  -8.673 -24.038  1.00  0.00     0.016 C 
HETATM    3  C4  UNL     1       2.486  -8.397 -23.884  1.00  0.00     0.081 C 
HETATM    4  C5  UNL     1       2.907  -7.096 -23.360  1.00  0.00     0.171 C 
HETATM    5  C6  UNL     1       2.058  -6.191 -24.059  1.00  0.00     0.069 C 
HETATM    6  C7  UNL     1       2.803  -6.018 -25.409  1.00  0.00     0.006 C 
HETATM    7  C8  UNL     1       3.998  -6.821 -25.690  1.00  0.00     0.006 C 
HETATM    8  C9  UNL     1       4.348  -8.121 -25.043  1.00  0.00     0.005 C 
HETATM    9  C10 UNL     1       3.080  -8.926 -25.143  1.00  0.00    -0.027 C 
HETATM   10  C11 UNL     1       2.335  -8.788 -26.418  1.00  0.00     0.016 C 
HETATM   11  C12 UNL     1       3.164 -10.415 -24.962  1.00  0.00     0.017 C 
HETATM   12  C13 UNL     1       1.727 -10.904 -24.873  1.00  0.00     0.065 C 
HETATM   13  C14 UNL     1       5.011  -8.261 -23.743  1.00  0.00    -0.006 C 
HETATM   14  C15 UNL     1       6.041  -9.385 -23.758  1.00  0.00     0.015 C 
HETATM   15  C16 UNL     1       7.401  -8.810 -23.981  1.00  0.00     0.033 C 
HETATM   16  C17 UNL     1       7.186  -7.292 -24.243  1.00  0.00     0.125 C 
HETATM   17  C18 UNL     1       6.049  -7.128 -23.479  1.00  0.00     0.049 C 
HETATM   18  C19 UNL     1       5.117  -6.052 -23.148  1.00  0.00     0.179 C 
HETATM   19  O3  UNL     1       3.902  -6.271 -23.377  1.00  0.00    -0.354 OA
HETATM   20  C20 UNL     1       4.345  -8.335 -22.423  1.00  0.00     0.182 C 
HETATM   21  O4  UNL     1       3.265  -7.457 -22.115  1.00  0.00    -0.354 OA
ENDROOT
BRANCH   1  22
HETATM   22  O1  UNL     1      -0.603 -10.197 -24.684  1.00  0.00    -0.361 OA
HETATM   23  C1  UNL     1      -1.152 -11.473 -24.489  1.00  0.00     0.209 C 
ENDBRANCH   1  22
BRANCH  16  24
HETATM   24  O2  UNL     1       7.447  -7.140 -25.542  1.00  0.00    -0.395 OA
ATOM     25  H2  UNL     1       8.164  -6.519 -25.567  1.00  0.00     0.210 HD
ENDBRANCH  16  24
TORSDOF 3
ENDMDL
MODEL 2
REMARK VINA RESULT: -6.306231212      2.039      2.936
REMARK  3 active torsions:
REMARK  status: ('A' for Active; 'I' for Inactive)
REMARK    1  A    between atoms: O1_2  and  C2_3 
REMARK    2  A    between atoms: C9_10  and  C14_15 
REMARK    3  A    between atoms: C17_18  and  O2_19 
ROOT
HETATM    1  C2  UNL     1       1.265  -8.105 -24.405  1.00  0.00     0.042 C 
HETATM    2  C3  UNL     1       2.248  -7.853 -23.546  1.00  0.00     0.016 C 
HETATM    3  C4  UNL     1       3.327  -8.838 -23.470  1.00  0.00     0.081 C 
HETATM    4  C5  UNL     1       4.431  -8.612 -22.535  1.00  0.00     0.171 C 
HETATM    5  C6  UNL     1       4.714  -7.228 -22.719  1.00  0.00     0.069 C 
HETATM    6  C7  UNL     1       5.627  -7.244 -23.973  1.00  0.00     0.006 C 
HETATM    7  C8  UNL     1       5.864  -8.503 -24.687  1.00  0.00     0.006 C 
HETATM    8  C9  UNL     1       4.984  -9.710 -24.645  1.00  0.00     0.005 C 
HETATM    9  C10 UNL     1       3.606  -9.159 -24.897  1.00  0.00    -0.027 C 
HETATM   10  C11 UNL     1       3.525  -8.085 -25.918  1.00  0.00     0.016 C 
HETATM   11  C12 UNL     1       2.524 -10.110 -25.322  1.00  0.00     0.017 C 
HETATM   12  C13 UNL     1       1.227  -9.319 -25.258  1.00  0.00     0.065 C 
HETATM   13  C14 UNL     1       5.006 -10.729 -23.593  1.00  0.00    -0.006 C 
HETATM   14  C15 UNL     1       4.842 -12.131 -24.168  1.00  0.00     0.015 C 
HETATM   15  C16 UNL     1       6.184 -12.771 -24.312  1.00  0.00     0.033 C 
HETATM   16  C17 UNL     1       7.222 -11.675 -23.933  1.00  0.00     0.125 C 
HETATM   17  C18 UNL     1       6.440 -10.978 -23.034  1.00  0.00     0.049 C 
HETATM   18  C19 UNL     1       6.561  -9.784 -22.201  1.00  0.00     0.179 C 
HETATM   19  O3  UNL     1       5.676  -8.905 -22.349  1.00  0.00    -0.354 OA
HETATM   20  C20 UNL     1       4.224 -10.709 -22.336  1.00  0.00     0.182 C 
HETATM   21  O4  UNL     1       4.109  -9.505 -21.582  1.00  0.00    -0.354 OA
ENDROOT
BRANCH   1  22
HETATM   22  O1  UNL     1       0.216  -7.219 -24.530  1.00  0.00    -0.361 OA
HETATM   23  C1  UNL     1      -0.413  -6.878 -25.737  1.00  0.00     0.209 C 
ENDBRANCH   1  22
BRANCH  16  24
HETATM   24  O2  UNL     1       7.797 -11.352 -25.092  1.00  0.00    -0.395 OA
ATOM     25  H2  UNL     1       8.083 -10.454 -24.970  1.00  0.00     0.210 HD
ENDBRANCH  16  24
TORSDOF 3
ENDMDL
MODEL 3
REMARK VINA RESULT: -6.234595523      1.829      2.473
REMARK  3 active torsions:
REMARK  status: ('A' for Active; 'I' for Inactive)
REMARK    1  A    between atoms: O1_2  and  C2_3 
REMARK    2  A    between atoms: C9_10  and  C14_15 
REMARK    3  A    between atoms: C17_18  and  O2_19 
ROOT
HETATM    1  C2  UNL     1       2.884 -11.050 -23.762  1.00  0.00     0.042 C 
HETATM    2  C3  UNL     1       2.119  -9.984 -23.548  1.00  0.00     0.016 C 
HETATM    3  C4  UNL     1       2.737  -8.675 -23.759  1.00  0.00     0.081 C 
HETATM    4  C5  UNL     1       1.941  -7.468 -23.531  1.00  0.00     0.171 C 
HETATM    5  C6  UNL     1       0.697  -7.797 -24.141  1.00  0.00     0.069 C 
HETATM    6  C7  UNL     1       0.969  -7.474 -25.634  1.00  0.00     0.006 C 
HETATM    7  C8  UNL     1       2.314  -7.077 -26.061  1.00  0.00     0.006 C 
HETATM    8  C9  UNL     1       3.584  -7.375 -25.333  1.00  0.00     0.005 C 
HETATM    9  C10 UNL     1       3.490  -8.846 -25.032  1.00  0.00    -0.027 C 
HETATM   10  C11 UNL     1       2.916  -9.684 -26.114  1.00  0.00     0.016 C 
HETATM   11  C12 UNL     1       4.748  -9.582 -24.668  1.00  0.00     0.017 C 
HETATM   12  C13 UNL     1       4.302 -10.956 -24.191  1.00  0.00     0.065 C 
HETATM   13  C14 UNL     1       4.111  -6.597 -24.210  1.00  0.00    -0.006 C 
HETATM   14  C15 UNL     1       5.625  -6.440 -24.298  1.00  0.00     0.015 C 
HETATM   15  C16 UNL     1       5.954  -5.112 -24.899  1.00  0.00     0.033 C 
HETATM   16  C17 UNL     1       4.593  -4.483 -25.316  1.00  0.00     0.125 C 
HETATM   17  C18 UNL     1       3.808  -5.073 -24.346  1.00  0.00     0.049 C 
HETATM   18  C19 UNL     1       2.396  -5.097 -23.969  1.00  0.00     0.179 C 
HETATM   19  O3  UNL     1       1.857  -6.228 -23.886  1.00  0.00    -0.354 OA
HETATM   20  C20 UNL     1       3.806  -6.808 -22.777  1.00  0.00     0.182 C 
HETATM   21  O4  UNL     1       2.467  -7.066 -22.360  1.00  0.00    -0.354 OA
ENDROOT
BRANCH   1  22
HETATM   22  O1  UNL     1       2.367 -12.316 -23.585  1.00  0.00    -0.361 OA
HETATM   23  C1  UNL     1       1.000 -12.631 -23.543  1.00  0.00     0.209 C 
ENDBRANCH   1  22
BRANCH  16  24
HETATM   24  O2  UNL     1       4.599  -4.537 -26.649  1.00  0.00    -0.395 OA
ATOM     25  H2  UNL     1       5.456  -4.208 -26.893  1.00  0.00     0.210 HD
ENDBRANCH  16  24
TORSDOF 3
ENDMDL
MODEL 4
REMARK VINA RESULT: -6.191718770      0.996      1.138
REMARK  3 active torsions:
REMARK  status: ('A' for Active; 'I' for Inactive)
REMARK    1  A    between atoms: O1_2  and  C2_3 
REMARK    2  A    between atoms: C9_10  and  C14_15 
REMARK    3  A    between atoms: C17_18  and  O2_19 
ROOT
HETATM    1  C2  UNL     1       1.556 -10.841 -24.280  1.00  0.00     0.042 C 
HETATM    2  C3  UNL     1       1.390  -9.604 -23.821  1.00  0.00     0.016 C 
HETATM    3  C4  UNL     1       2.571  -8.741 -23.810  1.00  0.00     0.081 C 
HETATM    4  C5  UNL     1       2.446  -7.372 -23.309  1.00  0.00     0.171 C 
HETATM    5  C6  UNL     1       1.226  -6.935 -23.900  1.00  0.00     0.069 C 
HETATM    6  C7  UNL     1       1.685  -6.498 -25.315  1.00  0.00     0.006 C 
HETATM    7  C8  UNL     1       3.073  -6.721 -25.733  1.00  0.00     0.006 C 
HETATM    8  C9  UNL     1       4.009  -7.728 -25.149  1.00  0.00     0.005 C 
HETATM    9  C10 UNL     1       3.204  -9.000 -25.133  1.00  0.00    -0.027 C 
HETATM   10  C11 UNL     1       2.347  -9.228 -26.322  1.00  0.00     0.016 C 
HETATM   11  C12 UNL     1       3.934 -10.305 -24.989  1.00  0.00     0.017 C 
HETATM   12  C13 UNL     1       2.861 -11.358 -24.762  1.00  0.00     0.065 C 
HETATM   13  C14 UNL     1       4.795  -7.537 -23.928  1.00  0.00    -0.006 C 
HETATM   14  C15 UNL     1       6.199  -8.112 -24.069  1.00  0.00     0.015 C 
HETATM   15  C16 UNL     1       7.154  -7.018 -24.421  1.00  0.00     0.033 C 
HETATM   16  C17 UNL     1       6.284  -5.745 -24.631  1.00  0.00     0.125 C 
HETATM   17  C18 UNL     1       5.270  -6.062 -23.750  1.00  0.00     0.049 C 
HETATM   18  C19 UNL     1       4.006  -5.478 -23.306  1.00  0.00     0.179 C 
HETATM   19  O3  UNL     1       2.985  -6.201 -23.413  1.00  0.00    -0.354 OA
HETATM   20  C20 UNL     1       4.362  -7.851 -22.548  1.00  0.00     0.182 C 
HETATM   21  O4  UNL     1       3.048  -7.510 -22.114  1.00  0.00    -0.354 OA
ENDROOT
BRANCH   1  22
HETATM   22  O1  UNL     1       0.485 -11.709 -24.321  1.00  0.00    -0.361 OA
HETATM   23  C1  UNL     1      -0.743 -11.447 -24.946  1.00  0.00     0.209 C 
ENDBRANCH   1  22
BRANCH  16  24
HETATM   24  O2  UNL     1       6.323  -5.533 -25.947  1.00  0.00    -0.395 OA
ATOM     25  H2  UNL     1       6.195  -4.596 -26.038  1.00  0.00     0.210 HD
ENDBRANCH  16  24
TORSDOF 3
ENDMDL
MODEL 5
REMARK VINA RESULT: -6.084232275      1.633      2.172
REMARK  3 active torsions:
REMARK  status: ('A' for Active; 'I' for Inactive)
REMARK    1  A    between atoms: O1_2  and  C2_3 
REMARK    2  A    between atoms: C9_10  and  C14_15 
REMARK    3  A    between atoms: C17_18  and  O2_19 
ROOT
HETATM    1  C2  UNL     1       1.494 -10.987 -24.051  1.00  0.00     0.042 C 
HETATM    2  C3  UNL     1       0.918  -9.790 -24.104  1.00  0.00     0.016 C 
HETATM    3  C4  UNL     1       1.805  -8.628 -24.067  1.00  0.00     0.081 C 
HETATM    4  C5  UNL     1       1.222  -7.286 -24.115  1.00  0.00     0.171 C 
HETATM    5  C6  UNL     1       0.228  -7.416 -25.126  1.00  0.00     0.069 C 
HETATM    6  C7  UNL     1       1.055  -7.228 -26.425  1.00  0.00     0.006 C 
HETATM    7  C8  UNL     1       2.515  -7.104 -26.349  1.00  0.00     0.006 C 
HETATM    8  C9  UNL     1       3.374  -7.588 -25.226  1.00  0.00     0.005 C 
HETATM    9  C10 UNL     1       2.906  -9.000 -24.998  1.00  0.00    -0.027 C 
HETATM   10  C11 UNL     1       2.596  -9.776 -26.224  1.00  0.00     0.016 C 
HETATM   11  C12 UNL     1       3.797  -9.931 -24.227  1.00  0.00     0.017 C 
HETATM   12  C13 UNL     1       2.964 -11.174 -23.955  1.00  0.00     0.065 C 
HETATM   13  C14 UNL     1       3.616  -6.860 -23.978  1.00  0.00    -0.006 C 
HETATM   14  C15 UNL     1       5.067  -6.984 -23.529  1.00  0.00     0.015 C 
HETATM   15  C16 UNL     1       5.827  -5.772 -23.958  1.00  0.00     0.033 C 
HETATM   16  C17 UNL     1       4.839  -4.931 -24.817  1.00  0.00     0.125 C 
HETATM   17  C18 UNL     1       3.671  -5.316 -24.191  1.00  0.00     0.049 C 
HETATM   18  C19 UNL     1       2.239  -5.063 -24.332  1.00  0.00     0.179 C 
HETATM   19  O3  UNL     1       1.501  -6.072 -24.460  1.00  0.00    -0.354 OA
HETATM   20  C20 UNL     1       2.799  -6.936 -22.746  1.00  0.00     0.182 C 
HETATM   21  O4  UNL     1       1.375  -6.924 -22.828  1.00  0.00    -0.354 OA
ENDROOT
BRANCH   1  22
HETATM   22  O1  UNL     1       0.719 -12.126 -24.084  1.00  0.00    -0.361 OA
HETATM   23  C1  UNL     1      -0.683 -12.148 -24.129  1.00  0.00     0.209 C 
ENDBRANCH   1  22
BRANCH  16  24
HETATM   24  O2  UNL     1       5.296  -5.055 -26.063  1.00  0.00    -0.395 OA
ATOM     25  H2  UNL     1       4.523  -5.249 -26.579  1.00  0.00     0.210 HD
ENDBRANCH  16  24
TORSDOF 3
ENDMDL
