MODEL 1
REMARK VINA RESULT: -9.176609294      0.000      0.000
REMARK  2 active torsions:
REMARK  status: ('A' for Active; 'I' for Inactive)
REMARK    1  A    between atoms: C9_11  and  C10_12 
REMARK    2  A    between atoms: C10_12  and  O3_13 
ROOT
HETATM    1  C1  UNL     1       6.810 -11.193 -22.590  1.00  0.00     0.019 C 
HETATM    2  C2  UNL     1       6.719 -11.064 -24.082  1.00  0.00    -0.002 C 
HETATM    3  C3  UNL     1       7.587 -11.993 -24.834  1.00  0.00     0.020 C 
HETATM    4  C4  UNL     1       6.789 -13.083 -25.581  1.00  0.00     0.025 C 
HETATM    5  C5  UNL     1       5.869 -13.677 -24.613  1.00  0.00    -0.001 C 
HETATM    6  C6  UNL     1       4.849 -12.623 -24.183  1.00  0.00     0.039 C 
HETATM    7  C7  UNL     1       5.271 -11.259 -24.545  1.00  0.00     0.141 C 
HETATM    8  O1  UNL     1       4.662 -10.222 -23.811  1.00  0.00    -0.315 OA
HETATM    9  C8  UNL     1       5.516  -9.112 -23.997  1.00  0.00     0.266 C 
HETATM   10  O2  UNL     1       5.241  -7.895 -23.843  1.00  0.00    -0.265 OA
HETATM   11  C9  UNL     1       6.871  -9.599 -24.426  1.00  0.00     0.119 C 
HETATM   12  C11 UNL     1       5.109 -14.876 -24.935  1.00  0.00    -0.003 A 
HETATM   13  C12 UNL     1       3.980 -14.642 -25.984  1.00  0.00     0.012 A 
HETATM   14  C13 UNL     1       5.145 -15.539 -26.186  1.00  0.00     0.014 A 
HETATM   15  C14 UNL     1       6.219 -15.196 -27.174  1.00  0.00     0.173 C 
HETATM   16  O4  UNL     1       7.419 -15.247 -26.471  1.00  0.00    -0.379 OA
HETATM   17  C15 UNL     1       7.809 -13.962 -26.203  1.00  0.00     0.065 C 
HETATM   18  C16 UNL     1       8.216 -13.329 -27.535  1.00  0.00     0.038 C 
HETATM   19  C17 UNL     1       9.706 -13.286 -27.712  1.00  0.00     0.003 C 
HETATM   20  C18 UNL     1      10.261 -14.665 -27.443  1.00  0.00     0.000 C 
HETATM   21  C19 UNL     1       9.984 -15.093 -26.036  1.00  0.00     0.003 C 
HETATM   22  C20 UNL     1       9.095 -14.060 -25.378  1.00  0.00     0.038 C 
ENDROOT
BRANCH  11  23
HETATM   23  C10 UNL     1       7.964  -8.920 -23.634  1.00  0.00     0.179 C 
BRANCH  23  24
HETATM   24  O3  UNL     1       8.397  -7.749 -24.252  1.00  0.00    -0.400 OA
ATOM     25  H3  UNL     1       8.082  -6.975 -23.800  1.00  0.00     0.209 HD
ENDBRANCH  23  24
ENDBRANCH  11  23
TORSDOF 2
ENDMDL
MODEL 2
REMARK VINA RESULT: -8.261761358      1.968      6.234
REMARK  2 active torsions:
REMARK  status: ('A' for Active; 'I' for Inactive)
REMARK    1  A    between atoms: C9_11  and  C10_12 
REMARK    2  A    between atoms: C10_12  and  O3_13 
ROOT
HETATM    1  C1  UNL     1       7.076 -14.266 -24.660  1.00  0.00     0.019 C 
HETATM    2  C2  UNL     1       6.801 -12.943 -25.310  1.00  0.00    -0.002 C 
HETATM    3  C3  UNL     1       5.454 -12.396 -25.048  1.00  0.00     0.020 C 
HETATM    4  C4  UNL     1       5.483 -11.151 -24.135  1.00  0.00     0.025 C 
HETATM    5  C5  UNL     1       6.294 -11.496 -22.969  1.00  0.00    -0.001 C 
HETATM    6  C6  UNL     1       7.737 -11.728 -23.417  1.00  0.00     0.039 C 
HETATM    7  C7  UNL     1       7.845 -11.910 -24.874  1.00  0.00     0.141 C 
HETATM    8  O1  UNL     1       9.009 -12.570 -25.317  1.00  0.00    -0.315 OA
HETATM    9  C8  UNL     1       8.685 -13.017 -26.617  1.00  0.00     0.266 C 
HETATM   10  O2  UNL     1       9.477 -13.342 -27.538  1.00  0.00    -0.265 OA
HETATM   11  C9  UNL     1       7.191 -13.058 -26.767  1.00  0.00     0.119 C 
HETATM   12  C11 UNL     1       6.359 -10.615 -21.812  1.00  0.00    -0.003 A 
HETATM   13  C12 UNL     1       7.148  -9.295 -22.070  1.00  0.00     0.012 A 
HETATM   14  C13 UNL     1       5.707  -9.361 -21.718  1.00  0.00     0.014 A 
HETATM   15  C14 UNL     1       4.653  -8.999 -22.720  1.00  0.00     0.173 C 
HETATM   16  O4  UNL     1       3.785 -10.086 -22.773  1.00  0.00    -0.379 OA
HETATM   17  C15 UNL     1       4.061 -10.791 -23.914  1.00  0.00     0.065 C 
HETATM   18  C16 UNL     1       3.611  -9.932 -25.096  1.00  0.00     0.038 C 
HETATM   19  C17 UNL     1       2.291 -10.379 -25.654  1.00  0.00     0.003 C 
HETATM   20  C18 UNL     1       1.304 -10.500 -24.517  1.00  0.00     0.000 C 
HETATM   21  C19 UNL     1       1.749 -11.529 -23.524  1.00  0.00     0.003 C 
HETATM   22  C20 UNL     1       3.132 -12.009 -23.907  1.00  0.00     0.038 C 
ENDROOT
BRANCH  11  23
HETATM   23  C10 UNL     1       6.747 -14.359 -27.393  1.00  0.00     0.179 C 
BRANCH  23  24
HETATM   24  O3  UNL     1       7.747 -15.327 -27.337  1.00  0.00    -0.400 OA
ATOM     25  H3  UNL     1       7.386 -16.203 -27.276  1.00  0.00     0.209 HD
ENDBRANCH  23  24
ENDBRANCH  11  23
TORSDOF 2
ENDMDL
MODEL 3
REMARK VINA RESULT: -8.086576440      2.593      5.105
REMARK  2 active torsions:
REMARK  status: ('A' for Active; 'I' for Inactive)
REMARK    1  A    between atoms: C9_11  and  C10_12 
REMARK    2  A    between atoms: C10_12  and  O3_13 
ROOT
HETATM    1  C1  UNL     1       3.270  -8.197 -25.922  1.00  0.00     0.019 C 
HETATM    2  C2  UNL     1       3.141  -9.198 -24.812  1.00  0.00    -0.002 C 
HETATM    3  C3  UNL     1       3.641 -10.549 -25.140  1.00  0.00     0.020 C 
HETATM    4  C4  UNL     1       4.932 -10.910 -24.373  1.00  0.00     0.025 C 
HETATM    5  C5  UNL     1       5.862  -9.798 -24.557  1.00  0.00    -0.001 C 
HETATM    6  C6  UNL     1       5.296  -8.554 -23.873  1.00  0.00     0.039 C 
HETATM    7  C7  UNL     1       3.864  -8.697 -23.558  1.00  0.00     0.141 C 
HETATM    8  O1  UNL     1       3.164  -7.489 -23.365  1.00  0.00    -0.315 OA
HETATM    9  C8  UNL     1       1.806  -7.841 -23.532  1.00  0.00     0.266 C 
HETATM   10  O2  UNL     1       0.793  -7.214 -23.127  1.00  0.00    -0.265 OA
HETATM   11  C9  UNL     1       1.721  -9.131 -24.297  1.00  0.00     0.119 C 
HETATM   12  C11 UNL     1       7.252  -9.903 -24.134  1.00  0.00    -0.003 A 
HETATM   13  C12 UNL     1       7.439  -9.907 -22.586  1.00  0.00     0.012 A 
HETATM   14  C13 UNL     1       7.812 -11.030 -23.483  1.00  0.00     0.014 A 
HETATM   15  C14 UNL     1       7.052 -12.321 -23.457  1.00  0.00     0.173 C 
HETATM   16  O4  UNL     1       6.659 -12.563 -24.771  1.00  0.00    -0.379 OA
HETATM   17  C15 UNL     1       5.332 -12.245 -24.880  1.00  0.00     0.065 C 
HETATM   18  C16 UNL     1       4.550 -13.295 -24.088  1.00  0.00     0.038 C 
HETATM   19  C17 UNL     1       3.932 -14.335 -24.977  1.00  0.00     0.003 C 
HETATM   20  C18 UNL     1       4.999 -14.870 -25.903  1.00  0.00     0.000 C 
HETATM   21  C19 UNL     1       5.543 -13.788 -26.782  1.00  0.00     0.003 C 
HETATM   22  C20 UNL     1       4.952 -12.464 -26.348  1.00  0.00     0.038 C 
ENDROOT
BRANCH  11  23
HETATM   23  C10 UNL     1       0.698  -9.036 -25.404  1.00  0.00     0.179 C 
BRANCH  23  24
HETATM   24  O3  UNL     1      -0.603  -9.132 -24.916  1.00  0.00    -0.400 OA
ATOM     25  H3  UNL     1      -0.657  -8.871 -24.004  1.00  0.00     0.209 HD
ENDBRANCH  23  24
ENDBRANCH  11  23
TORSDOF 2
ENDMDL
MODEL 4
REMARK VINA RESULT: -7.882242746      2.480      5.919
REMARK  2 active torsions:
REMARK  status: ('A' for Active; 'I' for Inactive)
REMARK    1  A    between atoms: C9_11  and  C10_12 
REMARK    2  A    between atoms: C10_12  and  O3_13 
ROOT
HETATM    1  C1  UNL     1       5.835 -13.676 -27.065  1.00  0.00     0.019 C 
HETATM    2  C2  UNL     1       5.817 -13.410 -25.589  1.00  0.00    -0.002 C 
HETATM    3  C3  UNL     1       5.056 -12.209 -25.189  1.00  0.00     0.020 C 
HETATM    4  C4  UNL     1       3.753 -12.552 -24.434  1.00  0.00     0.025 C 
HETATM    5  C5  UNL     1       3.044 -13.546 -25.237  1.00  0.00    -0.001 C 
HETATM    6  C6  UNL     1       3.865 -14.835 -25.275  1.00  0.00     0.039 C 
HETATM    7  C7  UNL     1       5.255 -14.622 -24.837  1.00  0.00     0.141 C 
HETATM    8  O1  UNL     1       6.180 -15.596 -25.264  1.00  0.00    -0.315 OA
HETATM    9  C8  UNL     1       7.438 -14.968 -25.131  1.00  0.00     0.266 C 
HETATM   10  O2  UNL     1       8.567 -15.516 -25.051  1.00  0.00    -0.265 OA
HETATM   11  C9  UNL     1       7.244 -13.479 -25.094  1.00  0.00     0.119 C 
HETATM   12  C11 UNL     1       1.679 -13.937 -24.915  1.00  0.00    -0.003 A 
HETATM   13  C12 UNL     1       1.560 -14.787 -23.613  1.00  0.00     0.012 A 
HETATM   14  C13 UNL     1       0.943 -13.450 -23.807  1.00  0.00     0.014 A 
HETATM   15  C14 UNL     1       1.444 -12.255 -23.055  1.00  0.00     0.173 C 
HETATM   16  O4  UNL     1       1.729 -11.288 -24.014  1.00  0.00    -0.379 OA
HETATM   17  C15 UNL     1       3.087 -11.250 -24.187  1.00  0.00     0.065 C 
HETATM   18  C16 UNL     1       3.687 -10.657 -22.911  1.00  0.00     0.038 C 
HETATM   19  C17 UNL     1       4.058  -9.212 -23.076  1.00  0.00     0.003 C 
HETATM   20  C18 UNL     1       2.872  -8.473 -23.650  1.00  0.00     0.000 C 
HETATM   21  C19 UNL     1       2.507  -9.005 -25.001  1.00  0.00     0.003 C 
HETATM   22  C20 UNL     1       3.356 -10.223 -25.290  1.00  0.00     0.038 C 
ENDROOT
BRANCH  11  23
HETATM   23  C10 UNL     1       8.220 -12.785 -26.015  1.00  0.00     0.179 C 
BRANCH  23  24
HETATM   24  O3  UNL     1       9.432 -12.523 -25.381  1.00  0.00    -0.400 OA
ATOM     25  H3  UNL     1      10.018 -13.270 -25.419  1.00  0.00     0.209 HD
ENDBRANCH  23  24
ENDBRANCH  11  23
TORSDOF 2
ENDMDL
MODEL 5
REMARK VINA RESULT: -7.807324170      2.894      4.893
REMARK  2 active torsions:
REMARK  status: ('A' for Active; 'I' for Inactive)
REMARK    1  A    between atoms: C9_11  and  C10_12 
REMARK    2  A    between atoms: C10_12  and  O3_13 
ROOT
HETATM    1  C1  UNL     1       1.641  -8.707 -23.794  1.00  0.00     0.019 C 
HETATM    2  C2  UNL     1       2.834  -8.735 -24.702  1.00  0.00    -0.002 C 
HETATM    3  C3  UNL     1       4.115  -9.025 -24.026  1.00  0.00     0.020 C 
HETATM    4  C4  UNL     1       4.681 -10.414 -24.391  1.00  0.00     0.025 C 
HETATM    5  C5  UNL     1       3.600 -11.379 -24.199  1.00  0.00    -0.001 C 
HETATM    6  C6  UNL     1       2.491 -11.093 -25.211  1.00  0.00     0.039 C 
HETATM    7  C7  UNL     1       2.625  -9.760 -25.822  1.00  0.00     0.141 C 
HETATM    8  O1  UNL     1       1.447  -9.232 -26.389  1.00  0.00    -0.315 OA
HETATM    9  C8  UNL     1       1.695  -7.845 -26.484  1.00  0.00     0.266 C 
HETATM   10  O2  UNL     1       1.114  -7.008 -27.221  1.00  0.00    -0.265 OA
HETATM   11  C9  UNL     1       2.803  -7.476 -25.539  1.00  0.00     0.119 C 
HETATM   12  C11 UNL     1       3.852 -12.812 -24.259  1.00  0.00    -0.003 A 
HETATM   13  C12 UNL     1       4.171 -13.334 -25.693  1.00  0.00     0.012 A 
HETATM   14  C13 UNL     1       5.110 -13.396 -24.545  1.00  0.00     0.014 A 
HETATM   15  C14 UNL     1       6.344 -12.546 -24.513  1.00  0.00     0.173 C 
HETATM   16  O4  UNL     1       6.303 -11.853 -23.307  1.00  0.00    -0.379 OA
HETATM   17  C15 UNL     1       5.907 -10.569 -23.571  1.00  0.00     0.065 C 
HETATM   18  C16 UNL     1       7.055  -9.889 -24.320  1.00  0.00     0.038 C 
HETATM   19  C17 UNL     1       7.868  -8.997 -23.427  1.00  0.00     0.003 C 
HETATM   20  C18 UNL     1       8.259  -9.780 -22.195  1.00  0.00     0.000 C 
HETATM   21  C19 UNL     1       7.051 -10.214 -21.425  1.00  0.00     0.003 C 
HETATM   22  C20 UNL     1       5.813  -9.856 -22.218  1.00  0.00     0.038 C 
ENDROOT
BRANCH  11  23
HETATM   23  C10 UNL     1       2.442  -6.247 -24.738  1.00  0.00     0.179 C 
BRANCH  23  24
HETATM   24  O3  UNL     1       2.926  -5.083 -25.331  1.00  0.00    -0.400 OA
ATOM     25  H3  UNL     1       2.672  -4.308 -24.845  1.00  0.00     0.209 HD
ENDBRANCH  23  24
ENDBRANCH  11  23
TORSDOF 2
ENDMDL
