MODEL 1
REMARK VINA RESULT: -7.981720040      0.000      0.000
REMARK  2 active torsions:
REMARK  status: ('A' for Active; 'I' for Inactive)
REMARK    1  A    between atoms: C2_2  and  N1_3 
REMARK    2  A    between atoms: C5_6  and  O1_7 
ROOT
HETATM    1  N1  UNL     1       4.259 -13.761 -25.599  1.00  0.00    -0.406 N 
HETATM    2  C3  UNL     1       5.443 -13.582 -26.364  1.00  0.00     0.120 C 
HETATM    3  C4  UNL     1       6.050 -12.222 -25.946  1.00  0.00     0.059 C 
HETATM    4  C5  UNL     1       5.428 -12.131 -24.573  1.00  0.00     0.083 C 
HETATM    5  C6  UNL     1       5.770 -11.020 -23.724  1.00  0.00     0.028 C 
HETATM    6  C7  UNL     1       7.234 -11.375 -23.324  1.00  0.00     0.008 C 
HETATM    7  C8  UNL     1       7.767 -10.195 -22.652  1.00  0.00     0.001 C 
HETATM    8  C9  UNL     1       7.115  -9.072 -23.378  1.00  0.00     0.007 C 
HETATM    9  C10 UNL     1       5.869  -9.628 -24.115  1.00  0.00     0.016 C 
HETATM   10  C11 UNL     1       4.828  -8.651 -23.792  1.00  0.00     0.102 C 
HETATM   11  C12 UNL     1       5.327  -7.220 -24.056  1.00  0.00     0.110 C 
HETATM   12  S1  UNL     1       4.084  -6.421 -22.925  1.00  0.00    -0.067 SA
HETATM   13  C13 UNL     1       2.830  -7.621 -23.532  1.00  0.00     0.282 C 
HETATM   14  O2  UNL     1       1.628  -7.499 -23.246  1.00  0.00    -0.260 OA
HETATM   15  N2  UNL     1       3.541  -8.593 -24.319  1.00  0.00    -0.337 N 
HETATM   16  C14 UNL     1       2.967  -9.325 -25.427  1.00  0.00     0.127 C 
HETATM   17  C15 UNL     1       2.070 -10.421 -24.988  1.00  0.00     0.020 C 
HETATM   18  C16 UNL     1       2.396 -11.089 -23.695  1.00  0.00     0.004 C 
HETATM   19  C17 UNL     1       3.030 -12.471 -23.877  1.00  0.00     0.028 C 
HETATM   20  C18 UNL     1       4.035 -12.513 -24.918  1.00  0.00     0.113 C 
ENDROOT
BRANCH   1  21
HETATM   21  C2  UNL     1       3.988 -14.971 -25.015  1.00  0.00     0.113 C 
HETATM   22  C1  UNL     1       4.748 -16.068 -25.787  1.00  0.00     0.026 C 
ENDBRANCH   1  21
BRANCH   4  23
HETATM   23  O1  UNL     1       5.897 -13.323 -23.926  1.00  0.00    -0.387 OA
ATOM     24  H1  UNL     1       5.139 -13.895 -23.956  1.00  0.00     0.210 HD
ENDBRANCH   4  23
TORSDOF 2
ENDMDL
MODEL 2
REMARK VINA RESULT: -7.620353519      2.963      4.609
REMARK  2 active torsions:
REMARK  status: ('A' for Active; 'I' for Inactive)
REMARK    1  A    between atoms: C2_2  and  N1_3 
REMARK    2  A    between atoms: C5_6  and  O1_7 
ROOT
HETATM    1  N1  UNL     1       8.938 -14.735 -26.691  1.00  0.00    -0.406 N 
HETATM    2  C3  UNL     1       9.246 -13.537 -27.391  1.00  0.00     0.120 C 
HETATM    3  C4  UNL     1       8.252 -12.459 -26.900  1.00  0.00     0.059 C 
HETATM    4  C5  UNL     1       7.929 -13.070 -25.557  1.00  0.00     0.083 C 
HETATM    5  C6  UNL     1       7.060 -12.359 -24.658  1.00  0.00     0.028 C 
HETATM    6  C7  UNL     1       7.981 -11.188 -24.197  1.00  0.00     0.008 C 
HETATM    7  C8  UNL     1       7.123 -10.264 -23.462  1.00  0.00     0.001 C 
HETATM    8  C9  UNL     1       5.825 -10.365 -24.183  1.00  0.00     0.007 C 
HETATM    9  C10 UNL     1       5.823 -11.684 -24.999  1.00  0.00     0.016 C 
HETATM   10  C11 UNL     1       4.512 -12.259 -24.696  1.00  0.00     0.102 C 
HETATM   11  C12 UNL     1       3.402 -11.211 -24.889  1.00  0.00     0.110 C 
HETATM   12  S1  UNL     1       2.180 -12.090 -23.796  1.00  0.00    -0.067 SA
HETATM   13  C13 UNL     1       2.764 -13.684 -24.502  1.00  0.00     0.282 C 
HETATM   14  O2  UNL     1       2.169 -14.749 -24.272  1.00  0.00    -0.260 OA
HETATM   15  N2  UNL     1       3.933 -13.381 -25.283  1.00  0.00    -0.337 N 
HETATM   16  C14 UNL     1       4.360 -14.136 -26.441  1.00  0.00     0.127 C 
HETATM   17  C15 UNL     1       5.004 -15.422 -26.082  1.00  0.00     0.020 C 
HETATM   18  C16 UNL     1       5.759 -15.469 -24.797  1.00  0.00     0.004 C 
HETATM   19  C17 UNL     1       7.277 -15.438 -24.992  1.00  0.00     0.028 C 
HETATM   20  C18 UNL     1       7.712 -14.476 -25.982  1.00  0.00     0.113 C 
ENDROOT
BRANCH   1  21
HETATM   21  C2  UNL     1       9.940 -15.505 -26.160  1.00  0.00     0.113 C 
HETATM   22  C1  UNL     1      11.275 -15.081 -26.804  1.00  0.00     0.026 C 
ENDBRANCH   1  21
BRANCH   4  23
HETATM   23  O1  UNL     1       9.215 -13.160 -24.926  1.00  0.00    -0.387 OA
ATOM     24  H1  UNL     1       9.159 -13.975 -24.441  1.00  0.00     0.210 HD
ENDBRANCH   4  23
TORSDOF 2
ENDMDL
MODEL 3
REMARK VINA RESULT: -7.461467877      2.543      6.259
REMARK  2 active torsions:
REMARK  status: ('A' for Active; 'I' for Inactive)
REMARK    1  A    between atoms: C2_2  and  N1_3 
REMARK    2  A    between atoms: C5_6  and  O1_7 
ROOT
HETATM    1  N1  UNL     1       4.699  -8.521 -23.916  1.00  0.00    -0.406 N 
HETATM    2  C3  UNL     1       3.602  -8.327 -24.799  1.00  0.00     0.120 C 
HETATM    3  C4  UNL     1       3.060  -9.730 -25.160  1.00  0.00     0.059 C 
HETATM    4  C5  UNL     1       3.565 -10.468 -23.943  1.00  0.00     0.083 C 
HETATM    5  C6  UNL     1       3.231 -11.857 -23.781  1.00  0.00     0.028 C 
HETATM    6  C7  UNL     1       1.715 -11.772 -23.424  1.00  0.00     0.008 C 
HETATM    7  C8  UNL     1       1.211 -13.142 -23.470  1.00  0.00     0.001 C 
HETATM    8  C9  UNL     1       2.003 -13.753 -24.571  1.00  0.00     0.007 C 
HETATM    9  C10 UNL     1       3.265 -12.883 -24.805  1.00  0.00     0.016 C 
HETATM   10  C11 UNL     1       4.341 -13.873 -24.881  1.00  0.00     0.102 C 
HETATM   11  C12 UNL     1       3.971 -15.002 -25.857  1.00  0.00     0.110 C 
HETATM   12  S1  UNL     1       5.165 -16.227 -25.124  1.00  0.00    -0.067 SA
HETATM   13  C13 UNL     1       6.377 -14.858 -24.932  1.00  0.00     0.282 C 
HETATM   14  O2  UNL     1       7.556 -15.080 -24.609  1.00  0.00    -0.260 OA
HETATM   15  N2  UNL     1       5.670 -13.640 -25.224  1.00  0.00    -0.337 N 
HETATM   16  C14 UNL     1       6.285 -12.450 -25.769  1.00  0.00     0.127 C 
HETATM   17  C15 UNL     1       7.059 -11.690 -24.758  1.00  0.00     0.020 C 
HETATM   18  C16 UNL     1       6.575 -11.745 -23.348  1.00  0.00     0.004 C 
HETATM   19  C17 UNL     1       5.863 -10.463 -22.909  1.00  0.00     0.028 C 
HETATM   20  C18 UNL     1       4.952  -9.938 -23.903  1.00  0.00     0.113 C 
ENDROOT
BRANCH   1  21
HETATM   21  C2  UNL     1       4.832  -7.745 -22.794  1.00  0.00     0.113 C 
HETATM   22  C1  UNL     1       4.100  -6.409 -23.034  1.00  0.00     0.026 C 
ENDBRANCH   1  21
BRANCH   4  23
HETATM   23  O1  UNL     1       2.958  -9.753 -22.857  1.00  0.00    -0.387 OA
ATOM     24  H1  UNL     1       3.614  -9.805 -22.173  1.00  0.00     0.210 HD
ENDBRANCH   4  23
TORSDOF 2
ENDMDL
MODEL 4
REMARK VINA RESULT: -6.955502146      2.604      4.963
REMARK  2 active torsions:
REMARK  status: ('A' for Active; 'I' for Inactive)
REMARK    1  A    between atoms: C2_2  and  N1_3 
REMARK    2  A    between atoms: C5_6  and  O1_7 
ROOT
HETATM    1  N1  UNL     1       6.048  -8.613 -23.627  1.00  0.00    -0.406 N 
HETATM    2  C3  UNL     1       6.226  -9.456 -22.496  1.00  0.00     0.120 C 
HETATM    3  C4  UNL     1       5.088 -10.503 -22.530  1.00  0.00     0.059 C 
HETATM    4  C5  UNL     1       4.800 -10.449 -24.012  1.00  0.00     0.083 C 
HETATM    5  C6  UNL     1       3.819 -11.344 -24.565  1.00  0.00     0.028 C 
HETATM    6  C7  UNL     1       4.569 -12.709 -24.495  1.00  0.00     0.008 C 
HETATM    7  C8  UNL     1       3.577 -13.732 -24.811  1.00  0.00     0.001 C 
HETATM    8  C9  UNL     1       2.328 -13.183 -24.219  1.00  0.00     0.007 C 
HETATM    9  C10 UNL     1       2.519 -11.660 -24.005  1.00  0.00     0.016 C 
HETATM   10  C11 UNL     1       1.281 -11.091 -24.541  1.00  0.00     0.102 C 
HETATM   11  C12 UNL     1       0.056 -11.820 -23.964  1.00  0.00     0.110 C 
HETATM   12  S1  UNL     1      -1.083 -11.307 -25.343  1.00  0.00    -0.067 SA
HETATM   13  C13 UNL     1      -0.279  -9.654 -25.328  1.00  0.00     0.282 C 
HETATM   14  O2  UNL     1      -0.743  -8.705 -25.981  1.00  0.00    -0.260 OA
HETATM   15  N2  UNL     1       0.868  -9.763 -24.468  1.00  0.00    -0.337 N 
HETATM   16  C14 UNL     1       1.425  -8.668 -23.705  1.00  0.00     0.127 C 
HETATM   17  C15 UNL     1       2.213  -7.729 -24.540  1.00  0.00     0.020 C 
HETATM   18  C16 UNL     1       2.924  -8.302 -25.719  1.00  0.00     0.004 C 
HETATM   19  C17 UNL     1       4.432  -8.447 -25.498  1.00  0.00     0.028 C 
HETATM   20  C18 UNL     1       4.776  -8.976 -24.195  1.00  0.00     0.113 C 
ENDROOT
BRANCH   1  21
HETATM   21  C2  UNL     1       7.120  -8.258 -24.403  1.00  0.00     0.113 C 
HETATM   22  C1  UNL     1       8.162  -7.559 -23.506  1.00  0.00     0.026 C 
ENDBRANCH   1  21
BRANCH   4  23
HETATM   23  O1  UNL     1       6.065 -10.787 -24.599  1.00  0.00    -0.387 OA
ATOM     24  H1  UNL     1       6.030 -10.357 -25.445  1.00  0.00     0.210 HD
ENDBRANCH   4  23
TORSDOF 2
ENDMDL
MODEL 5
REMARK VINA RESULT: -6.857197898      2.259      5.557
REMARK  2 active torsions:
REMARK  status: ('A' for Active; 'I' for Inactive)
REMARK    1  A    between atoms: C2_2  and  N1_3 
REMARK    2  A    between atoms: C5_6  and  O1_7 
ROOT
HETATM    1  N1  UNL     1       1.978  -6.914 -23.671  1.00  0.00    -0.406 N 
HETATM    2  C3  UNL     1       2.650  -6.373 -22.541  1.00  0.00     0.120 C 
HETATM    3  C4  UNL     1       4.000  -7.117 -22.420  1.00  0.00     0.059 C 
HETATM    4  C5  UNL     1       4.133  -7.543 -23.863  1.00  0.00     0.083 C 
HETATM    5  C6  UNL     1       5.323  -8.235 -24.279  1.00  0.00     0.028 C 
HETATM    6  C7  UNL     1       6.377  -7.087 -24.248  1.00  0.00     0.008 C 
HETATM    7  C8  UNL     1       7.678  -7.726 -24.424  1.00  0.00     0.001 C 
HETATM    8  C9  UNL     1       7.511  -9.025 -23.718  1.00  0.00     0.007 C 
HETATM    9  C10 UNL     1       5.994  -9.310 -23.573  1.00  0.00     0.016 C 
HETATM   10  C11 UNL     1       5.877 -10.708 -23.990  1.00  0.00     0.102 C 
HETATM   11  C12 UNL     1       6.915 -11.579 -23.262  1.00  0.00     0.110 C 
HETATM   12  S1  UNL     1       6.873 -12.944 -24.526  1.00  0.00    -0.067 SA
HETATM   13  C13 UNL     1       5.054 -12.710 -24.649  1.00  0.00     0.282 C 
HETATM   14  O2  UNL     1       4.341 -13.510 -25.277  1.00  0.00    -0.260 OA
HETATM   15  N2  UNL     1       4.744 -11.513 -23.914  1.00  0.00    -0.337 N 
HETATM   16  C14 UNL     1       3.483 -11.266 -23.250  1.00  0.00     0.127 C 
HETATM   17  C15 UNL     1       2.400 -10.898 -24.193  1.00  0.00     0.020 C 
HETATM   18  C16 UNL     1       2.794 -10.153 -25.424  1.00  0.00     0.004 C 
HETATM   19  C17 UNL     1       2.446  -8.664 -25.362  1.00  0.00     0.028 C 
HETATM   20  C18 UNL     1       2.756  -8.051 -24.088  1.00  0.00     0.113 C 
ENDROOT
BRANCH   1  21
HETATM   21  C2  UNL     1       1.355  -6.086 -24.569  1.00  0.00     0.113 C 
HETATM   22  C1  UNL     1      -0.074  -6.613 -24.808  1.00  0.00     0.026 C 
ENDBRANCH   1  21
BRANCH   4  23
HETATM   23  O1  UNL     1       4.094  -6.296 -24.572  1.00  0.00    -0.387 OA
ATOM     24  H1  UNL     1       3.270  -5.916 -24.291  1.00  0.00     0.210 HD
ENDBRANCH   4  23
TORSDOF 2
ENDMDL
