MODEL 1
REMARK VINA RESULT: -8.275662505      0.000      0.000
REMARK  2 active torsions:
REMARK  status: ('A' for Active; 'I' for Inactive)
REMARK    1  A    between atoms: C7_8  and  C8_9 
REMARK    2  A    between atoms: C8_9  and  O2_12 
ROOT
HETATM    1  C1  UNL     1       0.228  -8.232 -28.256  1.00  0.00     0.017 C 
HETATM    2  C2  UNL     1       0.775  -8.111 -27.076  1.00  0.00    -0.057 C 
HETATM    3  C3  UNL     1       2.237  -8.018 -26.941  1.00  0.00     0.044 C 
HETATM    4  C4  UNL     1       2.813  -8.442 -25.667  1.00  0.00     0.032 C 
HETATM    5  C5  UNL     1       2.670  -9.945 -25.384  1.00  0.00     0.029 C 
HETATM    6  C6  UNL     1       3.077 -10.018 -23.953  1.00  0.00     0.134 C 
HETATM    7  O1  UNL     1       4.327 -10.559 -23.748  1.00  0.00    -0.377 OA
HETATM    8  C7  UNL     1       5.270  -9.574 -23.888  1.00  0.00     0.156 C 
HETATM    9  C11 UNL     1       4.622  -8.253 -23.526  1.00  0.00     0.045 C 
HETATM   10  C12 UNL     1       3.213  -8.572 -23.425  1.00  0.00     0.053 C 
HETATM   11  C13 UNL     1       2.243  -7.947 -24.393  1.00  0.00     0.074 C 
HETATM   12  C14 UNL     1       1.948  -6.532 -24.285  1.00  0.00     0.065 C 
HETATM   13  C15 UNL     1       0.444  -6.315 -24.395  1.00  0.00     0.171 C 
HETATM   14  O3  UNL     1      -0.178  -6.813 -25.454  1.00  0.00    -0.378 OA
HETATM   15  C16 UNL     1      -0.126  -8.070 -25.868  1.00  0.00     0.184 C 
HETATM   16  C17 UNL     1       0.349  -9.147 -24.989  1.00  0.00     0.096 C 
HETATM   17  C18 UNL     1      -0.579 -10.238 -24.599  1.00  0.00     0.042 C 
HETATM   18  C19 UNL     1       0.514 -11.260 -24.938  1.00  0.00     0.011 C 
HETATM   19  C20 UNL     1       1.219 -10.208 -25.679  1.00  0.00     0.030 C 
HETATM   20  O4  UNL     1       1.081  -8.658 -23.973  1.00  0.00    -0.365 OA
ENDROOT
BRANCH   8  21
HETATM   21  C8  UNL     1       6.511  -9.836 -23.034  1.00  0.00     0.076 C 
HETATM   22  C9  UNL     1       7.712  -9.107 -23.526  1.00  0.00     0.048 C 
HETATM   23  C10 UNL     1       6.738 -11.353 -23.111  1.00  0.00     0.048 C 
BRANCH  21  24
HETATM   24  O2  UNL     1       6.174  -9.563 -21.720  1.00  0.00    -0.388 OA
ATOM     25  H2  UNL     1       6.752 -10.075 -21.166  1.00  0.00     0.210 HD
ENDBRANCH  21  24
ENDBRANCH   8  21
TORSDOF 2
ENDMDL
MODEL 2
REMARK VINA RESULT: -8.144430792      2.496      4.442
REMARK  2 active torsions:
REMARK  status: ('A' for Active; 'I' for Inactive)
REMARK    1  A    between atoms: C7_8  and  C8_9 
REMARK    2  A    between atoms: C8_9  and  O2_12 
ROOT
HETATM    1  C1  UNL     1       4.754  -6.299 -24.411  1.00  0.00     0.017 C 
HETATM    2  C2  UNL     1       4.828  -7.523 -23.963  1.00  0.00    -0.057 C 
HETATM    3  C3  UNL     1       5.919  -8.409 -24.400  1.00  0.00     0.044 C 
HETATM    4  C4  UNL     1       5.666  -9.847 -24.345  1.00  0.00     0.032 C 
HETATM    5  C5  UNL     1       4.593 -10.332 -25.332  1.00  0.00     0.029 C 
HETATM    6  C6  UNL     1       4.365 -11.726 -24.860  1.00  0.00     0.134 C 
HETATM    7  O1  UNL     1       4.908 -12.694 -25.676  1.00  0.00    -0.377 OA
HETATM    8  C7  UNL     1       6.225 -12.877 -25.342  1.00  0.00     0.156 C 
HETATM    9  C11 UNL     1       6.387 -12.521 -23.878  1.00  0.00     0.045 C 
HETATM   10  C12 UNL     1       5.125 -11.906 -23.526  1.00  0.00     0.053 C 
HETATM   11  C13 UNL     1       5.098 -10.455 -23.121  1.00  0.00     0.074 C 
HETATM   12  C14 UNL     1       5.663 -10.066 -21.844  1.00  0.00     0.065 C 
HETATM   13  C15 UNL     1       4.712  -9.109 -21.136  1.00  0.00     0.171 C 
HETATM   14  O3  UNL     1       4.323  -8.025 -21.791  1.00  0.00    -0.378 OA
HETATM   15  C16 UNL     1       3.773  -7.999 -22.996  1.00  0.00     0.184 C 
HETATM   16  C17 UNL     1       3.203  -9.209 -23.604  1.00  0.00     0.096 C 
HETATM   17  C18 UNL     1       1.750  -9.261 -23.908  1.00  0.00     0.042 C 
HETATM   18  C19 UNL     1       2.083  -9.810 -25.301  1.00  0.00     0.011 C 
HETATM   19  C20 UNL     1       3.466  -9.361 -25.110  1.00  0.00     0.030 C 
HETATM   20  O4  UNL     1       3.682 -10.319 -23.020  1.00  0.00    -0.365 OA
ENDROOT
BRANCH   8  21
HETATM   21  C8  UNL     1       6.701 -14.301 -25.624  1.00  0.00     0.076 C 
HETATM   22  C9  UNL     1       7.054 -14.517 -27.054  1.00  0.00     0.048 C 
HETATM   23  C10 UNL     1       5.527 -15.204 -25.221  1.00  0.00     0.048 C 
BRANCH  21  24
HETATM   24  O2  UNL     1       7.724 -14.579 -24.735  1.00  0.00    -0.388 OA
ATOM     25  H2  UNL     1       8.114 -15.404 -24.998  1.00  0.00     0.210 HD
ENDBRANCH  21  24
ENDBRANCH   8  21
TORSDOF 2
ENDMDL
MODEL 3
REMARK VINA RESULT: -8.048793621      1.591      5.992
REMARK  2 active torsions:
REMARK  status: ('A' for Active; 'I' for Inactive)
REMARK    1  A    between atoms: C7_8  and  C8_9 
REMARK    2  A    between atoms: C8_9  and  O2_12 
ROOT
HETATM    1  C1  UNL     1       7.102 -10.598 -20.986  1.00  0.00     0.017 C 
HETATM    2  C2  UNL     1       6.455 -10.121 -22.016  1.00  0.00    -0.057 C 
HETATM    3  C3  UNL     1       5.075  -9.633 -21.864  1.00  0.00     0.044 C 
HETATM    4  C4  UNL     1       4.233  -9.647 -23.058  1.00  0.00     0.032 C 
HETATM    5  C5  UNL     1       3.903 -11.055 -23.575  1.00  0.00     0.029 C 
HETATM    6  C6  UNL     1       3.299 -10.750 -24.902  1.00  0.00     0.134 C 
HETATM    7  O1  UNL     1       1.931 -10.904 -24.948  1.00  0.00    -0.377 OA
HETATM    8  C7  UNL     1       1.334  -9.755 -24.498  1.00  0.00     0.156 C 
HETATM    9  C11 UNL     1       2.275  -8.600 -24.779  1.00  0.00     0.045 C 
HETATM   10  C12 UNL     1       3.507  -9.245 -25.183  1.00  0.00     0.053 C 
HETATM   11  C13 UNL     1       4.738  -9.083 -24.330  1.00  0.00     0.074 C 
HETATM   12  C14 UNL     1       5.405  -7.797 -24.286  1.00  0.00     0.065 C 
HETATM   13  C15 UNL     1       6.909  -7.997 -24.425  1.00  0.00     0.171 C 
HETATM   14  O3  UNL     1       7.504  -8.828 -23.582  1.00  0.00    -0.378 OA
HETATM   15  C16 UNL     1       7.155 -10.085 -23.350  1.00  0.00     0.184 C 
HETATM   16  C17 UNL     1       6.277 -10.818 -24.272  1.00  0.00     0.096 C 
HETATM   17  C18 UNL     1       6.794 -12.017 -24.979  1.00  0.00     0.042 C 
HETATM   18  C19 UNL     1       5.514 -12.770 -24.594  1.00  0.00     0.011 C 
HETATM   19  C20 UNL     1       5.246 -11.732 -23.593  1.00  0.00     0.030 C 
HETATM   20  O4  UNL     1       5.582  -9.976 -25.055  1.00  0.00    -0.365 OA
ENDROOT
BRANCH   8  21
HETATM   21  C8  UNL     1      -0.035  -9.525 -25.137  1.00  0.00     0.076 C 
HETATM   22  C9  UNL     1      -1.036 -10.553 -24.738  1.00  0.00     0.048 C 
HETATM   23  C10 UNL     1       0.215  -9.580 -26.650  1.00  0.00     0.048 C 
BRANCH  21  24
HETATM   24  O2  UNL     1      -0.409  -8.223 -24.855  1.00  0.00    -0.388 OA
ATOM     25  H2  UNL     1      -0.908  -8.239 -24.047  1.00  0.00     0.210 HD
ENDBRANCH  21  24
ENDBRANCH   8  21
TORSDOF 2
ENDMDL
MODEL 4
REMARK VINA RESULT: -7.643068274      2.535      4.564
REMARK  2 active torsions:
REMARK  status: ('A' for Active; 'I' for Inactive)
REMARK    1  A    between atoms: C7_8  and  C8_9 
REMARK    2  A    between atoms: C8_9  and  O2_12 
ROOT
HETATM    1  C1  UNL     1       4.407  -6.405 -24.269  1.00  0.00     0.017 C 
HETATM    2  C2  UNL     1       4.670  -7.625 -23.884  1.00  0.00    -0.057 C 
HETATM    3  C3  UNL     1       5.843  -8.335 -24.420  1.00  0.00     0.044 C 
HETATM    4  C4  UNL     1       5.789  -9.795 -24.420  1.00  0.00     0.032 C 
HETATM    5  C5  UNL     1       4.734 -10.382 -25.370  1.00  0.00     0.029 C 
HETATM    6  C6  UNL     1       4.723 -11.812 -24.954  1.00  0.00     0.134 C 
HETATM    7  O1  UNL     1       5.342 -12.663 -25.843  1.00  0.00    -0.377 OA
HETATM    8  C7  UNL     1       6.689 -12.678 -25.588  1.00  0.00     0.156 C 
HETATM    9  C11 UNL     1       6.888 -12.363 -24.119  1.00  0.00     0.045 C 
HETATM   10  C12 UNL     1       5.577 -11.940 -23.672  1.00  0.00     0.053 C 
HETATM   11  C13 UNL     1       5.380 -10.523 -23.198  1.00  0.00     0.074 C 
HETATM   12  C14 UNL     1       5.962 -10.113 -21.935  1.00  0.00     0.065 C 
HETATM   13  C15 UNL     1       4.935  -9.323 -21.134  1.00  0.00     0.171 C 
HETATM   14  O3  UNL     1       4.366  -8.278 -21.715  1.00  0.00    -0.378 OA
HETATM   15  C16 UNL     1       3.748  -8.278 -22.886  1.00  0.00     0.184 C 
HETATM   16  C17 UNL     1       3.310  -9.529 -23.520  1.00  0.00     0.096 C 
HETATM   17  C18 UNL     1       1.862  -9.767 -23.749  1.00  0.00     0.042 C 
HETATM   18  C19 UNL     1       2.183 -10.209 -25.183  1.00  0.00     0.011 C 
HETATM   19  C20 UNL     1       3.502  -9.583 -25.043  1.00  0.00     0.030 C 
HETATM   20  O4  UNL     1       3.967 -10.586 -23.016  1.00  0.00    -0.365 OA
ENDROOT
BRANCH   8  21
HETATM   21  C8  UNL     1       7.334 -14.012 -25.962  1.00  0.00     0.076 C 
HETATM   22  C9  UNL     1       7.161 -15.050 -24.909  1.00  0.00     0.048 C 
HETATM   23  C10 UNL     1       8.823 -13.695 -26.161  1.00  0.00     0.048 C 
BRANCH  21  24
HETATM   24  O2  UNL     1       6.848 -14.373 -27.206  1.00  0.00    -0.388 OA
ATOM     25  H2  UNL     1       7.045 -15.293 -27.333  1.00  0.00     0.210 HD
ENDBRANCH  21  24
ENDBRANCH   8  21
TORSDOF 2
ENDMDL
MODEL 5
REMARK VINA RESULT: -7.449837450      2.708      5.468
REMARK  2 active torsions:
REMARK  status: ('A' for Active; 'I' for Inactive)
REMARK    1  A    between atoms: C7_8  and  C8_9 
REMARK    2  A    between atoms: C8_9  and  O2_12 
ROOT
HETATM    1  C1  UNL     1       4.476  -8.196 -20.792  1.00  0.00     0.017 C 
HETATM    2  C2  UNL     1       4.500  -8.834 -21.931  1.00  0.00    -0.057 C 
HETATM    3  C3  UNL     1       4.460 -10.305 -21.958  1.00  0.00     0.044 C 
HETATM    4  C4  UNL     1       5.037 -10.962 -23.129  1.00  0.00     0.032 C 
HETATM    5  C5  UNL     1       6.558 -10.790 -23.257  1.00  0.00     0.029 C 
HETATM    6  C6  UNL     1       6.799 -11.302 -24.635  1.00  0.00     0.134 C 
HETATM    7  O1  UNL     1       7.391 -12.545 -24.679  1.00  0.00    -0.377 OA
HETATM    8  C7  UNL     1       6.422 -13.508 -24.573  1.00  0.00     0.156 C 
HETATM    9  C11 UNL     1       5.132 -12.935 -25.127  1.00  0.00     0.045 C 
HETATM   10  C12 UNL     1       5.425 -11.528 -25.305  1.00  0.00     0.053 C 
HETATM   11  C13 UNL     1       4.672 -10.508 -24.490  1.00  0.00     0.074 C 
HETATM   12  C14 UNL     1       3.271 -10.270 -24.774  1.00  0.00     0.065 C 
HETATM   13  C15 UNL     1       3.005  -8.771 -24.809  1.00  0.00     0.171 C 
HETATM   14  O3  UNL     1       3.366  -8.053 -23.755  1.00  0.00    -0.378 OA
HETATM   15  C16 UNL     1       4.571  -8.030 -23.204  1.00  0.00     0.184 C 
HETATM   16  C17 UNL     1       5.750  -8.535 -23.921  1.00  0.00     0.096 C 
HETATM   17  C18 UNL     1       6.854  -7.603 -24.262  1.00  0.00     0.042 C 
HETATM   18  C19 UNL     1       7.859  -8.631 -23.728  1.00  0.00     0.011 C 
HETATM   19  C20 UNL     1       6.750  -9.312 -23.051  1.00  0.00     0.030 C 
HETATM   20  O4  UNL     1       5.396  -9.358 -24.922  1.00  0.00    -0.365 OA
ENDROOT
BRANCH   8  21
HETATM   21  C8  UNL     1       6.808 -14.801 -25.292  1.00  0.00     0.076 C 
HETATM   22  C9  UNL     1       7.259 -14.567 -26.691  1.00  0.00     0.048 C 
HETATM   23  C10 UNL     1       5.538 -15.663 -25.277  1.00  0.00     0.048 C 
BRANCH  21  24
HETATM   24  O2  UNL     1       7.729 -15.457 -24.495  1.00  0.00    -0.388 OA
ATOM     25  H2  UNL     1       7.992 -16.245 -24.956  1.00  0.00     0.210 HD
ENDBRANCH  21  24
ENDBRANCH   8  21
TORSDOF 2
ENDMDL
