MODEL 1
REMARK VINA RESULT: -10.264425531      0.000      0.000
REMARK  4 active torsions:
REMARK  status: ('A' for Active; 'I' for Inactive)
REMARK    1  A    between atoms: O1_2  and  C2_3 
REMARK    2  A    between atoms: C7_8  and  N1_9 
REMARK    3  A    between atoms: N1_9  and  C8_11 
REMARK    4  A    between atoms: C14_20  and  C15_21 
ROOT
HETATM    1  C2  UNL     1       6.017 -13.948 -25.396  1.00  0.00     0.095 A 
HETATM    2  C3  UNL     1       5.739 -15.249 -25.769  1.00  0.00     0.039 A 
HETATM    3  C4  UNL     1       4.471 -15.774 -25.618  1.00  0.00     0.004 A 
HETATM    4  C5  UNL     1       3.498 -14.955 -25.081  1.00  0.00     0.018 A 
HETATM    5  C6  UNL     1       3.767 -13.652 -24.704  1.00  0.00     0.038 A 
HETATM    6  C7  UNL     1       2.803 -12.825 -24.166  1.00  0.00     0.120 A 
HETATM    7  N2  UNL     1       3.155 -11.584 -23.832  1.00  0.00    -0.327 N 
ATOM      8  H2  UNL     1       2.436 -10.980 -23.435  1.00  0.00     0.169 HD
HETATM    9  C14 UNL     1       4.413 -11.059 -23.982  1.00  0.00     0.117 A 
HETATM   10  N4  UNL     1       5.349 -11.861 -24.502  1.00  0.00    -0.339 N 
ATOM     11  H4  UNL     1       6.299 -11.513 -24.632  1.00  0.00     0.167 HD
HETATM   12  C20 UNL     1       5.044 -13.123 -24.856  1.00  0.00     0.081 A 
ENDROOT
BRANCH   6  13
HETATM   13  N1  UNL     1       1.607 -13.286 -24.011  1.00  0.00    -0.342 N 
ATOM     14  H1  UNL     1       1.479 -14.287 -23.859  1.00  0.00     0.167 HD
BRANCH  13  15
HETATM   15  C8  UNL     1       0.466 -12.445 -24.046  1.00  0.00     0.034 A 
HETATM   16  C9  UNL     1      -0.717 -12.933 -23.539  1.00  0.00     0.029 A 
HETATM   17  C10 UNL     1      -1.821 -12.096 -23.583  1.00  0.00     0.004 A 
HETATM   18  C11 UNL     1      -1.714 -10.830 -24.117  1.00  0.00     0.019 A 
HETATM   19  C12 UNL     1      -0.538 -10.338 -24.624  1.00  0.00     0.013 A 
HETATM   20 BR1  UNL     1      -0.404  -8.578 -25.364  1.00  0.00    -0.051 Br
HETATM   21  C13 UNL     1       0.567 -11.180 -24.578  1.00  0.00     0.048 A 
ENDBRANCH  13  15
ENDBRANCH   6  13
BRANCH   9  22
HETATM   22  C15 UNL     1       4.672  -9.691 -23.580  1.00  0.00     0.011 A 
HETATM   23  C16 UNL     1       3.869  -9.131 -22.617  1.00  0.00     0.032 A 
HETATM   24  C17 UNL     1       4.096  -7.810 -22.208  1.00  0.00     0.088 A 
HETATM   25  N3  UNL     1       5.096  -7.132 -22.774  1.00  0.00    -0.375 N 
HETATM   26  C18 UNL     1       5.891  -7.647 -23.709  1.00  0.00     0.088 A 
ATOM     27  H3  UNL     1       5.259  -6.171 -22.475  1.00  0.00     0.164 HD
HETATM   28  C19 UNL     1       5.669  -8.956 -24.117  1.00  0.00     0.032 A 
ENDBRANCH   9  22
BRANCH   1  29
HETATM   29  O1  UNL     1       7.281 -13.410 -25.542  1.00  0.00    -0.354 OA
HETATM   30  C1  UNL     1       7.990 -13.456 -26.777  1.00  0.00     0.210 C 
ENDBRANCH   1  29
TORSDOF 4
ENDMDL
MODEL 2
REMARK VINA RESULT: -10.049262533      2.108      5.360
REMARK  4 active torsions:
REMARK  status: ('A' for Active; 'I' for Inactive)
REMARK    1  A    between atoms: O1_2  and  C2_3 
REMARK    2  A    between atoms: C7_8  and  N1_9 
REMARK    3  A    between atoms: N1_9  and  C8_11 
REMARK    4  A    between atoms: C14_20  and  C15_21 
ROOT
HETATM    1  C2  UNL     1       4.623 -13.693 -24.889  1.00  0.00     0.095 A 
HETATM    2  C3  UNL     1       6.005 -13.713 -24.893  1.00  0.00     0.039 A 
HETATM    3  C4  UNL     1       6.730 -12.665 -24.361  1.00  0.00     0.004 A 
HETATM    4  C5  UNL     1       6.028 -11.604 -23.829  1.00  0.00     0.018 A 
HETATM    5  C6  UNL     1       4.645 -11.575 -23.819  1.00  0.00     0.038 A 
HETATM    6  C7  UNL     1       3.931 -10.519 -23.290  1.00  0.00     0.120 A 
HETATM    7  N2  UNL     1       2.601 -10.579 -23.326  1.00  0.00    -0.327 N 
ATOM      8  H2  UNL     1       2.082  -9.794 -22.933  1.00  0.00     0.169 HD
HETATM    9  C14 UNL     1       1.877 -11.618 -23.854  1.00  0.00     0.117 A 
HETATM   10  N4  UNL     1       2.568 -12.641 -24.367  1.00  0.00    -0.339 N 
ATOM     11  H4  UNL     1       2.072 -13.436 -24.771  1.00  0.00     0.167 HD
HETATM   12  C20 UNL     1       3.913 -12.630 -24.356  1.00  0.00     0.081 A 
ENDROOT
BRANCH   6  13
HETATM   13  N1  UNL     1       4.581  -9.524 -22.786  1.00  0.00    -0.342 N 
ATOM     14  H1  UNL     1       5.277  -9.703 -22.062  1.00  0.00     0.167 HD
BRANCH  13  15
HETATM   15  C8  UNL     1       4.356  -8.188 -23.207  1.00  0.00     0.034 A 
HETATM   16  C9  UNL     1       4.702  -7.847 -24.495  1.00  0.00     0.029 A 
HETATM   17  C10 UNL     1       4.476  -6.537 -24.887  1.00  0.00     0.004 A 
HETATM   18  C11 UNL     1       3.926  -5.631 -24.006  1.00  0.00     0.019 A 
HETATM   19  C12 UNL     1       3.579  -5.965 -22.722  1.00  0.00     0.013 A 
HETATM   20 BR1  UNL     1       2.817  -4.696 -21.509  1.00  0.00    -0.051 Br
HETATM   21  C13 UNL     1       3.808  -7.280 -22.331  1.00  0.00     0.048 A 
ENDBRANCH  13  15
ENDBRANCH   6  13
BRANCH   9  22
HETATM   22  C15 UNL     1       0.429 -11.566 -23.833  1.00  0.00     0.011 A 
HETATM   23  C16 UNL     1      -0.243 -12.448 -23.024  1.00  0.00     0.032 A 
HETATM   24  C17 UNL     1      -1.644 -12.422 -22.983  1.00  0.00     0.088 A 
HETATM   25  N3  UNL     1      -2.285 -11.530 -23.740  1.00  0.00    -0.375 N 
HETATM   26  C18 UNL     1      -1.662 -10.662 -24.534  1.00  0.00     0.088 A 
ATOM     27  H3  UNL     1      -3.305 -11.512 -23.709  1.00  0.00     0.164 HD
HETATM   28  C19 UNL     1      -0.273 -10.686 -24.578  1.00  0.00     0.032 A 
ENDBRANCH   9  22
BRANCH   1  29
HETATM   29  O1  UNL     1       3.885 -14.734 -25.417  1.00  0.00    -0.354 OA
HETATM   30  C1  UNL     1       4.464 -15.997 -25.728  1.00  0.00     0.210 C 
ENDBRANCH   1  29
TORSDOF 4
ENDMDL
MODEL 3
REMARK VINA RESULT: -10.037109336      0.986      1.402
REMARK  4 active torsions:
REMARK  status: ('A' for Active; 'I' for Inactive)
REMARK    1  A    between atoms: O1_2  and  C2_3 
REMARK    2  A    between atoms: C7_8  and  N1_9 
REMARK    3  A    between atoms: N1_9  and  C8_11 
REMARK    4  A    between atoms: C14_20  and  C15_21 
ROOT
HETATM    1  C2  UNL     1       6.072 -13.670 -25.603  1.00  0.00     0.095 A 
HETATM    2  C3  UNL     1       6.015 -15.009 -25.939  1.00  0.00     0.039 A 
HETATM    3  C4  UNL     1       4.867 -15.747 -25.723  1.00  0.00     0.004 A 
HETATM    4  C5  UNL     1       3.786 -15.099 -25.161  1.00  0.00     0.018 A 
HETATM    5  C6  UNL     1       3.833 -13.759 -24.821  1.00  0.00     0.038 A 
HETATM    6  C7  UNL     1       2.758 -13.102 -24.258  1.00  0.00     0.120 A 
HETATM    7  N2  UNL     1       2.897 -11.811 -23.963  1.00  0.00    -0.327 N 
ATOM      8  H2  UNL     1       2.097 -11.333 -23.548  1.00  0.00     0.169 HD
HETATM    9  C14 UNL     1       4.034 -11.075 -24.177  1.00  0.00     0.117 A 
HETATM   10  N4  UNL     1       5.077 -11.712 -24.721  1.00  0.00    -0.339 N 
ATOM     11  H4  UNL     1       5.944 -11.205 -24.899  1.00  0.00     0.167 HD
HETATM   12  C20 UNL     1       4.989 -13.016 -25.038  1.00  0.00     0.081 A 
ENDROOT
BRANCH   6  13
HETATM   13  N1  UNL     1       1.671 -13.764 -24.043  1.00  0.00    -0.342 N 
ATOM     14  H1  UNL     1       1.667 -14.773 -24.194  1.00  0.00     0.167 HD
BRANCH  13  15
HETATM   15  C8  UNL     1       0.480 -13.131 -23.603  1.00  0.00     0.034 A 
HETATM   16  C9  UNL     1       0.117 -13.278 -22.283  1.00  0.00     0.029 A 
HETATM   17  C10 UNL     1      -1.050 -12.653 -21.873  1.00  0.00     0.004 A 
HETATM   18  C11 UNL     1      -1.799 -11.920 -22.768  1.00  0.00     0.019 A 
HETATM   19  C12 UNL     1      -1.443 -11.770 -24.083  1.00  0.00     0.013 A 
HETATM   20 BR1  UNL     1      -2.494 -10.750 -25.315  1.00  0.00    -0.051 Br
HETATM   21  C13 UNL     1      -0.271 -12.399 -24.492  1.00  0.00     0.048 A 
ENDBRANCH  13  15
ENDBRANCH   6  13
BRANCH   9  22
HETATM   22  C15 UNL     1       4.061  -9.672 -23.813  1.00  0.00     0.011 A 
HETATM   23  C16 UNL     1       5.256  -9.001 -23.891  1.00  0.00     0.032 A 
HETATM   24  C17 UNL     1       5.313  -7.643 -23.546  1.00  0.00     0.088 A 
HETATM   25  N3  UNL     1       4.190  -7.042 -23.148  1.00  0.00    -0.375 N 
HETATM   26  C18 UNL     1       3.018  -7.666 -23.062  1.00  0.00     0.088 A 
ATOM     27  H3  UNL     1       4.233  -6.054 -22.897  1.00  0.00     0.164 HD
HETATM   28  C19 UNL     1       2.958  -9.011 -23.402  1.00  0.00     0.032 A 
ENDBRANCH   9  22
BRANCH   1  29
HETATM   29  O1  UNL     1       7.212 -12.921 -25.813  1.00  0.00    -0.354 OA
HETATM   30  C1  UNL     1       8.358 -13.448 -26.476  1.00  0.00     0.210 C 
ENDBRANCH   1  29
TORSDOF 4
ENDMDL
MODEL 4
REMARK VINA RESULT: -9.926557954      2.098      5.359
REMARK  4 active torsions:
REMARK  status: ('A' for Active; 'I' for Inactive)
REMARK    1  A    between atoms: O1_2  and  C2_3 
REMARK    2  A    between atoms: C7_8  and  N1_9 
REMARK    3  A    between atoms: N1_9  and  C8_11 
REMARK    4  A    between atoms: C14_20  and  C15_21 
ROOT
HETATM    1  C2  UNL     1       4.384 -13.723 -24.754  1.00  0.00     0.095 A 
HETATM    2  C3  UNL     1       5.753 -13.616 -24.905  1.00  0.00     0.039 A 
HETATM    3  C4  UNL     1       6.410 -12.438 -24.610  1.00  0.00     0.004 A 
HETATM    4  C5  UNL     1       5.651 -11.377 -24.162  1.00  0.00     0.018 A 
HETATM    5  C6  UNL     1       4.279 -11.473 -24.007  1.00  0.00     0.038 A 
HETATM    6  C7  UNL     1       3.510 -10.418 -23.560  1.00  0.00     0.120 A 
HETATM    7  N2  UNL     1       2.197 -10.605 -23.442  1.00  0.00    -0.327 N 
ATOM      8  H2  UNL     1       1.636  -9.820 -23.110  1.00  0.00     0.169 HD
HETATM    9  C14 UNL     1       1.542 -11.774 -23.733  1.00  0.00     0.117 A 
HETATM   10  N4  UNL     1       2.286 -12.796 -24.168  1.00  0.00    -0.339 N 
ATOM     11  H4  UNL     1       1.842 -13.686 -24.397  1.00  0.00     0.167 HD
HETATM   12  C20 UNL     1       3.618 -12.660 -24.304  1.00  0.00     0.081 A 
ENDROOT
BRANCH   6  13
HETATM   13  N1  UNL     1       4.095  -9.302 -23.276  1.00  0.00    -0.342 N 
ATOM     14  H1  UNL     1       4.683  -9.249 -22.445  1.00  0.00     0.167 HD
BRANCH  13  15
HETATM   15  C8  UNL     1       3.943  -8.148 -24.085  1.00  0.00     0.034 A 
HETATM   16  C9  UNL     1       4.531  -6.977 -23.663  1.00  0.00     0.029 A 
HETATM   17  C10 UNL     1       4.370  -5.859 -24.467  1.00  0.00     0.004 A 
HETATM   18  C11 UNL     1       3.646  -5.941 -25.636  1.00  0.00     0.019 A 
HETATM   19  C12 UNL     1       3.058  -7.104 -26.063  1.00  0.00     0.013 A 
HETATM   20 BR1  UNL     1       2.054  -7.203 -27.689  1.00  0.00    -0.051 Br
HETATM   21  C13 UNL     1       3.221  -8.224 -25.254  1.00  0.00     0.048 A 
ENDBRANCH  13  15
ENDBRANCH   6  13
BRANCH   9  22
HETATM   22  C15 UNL     1       0.104 -11.852 -23.563  1.00  0.00     0.011 A 
HETATM   23  C16 UNL     1      -0.692 -11.107 -24.396  1.00  0.00     0.032 A 
HETATM   24  C17 UNL     1      -2.086 -11.163 -24.256  1.00  0.00     0.088 A 
HETATM   25  N3  UNL     1      -2.598 -11.948 -23.306  1.00  0.00    -0.375 N 
HETATM   26  C18 UNL     1      -1.852 -12.681 -22.484  1.00  0.00     0.088 A 
ATOM     27  H3  UNL     1      -3.612 -11.987 -23.205  1.00  0.00     0.164 HD
HETATM   28  C19 UNL     1      -0.470 -12.628 -22.620  1.00  0.00     0.032 A 
ENDBRANCH   9  22
BRANCH   1  29
HETATM   29  O1  UNL     1       3.714 -14.895 -25.045  1.00  0.00    -0.354 OA
HETATM   30  C1  UNL     1       4.341 -15.983 -25.718  1.00  0.00     0.210 C 
ENDBRANCH   1  29
TORSDOF 4
ENDMDL
MODEL 5
REMARK VINA RESULT: -9.882766045      1.454      1.916
REMARK  4 active torsions:
REMARK  status: ('A' for Active; 'I' for Inactive)
REMARK    1  A    between atoms: O1_2  and  C2_3 
REMARK    2  A    between atoms: C7_8  and  N1_9 
REMARK    3  A    between atoms: N1_9  and  C8_11 
REMARK    4  A    between atoms: C14_20  and  C15_21 
ROOT
HETATM    1  C2  UNL     1       6.501 -13.700 -25.068  1.00  0.00     0.095 A 
HETATM    2  C3  UNL     1       6.403 -15.013 -25.486  1.00  0.00     0.039 A 
HETATM    3  C4  UNL     1       5.181 -15.656 -25.523  1.00  0.00     0.004 A 
HETATM    4  C5  UNL     1       4.069 -14.941 -25.129  1.00  0.00     0.018 A 
HETATM    5  C6  UNL     1       4.156 -13.626 -24.709  1.00  0.00     0.038 A 
HETATM    6  C7  UNL     1       3.051 -12.902 -24.311  1.00  0.00     0.120 A 
HETATM    7  N2  UNL     1       3.233 -11.641 -23.923  1.00  0.00    -0.327 N 
ATOM      8  H2  UNL     1       2.410 -11.114 -23.631  1.00  0.00     0.169 HD
HETATM    9  C14 UNL     1       4.444 -10.999 -23.885  1.00  0.00     0.117 A 
HETATM   10  N4  UNL     1       5.516 -11.701 -24.269  1.00  0.00    -0.339 N 
ATOM     11  H4  UNL     1       6.439 -11.265 -24.257  1.00  0.00     0.167 HD
HETATM   12  C20 UNL     1       5.387 -12.978 -24.671  1.00  0.00     0.081 A 
ENDROOT
BRANCH   6  13
HETATM   13  N1  UNL     1       1.894 -13.475 -24.335  1.00  0.00    -0.342 N 
ATOM     14  H1  UNL     1       1.829 -14.446 -24.641  1.00  0.00     0.167 HD
BRANCH  13  15
HETATM   15  C8  UNL     1       0.711 -12.796 -23.947  1.00  0.00     0.034 A 
HETATM   16  C9  UNL     1       0.356 -11.662 -24.643  1.00  0.00     0.029 A 
HETATM   17  C10 UNL     1      -0.802 -11.012 -24.248  1.00  0.00     0.004 A 
HETATM   18  C11 UNL     1      -1.552 -11.499 -23.200  1.00  0.00     0.019 A 
HETATM   19  C12 UNL     1      -1.205 -12.628 -22.504  1.00  0.00     0.013 A 
HETATM   20 BR1  UNL     1      -2.255 -13.294 -21.049  1.00  0.00    -0.051 Br
HETATM   21  C13 UNL     1      -0.041 -13.278 -22.901  1.00  0.00     0.048 A 
ENDBRANCH  13  15
ENDBRANCH   6  13
BRANCH   9  22
HETATM   22  C15 UNL     1       4.513  -9.621 -23.441  1.00  0.00     0.011 A 
HETATM   23  C16 UNL     1       4.927  -8.668 -24.338  1.00  0.00     0.032 A 
HETATM   24  C17 UNL     1       5.003  -7.326 -23.938  1.00  0.00     0.088 A 
HETATM   25  N3  UNL     1       4.666  -7.017 -22.685  1.00  0.00    -0.375 N 
HETATM   26  C18 UNL     1       4.261  -7.918 -21.794  1.00  0.00     0.088 A 
ATOM     27  H3  UNL     1       4.721  -6.041 -22.396  1.00  0.00     0.164 HD
HETATM   28  C19 UNL     1       4.185  -9.249 -22.186  1.00  0.00     0.032 A 
ENDBRANCH   9  22
BRANCH   1  29
HETATM   29  O1  UNL     1       7.716 -13.044 -25.026  1.00  0.00    -0.354 OA
HETATM   30  C1  UNL     1       8.645 -13.092 -26.105  1.00  0.00     0.210 C 
ENDBRANCH   1  29
TORSDOF 4
ENDMDL
