MODEL 1
REMARK VINA RESULT: -9.279967455      0.000      0.000
REMARK  6 active torsions:
REMARK  status: ('A' for Active; 'I' for Inactive)
REMARK    1  A    between atoms: O1_1  and  C1_3 
REMARK    2  A    between atoms: C1_3  and  C2_4 
REMARK    3  A    between atoms: C1_3  and  C8_10 
REMARK    4  A    between atoms: C11_13  and  C12_14 
REMARK    5  A    between atoms: C13_15  and  C14_16 
REMARK    6  A    between atoms: N3_26  and  C20_27 
ROOT
HETATM    1  C14 UNL     1       2.566  -8.141 -23.463  1.00  0.00     0.101 A 
HETATM    2  N1  UNL     1       1.279  -8.016 -23.838  1.00  0.00    -0.358 N 
ATOM      3  H1  UNL     1       0.835  -8.791 -24.330  1.00  0.00     0.166 HD
HETATM    4  C15 UNL     1       0.554  -6.910 -23.589  1.00  0.00     0.091 A 
HETATM    5  C16 UNL     1       1.124  -5.844 -22.924  1.00  0.00     0.049 A 
HETATM    6  C17 UNL     1       2.451  -5.947 -22.526  1.00  0.00     0.072 A 
HETATM    7  C18 UNL     1       3.163  -7.106 -22.804  1.00  0.00     0.045 A 
HETATM    8  C19 UNL     1       4.432  -6.937 -22.304  1.00  0.00     0.124 A 
HETATM    9  N2  UNL     1       4.472  -5.711 -21.745  1.00  0.00    -0.304 N 
ATOM     10  H2  UNL     1       5.285  -5.299 -21.289  1.00  0.00     0.186 HD
HETATM   11  N3  UNL     1       3.288  -5.123 -21.880  1.00  0.00    -0.256 N 
ENDROOT
BRANCH   1  12
HETATM   12  C13 UNL     1       3.336  -9.324 -23.732  1.00  0.00    -0.042 C 
HETATM   13  C12 UNL     1       3.999 -10.308 -23.954  1.00  0.00    -0.060 C 
BRANCH  13  14
HETATM   14  C11 UNL     1       4.801 -11.478 -24.240  1.00  0.00     0.018 A 
HETATM   15  C10 UNL     1       4.269 -12.589 -24.860  1.00  0.00     0.021 A 
HETATM   16  C9  UNL     1       5.019 -13.712 -25.139  1.00  0.00     0.011 A 
HETATM   17  C8  UNL     1       6.356 -13.772 -24.806  1.00  0.00    -0.025 A 
HETATM   18  C27 UNL     1       6.890 -12.662 -24.186  1.00  0.00     0.011 A 
HETATM   19  C26 UNL     1       6.139 -11.539 -23.906  1.00  0.00     0.021 A 
BRANCH  17  20
HETATM   20  C1  UNL     1       7.189 -14.979 -25.100  1.00  0.00     0.184 C 
BRANCH  20  21
HETATM   21  O1  UNL     1       7.637 -15.575 -23.922  1.00  0.00    -0.386 OA
ATOM     22  H1  UNL     1       6.925 -16.029 -23.488  1.00  0.00     0.210 HD
ENDBRANCH  20  21
BRANCH  20  23
HETATM   23  C2  UNL     1       8.337 -14.636 -25.976  1.00  0.00    -0.025 A 
HETATM   24  C3  UNL     1       9.472 -15.412 -25.984  1.00  0.00     0.010 A 
HETATM   25  C4  UNL     1      10.563 -15.119 -26.793  1.00  0.00     0.001 A 
HETATM   26  C5  UNL     1      10.541 -14.023 -27.625  1.00  0.00     0.000 A 
HETATM   27  C6  UNL     1       9.409 -13.238 -27.624  1.00  0.00     0.001 A 
HETATM   28  C7  UNL     1       8.331 -13.543 -26.815  1.00  0.00     0.010 A 
ENDBRANCH  20  23
ENDBRANCH  17  20
ENDBRANCH  13  14
ENDBRANCH   1  12
BRANCH  11  29
HETATM   29  C20 UNL     1       2.960  -3.821 -21.410  1.00  0.00     0.059 A 
HETATM   30  C21 UNL     1       2.733  -2.780 -22.285  1.00  0.00     0.032 A 
HETATM   31  C22 UNL     1       2.417  -1.525 -21.825  1.00  0.00     0.005 A 
HETATM   32  C23 UNL     1       2.313  -1.250 -20.471  1.00  0.00     0.042 A 
HETATM   33  C24 UNL     1       2.547  -2.319 -19.608  1.00  0.00     0.118 A 
HETATM   34  F1  UNL     1       2.463  -2.126 -18.251  1.00  0.00    -0.206 F 
HETATM   35  C25 UNL     1       2.864  -3.577 -20.057  1.00  0.00     0.073 A 
ENDBRANCH  11  29
TORSDOF 6
ENDMDL
MODEL 2
REMARK VINA RESULT: -9.192459005      0.848      1.191
REMARK  6 active torsions:
REMARK  status: ('A' for Active; 'I' for Inactive)
REMARK    1  A    between atoms: O1_1  and  C1_3 
REMARK    2  A    between atoms: C1_3  and  C2_4 
REMARK    3  A    between atoms: C1_3  and  C8_10 
REMARK    4  A    between atoms: C11_13  and  C12_14 
REMARK    5  A    between atoms: C13_15  and  C14_16 
REMARK    6  A    between atoms: N3_26  and  C20_27 
ROOT
HETATM    1  C14 UNL     1       2.558  -8.154 -23.460  1.00  0.00     0.101 A 
HETATM    2  N1  UNL     1       1.272  -8.031 -23.841  1.00  0.00    -0.358 N 
ATOM      3  H1  UNL     1       0.832  -8.808 -24.335  1.00  0.00     0.166 HD
HETATM    4  C15 UNL     1       0.544  -6.927 -23.595  1.00  0.00     0.091 A 
HETATM    5  C16 UNL     1       1.109  -5.861 -22.927  1.00  0.00     0.049 A 
HETATM    6  C17 UNL     1       2.434  -5.962 -22.523  1.00  0.00     0.072 A 
HETATM    7  C18 UNL     1       3.150  -7.119 -22.798  1.00  0.00     0.045 A 
HETATM    8  C19 UNL     1       4.417  -6.947 -22.292  1.00  0.00     0.124 A 
HETATM    9  N2  UNL     1       4.451  -5.722 -21.732  1.00  0.00    -0.304 N 
ATOM     10  H2  UNL     1       5.261  -5.308 -21.272  1.00  0.00     0.186 HD
HETATM   11  N3  UNL     1       3.267  -5.136 -21.873  1.00  0.00    -0.256 N 
ENDROOT
BRANCH   1  12
HETATM   12  C13 UNL     1       3.332  -9.336 -23.726  1.00  0.00    -0.042 C 
HETATM   13  C12 UNL     1       3.997 -10.319 -23.948  1.00  0.00    -0.060 C 
BRANCH  13  14
HETATM   14  C11 UNL     1       4.801 -11.488 -24.235  1.00  0.00     0.018 A 
HETATM   15  C10 UNL     1       4.269 -12.598 -24.855  1.00  0.00     0.021 A 
HETATM   16  C9  UNL     1       5.021 -13.721 -25.135  1.00  0.00     0.011 A 
HETATM   17  C8  UNL     1       6.358 -13.778 -24.803  1.00  0.00    -0.025 A 
HETATM   18  C27 UNL     1       6.891 -12.668 -24.182  1.00  0.00     0.011 A 
HETATM   19  C26 UNL     1       6.138 -11.546 -23.902  1.00  0.00     0.021 A 
BRANCH  17  20
HETATM   20  C1  UNL     1       7.193 -14.984 -25.097  1.00  0.00     0.184 C 
BRANCH  20  21
HETATM   21  O1  UNL     1       7.645 -15.578 -23.920  1.00  0.00    -0.386 OA
ATOM     22  H1  UNL     1       7.734 -14.928 -23.233  1.00  0.00     0.210 HD
ENDBRANCH  20  21
BRANCH  20  23
HETATM   23  C2  UNL     1       8.338 -14.640 -25.977  1.00  0.00    -0.025 A 
HETATM   24  C3  UNL     1       9.470 -15.419 -25.993  1.00  0.00     0.010 A 
HETATM   25  C4  UNL     1      10.559 -15.125 -26.805  1.00  0.00     0.001 A 
HETATM   26  C5  UNL     1      10.536 -14.026 -27.633  1.00  0.00     0.000 A 
HETATM   27  C6  UNL     1       9.405 -13.239 -27.624  1.00  0.00     0.001 A 
HETATM   28  C7  UNL     1       8.330 -13.544 -26.811  1.00  0.00     0.010 A 
ENDBRANCH  20  23
ENDBRANCH  17  20
ENDBRANCH  13  14
ENDBRANCH   1  12
BRANCH  11  29
HETATM   29  C20 UNL     1       2.934  -3.835 -21.404  1.00  0.00     0.059 A 
HETATM   30  C21 UNL     1       2.837  -3.561 -20.056  1.00  0.00     0.032 A 
HETATM   31  C22 UNL     1       2.515  -2.303 -19.610  1.00  0.00     0.005 A 
HETATM   32  C23 UNL     1       2.275  -1.259 -20.488  1.00  0.00     0.042 A 
HETATM   33  C24 UNL     1       2.379  -1.560 -21.845  1.00  0.00     0.118 A 
HETATM   34  F1  UNL     1       2.154  -0.578 -22.778  1.00  0.00    -0.206 F 
HETATM   35  C25 UNL     1       2.699  -2.815 -22.301  1.00  0.00     0.073 A 
ENDBRANCH  11  29
TORSDOF 6
ENDMDL
MODEL 3
REMARK VINA RESULT: -9.054776023      2.446      3.868
REMARK  6 active torsions:
REMARK  status: ('A' for Active; 'I' for Inactive)
REMARK    1  A    between atoms: O1_1  and  C1_3 
REMARK    2  A    between atoms: C1_3  and  C2_4 
REMARK    3  A    between atoms: C1_3  and  C8_10 
REMARK    4  A    between atoms: C11_13  and  C12_14 
REMARK    5  A    between atoms: C13_15  and  C14_16 
REMARK    6  A    between atoms: N3_26  and  C20_27 
ROOT
HETATM    1  C14 UNL     1       3.723  -5.165 -22.179  1.00  0.00     0.101 A 
HETATM    2  N1  UNL     1       3.455  -4.261 -23.141  1.00  0.00    -0.358 N 
ATOM      3  H1  UNL     1       3.642  -4.509 -24.112  1.00  0.00     0.166 HD
HETATM    4  C15 UNL     1       2.950  -3.043 -22.872  1.00  0.00     0.091 A 
HETATM    5  C16 UNL     1       2.683  -2.677 -21.569  1.00  0.00     0.049 A 
HETATM    6  C17 UNL     1       2.950  -3.591 -20.558  1.00  0.00     0.072 A 
HETATM    7  C18 UNL     1       3.473  -4.837 -20.879  1.00  0.00     0.045 A 
HETATM    8  C19 UNL     1       3.636  -5.528 -19.702  1.00  0.00     0.124 A 
HETATM    9  N2  UNL     1       3.223  -4.715 -18.711  1.00  0.00    -0.304 N 
ATOM     10  H2  UNL     1       3.223  -4.951 -17.719  1.00  0.00     0.186 HD
HETATM   11  N3  UNL     1       2.815  -3.560 -19.225  1.00  0.00    -0.256 N 
ENDROOT
BRANCH   1  12
HETATM   12  C13 UNL     1       4.263  -6.464 -22.472  1.00  0.00    -0.042 C 
HETATM   13  C12 UNL     1       4.728  -7.548 -22.732  1.00  0.00    -0.060 C 
BRANCH  13  14
HETATM   14  C11 UNL     1       5.271  -8.848 -23.064  1.00  0.00     0.018 A 
HETATM   15  C10 UNL     1       6.056  -9.552 -22.177  1.00  0.00     0.021 A 
HETATM   16  C9  UNL     1       6.582 -10.792 -22.477  1.00  0.00     0.011 A 
HETATM   17  C8  UNL     1       6.338 -11.389 -23.696  1.00  0.00    -0.025 A 
HETATM   18  C27 UNL     1       5.552 -10.685 -24.584  1.00  0.00     0.011 A 
HETATM   19  C26 UNL     1       5.027  -9.445 -24.284  1.00  0.00     0.021 A 
BRANCH  17  20
HETATM   20  C1  UNL     1       6.897 -12.732 -24.043  1.00  0.00     0.184 C 
BRANCH  20  21
HETATM   21  O1  UNL     1       7.944 -12.616 -24.956  1.00  0.00    -0.386 OA
ATOM     22  H1  UNL     1       7.797 -13.183 -25.704  1.00  0.00     0.210 HD
ENDBRANCH  20  21
BRANCH  20  23
HETATM   23  C2  UNL     1       5.841 -13.629 -24.576  1.00  0.00    -0.025 A 
HETATM   24  C3  UNL     1       6.172 -14.794 -25.227  1.00  0.00     0.010 A 
HETATM   25  C4  UNL     1       5.208 -15.656 -25.737  1.00  0.00     0.001 A 
HETATM   26  C5  UNL     1       3.870 -15.364 -25.603  1.00  0.00     0.000 A 
HETATM   27  C6  UNL     1       3.528 -14.199 -24.952  1.00  0.00     0.001 A 
HETATM   28  C7  UNL     1       4.498 -13.352 -24.450  1.00  0.00     0.010 A 
ENDBRANCH  20  23
ENDBRANCH  17  20
ENDBRANCH  13  14
ENDBRANCH   1  12
BRANCH  11  29
HETATM   29  C20 UNL     1       2.311  -2.461 -18.475  1.00  0.00     0.059 A 
HETATM   30  C21 UNL     1       3.120  -1.401 -18.125  1.00  0.00     0.032 A 
HETATM   31  C22 UNL     1       2.627  -0.343 -17.401  1.00  0.00     0.005 A 
HETATM   32  C23 UNL     1       1.304  -0.293 -16.993  1.00  0.00     0.042 A 
HETATM   33  C24 UNL     1       0.507  -1.376 -17.360  1.00  0.00     0.118 A 
HETATM   34  F1  UNL     1      -0.816  -1.400 -16.993  1.00  0.00    -0.206 F 
HETATM   35  C25 UNL     1       0.989  -2.438 -18.082  1.00  0.00     0.073 A 
ENDBRANCH  11  29
TORSDOF 6
ENDMDL
MODEL 4
REMARK VINA RESULT: -8.977748910      2.003      2.564
REMARK  6 active torsions:
REMARK  status: ('A' for Active; 'I' for Inactive)
REMARK    1  A    between atoms: O1_1  and  C1_3 
REMARK    2  A    between atoms: C1_3  and  C2_4 
REMARK    3  A    between atoms: C1_3  and  C8_10 
REMARK    4  A    between atoms: C11_13  and  C12_14 
REMARK    5  A    between atoms: C13_15  and  C14_16 
REMARK    6  A    between atoms: N3_26  and  C20_27 
ROOT
HETATM    1  C14 UNL     1       4.153  -7.300 -22.308  1.00  0.00     0.101 A 
HETATM    2  N1  UNL     1       4.026  -7.063 -20.988  1.00  0.00    -0.358 N 
ATOM      3  H1  UNL     1       4.286  -7.799 -20.332  1.00  0.00     0.166 HD
HETATM    4  C15 UNL     1       3.569  -5.895 -20.501  1.00  0.00     0.091 A 
HETATM    5  C16 UNL     1       3.211  -4.879 -21.363  1.00  0.00     0.049 A 
HETATM    6  C17 UNL     1       3.333  -5.098 -22.729  1.00  0.00     0.072 A 
HETATM    7  C18 UNL     1       3.807  -6.319 -23.189  1.00  0.00     0.045 A 
HETATM    8  C19 UNL     1       3.824  -6.260 -24.563  1.00  0.00     0.124 A 
HETATM    9  N2  UNL     1       3.373  -5.038 -24.907  1.00  0.00    -0.304 N 
ATOM     10  H2  UNL     1       3.271  -4.697 -25.863  1.00  0.00     0.186 HD
HETATM   11  N3  UNL     1       3.079  -4.348 -23.811  1.00  0.00    -0.256 N 
ENDROOT
BRANCH   1  12
HETATM   12  C13 UNL     1       4.640  -8.551 -22.823  1.00  0.00    -0.042 C 
HETATM   13  C12 UNL     1       5.050  -9.608 -23.238  1.00  0.00    -0.060 C 
BRANCH  13  14
HETATM   14  C11 UNL     1       5.562 -10.870 -23.726  1.00  0.00     0.018 A 
HETATM   15  C10 UNL     1       6.909 -11.163 -23.705  1.00  0.00     0.021 A 
HETATM   16  C9  UNL     1       7.414 -12.361 -24.167  1.00  0.00     0.011 A 
HETATM   17  C8  UNL     1       6.578 -13.332 -24.676  1.00  0.00    -0.025 A 
HETATM   18  C27 UNL     1       5.230 -13.041 -24.698  1.00  0.00     0.011 A 
HETATM   19  C26 UNL     1       4.726 -11.842 -24.236  1.00  0.00     0.021 A 
BRANCH  17  20
HETATM   20  C1  UNL     1       7.102 -14.639 -25.182  1.00  0.00     0.184 C 
BRANCH  20  21
HETATM   21  O1  UNL     1       7.397 -15.500 -24.127  1.00  0.00    -0.386 OA
ATOM     22  H1  UNL     1       6.636 -16.021 -23.900  1.00  0.00     0.210 HD
ENDBRANCH  20  21
BRANCH  20  23
HETATM   23  C2  UNL     1       8.298 -14.439 -26.039  1.00  0.00    -0.025 A 
HETATM   24  C3  UNL     1       9.368 -15.299 -25.963  1.00  0.00     0.010 A 
HETATM   25  C4  UNL     1      10.501 -15.141 -26.751  1.00  0.00     0.001 A 
HETATM   26  C5  UNL     1      10.589 -14.100 -27.647  1.00  0.00     0.000 A 
HETATM   27  C6  UNL     1       9.522 -13.232 -27.731  1.00  0.00     0.001 A 
HETATM   28  C7  UNL     1       8.401 -13.403 -26.940  1.00  0.00     0.010 A 
ENDBRANCH  20  23
ENDBRANCH  17  20
ENDBRANCH  13  14
ENDBRANCH   1  12
BRANCH  11  29
HETATM   29  C20 UNL     1       2.576  -3.017 -23.789  1.00  0.00     0.059 A 
HETATM   30  C21 UNL     1       3.424  -1.930 -23.760  1.00  0.00     0.032 A 
HETATM   31  C22 UNL     1       2.931  -0.648 -23.738  1.00  0.00     0.005 A 
HETATM   32  C23 UNL     1       1.570  -0.391 -23.745  1.00  0.00     0.042 A 
HETATM   33  C24 UNL     1       0.734  -1.506 -23.775  1.00  0.00     0.118 A 
HETATM   34  F1  UNL     1      -0.628  -1.333 -23.783  1.00  0.00    -0.206 F 
HETATM   35  C25 UNL     1       1.216  -2.791 -23.796  1.00  0.00     0.073 A 
ENDBRANCH  11  29
TORSDOF 6
ENDMDL
MODEL 5
REMARK VINA RESULT: -8.841410026      2.083      2.667
REMARK  6 active torsions:
REMARK  status: ('A' for Active; 'I' for Inactive)
REMARK    1  A    between atoms: O1_1  and  C1_3 
REMARK    2  A    between atoms: C1_3  and  C2_4 
REMARK    3  A    between atoms: C1_3  and  C8_10 
REMARK    4  A    between atoms: C11_13  and  C12_14 
REMARK    5  A    between atoms: C13_15  and  C14_16 
REMARK    6  A    between atoms: N3_26  and  C20_27 
ROOT
HETATM    1  C14 UNL     1       4.166  -7.255 -22.445  1.00  0.00     0.101 A 
HETATM    2  N1  UNL     1       4.037  -7.001 -21.129  1.00  0.00    -0.358 N 
ATOM      3  H1  UNL     1       4.302  -7.726 -20.462  1.00  0.00     0.166 HD
HETATM    4  C15 UNL     1       3.575  -5.829 -20.657  1.00  0.00     0.091 A 
HETATM    5  C16 UNL     1       3.211  -4.827 -21.533  1.00  0.00     0.049 A 
HETATM    6  C17 UNL     1       3.334  -5.063 -22.896  1.00  0.00     0.072 A 
HETATM    7  C18 UNL     1       3.815  -6.288 -23.340  1.00  0.00     0.045 A 
HETATM    8  C19 UNL     1       3.831  -6.247 -24.714  1.00  0.00     0.124 A 
HETATM    9  N2  UNL     1       3.373  -5.033 -25.075  1.00  0.00    -0.304 N 
ATOM     10  H2  UNL     1       3.270  -4.704 -26.035  1.00  0.00     0.186 HD
HETATM   11  N3  UNL     1       3.077  -4.329 -23.988  1.00  0.00    -0.256 N 
ENDROOT
BRANCH   1  12
HETATM   12  C13 UNL     1       4.660  -8.510 -22.944  1.00  0.00    -0.042 C 
HETATM   13  C12 UNL     1       5.070  -9.572 -23.345  1.00  0.00    -0.060 C 
BRANCH  13  14
HETATM   14  C11 UNL     1       5.582 -10.842 -23.813  1.00  0.00     0.018 A 
HETATM   15  C10 UNL     1       6.921 -11.159 -23.730  1.00  0.00     0.021 A 
HETATM   16  C9  UNL     1       7.425 -12.366 -24.172  1.00  0.00     0.011 A 
HETATM   17  C8  UNL     1       6.596 -13.320 -24.722  1.00  0.00    -0.025 A 
HETATM   18  C27 UNL     1       5.256 -13.004 -24.806  1.00  0.00     0.011 A 
HETATM   19  C26 UNL     1       4.753 -11.797 -24.365  1.00  0.00     0.021 A 
BRANCH  17  20
HETATM   20  C1  UNL     1       7.120 -14.635 -25.207  1.00  0.00     0.184 C 
BRANCH  20  21
HETATM   21  O1  UNL     1       7.396 -15.487 -24.139  1.00  0.00    -0.386 OA
ATOM     22  H1  UNL     1       7.638 -14.986 -23.369  1.00  0.00     0.210 HD
ENDBRANCH  20  21
BRANCH  20  23
HETATM   23  C2  UNL     1       8.328 -14.451 -26.050  1.00  0.00    -0.025 A 
HETATM   24  C3  UNL     1       9.384 -15.326 -25.963  1.00  0.00     0.010 A 
HETATM   25  C4  UNL     1      10.529 -15.183 -26.739  1.00  0.00     0.001 A 
HETATM   26  C5  UNL     1      10.641 -14.142 -27.632  1.00  0.00     0.000 A 
HETATM   27  C6  UNL     1       9.588 -13.259 -27.727  1.00  0.00     0.001 A 
HETATM   28  C7  UNL     1       8.456 -13.416 -26.949  1.00  0.00     0.010 A 
ENDBRANCH  20  23
ENDBRANCH  17  20
ENDBRANCH  13  14
ENDBRANCH   1  12
BRANCH  11  29
HETATM   29  C20 UNL     1       2.566  -3.001 -23.984  1.00  0.00     0.059 A 
HETATM   30  C21 UNL     1       1.228  -2.748 -23.771  1.00  0.00     0.032 A 
HETATM   31  C22 UNL     1       0.741  -1.464 -23.768  1.00  0.00     0.005 A 
HETATM   32  C23 UNL     1       1.567  -0.372 -23.978  1.00  0.00     0.042 A 
HETATM   33  C24 UNL     1       2.916  -0.653 -24.191  1.00  0.00     0.118 A 
HETATM   34  F1  UNL     1       3.798   0.376 -24.407  1.00  0.00    -0.206 F 
HETATM   35  C25 UNL     1       3.412  -1.933 -24.196  1.00  0.00     0.073 A 
ENDBRANCH  11  29
TORSDOF 6
ENDMDL
