MODEL 1
REMARK VINA RESULT: -10.616464418      0.000      0.000
REMARK  5 active torsions:
REMARK  status: ('A' for Active; 'I' for Inactive)
REMARK    1  A    between atoms: O1_1  and  N1_3 
REMARK    2  A    between atoms: C7_11  and  O3_12 
REMARK    3  A    between atoms: O3_12  and  C8_13 
REMARK    4  A    between atoms: C11_16  and  N2_17 
REMARK    5  A    between atoms: N2_17  and  C12_19 
ROOT
HETATM    1  C8  UNL     1       5.409 -11.852 -24.178  1.00  0.00     0.076 A 
HETATM    2  C9  UNL     1       6.759 -11.938 -23.972  1.00  0.00     0.039 A 
HETATM    3  C10 UNL     1       7.459 -12.973 -24.542  1.00  0.00     0.033 A 
HETATM    4  C11 UNL     1       6.814 -13.920 -25.315  1.00  0.00     0.049 A 
HETATM    5  C16 UNL     1       5.454 -13.865 -25.544  1.00  0.00     0.033 A 
HETATM    6  C17 UNL     1       4.792 -12.807 -24.952  1.00  0.00     0.039 A 
ENDROOT
BRANCH   1   7
HETATM    7  O3  UNL     1       4.615 -10.853 -23.652  1.00  0.00    -0.308 OA
BRANCH   7   8
HETATM    8  C7  UNL     1       3.647 -10.173 -24.346  1.00  0.00     0.110 A 
HETATM    9  C6  UNL     1       2.347 -10.636 -24.250  1.00  0.00     0.121 A 
HETATM   10  O2  UNL     1       1.810 -11.648 -23.599  1.00  0.00    -0.305 OA
HETATM   11  C21 UNL     1       1.324  -9.978 -24.937  1.00  0.00     0.014 A 
HETATM   12  C4  UNL     1       0.502 -11.686 -23.823  1.00  0.00     0.105 A 
HETATM   13  C3  UNL     1       0.152 -10.650 -24.663  1.00  0.00     0.014 A 
HETATM   14  C5  UNL     1      -0.476 -12.547 -23.369  1.00  0.00     0.160 A 
HETATM   15  C2  UNL     1      -1.176 -10.525 -25.011  1.00  0.00     0.035 A 
HETATM   16  C1  UNL     1      -2.136 -11.411 -24.536  1.00  0.00     0.123 A 
HETATM   17  N1  UNL     1      -1.769 -12.413 -23.717  1.00  0.00    -0.244 N 
HETATM   18  C20 UNL     1       1.562  -8.867 -25.721  1.00  0.00     0.015 A 
HETATM   19  C19 UNL     1       2.864  -8.416 -25.807  1.00  0.00     0.004 A 
HETATM   20  C18 UNL     1       3.887  -9.063 -25.127  1.00  0.00     0.040 A 
BRANCH  17  21
HETATM   21  O1  UNL     1      -2.728 -13.280 -23.256  1.00  0.00    -0.284 OA
ATOM     22  H1  UNL     1      -2.747 -14.167 -23.596  1.00  0.00     0.245 HD
ENDBRANCH  17  21
ENDBRANCH   7   8
ENDBRANCH   1   7
BRANCH   4  23
HETATM   23  N2  UNL     1       7.568 -14.983 -25.893  1.00  0.00    -0.192 N 
ATOM     24  H2  UNL     1       7.185 -15.928 -25.928  1.00  0.00     0.184 HD
BRANCH  23  25
HETATM   25  C12 UNL     1       8.741 -14.736 -26.372  1.00  0.00     0.682 A 
HETATM   26  N3  UNL     1       8.916 -13.787 -27.313  1.00  0.00    -0.200 N 
HETATM   27  C13 UNL     1      10.145 -13.526 -27.820  1.00  0.00     0.126 A 
ATOM     28  H3  UNL     1       8.111 -13.258 -27.649  1.00  0.00     0.183 HD
HETATM   29  C14 UNL     1      11.234 -14.249 -27.357  1.00  0.00     0.042 A 
HETATM   30 BR1  UNL     1      12.988 -13.940 -28.016  1.00  0.00    -0.048 Br
HETATM   31  C15 UNL     1      11.038 -15.205 -26.403  1.00  0.00     0.126 A 
HETATM   32  N4  UNL     1       9.803 -15.438 -25.924  1.00  0.00    -0.200 N 
ATOM     33  H4  UNL     1       9.667 -16.155 -25.211  1.00  0.00     0.183 HD
ENDBRANCH  23  25
ENDBRANCH   4  23
TORSDOF 5
ENDMDL
MODEL 2
REMARK VINA RESULT: -10.089490350      1.461      1.901
REMARK  5 active torsions:
REMARK  status: ('A' for Active; 'I' for Inactive)
REMARK    1  A    between atoms: O1_1  and  N1_3 
REMARK    2  A    between atoms: C7_11  and  O3_12 
REMARK    3  A    between atoms: O3_12  and  C8_13 
REMARK    4  A    between atoms: C11_16  and  N2_17 
REMARK    5  A    between atoms: N2_17  and  C12_19 
ROOT
HETATM    1  C8  UNL     1       6.719 -11.914 -24.148  1.00  0.00     0.076 A 
HETATM    2  C9  UNL     1       7.972 -11.626 -24.615  1.00  0.00     0.039 A 
HETATM    3  C10 UNL     1       8.547 -12.455 -25.547  1.00  0.00     0.033 A 
HETATM    4  C11 UNL     1       7.872 -13.570 -26.012  1.00  0.00     0.049 A 
HETATM    5  C16 UNL     1       6.608 -13.891 -25.563  1.00  0.00     0.033 A 
HETATM    6  C17 UNL     1       6.070 -13.029 -24.627  1.00  0.00     0.039 A 
ENDROOT
BRANCH   1   7
HETATM    7  O3  UNL     1       6.054 -11.146 -23.213  1.00  0.00    -0.308 OA
BRANCH   7   8
HETATM    8  C7  UNL     1       5.336 -10.014 -23.497  1.00  0.00     0.110 A 
HETATM    9  C6  UNL     1       3.999 -10.167 -23.820  1.00  0.00     0.121 A 
HETATM   10  O2  UNL     1       3.226 -11.230 -23.920  1.00  0.00    -0.305 OA
HETATM   11  C21 UNL     1       3.223  -9.044 -24.117  1.00  0.00     0.014 A 
HETATM   12  C4  UNL     1       1.997 -10.862 -24.263  1.00  0.00     0.105 A 
HETATM   13  C3  UNL     1       1.950  -9.491 -24.398  1.00  0.00     0.014 A 
HETATM   14  C5  UNL     1       0.854 -11.602 -24.485  1.00  0.00     0.160 A 
HETATM   15  C2  UNL     1       0.747  -8.921 -24.753  1.00  0.00     0.035 A 
HETATM   16  C1  UNL     1      -0.387  -9.696 -24.969  1.00  0.00     0.123 A 
HETATM   17  N1  UNL     1      -0.315 -11.032 -24.831  1.00  0.00    -0.244 N 
HETATM   18  C20 UNL     1       3.744  -7.766 -24.101  1.00  0.00     0.015 A 
HETATM   19  C19 UNL     1       5.079  -7.628 -23.777  1.00  0.00     0.004 A 
HETATM   20  C18 UNL     1       5.858  -8.738 -23.480  1.00  0.00     0.040 A 
BRANCH  17  21
HETATM   21  O1  UNL     1      -1.442 -11.785 -25.048  1.00  0.00    -0.284 OA
ATOM     22  H1  UNL     1      -1.825 -11.799 -25.917  1.00  0.00     0.245 HD
ENDBRANCH  17  21
ENDBRANCH   7   8
ENDBRANCH   1   7
BRANCH   4  23
HETATM   23  N2  UNL     1       8.495 -14.411 -26.979  1.00  0.00    -0.192 N 
ATOM     24  H2  UNL     1       7.929 -14.999 -27.592  1.00  0.00     0.184 HD
BRANCH  23  25
HETATM   25  C12 UNL     1       9.782 -14.421 -27.071  1.00  0.00     0.682 A 
HETATM   26  N3  UNL     1      10.402 -13.872 -28.134  1.00  0.00    -0.200 N 
HETATM   27  C13 UNL     1      11.754 -13.881 -28.235  1.00  0.00     0.126 A 
ATOM     28  H3  UNL     1       9.846 -13.444 -28.874  1.00  0.00     0.183 HD
HETATM   29  C14 UNL     1      12.502 -14.465 -27.225  1.00  0.00     0.042 A 
HETATM   30 BR1  UNL     1      14.399 -14.516 -27.293  1.00  0.00    -0.048 Br
HETATM   31  C15 UNL     1      11.858 -15.015 -26.155  1.00  0.00     0.126 A 
HETATM   32  N4  UNL     1      10.515 -14.988 -26.089  1.00  0.00    -0.200 N 
ATOM     33  H4  UNL     1      10.042 -15.403 -25.285  1.00  0.00     0.183 HD
ENDBRANCH  23  25
ENDBRANCH   4  23
TORSDOF 5
ENDMDL
MODEL 3
REMARK VINA RESULT: -9.910349656      2.268      3.222
REMARK  5 active torsions:
REMARK  status: ('A' for Active; 'I' for Inactive)
REMARK    1  A    between atoms: O1_1  and  N1_3 
REMARK    2  A    between atoms: C7_11  and  O3_12 
REMARK    3  A    between atoms: O3_12  and  C8_13 
REMARK    4  A    between atoms: C11_16  and  N2_17 
REMARK    5  A    between atoms: N2_17  and  C12_19 
ROOT
HETATM    1  C8  UNL     1       5.171 -11.955 -24.259  1.00  0.00     0.076 A 
HETATM    2  C9  UNL     1       6.494 -11.889 -23.917  1.00  0.00     0.039 A 
HETATM    3  C10 UNL     1       7.332 -12.914 -24.280  1.00  0.00     0.033 A 
HETATM    4  C11 UNL     1       6.851 -14.004 -24.983  1.00  0.00     0.049 A 
HETATM    5  C16 UNL     1       5.523 -14.103 -25.345  1.00  0.00     0.033 A 
HETATM    6  C17 UNL     1       4.719 -13.049 -24.959  1.00  0.00     0.039 A 
ENDROOT
BRANCH   1   7
HETATM    7  O3  UNL     1       4.248 -10.978 -23.942  1.00  0.00    -0.308 OA
BRANCH   7   8
HETATM    8  C7  UNL     1       2.892 -11.098 -24.106  1.00  0.00     0.110 A 
HETATM    9  C6  UNL     1       2.292 -10.317 -25.078  1.00  0.00     0.121 A 
HETATM   10  O2  UNL     1       2.773  -9.433 -25.928  1.00  0.00    -0.305 OA
HETATM   11  C21 UNL     1       0.914 -10.405 -25.285  1.00  0.00     0.014 A 
HETATM   12  C4  UNL     1       1.790  -8.941 -26.671  1.00  0.00     0.105 A 
HETATM   13  C3  UNL     1       0.598  -9.526 -26.299  1.00  0.00     0.014 A 
HETATM   14  C5  UNL     1       1.794  -8.002 -27.682  1.00  0.00     0.160 A 
HETATM   15  C2  UNL     1      -0.544  -9.138 -26.966  1.00  0.00     0.035 A 
HETATM   16  C1  UNL     1      -0.504  -8.189 -27.980  1.00  0.00     0.123 A 
HETATM   17  N1  UNL     1       0.671  -7.633 -28.325  1.00  0.00    -0.244 N 
HETATM   18  C20 UNL     1       0.112 -11.251 -24.546  1.00  0.00     0.015 A 
HETATM   19  C19 UNL     1       0.723 -12.024 -23.580  1.00  0.00     0.004 A 
HETATM   20  C18 UNL     1       2.093 -11.945 -23.368  1.00  0.00     0.040 A 
BRANCH  17  21
HETATM   21  O1  UNL     1       0.695  -6.696 -29.328  1.00  0.00    -0.284 OA
ATOM     22  H1  UNL     1       1.040  -5.831 -29.142  1.00  0.00     0.245 HD
ENDBRANCH  17  21
ENDBRANCH   7   8
ENDBRANCH   1   7
BRANCH   4  23
HETATM   23  N2  UNL     1       7.745 -15.052 -25.346  1.00  0.00    -0.192 N 
ATOM     24  H2  UNL     1       7.547 -16.016 -25.073  1.00  0.00     0.184 HD
BRANCH  23  25
HETATM   25  C12 UNL     1       8.806 -14.770 -26.023  1.00  0.00     0.682 A 
HETATM   26  N3  UNL     1       8.788 -13.808 -26.967  1.00  0.00    -0.200 N 
HETATM   27  C13 UNL     1       9.900 -13.509 -27.681  1.00  0.00     0.126 A 
ATOM     28  H3  UNL     1       7.923 -13.297 -27.145  1.00  0.00     0.183 HD
HETATM   29  C14 UNL     1      11.071 -14.208 -27.430  1.00  0.00     0.042 A 
HETATM   30 BR1  UNL     1      12.670 -13.847 -28.387  1.00  0.00    -0.048 Br
HETATM   31  C15 UNL     1      11.072 -15.178 -26.471  1.00  0.00     0.126 A 
HETATM   32  N4  UNL     1       9.948 -15.448 -25.782  1.00  0.00    -0.200 N 
ATOM     33  H4  UNL     1       9.959 -16.176 -25.068  1.00  0.00     0.183 HD
ENDBRANCH  23  25
ENDBRANCH   4  23
TORSDOF 5
ENDMDL
MODEL 4
REMARK VINA RESULT: -9.813534048      2.910      4.420
REMARK  5 active torsions:
REMARK  status: ('A' for Active; 'I' for Inactive)
REMARK    1  A    between atoms: O1_1  and  N1_3 
REMARK    2  A    between atoms: C7_11  and  O3_12 
REMARK    3  A    between atoms: O3_12  and  C8_13 
REMARK    4  A    between atoms: C11_16  and  N2_17 
REMARK    5  A    between atoms: N2_17  and  C12_19 
ROOT
HETATM    1  C8  UNL     1       5.812 -14.335 -25.715  1.00  0.00     0.076 A 
HETATM    2  C9  UNL     1       7.080 -14.454 -25.216  1.00  0.00     0.039 A 
HETATM    3  C10 UNL     1       8.146 -14.091 -26.002  1.00  0.00     0.033 A 
HETATM    4  C11 UNL     1       7.947 -13.610 -27.283  1.00  0.00     0.049 A 
HETATM    5  C16 UNL     1       6.682 -13.477 -27.819  1.00  0.00     0.033 A 
HETATM    6  C17 UNL     1       5.642 -13.854 -26.993  1.00  0.00     0.039 A 
ENDROOT
BRANCH   1   7
HETATM    7  O3  UNL     1       4.675 -14.672 -25.008  1.00  0.00    -0.308 OA
BRANCH   7   8
HETATM    8  C7  UNL     1       3.677 -13.797 -24.665  1.00  0.00     0.110 A 
HETATM    9  C6  UNL     1       4.037 -12.486 -24.405  1.00  0.00     0.121 A 
HETATM   10  O2  UNL     1       5.199 -11.865 -24.416  1.00  0.00    -0.305 OA
HETATM   11  C21 UNL     1       3.057 -11.555 -24.052  1.00  0.00     0.014 A 
HETATM   12  C4  UNL     1       5.031 -10.589 -24.092  1.00  0.00     0.105 A 
HETATM   13  C3  UNL     1       3.695 -10.349 -23.853  1.00  0.00     0.014 A 
HETATM   14  C5  UNL     1       5.936  -9.554 -23.970  1.00  0.00     0.160 A 
HETATM   15  C2  UNL     1       3.325  -9.069 -23.501  1.00  0.00     0.035 A 
HETATM   16  C1  UNL     1       4.262  -8.048 -23.387  1.00  0.00     0.123 A 
HETATM   17  N1  UNL     1       5.560  -8.309 -23.626  1.00  0.00    -0.244 N 
HETATM   18  C20 UNL     1       1.723 -11.894 -23.950  1.00  0.00     0.015 A 
HETATM   19  C19 UNL     1       1.379 -13.205 -24.212  1.00  0.00     0.004 A 
HETATM   20  C18 UNL     1       2.345 -14.137 -24.565  1.00  0.00     0.040 A 
BRANCH  17  21
HETATM   21  O1  UNL     1       6.474  -7.291 -23.509  1.00  0.00    -0.284 OA
ATOM     22  H1  UNL     1       7.330  -7.394 -23.908  1.00  0.00     0.245 HD
ENDBRANCH  17  21
ENDBRANCH   7   8
ENDBRANCH   1   7
BRANCH   4  23
HETATM   23  N2  UNL     1       9.073 -13.242 -28.075  1.00  0.00    -0.192 N 
ATOM     24  H2  UNL     1       8.943 -12.767 -28.968  1.00  0.00     0.184 HD
BRANCH  23  25
HETATM   25  C12 UNL     1      10.260 -13.515 -27.648  1.00  0.00     0.682 A 
HETATM   26  N3  UNL     1      10.625 -13.217 -26.385  1.00  0.00    -0.200 N 
HETATM   27  C13 UNL     1      11.871 -13.501 -25.933  1.00  0.00     0.126 A 
ATOM     28  H3  UNL     1       9.953 -12.772 -25.760  1.00  0.00     0.183 HD
HETATM   29  C14 UNL     1      12.777 -14.107 -26.790  1.00  0.00     0.042 A 
HETATM   30 BR1  UNL     1      14.540 -14.538 -26.231  1.00  0.00    -0.048 Br
HETATM   31  C15 UNL     1      12.391 -14.402 -28.064  1.00  0.00     0.126 A 
HETATM   32  N4  UNL     1      11.146 -14.105 -28.479  1.00  0.00    -0.200 N 
ATOM     33  H4  UNL     1      10.867 -14.328 -29.434  1.00  0.00     0.183 HD
ENDBRANCH  23  25
ENDBRANCH   4  23
TORSDOF 5
ENDMDL
MODEL 5
REMARK VINA RESULT: -9.778973380      2.195      3.571
REMARK  5 active torsions:
REMARK  status: ('A' for Active; 'I' for Inactive)
REMARK    1  A    between atoms: O1_1  and  N1_3 
REMARK    2  A    between atoms: C7_11  and  O3_12 
REMARK    3  A    between atoms: O3_12  and  C8_13 
REMARK    4  A    between atoms: C11_16  and  N2_17 
REMARK    5  A    between atoms: N2_17  and  C12_19 
ROOT
HETATM    1  C8  UNL     1       3.997 -13.199 -24.659  1.00  0.00     0.076 A 
HETATM    2  C9  UNL     1       3.838 -14.422 -25.249  1.00  0.00     0.039 A 
HETATM    3  C10 UNL     1       4.768 -14.850 -26.165  1.00  0.00     0.033 A 
HETATM    4  C11 UNL     1       5.854 -14.058 -26.491  1.00  0.00     0.049 A 
HETATM    5  C16 UNL     1       6.045 -12.819 -25.915  1.00  0.00     0.033 A 
HETATM    6  C17 UNL     1       5.086 -12.431 -25.001  1.00  0.00     0.039 A 
ENDROOT
BRANCH   1   7
HETATM    7  O3  UNL     1       3.121 -12.677 -23.727  1.00  0.00    -0.308 OA
BRANCH   7   8
HETATM    8  C7  UNL     1       1.864 -12.209 -24.009  1.00  0.00     0.110 A 
HETATM    9  C6  UNL     1       1.736 -10.867 -24.324  1.00  0.00     0.121 A 
HETATM   10  O2  UNL     1       2.614  -9.889 -24.415  1.00  0.00    -0.305 OA
HETATM   11  C21 UNL     1       0.477 -10.341 -24.620  1.00  0.00     0.014 A 
HETATM   12  C4  UNL     1       2.000  -8.762 -24.751  1.00  0.00     0.105 A 
HETATM   13  C3  UNL     1       0.649  -9.000 -24.891  1.00  0.00     0.014 A 
HETATM   14  C5  UNL     1       2.485  -7.487 -24.963  1.00  0.00     0.160 A 
HETATM   15  C2  UNL     1      -0.159  -7.940 -25.240  1.00  0.00     0.035 A 
HETATM   16  C1  UNL     1       0.364  -6.668 -25.446  1.00  0.00     0.123 A 
HETATM   17  N1  UNL     1       1.685  -6.461 -25.304  1.00  0.00    -0.244 N 
HETATM   18  C20 UNL     1      -0.665 -11.117 -24.611  1.00  0.00     0.015 A 
HETATM   19  C19 UNL     1      -0.522 -12.453 -24.296  1.00  0.00     0.004 A 
HETATM   20  C18 UNL     1       0.725 -12.986 -24.001  1.00  0.00     0.040 A 
BRANCH  17  21
HETATM   21  O1  UNL     1       2.186  -5.200 -25.510  1.00  0.00    -0.284 OA
ATOM     22  H1  UNL     1       3.016  -4.964 -25.111  1.00  0.00     0.245 HD
ENDBRANCH  17  21
ENDBRANCH   7   8
ENDBRANCH   1   7
BRANCH   4  23
HETATM   23  N2  UNL     1       6.801 -14.529 -27.445  1.00  0.00    -0.192 N 
ATOM     24  H2  UNL     1       6.487 -14.961 -28.315  1.00  0.00     0.184 HD
BRANCH  23  25
HETATM   25  C12 UNL     1       8.062 -14.403 -27.197  1.00  0.00     0.682 A 
HETATM   26  N3  UNL     1       8.790 -13.442 -27.799  1.00  0.00    -0.200 N 
HETATM   27  C13 UNL     1      10.114 -13.307 -27.542  1.00  0.00     0.126 A 
ATOM     28  H3  UNL     1       8.339 -12.807 -28.456  1.00  0.00     0.183 HD
HETATM   29  C14 UNL     1      10.720 -14.174 -26.645  1.00  0.00     0.042 A 
HETATM   30 BR1  UNL     1      12.569 -14.048 -26.233  1.00  0.00    -0.048 Br
HETATM   31  C15 UNL     1       9.967 -15.140 -26.045  1.00  0.00     0.126 A 
HETATM   32  N4  UNL     1       8.655 -15.245 -26.325  1.00  0.00    -0.200 N 
ATOM     33  H4  UNL     1       8.101 -15.972 -25.871  1.00  0.00     0.183 HD
ENDBRANCH  23  25
ENDBRANCH   4  23
TORSDOF 5
ENDMDL
