MODEL 1
REMARK VINA RESULT: -9.618987855      0.000      0.000
REMARK  4 active torsions:
REMARK  status: ('A' for Active; 'I' for Inactive)
REMARK    1  A    between atoms: C4_5  and  C5_6 
REMARK    2  A    between atoms: C6_9  and  N2_10 
REMARK    3  A    between atoms: N2_10  and  C7_12 
REMARK    4  A    between atoms: N3_22  and  C16_23 
ROOT
HETATM    1  C5  UNL     1       4.368 -12.529 -24.811  1.00  0.00     0.153 A 
HETATM    2  N1  UNL     1       4.412 -11.217 -24.663  1.00  0.00    -0.172 N 
ATOM      3  H1  UNL     1       5.246 -10.640 -24.766  1.00  0.00     0.186 HD
HETATM    4  C6  UNL     1       3.149 -10.745 -24.347  1.00  0.00     0.702 A 
HETATM    5  N3  UNL     1       2.357 -11.823 -24.314  1.00  0.00    -0.085 N 
HETATM    6  N4  UNL     1       3.110 -12.904 -24.598  1.00  0.00    -0.262 N 
ATOM      7  H4  UNL     1       2.766 -13.863 -24.644  1.00  0.00     0.190 HD
ENDROOT
BRANCH   4   8
HETATM    8  N2  UNL     1       2.965  -9.515 -24.160  1.00  0.00    -0.215 N 
ATOM      9  H2  UNL     1       2.628  -9.315 -23.218  1.00  0.00     0.178 HD
BRANCH   8  10
HETATM   10  C7  UNL     1       3.108  -8.358 -24.924  1.00  0.00     0.137 C 
HETATM   11  C8  UNL     1       3.410  -7.146 -24.044  1.00  0.00     0.057 C 
HETATM   12  C9  UNL     1       2.214  -6.576 -23.369  1.00  0.00     0.178 C 
HETATM   13  O1  UNL     1       0.975  -7.010 -23.828  1.00  0.00    -0.350 OA
HETATM   14  C10 UNL     1       0.820  -7.395 -25.149  1.00  0.00     0.077 A 
HETATM   15  C11 UNL     1      -0.343  -7.116 -25.872  1.00  0.00     0.037 A 
HETATM   16  C15 UNL     1       1.865  -8.069 -25.723  1.00  0.00    -0.002 A 
HETATM   17  C12 UNL     1      -0.450  -7.521 -27.184  1.00  0.00     0.003 A 
HETATM   18  C13 UNL     1       0.603  -8.195 -27.749  1.00  0.00     0.001 A 
HETATM   19  C14 UNL     1       1.765  -8.473 -27.022  1.00  0.00     0.012 A 
ENDBRANCH   8  10
ENDBRANCH   4   8
BRANCH   5  20
HETATM   20  C16 UNL     1       0.953 -11.899 -24.034  1.00  0.00     0.074 A 
HETATM   21  C17 UNL     1       0.474 -12.699 -23.023  1.00  0.00     0.032 A 
HETATM   22  C18 UNL     1      -0.884 -12.759 -22.738  1.00  0.00     0.002 A 
HETATM   23  C19 UNL     1      -1.773 -12.008 -23.476  1.00  0.00     0.000 A 
HETATM   24  C20 UNL     1      -1.327 -11.204 -24.486  1.00  0.00     0.002 A 
HETATM   25  C21 UNL     1       0.013 -11.162 -24.749  1.00  0.00     0.032 A 
ENDBRANCH   5  20
BRANCH   1  26
HETATM   26  C4  UNL     1       5.505 -13.395 -25.148  1.00  0.00     0.052 A 
HETATM   27  C3  UNL     1       5.540 -14.763 -25.149  1.00  0.00     0.025 A 
HETATM   28  C2  UNL     1       6.693 -15.342 -25.493  1.00  0.00     0.028 A 
HETATM   29  C1  UNL     1       7.743 -14.529 -25.817  1.00  0.00     0.052 A 
HETATM   30 BR1  UNL     1       9.519 -15.060 -26.350  1.00  0.00    -0.043 Br
HETATM   31  S1  UNL     1       7.081 -12.966 -25.629  1.00  0.00    -0.079 SA
ENDBRANCH   1  26
TORSDOF 4
ENDMDL
MODEL 2
REMARK VINA RESULT: -9.310031531      4.071      7.042
REMARK  4 active torsions:
REMARK  status: ('A' for Active; 'I' for Inactive)
REMARK    1  A    between atoms: C4_5  and  C5_6 
REMARK    2  A    between atoms: C6_9  and  N2_10 
REMARK    3  A    between atoms: N2_10  and  C7_12 
REMARK    4  A    between atoms: N3_22  and  C16_23 
ROOT
HETATM    1  C5  UNL     1       4.436  -7.873 -23.691  1.00  0.00     0.153 A 
HETATM    2  N1  UNL     1       5.264  -8.832 -24.067  1.00  0.00    -0.172 N 
ATOM      3  H1  UNL     1       6.275  -8.736 -24.155  1.00  0.00     0.186 HD
HETATM    4  C6  UNL     1       4.546  -9.987 -24.323  1.00  0.00     0.702 A 
HETATM    5  N3  UNL     1       3.266  -9.680 -24.085  1.00  0.00    -0.085 N 
HETATM    6  N4  UNL     1       3.211  -8.390 -23.700  1.00  0.00    -0.262 N 
ATOM      7  H4  UNL     1       2.359  -7.886 -23.454  1.00  0.00     0.190 HD
ENDROOT
BRANCH   4   8
HETATM    8  N2  UNL     1       5.143 -11.029 -24.698  1.00  0.00    -0.215 N 
ATOM      9  H2  UNL     1       5.294 -11.043 -25.707  1.00  0.00     0.178 HD
BRANCH   8  10
HETATM   10  C7  UNL     1       5.649 -12.168 -24.075  1.00  0.00     0.137 C 
HETATM   11  C8  UNL     1       7.119 -11.987 -23.697  1.00  0.00     0.057 C 
HETATM   12  C9  UNL     1       8.062 -12.166 -24.833  1.00  0.00     0.178 C 
HETATM   13  O1  UNL     1       7.540 -12.741 -25.988  1.00  0.00    -0.350 OA
HETATM   14  C10 UNL     1       6.489 -13.637 -25.905  1.00  0.00     0.077 A 
HETATM   15  C11 UNL     1       6.398 -14.755 -26.738  1.00  0.00     0.037 A 
HETATM   16  C15 UNL     1       5.530 -13.379 -24.962  1.00  0.00    -0.002 A 
HETATM   17  C12 UNL     1       5.332 -15.619 -26.617  1.00  0.00     0.003 A 
HETATM   18  C13 UNL     1       4.377 -15.350 -25.668  1.00  0.00     0.001 A 
HETATM   19  C14 UNL     1       4.471 -14.229 -24.836  1.00  0.00     0.012 A 
ENDBRANCH   8  10
ENDBRANCH   4   8
BRANCH   5  20
HETATM   20  C16 UNL     1       2.105 -10.513 -24.196  1.00  0.00     0.074 A 
HETATM   21  C17 UNL     1       2.048 -11.736 -23.570  1.00  0.00     0.032 A 
HETATM   22  C18 UNL     1       0.916 -12.536 -23.660  1.00  0.00     0.002 A 
HETATM   23  C19 UNL     1      -0.172 -12.104 -24.387  1.00  0.00     0.000 A 
HETATM   24  C20 UNL     1      -0.145 -10.894 -25.020  1.00  0.00     0.002 A 
HETATM   25  C21 UNL     1       0.979 -10.125 -24.917  1.00  0.00     0.032 A 
ENDBRANCH   5  20
BRANCH   1  26
HETATM   26  C4  UNL     1       4.815  -6.500 -23.332  1.00  0.00     0.052 A 
HETATM   27  C3  UNL     1       5.798  -5.731 -23.895  1.00  0.00     0.025 A 
HETATM   28  C2  UNL     1       5.965  -4.501 -23.402  1.00  0.00     0.028 A 
HETATM   29  C1  UNL     1       5.147  -4.107 -22.381  1.00  0.00     0.052 A 
HETATM   30 BR1  UNL     1       5.143  -2.406 -21.469  1.00  0.00    -0.043 Br
HETATM   31  S1  UNL     1       4.159  -5.479 -22.137  1.00  0.00    -0.079 SA
ENDBRANCH   1  26
TORSDOF 4
ENDMDL
MODEL 3
REMARK VINA RESULT: -9.080686931      1.312      2.301
REMARK  4 active torsions:
REMARK  status: ('A' for Active; 'I' for Inactive)
REMARK    1  A    between atoms: C4_5  and  C5_6 
REMARK    2  A    between atoms: C6_9  and  N2_10 
REMARK    3  A    between atoms: N2_10  and  C7_12 
REMARK    4  A    between atoms: N3_22  and  C16_23 
ROOT
HETATM    1  C5  UNL     1       3.777 -12.698 -24.636  1.00  0.00     0.153 A 
HETATM    2  N1  UNL     1       3.685 -11.380 -24.603  1.00  0.00    -0.172 N 
ATOM      3  H1  UNL     1       4.421 -10.732 -24.881  1.00  0.00     0.186 HD
HETATM    4  C6  UNL     1       2.434 -11.016 -24.135  1.00  0.00     0.702 A 
HETATM    5  N3  UNL     1       1.789 -12.162 -23.893  1.00  0.00    -0.085 N 
HETATM    6  N4  UNL     1       2.616 -13.181 -24.201  1.00  0.00    -0.262 N 
ATOM      7  H4  UNL     1       2.387 -14.171 -24.114  1.00  0.00     0.190 HD
ENDROOT
BRANCH   4   8
HETATM    8  N2  UNL     1       2.134  -9.800 -24.024  1.00  0.00    -0.215 N 
ATOM      9  H2  UNL     1       2.658  -9.341 -23.279  1.00  0.00     0.178 HD
BRANCH   8  10
HETATM   10  C7  UNL     1       1.261  -8.924 -24.668  1.00  0.00     0.137 C 
HETATM   11  C8  UNL     1       1.082  -9.300 -26.138  1.00  0.00     0.057 C 
HETATM   12  C9  UNL     1       2.200  -8.860 -27.015  1.00  0.00     0.178 C 
HETATM   13  O1  UNL     1       3.093  -7.945 -26.469  1.00  0.00    -0.350 OA
HETATM   14  C10 UNL     1       2.667  -7.045 -25.508  1.00  0.00     0.077 A 
HETATM   15  C11 UNL     1       3.138  -5.730 -25.458  1.00  0.00     0.037 A 
HETATM   16  C15 UNL     1       1.754  -7.504 -24.595  1.00  0.00    -0.002 A 
HETATM   17  C12 UNL     1       2.683  -4.873 -24.481  1.00  0.00     0.003 A 
HETATM   18  C13 UNL     1       1.768  -5.343 -23.572  1.00  0.00     0.001 A 
HETATM   19  C14 UNL     1       1.299  -6.660 -23.624  1.00  0.00     0.012 A 
ENDBRANCH   8  10
ENDBRANCH   4   8
BRANCH   5  20
HETATM   20  C16 UNL     1       0.459 -12.358 -23.394  1.00  0.00     0.074 A 
HETATM   21  C17 UNL     1       0.242 -12.895 -22.147  1.00  0.00     0.032 A 
HETATM   22  C18 UNL     1      -1.046 -13.067 -21.655  1.00  0.00     0.002 A 
HETATM   23  C19 UNL     1      -2.128 -12.697 -22.423  1.00  0.00     0.000 A 
HETATM   24  C20 UNL     1      -1.943 -12.161 -23.665  1.00  0.00     0.002 A 
HETATM   25  C21 UNL     1      -0.668 -12.002 -24.128  1.00  0.00     0.032 A 
ENDBRANCH   5  20
BRANCH   1  26
HETATM   26  C4  UNL     1       4.948 -13.469 -25.073  1.00  0.00     0.052 A 
HETATM   27  C3  UNL     1       5.022 -14.815 -25.306  1.00  0.00     0.025 A 
HETATM   28  C2  UNL     1       6.202 -15.301 -25.699  1.00  0.00     0.028 A 
HETATM   29  C1  UNL     1       7.238 -14.422 -25.840  1.00  0.00     0.052 A 
HETATM   30 BR1  UNL     1       9.046 -14.815 -26.389  1.00  0.00    -0.043 Br
HETATM   31  S1  UNL     1       6.526 -12.929 -25.413  1.00  0.00    -0.079 SA
ENDBRANCH   1  26
TORSDOF 4
ENDMDL
MODEL 4
REMARK VINA RESULT: -9.072813686      1.204      1.611
REMARK  4 active torsions:
REMARK  status: ('A' for Active; 'I' for Inactive)
REMARK    1  A    between atoms: C4_5  and  C5_6 
REMARK    2  A    between atoms: C6_9  and  N2_10 
REMARK    3  A    between atoms: N2_10  and  C7_12 
REMARK    4  A    between atoms: N3_22  and  C16_23 
ROOT
HETATM    1  C5  UNL     1       4.029 -11.788 -24.608  1.00  0.00     0.153 A 
HETATM    2  N1  UNL     1       3.668 -10.523 -24.730  1.00  0.00    -0.172 N 
ATOM      3  H1  UNL     1       4.277  -9.763 -25.034  1.00  0.00     0.186 HD
HETATM    4  C6  UNL     1       2.335 -10.388 -24.383  1.00  0.00     0.702 A 
HETATM    5  N3  UNL     1       1.919 -11.615 -24.051  1.00  0.00    -0.085 N 
HETATM    6  N4  UNL     1       2.959 -12.460 -24.192  1.00  0.00    -0.262 N 
ATOM      7  H4  UNL     1       2.931 -13.463 -24.008  1.00  0.00     0.190 HD
ENDROOT
BRANCH   4   8
HETATM    8  N2  UNL     1       1.784  -9.257 -24.428  1.00  0.00    -0.215 N 
ATOM      9  H2  UNL     1       0.882  -9.250 -23.952  1.00  0.00     0.178 HD
BRANCH   8  10
HETATM   10  C7  UNL     1       2.103  -8.013 -24.968  1.00  0.00     0.137 C 
HETATM   11  C8  UNL     1       1.353  -6.889 -24.255  1.00  0.00     0.057 C 
HETATM   12  C9  UNL     1      -0.061  -6.736 -24.689  1.00  0.00     0.178 C 
HETATM   13  O1  UNL     1      -0.431  -7.409 -25.848  1.00  0.00    -0.350 OA
HETATM   14  C10 UNL     1       0.502  -7.646 -26.843  1.00  0.00     0.077 A 
HETATM   15  C11 UNL     1       0.175  -7.582 -28.200  1.00  0.00     0.037 A 
HETATM   16  C15 UNL     1       1.774  -7.950 -26.436  1.00  0.00    -0.002 A 
HETATM   17  C12 UNL     1       1.140  -7.826 -29.152  1.00  0.00     0.003 A 
HETATM   18  C13 UNL     1       2.411  -8.129 -28.732  1.00  0.00     0.001 A 
HETATM   19  C14 UNL     1       2.735  -8.193 -27.373  1.00  0.00     0.012 A 
ENDBRANCH   8  10
ENDBRANCH   4   8
BRANCH   5  20
HETATM   20  C16 UNL     1       0.621 -12.039 -23.615  1.00  0.00     0.074 A 
HETATM   21  C17 UNL     1       0.463 -12.749 -22.448  1.00  0.00     0.032 A 
HETATM   22  C18 UNL     1      -0.797 -13.143 -22.014  1.00  0.00     0.002 A 
HETATM   23  C19 UNL     1      -1.910 -12.821 -22.759  1.00  0.00     0.000 A 
HETATM   24  C20 UNL     1      -1.784 -12.116 -23.921  1.00  0.00     0.002 A 
HETATM   25  C21 UNL     1      -0.536 -11.739 -24.329  1.00  0.00     0.032 A 
ENDBRANCH   5  20
BRANCH   1  26
HETATM   26  C4  UNL     1       5.365 -12.332 -24.884  1.00  0.00     0.052 A 
HETATM   27  C3  UNL     1       6.546 -11.991 -24.282  1.00  0.00     0.025 A 
HETATM   28  C2  UNL     1       7.646 -12.624 -24.699  1.00  0.00     0.028 A 
HETATM   29  C1  UNL     1       7.508 -13.558 -25.687  1.00  0.00     0.052 A 
HETATM   30 BR1  UNL     1       8.897 -14.629 -26.491  1.00  0.00    -0.043 Br
HETATM   31  S1  UNL     1       5.831 -13.524 -26.007  1.00  0.00    -0.079 SA
ENDBRANCH   1  26
TORSDOF 4
ENDMDL
MODEL 5
REMARK VINA RESULT: -8.956786466      4.095      7.075
REMARK  4 active torsions:
REMARK  status: ('A' for Active; 'I' for Inactive)
REMARK    1  A    between atoms: C4_5  and  C5_6 
REMARK    2  A    between atoms: C6_9  and  N2_10 
REMARK    3  A    between atoms: N2_10  and  C7_12 
REMARK    4  A    between atoms: N3_22  and  C16_23 
ROOT
HETATM    1  C5  UNL     1       2.989  -7.890 -24.599  1.00  0.00     0.153 A 
HETATM    2  N1  UNL     1       3.994  -8.713 -24.843  1.00  0.00    -0.172 N 
ATOM      3  H1  UNL     1       4.947  -8.428 -25.067  1.00  0.00     0.186 HD
HETATM    4  C6  UNL     1       3.553 -10.022 -24.745  1.00  0.00     0.702 A 
HETATM    5  N3  UNL     1       2.254  -9.946 -24.435  1.00  0.00    -0.085 N 
HETATM    6  N4  UNL     1       1.921  -8.643 -24.348  1.00  0.00    -0.262 N 
ATOM      7  H4  UNL     1       0.991  -8.288 -24.124  1.00  0.00     0.190 HD
ENDROOT
BRANCH   4   8
HETATM    8  N2  UNL     1       4.354 -10.972 -24.941  1.00  0.00    -0.215 N 
ATOM      9  H2  UNL     1       4.654 -11.026 -25.915  1.00  0.00     0.178 HD
BRANCH   8  10
HETATM   10  C7  UNL     1       4.932 -11.968 -24.157  1.00  0.00     0.137 C 
HETATM   11  C8  UNL     1       6.280 -11.520 -23.595  1.00  0.00     0.057 C 
HETATM   12  C9  UNL     1       7.401 -11.609 -24.567  1.00  0.00     0.178 C 
HETATM   13  O1  UNL     1       7.158 -12.334 -25.730  1.00  0.00    -0.350 OA
HETATM   14  C10 UNL     1       6.261 -13.387 -25.717  1.00  0.00     0.077 A 
HETATM   15  C11 UNL     1       6.474 -14.555 -26.455  1.00  0.00     0.037 A 
HETATM   16  C15 UNL     1       5.141 -13.235 -24.944  1.00  0.00    -0.002 A 
HETATM   17  C12 UNL     1       5.551 -15.576 -26.410  1.00  0.00     0.003 A 
HETATM   18  C13 UNL     1       4.433 -15.412 -25.631  1.00  0.00     0.001 A 
HETATM   19  C14 UNL     1       4.222 -14.242 -24.895  1.00  0.00     0.012 A 
ENDBRANCH   8  10
ENDBRANCH   4   8
BRANCH   5  20
HETATM   20  C16 UNL     1       1.317 -11.008 -24.218  1.00  0.00     0.074 A 
HETATM   21  C17 UNL     1       0.088 -11.008 -24.836  1.00  0.00     0.032 A 
HETATM   22  C18 UNL     1      -0.812 -12.047 -24.643  1.00  0.00     0.002 A 
HETATM   23  C19 UNL     1      -0.478 -13.099 -23.819  1.00  0.00     0.000 A 
HETATM   24  C20 UNL     1       0.734 -13.128 -23.191  1.00  0.00     0.002 A 
HETATM   25  C21 UNL     1       1.604 -12.095 -23.396  1.00  0.00     0.032 A 
ENDBRANCH   5  20
BRANCH   1  26
HETATM   26  C4  UNL     1       3.056  -6.423 -24.607  1.00  0.00     0.052 A 
HETATM   27  C3  UNL     1       3.712  -5.622 -25.503  1.00  0.00     0.025 A 
HETATM   28  C2  UNL     1       3.633  -4.304 -25.310  1.00  0.00     0.028 A 
HETATM   29  C1  UNL     1       2.908  -3.857 -24.242  1.00  0.00     0.052 A 
HETATM   30 BR1  UNL     1       2.611  -2.027 -23.706  1.00  0.00    -0.043 Br
HETATM   31  S1  UNL     1       2.352  -5.307 -23.531  1.00  0.00    -0.079 SA
ENDBRANCH   1  26
TORSDOF 4
ENDMDL
