MODEL 1
REMARK VINA RESULT: -6.887582299      0.000      0.000
REMARK  12 active torsions:
REMARK  status: ('A' for Active; 'I' for Inactive)
REMARK    1  A    between atoms: N1_1  and  N2_4 
REMARK    2  A    between atoms: N2_4  and  N3_5 
REMARK    3  A    between atoms: N3_5  and  C1_7 
REMARK    4  A    between atoms: C1_7  and  C2_8 
REMARK    5  A    between atoms: C3_10  and  O2_11 
REMARK    6  A    between atoms: O2_11  and  C4_12 
REMARK    7  A    between atoms: C5_15  and  C6_16 
REMARK    8  A    between atoms: C8_20  and  N4_21 
REMARK    9  A    between atoms: C9_25  and  N5_26 
REMARK       I    between atoms: N5_26  and  C10_28 
REMARK   10  A    between atoms: C10_28  and  C11_30 
REMARK   11  A    between atoms: C17_36  and  O8_37 
REMARK   12  A    between atoms: C18_39  and  O9_40 
ROOT
HETATM    1  C2  UNL     1      10.251  12.082  27.521  1.00  0.00     0.176 C 
HETATM    2  O1  UNL     1       9.264  11.264  28.002  1.00  0.00    -0.349 OA
HETATM    3  C3  UNL     1       9.713   9.963  28.281  1.00  0.00     0.289 C 
HETATM    4  C9  UNL     1      10.058   9.337  26.956  1.00  0.00     0.171 C 
HETATM    5  C17 UNL     1      11.181  10.176  26.353  1.00  0.00     0.177 C 
HETATM    6  C18 UNL     1      10.629  11.568  26.148  1.00  0.00     0.179 C 
ENDROOT
BRANCH   3   7
HETATM    7  O2  UNL     1       8.677   9.337  28.951  1.00  0.00    -0.324 OA
BRANCH   7   8
HETATM    8  C4  UNL     1       7.423   9.812  28.592  1.00  0.00     0.330 C 
HETATM    9  O3  UNL     1       6.872  10.659  29.519  1.00  0.00    -0.205 OA
HETATM   10  O4  UNL     1       6.596  10.104  30.659  1.00  0.00    -0.222 OA
HETATM   11  C5  UNL     1       5.653   9.111  30.595  1.00  0.00     0.263 C 
HETATM   12  C7  UNL     1       5.193   9.024  29.134  1.00  0.00     0.084 C 
HETATM   13  C8  UNL     1       6.436   8.699  28.330  1.00  0.00     0.244 C 
BRANCH  11  14
HETATM   14  C6  UNL     1       4.511   9.320  31.507  1.00  0.00     0.206 C 
HETATM   15  O5  UNL     1       3.525   9.971  31.078  1.00  0.00    -0.646 OA
HETATM   16  O6  UNL     1       4.511   8.824  32.788  1.00  0.00    -0.646 OA
ENDBRANCH  11  14
BRANCH  13  17
HETATM   17  N4  UNL     1       6.998   7.461  28.820  1.00  0.00    -0.070 N 
ATOM     18  H43 UNL     1       6.619   6.643  28.344  1.00  0.00     0.274 HD
ATOM     19  H42 UNL     1       7.974   7.340  28.549  1.00  0.00     0.274 HD
ATOM     20  H41 UNL     1       6.865   7.423  29.830  1.00  0.00     0.274 HD
ENDBRANCH  13  17
ENDBRANCH   7   8
ENDBRANCH   3   7
BRANCH   4  21
HETATM   21  N5  UNL     1      10.420   7.948  27.033  1.00  0.00    -0.349 N 
HETATM   22  C10 UNL     1       9.544   6.905  26.628  1.00  0.00     0.222 C 
HETATM   23  O7  UNL     1       8.413   7.230  26.190  1.00  0.00    -0.273 OA
ATOM     24  H5  UNL     1      11.342   7.701  27.394  1.00  0.00     0.163 HD
BRANCH  22  25
HETATM   25  C11 UNL     1       9.958   5.500  26.725  1.00  0.00     0.078 C 
HETATM   26  C12 UNL     1       9.045   4.683  25.809  1.00  0.00     0.014 C 
HETATM   27  C13 UNL     1       9.700   3.339  25.579  1.00  0.00     0.001 C 
HETATM   28  C14 UNL     1      10.538   3.006  26.778  1.00  0.00     0.000 C 
HETATM   29  C15 UNL     1      11.775   3.890  26.863  1.00  0.00     0.001 C 
HETATM   30  C16 UNL     1      11.386   5.266  26.362  1.00  0.00     0.014 C 
ENDBRANCH  22  25
ENDBRANCH   4  21
BRANCH   1  31
HETATM   31  C1  UNL     1       9.696  13.487  27.442  1.00  0.00     0.190 C 
BRANCH  31  32
HETATM   32  N3  UNL     1      10.626  14.380  28.081  1.00  0.00    -0.250 N 
ATOM     33  H3  UNL     1      10.355  14.878  28.929  1.00  0.00     0.197 HD
BRANCH  32  34
HETATM   34  N2  UNL     1      11.744  14.541  27.606  1.00  0.00    -0.248 NA
BRANCH  34  35
HETATM   35  N1  UNL     1      12.744  14.786  26.952  1.00  0.00    -0.261 N 
ATOM     36  H12 UNL     1      12.179  14.774  26.102  1.00  0.00     0.193 HD
ATOM     37  H11 UNL     1      13.670  14.988  26.574  1.00  0.00     0.193 HD
ENDBRANCH  34  35
ENDBRANCH  32  34
ENDBRANCH  31  32
ENDBRANCH   1  31
BRANCH   5  38
HETATM   38  O8  UNL     1      11.608   9.678  25.143  1.00  0.00    -0.391 OA
ATOM     39  H8  UNL     1      10.935   9.735  24.474  1.00  0.00     0.210 HD
ENDBRANCH   5  38
BRANCH   6  40
HETATM   40  O9  UNL     1      11.526  12.406  25.506  1.00  0.00    -0.390 OA
ATOM     41  H9  UNL     1      11.123  13.223  25.236  1.00  0.00     0.210 HD
ENDBRANCH   6  40
TORSDOF 12
ENDMDL
MODEL 2
REMARK VINA RESULT: -6.707065126      3.974      6.838
REMARK  12 active torsions:
REMARK  status: ('A' for Active; 'I' for Inactive)
REMARK    1  A    between atoms: N1_1  and  N2_4 
REMARK    2  A    between atoms: N2_4  and  N3_5 
REMARK    3  A    between atoms: N3_5  and  C1_7 
REMARK    4  A    between atoms: C1_7  and  C2_8 
REMARK    5  A    between atoms: C3_10  and  O2_11 
REMARK    6  A    between atoms: O2_11  and  C4_12 
REMARK    7  A    between atoms: C5_15  and  C6_16 
REMARK    8  A    between atoms: C8_20  and  N4_21 
REMARK    9  A    between atoms: C9_25  and  N5_26 
REMARK       I    between atoms: N5_26  and  C10_28 
REMARK   10  A    between atoms: C10_28  and  C11_30 
REMARK   11  A    between atoms: C17_36  and  O8_37 
REMARK   12  A    between atoms: C18_39  and  O9_40 
ROOT
HETATM    1  C2  UNL     1      12.063  13.566  26.358  1.00  0.00     0.176 C 
HETATM    2  O1  UNL     1      11.148  12.672  26.846  1.00  0.00    -0.349 OA
HETATM    3  C3  UNL     1      10.202  13.262  27.700  1.00  0.00     0.289 C 
HETATM    4  C9  UNL     1      10.949  13.690  28.935  1.00  0.00     0.171 C 
HETATM    5  C17 UNL     1      11.984  14.719  28.486  1.00  0.00     0.177 C 
HETATM    6  C18 UNL     1      12.916  14.016  27.526  1.00  0.00     0.179 C 
ENDROOT
BRANCH   3   7
HETATM    7  O2  UNL     1       9.238  12.296  27.927  1.00  0.00    -0.324 OA
BRANCH   7   8
HETATM    8  C4  UNL     1       8.197  12.331  27.011  1.00  0.00     0.330 C 
HETATM    9  O3  UNL     1       6.955  12.282  27.591  1.00  0.00    -0.205 OA
HETATM   10  O4  UNL     1       6.691  11.170  28.204  1.00  0.00    -0.222 OA
HETATM   11  C5  UNL     1       6.662  10.065  27.392  1.00  0.00     0.263 C 
HETATM   12  C7  UNL     1       6.921  10.554  25.962  1.00  0.00     0.084 C 
HETATM   13  C8  UNL     1       8.283  11.218  25.993  1.00  0.00     0.244 C 
BRANCH  11  14
HETATM   14  C6  UNL     1       5.403   9.299  27.479  1.00  0.00     0.206 C 
HETATM   15  O5  UNL     1       5.195   8.408  26.618  1.00  0.00    -0.646 OA
HETATM   16  O6  UNL     1       4.478   9.541  28.466  1.00  0.00    -0.646 OA
ENDBRANCH  11  14
BRANCH  13  17
HETATM   17  N4  UNL     1       9.261  10.256  26.447  1.00  0.00    -0.070 N 
ATOM     18  H43 UNL     1      10.001  10.682  27.003  1.00  0.00     0.274 HD
ATOM     19  H42 UNL     1       8.892   9.630  27.163  1.00  0.00     0.274 HD
ATOM     20  H41 UNL     1       9.620   9.752  25.636  1.00  0.00     0.274 HD
ENDBRANCH  13  17
ENDBRANCH   7   8
ENDBRANCH   3   7
BRANCH   4  21
HETATM   21  N5  UNL     1      10.113  14.206  29.984  1.00  0.00    -0.349 N 
HETATM   22  C10 UNL     1       9.859  13.486  31.182  1.00  0.00     0.222 C 
HETATM   23  O7  UNL     1      10.392  12.357  31.309  1.00  0.00    -0.273 OA
ATOM     24  H5  UNL     1       9.686  15.124  29.864  1.00  0.00     0.163 HD
BRANCH  22  25
HETATM   25  C11 UNL     1       8.998  14.053  32.228  1.00  0.00     0.078 C 
HETATM   26  C12 UNL     1       7.888  13.042  32.515  1.00  0.00     0.014 C 
HETATM   27  C13 UNL     1       7.255  13.410  33.839  1.00  0.00     0.001 C 
HETATM   28  C14 UNL     1       7.388  14.891  34.035  1.00  0.00     0.000 C 
HETATM   29  C15 UNL     1       8.831  15.293  34.313  1.00  0.00     0.001 C 
HETATM   30  C16 UNL     1       9.723  14.387  33.489  1.00  0.00     0.014 C 
ENDBRANCH  22  25
ENDBRANCH   4  21
BRANCH   1  31
HETATM   31  C1  UNL     1      12.900  12.858  25.315  1.00  0.00     0.190 C 
BRANCH  31  32
HETATM   32  N3  UNL     1      13.261  13.810  24.300  1.00  0.00    -0.250 N 
ATOM     33  H3  UNL     1      13.655  14.714  24.564  1.00  0.00     0.197 HD
BRANCH  32  34
HETATM   34  N2  UNL     1      13.096  13.536  23.117  1.00  0.00    -0.248 NA
BRANCH  34  35
HETATM   35  N1  UNL     1      13.113  13.124  21.969  1.00  0.00    -0.261 N 
ATOM     36  H12 UNL     1      14.130  13.208  21.964  1.00  0.00     0.193 HD
ATOM     37  H11 UNL     1      12.936  12.771  21.028  1.00  0.00     0.193 HD
ENDBRANCH  34  35
ENDBRANCH  32  34
ENDBRANCH  31  32
ENDBRANCH   1  31
BRANCH   5  38
HETATM   38  O8  UNL     1      12.715  15.213  29.543  1.00  0.00    -0.391 OA
ATOM     39  H8  UNL     1      13.069  16.076  29.361  1.00  0.00     0.210 HD
ENDBRANCH   5  38
BRANCH   6  40
HETATM   40  O9  UNL     1      13.969  14.820  27.124  1.00  0.00    -0.390 OA
ATOM     41  H9  UNL     1      13.877  15.714  27.433  1.00  0.00     0.210 HD
ENDBRANCH   6  40
TORSDOF 12
ENDMDL
MODEL 3
REMARK VINA RESULT: -6.585851150      3.052      3.617
REMARK  12 active torsions:
REMARK  status: ('A' for Active; 'I' for Inactive)
REMARK    1  A    between atoms: N1_1  and  N2_4 
REMARK    2  A    between atoms: N2_4  and  N3_5 
REMARK    3  A    between atoms: N3_5  and  C1_7 
REMARK    4  A    between atoms: C1_7  and  C2_8 
REMARK    5  A    between atoms: C3_10  and  O2_11 
REMARK    6  A    between atoms: O2_11  and  C4_12 
REMARK    7  A    between atoms: C5_15  and  C6_16 
REMARK    8  A    between atoms: C8_20  and  N4_21 
REMARK    9  A    between atoms: C9_25  and  N5_26 
REMARK       I    between atoms: N5_26  and  C10_28 
REMARK   10  A    between atoms: C10_28  and  C11_30 
REMARK   11  A    between atoms: C17_36  and  O8_37 
REMARK   12  A    between atoms: C18_39  and  O9_40 
ROOT
HETATM    1  C2  UNL     1       9.410  11.189  29.753  1.00  0.00     0.176 C 
HETATM    2  O1  UNL     1       8.593  10.124  30.020  1.00  0.00    -0.349 OA
HETATM    3  C3  UNL     1       9.179   8.887  29.705  1.00  0.00     0.289 C 
HETATM    4  C9  UNL     1       9.310   8.846  28.206  1.00  0.00     0.171 C 
HETATM    5  C17 UNL     1      10.236   9.995  27.815  1.00  0.00     0.177 C 
HETATM    6  C18 UNL     1       9.558  11.274  28.249  1.00  0.00     0.179 C 
ENDROOT
BRANCH   3   7
HETATM    7  O2  UNL     1       8.337   7.921  30.227  1.00  0.00    -0.324 OA
BRANCH   7   8
HETATM    8  C4  UNL     1       9.011   6.891  30.868  1.00  0.00     0.330 C 
HETATM    9  O3  UNL     1       8.887   5.679  30.237  1.00  0.00    -0.205 OA
HETATM   10  O4  UNL     1       7.682   5.200  30.225  1.00  0.00    -0.222 OA
HETATM   11  C5  UNL     1       7.167   4.921  31.465  1.00  0.00     0.263 C 
HETATM   12  C7  UNL     1       8.262   5.247  32.488  1.00  0.00     0.084 C 
HETATM   13  C8  UNL     1       8.574   6.719  32.304  1.00  0.00     0.244 C 
BRANCH  11  14
HETATM   14  C6  UNL     1       6.691   3.532  31.610  1.00  0.00     0.206 C 
HETATM   15  O5  UNL     1       7.301   2.781  32.413  1.00  0.00    -0.646 OA
HETATM   16  O6  UNL     1       5.617   3.059  30.897  1.00  0.00    -0.646 OA
ENDBRANCH  11  14
BRANCH  13  17
HETATM   17  N4  UNL     1       7.364   7.481  32.510  1.00  0.00    -0.070 N 
ATOM     18  H43 UNL     1       7.546   8.411  32.887  1.00  0.00     0.274 HD
ATOM     19  H42 UNL     1       6.928   7.769  31.634  1.00  0.00     0.274 HD
ATOM     20  H41 UNL     1       6.735   6.936  33.099  1.00  0.00     0.274 HD
ENDBRANCH  13  17
ENDBRANCH   7   8
ENDBRANCH   3   7
BRANCH   4  21
HETATM   21  N5  UNL     1       9.779   7.591  27.686  1.00  0.00    -0.349 N 
HETATM   22  C10 UNL     1       9.003   6.790  26.805  1.00  0.00     0.222 C 
HETATM   23  O7  UNL     1       7.867   7.213  26.481  1.00  0.00    -0.273 OA
ATOM     24  H5  UNL     1      10.705   7.261  27.961  1.00  0.00     0.163 HD
BRANCH  22  25
HETATM   25  C11 UNL     1       9.524   5.515  26.298  1.00  0.00     0.078 C 
HETATM   26  C12 UNL     1      11.043   5.532  26.469  1.00  0.00     0.014 C 
HETATM   27  C13 UNL     1      11.542   4.109  26.345  1.00  0.00     0.001 C 
HETATM   28  C14 UNL     1      10.604   3.352  25.451  1.00  0.00     0.000 C 
HETATM   29  C15 UNL     1       9.262   3.103  26.126  1.00  0.00     0.001 C 
HETATM   30  C16 UNL     1       8.948   4.317  26.976  1.00  0.00     0.014 C 
ENDBRANCH  22  25
ENDBRANCH   4  21
BRANCH   1  31
HETATM   31  C1  UNL     1       8.752  12.434  30.306  1.00  0.00     0.190 C 
BRANCH  31  32
HETATM   32  N3  UNL     1       9.774  13.279  30.864  1.00  0.00    -0.250 N 
ATOM     33  H3  UNL     1      10.183  13.053  31.771  1.00  0.00     0.197 HD
BRANCH  32  34
HETATM   34  N2  UNL     1      10.152  14.270  30.251  1.00  0.00    -0.248 NA
BRANCH  34  35
HETATM   35  N1  UNL     1      10.551  15.111  29.463  1.00  0.00    -0.261 N 
ATOM     36  H12 UNL     1      11.337  14.505  29.228  1.00  0.00     0.193 HD
ATOM     37  H11 UNL     1      10.731  15.915  28.861  1.00  0.00     0.193 HD
ENDBRANCH  34  35
ENDBRANCH  32  34
ENDBRANCH  31  32
ENDBRANCH   1  31
BRANCH   5  38
HETATM   38  O8  UNL     1      10.461  10.041  26.458  1.00  0.00    -0.391 OA
ATOM     39  H8  UNL     1       9.670   9.876  25.958  1.00  0.00     0.210 HD
ENDBRANCH   5  38
BRANCH   6  40
HETATM   40  O9  UNL     1      10.254  12.405  27.855  1.00  0.00    -0.390 OA
ATOM     41  H9  UNL     1      10.607  12.320  26.977  1.00  0.00     0.210 HD
ENDBRANCH   6  40
TORSDOF 12
ENDMDL
MODEL 4
REMARK VINA RESULT: -6.584157331      2.851      6.584
REMARK  12 active torsions:
REMARK  status: ('A' for Active; 'I' for Inactive)
REMARK    1  A    between atoms: N1_1  and  N2_4 
REMARK    2  A    between atoms: N2_4  and  N3_5 
REMARK    3  A    between atoms: N3_5  and  C1_7 
REMARK    4  A    between atoms: C1_7  and  C2_8 
REMARK    5  A    between atoms: C3_10  and  O2_11 
REMARK    6  A    between atoms: O2_11  and  C4_12 
REMARK    7  A    between atoms: C5_15  and  C6_16 
REMARK    8  A    between atoms: C8_20  and  N4_21 
REMARK    9  A    between atoms: C9_25  and  N5_26 
REMARK       I    between atoms: N5_26  and  C10_28 
REMARK   10  A    between atoms: C10_28  and  C11_30 
REMARK   11  A    between atoms: C17_36  and  O8_37 
REMARK   12  A    between atoms: C18_39  and  O9_40 
ROOT
HETATM    1  C2  UNL     1       7.897  10.503  26.425  1.00  0.00     0.176 C 
HETATM    2  O1  UNL     1       8.352   9.550  27.297  1.00  0.00    -0.349 OA
HETATM    3  C3  UNL     1       7.500   8.438  27.392  1.00  0.00     0.289 C 
HETATM    4  C9  UNL     1       6.236   8.923  28.050  1.00  0.00     0.171 C 
HETATM    5  C17 UNL     1       5.639   9.981  27.125  1.00  0.00     0.177 C 
HETATM    6  C18 UNL     1       6.646  11.103  27.031  1.00  0.00     0.179 C 
ENDROOT
BRANCH   3   7
HETATM    7  O2  UNL     1       8.191   7.489  28.125  1.00  0.00    -0.324 OA
BRANCH   7   8
HETATM    8  C4  UNL     1       9.393   7.112  27.541  1.00  0.00     0.330 C 
HETATM    9  O3  UNL     1       9.257   6.646  26.258  1.00  0.00    -0.205 OA
HETATM   10  O4  UNL     1       8.589   5.539  26.157  1.00  0.00    -0.222 OA
HETATM   11  C5  UNL     1       9.167   4.464  26.782  1.00  0.00     0.263 C 
HETATM   12  C7  UNL     1      10.492   4.955  27.380  1.00  0.00     0.084 C 
HETATM   13  C8  UNL     1      10.123   6.063  28.346  1.00  0.00     0.244 C 
BRANCH  11  14
HETATM   14  C6  UNL     1       9.374   3.303  25.895  1.00  0.00     0.206 C 
HETATM   15  O5  UNL     1      10.496   3.176  25.342  1.00  0.00    -0.646 OA
HETATM   16  O6  UNL     1       8.380   2.381  25.670  1.00  0.00    -0.646 OA
ENDBRANCH  11  14
BRANCH  13  17
HETATM   17  N4  UNL     1       9.217   5.533  29.339  1.00  0.00    -0.070 N 
ATOM     18  H43 UNL     1       9.632   4.779  29.886  1.00  0.00     0.274 HD
ATOM     19  H42 UNL     1       9.051   6.185  30.106  1.00  0.00     0.274 HD
ATOM     20  H41 UNL     1       8.355   5.250  28.873  1.00  0.00     0.274 HD
ENDBRANCH  13  17
ENDBRANCH   7   8
ENDBRANCH   3   7
BRANCH   4  21
HETATM   21  N5  UNL     1       5.286   7.885  28.347  1.00  0.00    -0.349 N 
HETATM   22  C10 UNL     1       4.437   7.929  29.485  1.00  0.00     0.222 C 
HETATM   23  O7  UNL     1       4.537   8.920  30.250  1.00  0.00    -0.273 OA
ATOM     24  H5  UNL     1       5.220   7.087  27.716  1.00  0.00     0.163 HD
BRANCH  22  25
HETATM   25  C11 UNL     1       3.481   6.846  29.748  1.00  0.00     0.078 C 
HETATM   26  C12 UNL     1       4.111   5.912  30.782  1.00  0.00     0.014 C 
HETATM   27  C13 UNL     1       3.010   5.049  31.360  1.00  0.00     0.001 C 
HETATM   28  C14 UNL     1       1.941   4.882  30.321  1.00  0.00     0.000 C 
HETATM   29  C15 UNL     1       1.170   6.176  30.094  1.00  0.00     0.001 C 
HETATM   30  C16 UNL     1       2.152   7.321  30.232  1.00  0.00     0.014 C 
ENDBRANCH  22  25
ENDBRANCH   4  21
BRANCH   1  31
HETATM   31  C1  UNL     1       8.980  11.547  26.267  1.00  0.00     0.190 C 
BRANCH  31  32
HETATM   32  N3  UNL     1      10.259  10.894  26.358  1.00  0.00    -0.250 N 
ATOM     33  H3  UNL     1      10.535  10.432  27.224  1.00  0.00     0.197 HD
BRANCH  32  34
HETATM   34  N2  UNL     1      11.016  10.894  25.394  1.00  0.00    -0.248 NA
BRANCH  34  35
HETATM   35  N1  UNL     1      11.796  10.671  24.483  1.00  0.00    -0.261 N 
ATOM     36  H12 UNL     1      11.031  10.774  23.816  1.00  0.00     0.193 HD
ATOM     37  H11 UNL     1      12.579  10.468  23.862  1.00  0.00     0.193 HD
ENDBRANCH  34  35
ENDBRANCH  32  34
ENDBRANCH  31  32
ENDBRANCH   1  31
BRANCH   5  38
HETATM   38  O8  UNL     1       4.450  10.481  27.608  1.00  0.00    -0.391 OA
ATOM     39  H8  UNL     1       4.212  10.094  28.442  1.00  0.00     0.210 HD
ENDBRANCH   5  38
BRANCH   6  40
HETATM   40  O9  UNL     1       6.176  12.179  26.298  1.00  0.00    -0.390 OA
ATOM     41  H9  UNL     1       6.865  12.600  25.796  1.00  0.00     0.210 HD
ENDBRANCH   6  40
TORSDOF 12
ENDMDL
MODEL 5
REMARK VINA RESULT: -6.562723969      1.951      2.447
REMARK  12 active torsions:
REMARK  status: ('A' for Active; 'I' for Inactive)
REMARK    1  A    between atoms: N1_1  and  N2_4 
REMARK    2  A    between atoms: N2_4  and  N3_5 
REMARK    3  A    between atoms: N3_5  and  C1_7 
REMARK    4  A    between atoms: C1_7  and  C2_8 
REMARK    5  A    between atoms: C3_10  and  O2_11 
REMARK    6  A    between atoms: O2_11  and  C4_12 
REMARK    7  A    between atoms: C5_15  and  C6_16 
REMARK    8  A    between atoms: C8_20  and  N4_21 
REMARK    9  A    between atoms: C9_25  and  N5_26 
REMARK       I    between atoms: N5_26  and  C10_28 
REMARK   10  A    between atoms: C10_28  and  C11_30 
REMARK   11  A    between atoms: C17_36  and  O8_37 
REMARK   12  A    between atoms: C18_39  and  O9_40 
ROOT
HETATM    1  C2  UNL     1      10.485  13.199  28.368  1.00  0.00     0.176 C 
HETATM    2  O1  UNL     1       9.770  12.725  27.301  1.00  0.00    -0.349 OA
HETATM    3  C3  UNL     1       9.207  11.460  27.533  1.00  0.00     0.289 C 
HETATM    4  C9  UNL     1      10.356  10.492  27.629  1.00  0.00     0.171 C 
HETATM    5  C17 UNL     1      11.201  10.931  28.821  1.00  0.00     0.177 C 
HETATM    6  C18 UNL     1      11.709  12.321  28.513  1.00  0.00     0.179 C 
ENDROOT
BRANCH   3   7
HETATM    7  O2  UNL     1       8.352  11.222  26.471  1.00  0.00    -0.324 OA
BRANCH   7   8
HETATM    8  C4  UNL     1       7.014  11.412  26.788  1.00  0.00     0.330 C 
HETATM    9  O3  UNL     1       6.786  11.564  28.132  1.00  0.00    -0.205 OA
HETATM   10  O4  UNL     1       7.049  10.511  28.844  1.00  0.00    -0.222 OA
HETATM   11  C5  UNL     1       6.275   9.418  28.553  1.00  0.00     0.263 C 
HETATM   12  C7  UNL     1       5.286   9.848  27.462  1.00  0.00     0.084 C 
HETATM   13  C8  UNL     1       6.135  10.291  26.287  1.00  0.00     0.244 C 
BRANCH  11  14
HETATM   14  C6  UNL     1       5.573   8.859  29.725  1.00  0.00     0.206 C 
HETATM   15  O5  UNL     1       5.918   7.720  30.130  1.00  0.00    -0.646 OA
HETATM   16  O6  UNL     1       4.572   9.550  30.363  1.00  0.00    -0.646 OA
ENDBRANCH  11  14
BRANCH  13  17
HETATM   17  N4  UNL     1       6.980   9.191  25.881  1.00  0.00    -0.070 N 
ATOM     18  H43 UNL     1       7.253   9.247  24.901  1.00  0.00     0.274 HD
ATOM     19  H42 UNL     1       7.914   9.244  26.289  1.00  0.00     0.274 HD
ATOM     20  H41 UNL     1       6.504   8.317  26.106  1.00  0.00     0.274 HD
ENDBRANCH  13  17
ENDBRANCH   7   8
ENDBRANCH   3   7
BRANCH   4  21
HETATM   21  N5  UNL     1       9.961   9.114  27.740  1.00  0.00    -0.349 N 
HETATM   22  C10 UNL     1      10.649   8.066  27.071  1.00  0.00     0.222 C 
HETATM   23  O7  UNL     1      11.635   8.376  26.359  1.00  0.00    -0.273 OA
ATOM     24  H5  UNL     1       9.157   8.880  28.322  1.00  0.00     0.163 HD
BRANCH  22  25
HETATM   25  C11 UNL     1      10.211   6.672  27.215  1.00  0.00     0.078 C 
HETATM   26  C12 UNL     1       9.147   6.407  26.150  1.00  0.00     0.014 C 
HETATM   27  C13 UNL     1       8.989   4.908  26.013  1.00  0.00     0.001 C 
HETATM   28  C14 UNL     1       9.324   4.272  27.329  1.00  0.00     0.000 C 
HETATM   29  C15 UNL     1      10.815   4.353  27.630  1.00  0.00     0.001 C 
HETATM   30  C16 UNL     1      11.317   5.677  27.091  1.00  0.00     0.014 C 
ENDBRANCH  22  25
ENDBRANCH   4  21
BRANCH   1  31
HETATM   31  C1  UNL     1      10.874  14.630  28.072  1.00  0.00     0.190 C 
BRANCH  31  32
HETATM   32  N3  UNL     1      10.517  15.443  29.204  1.00  0.00    -0.250 N 
ATOM     33  H3  UNL     1       9.658  15.993  29.186  1.00  0.00     0.197 HD
BRANCH  32  34
HETATM   34  N2  UNL     1      11.244  15.474  30.190  1.00  0.00    -0.248 NA
BRANCH  34  35
HETATM   35  N1  UNL     1      11.792  15.401  31.277  1.00  0.00    -0.261 N 
ATOM     36  H12 UNL     1      12.677  15.207  30.808  1.00  0.00     0.193 HD
ATOM     37  H11 UNL     1      12.075  15.378  32.257  1.00  0.00     0.193 HD
ENDBRANCH  34  35
ENDBRANCH  32  34
ENDBRANCH  31  32
ENDBRANCH   1  31
BRANCH   5  38
HETATM   38  O8  UNL     1      12.274  10.095  29.032  1.00  0.00    -0.391 OA
ATOM     39  H8  UNL     1      12.631   9.757  28.218  1.00  0.00     0.210 HD
ENDBRANCH   5  38
BRANCH   6  40
HETATM   40  O9  UNL     1      12.580  12.794  29.479  1.00  0.00    -0.390 OA
ATOM     41  H9  UNL     1      13.427  13.027  29.116  1.00  0.00     0.210 HD
ENDBRANCH   6  40
TORSDOF 12
ENDMDL
