MODEL 1
REMARK VINA RESULT: -6.377147820      0.000      0.000
REMARK  12 active torsions:
REMARK  status: ('A' for Active; 'I' for Inactive)
REMARK    1  A    between atoms: N1_2  and  C2_4 
REMARK    2  A    between atoms: C2_4  and  C3_5 
REMARK    3  A    between atoms: C6_9  and  O2_10 
REMARK    4  A    between atoms: O2_10  and  C7_11 
REMARK    5  A    between atoms: C9_13  and  O3_14 
REMARK    6  A    between atoms: O3_14  and  C10_15 
REMARK    7  A    between atoms: C10_15  and  C11_16 
REMARK    8  A    between atoms: C15_22  and  O6_23 
REMARK    9  A    between atoms: C17_25  and  N2_26 
REMARK   10  A    between atoms: C19_31  and  N3_32 
REMARK   11  A    between atoms: C20_36  and  O7_37 
REMARK   12  A    between atoms: C21_39  and  O8_40 
ROOT
HETATM    1  C7  UNL     1      10.361   5.247  32.111  1.00  0.00     0.157 C 
HETATM    2  C8  UNL     1       9.738   5.103  30.743  1.00  0.00     0.068 C 
HETATM    3  C9  UNL     1      10.768   5.045  29.640  1.00  0.00     0.156 C 
HETATM    4  C17 UNL     1      12.103   5.626  30.083  1.00  0.00     0.214 C 
HETATM    5  C18 UNL     1      12.645   5.039  31.338  1.00  0.00     0.070 C 
HETATM    6  C19 UNL     1      11.583   4.317  32.109  1.00  0.00     0.214 C 
ENDROOT
BRANCH   1   7
HETATM    7  O2  UNL     1       9.493   4.936  33.125  1.00  0.00    -0.351 OA
BRANCH   7   8
HETATM    8  C6  UNL     1       8.225   4.714  32.541  1.00  0.00     0.291 C 
HETATM    9  O1  UNL     1       7.395   5.690  33.032  1.00  0.00    -0.353 OA
HETATM   10  C4  UNL     1       6.095   5.648  32.464  1.00  0.00     0.132 C 
HETATM   11  C3  UNL     1       5.434   4.358  32.773  1.00  0.00     0.084 C 
HETATM   12  C5  UNL     1       6.177   5.977  30.991  1.00  0.00     0.040 C 
HETATM   13  C21 UNL     1       6.326   3.160  32.398  1.00  0.00     0.163 C 
HETATM   14  C20 UNL     1       7.707   3.359  32.973  1.00  0.00     0.202 C 
BRANCH  11  15
HETATM   15  C2  UNL     1       4.067   4.160  32.263  1.00  0.00     0.065 C 
BRANCH  15  16
HETATM   16  N1  UNL     1       3.636   2.902  31.820  1.00  0.00    -0.406 N 
HETATM   17  C1  UNL     1       2.748   2.745  30.739  1.00  0.00     0.145 C 
ATOM     18  H1  UNL     1       3.979   2.069  32.300  1.00  0.00     0.158 HD
ENDBRANCH  15  16
ENDBRANCH  11  15
BRANCH  13  19
HETATM   19  O8  UNL     1       6.335   2.949  31.043  1.00  0.00    -0.392 OA
ATOM     20  H8  UNL     1       6.902   3.570  30.600  1.00  0.00     0.210 HD
ENDBRANCH  13  19
BRANCH  14  21
HETATM   21  O7  UNL     1       7.606   3.337  34.362  1.00  0.00    -0.388 OA
ATOM     22  H7  UNL     1       7.644   2.436  34.659  1.00  0.00     0.210 HD
ENDBRANCH  14  21
ENDBRANCH   7   8
ENDBRANCH   1   7
BRANCH   6  23
HETATM   23  N3  UNL     1      11.970   3.935  33.431  1.00  0.00    -0.072 N 
ATOM     24  H33 UNL     1      12.214   4.750  33.995  1.00  0.00     0.274 HD
ATOM     25  H32 UNL     1      11.170   3.602  33.969  1.00  0.00     0.274 HD
ATOM     26  H31 UNL     1      12.724   3.249  33.427  1.00  0.00     0.274 HD
ENDBRANCH   6  23
BRANCH   3  27
HETATM   27  O3  UNL     1      10.335   5.815  28.607  1.00  0.00    -0.359 OA
BRANCH  27  28
HETATM   28  C10 UNL     1      10.209   5.235  27.368  1.00  0.00     0.174 C 
HETATM   29  C12 UNL     1      10.420   3.745  27.404  1.00  0.00     0.052 C 
HETATM   30  C13 UNL     1       9.904   3.293  26.069  1.00  0.00     0.006 C 
HETATM   31  C14 UNL     1       8.926   4.341  25.609  1.00  0.00     0.036 C 
HETATM   32  C15 UNL     1       8.901   5.401  26.704  1.00  0.00     0.166 C 
BRANCH  28  33
HETATM   33  C11 UNL     1      11.248   5.831  26.492  1.00  0.00     0.212 C 
HETATM   34  O4  UNL     1      11.266   7.025  26.106  1.00  0.00    -0.646 OA
HETATM   35  O5  UNL     1      12.298   5.014  26.052  1.00  0.00    -0.646 OA
ENDBRANCH  28  33
BRANCH  32  36
HETATM   36  O6  UNL     1       8.768   6.629  26.051  1.00  0.00    -0.387 OA
HETATM   37  C16 UNL     1       7.973   7.480  26.792  1.00  0.00     0.202 C 
ENDBRANCH  32  36
ENDBRANCH  27  28
ENDBRANCH   3  27
BRANCH   4  38
HETATM   38  N2  UNL     1      12.008   7.063  30.077  1.00  0.00    -0.072 N 
ATOM     39  H23 UNL     1      11.659   7.427  29.189  1.00  0.00     0.274 HD
ATOM     40  H22 UNL     1      11.257   7.407  30.676  1.00  0.00     0.274 HD
ATOM     41  H21 UNL     1      12.916   7.454  30.328  1.00  0.00     0.274 HD
ENDBRANCH   4  38
TORSDOF 12
ENDMDL
MODEL 2
REMARK VINA RESULT: -6.172362261      2.295      3.520
REMARK  12 active torsions:
REMARK  status: ('A' for Active; 'I' for Inactive)
REMARK    1  A    between atoms: N1_2  and  C2_4 
REMARK    2  A    between atoms: C2_4  and  C3_5 
REMARK    3  A    between atoms: C6_9  and  O2_10 
REMARK    4  A    between atoms: O2_10  and  C7_11 
REMARK    5  A    between atoms: C9_13  and  O3_14 
REMARK    6  A    between atoms: O3_14  and  C10_15 
REMARK    7  A    between atoms: C10_15  and  C11_16 
REMARK    8  A    between atoms: C15_22  and  O6_23 
REMARK    9  A    between atoms: C17_25  and  N2_26 
REMARK   10  A    between atoms: C19_31  and  N3_32 
REMARK   11  A    between atoms: C20_36  and  O7_37 
REMARK   12  A    between atoms: C21_39  and  O8_40 
ROOT
HETATM    1  C7  UNL     1       6.793   4.400  32.112  1.00  0.00     0.157 C 
HETATM    2  C8  UNL     1       7.495   4.336  30.775  1.00  0.00     0.068 C 
HETATM    3  C9  UNL     1       8.777   5.134  30.756  1.00  0.00     0.156 C 
HETATM    4  C17 UNL     1       8.810   6.178  31.862  1.00  0.00     0.214 C 
HETATM    5  C18 UNL     1       8.547   5.642  33.225  1.00  0.00     0.070 C 
HETATM    6  C19 UNL     1       7.903   4.290  33.167  1.00  0.00     0.214 C 
ENDROOT
BRANCH   1   7
HETATM    7  O2  UNL     1       5.852   3.414  32.264  1.00  0.00    -0.351 OA
BRANCH   7   8
HETATM    8  C6  UNL     1       4.653   3.880  31.679  1.00  0.00     0.291 C 
HETATM    9  O1  UNL     1       3.819   4.213  32.717  1.00  0.00    -0.353 OA
HETATM   10  C4  UNL     1       2.594   4.783  32.281  1.00  0.00     0.132 C 
HETATM   11  C3  UNL     1       1.841   3.819  31.443  1.00  0.00     0.084 C 
HETATM   12  C5  UNL     1       2.865   6.115  31.620  1.00  0.00     0.040 C 
HETATM   13  C21 UNL     1       2.713   3.253  30.308  1.00  0.00     0.163 C 
HETATM   14  C20 UNL     1       4.024   2.765  30.873  1.00  0.00     0.202 C 
BRANCH  11  15
HETATM   15  C2  UNL     1       0.536   4.256  30.920  1.00  0.00     0.065 C 
BRANCH  15  16
HETATM   16  N1  UNL     1       0.081   3.829  29.664  1.00  0.00    -0.406 N 
HETATM   17  C1  UNL     1      -0.643   4.670  28.798  1.00  0.00     0.145 C 
ATOM     18  H1  UNL     1       0.283   2.874  29.368  1.00  0.00     0.158 HD
ENDBRANCH  15  16
ENDBRANCH  11  15
BRANCH  13  19
HETATM   19  O8  UNL     1       2.872   4.165  29.297  1.00  0.00    -0.392 OA
ATOM     20  H8  UNL     1       2.500   5.008  29.530  1.00  0.00     0.210 HD
ENDBRANCH  13  19
BRANCH  14  21
HETATM   21  O7  UNL     1       3.759   1.692  31.721  1.00  0.00    -0.388 OA
ATOM     22  H7  UNL     1       3.087   1.147  31.326  1.00  0.00     0.210 HD
ENDBRANCH  14  21
ENDBRANCH   7   8
ENDBRANCH   1   7
BRANCH   6  23
HETATM   23  N3  UNL     1       7.405   3.820  34.422  1.00  0.00    -0.072 N 
ATOM     24  H33 UNL     1       7.861   4.293  35.202  1.00  0.00     0.274 HD
ATOM     25  H32 UNL     1       6.447   4.133  34.581  1.00  0.00     0.274 HD
ATOM     26  H31 UNL     1       7.481   2.806  34.508  1.00  0.00     0.274 HD
ENDBRANCH   6  23
BRANCH   3  27
HETATM   27  O3  UNL     1       8.843   5.813  29.581  1.00  0.00    -0.359 OA
BRANCH  27  28
HETATM   28  C10 UNL     1       9.824   5.470  28.682  1.00  0.00     0.174 C 
HETATM   29  C12 UNL     1      11.052   4.915  29.352  1.00  0.00     0.052 C 
HETATM   30  C13 UNL     1      11.815   4.301  28.214  1.00  0.00     0.006 C 
HETATM   31  C14 UNL     1      10.808   3.989  27.140  1.00  0.00     0.036 C 
HETATM   32  C15 UNL     1       9.459   4.445  27.684  1.00  0.00     0.166 C 
BRANCH  28  33
HETATM   33  C11 UNL     1      10.209   6.704  27.953  1.00  0.00     0.212 C 
HETATM   34  O4  UNL     1      11.389   7.075  27.739  1.00  0.00    -0.646 OA
HETATM   35  O5  UNL     1       9.192   7.531  27.459  1.00  0.00    -0.646 OA
ENDBRANCH  28  33
BRANCH  32  36
HETATM   36  O6  UNL     1       8.757   4.964  26.594  1.00  0.00    -0.387 OA
HETATM   37  C16 UNL     1       9.028   4.230  25.457  1.00  0.00     0.202 C 
ENDBRANCH  32  36
ENDBRANCH  27  28
ENDBRANCH   3  27
BRANCH   4  38
HETATM   38  N2  UNL     1       7.978   7.288  31.476  1.00  0.00    -0.072 N 
ATOM     39  H23 UNL     1       8.492   8.169  31.449  1.00  0.00     0.274 HD
ATOM     40  H22 UNL     1       7.710   7.250  30.492  1.00  0.00     0.274 HD
ATOM     41  H21 UNL     1       7.170   7.326  32.099  1.00  0.00     0.274 HD
ENDBRANCH   4  38
TORSDOF 12
ENDMDL
MODEL 3
REMARK VINA RESULT: -6.168099692      3.601      5.513
REMARK  12 active torsions:
REMARK  status: ('A' for Active; 'I' for Inactive)
REMARK    1  A    between atoms: N1_2  and  C2_4 
REMARK    2  A    between atoms: C2_4  and  C3_5 
REMARK    3  A    between atoms: C6_9  and  O2_10 
REMARK    4  A    between atoms: O2_10  and  C7_11 
REMARK    5  A    between atoms: C9_13  and  O3_14 
REMARK    6  A    between atoms: O3_14  and  C10_15 
REMARK    7  A    between atoms: C10_15  and  C11_16 
REMARK    8  A    between atoms: C15_22  and  O6_23 
REMARK    9  A    between atoms: C17_25  and  N2_26 
REMARK   10  A    between atoms: C19_31  and  N3_32 
REMARK   11  A    between atoms: C20_36  and  O7_37 
REMARK   12  A    between atoms: C21_39  and  O8_40 
ROOT
HETATM    1  C7  UNL     1       9.790  10.534  27.339  1.00  0.00     0.157 C 
HETATM    2  C8  UNL     1       9.679   9.028  27.295  1.00  0.00     0.068 C 
HETATM    3  C9  UNL     1      11.013   8.355  27.077  1.00  0.00     0.156 C 
HETATM    4  C17 UNL     1      12.034   9.308  26.472  1.00  0.00     0.214 C 
HETATM    5  C18 UNL     1      12.206  10.582  27.220  1.00  0.00     0.070 C 
HETATM    6  C19 UNL     1      11.059  10.832  28.150  1.00  0.00     0.214 C 
ENDROOT
BRANCH   1   7
HETATM    7  O2  UNL     1       8.686  11.131  27.891  1.00  0.00    -0.351 OA
BRANCH   7   8
HETATM    8  C6  UNL     1       7.682  10.142  28.002  1.00  0.00     0.291 C 
HETATM    9  O1  UNL     1       6.499  10.751  27.667  1.00  0.00    -0.353 OA
HETATM   10  C4  UNL     1       5.400   9.853  27.649  1.00  0.00     0.132 C 
HETATM   11  C3  UNL     1       5.190   9.262  28.993  1.00  0.00     0.084 C 
HETATM   12  C5  UNL     1       5.591   8.845  26.541  1.00  0.00     0.040 C 
HETATM   13  C21 UNL     1       6.489   8.659  29.556  1.00  0.00     0.163 C 
HETATM   14  C20 UNL     1       7.607   9.665  29.436  1.00  0.00     0.202 C 
BRANCH  11  15
HETATM   15  C2  UNL     1       4.074   8.314  29.145  1.00  0.00     0.065 C 
BRANCH  15  16
HETATM   16  N1  UNL     1       4.190   7.189  29.975  1.00  0.00    -0.406 N 
HETATM   17  C1  UNL     1       3.224   6.165  29.998  1.00  0.00     0.145 C 
ATOM     18  H1  UNL     1       5.005   7.111  30.584  1.00  0.00     0.158 HD
ENDBRANCH  15  16
ENDBRANCH  11  15
BRANCH  13  19
HETATM   19  O8  UNL     1       6.782   7.459  28.961  1.00  0.00    -0.392 OA
ATOM     20  H8  UNL     1       7.250   7.584  28.143  1.00  0.00     0.210 HD
ENDBRANCH  13  19
BRANCH  14  21
HETATM   21  O7  UNL     1       7.305  10.750  30.256  1.00  0.00    -0.388 OA
ATOM     22  H7  UNL     1       7.865  10.722  31.023  1.00  0.00     0.210 HD
ENDBRANCH  14  21
ENDBRANCH   7   8
ENDBRANCH   1   7
BRANCH   6  23
HETATM   23  N3  UNL     1      11.035  12.143  28.721  1.00  0.00    -0.072 N 
ATOM     24  H33 UNL     1      11.208  12.857  28.014  1.00  0.00     0.274 HD
ATOM     25  H32 UNL     1      10.089  12.411  28.992  1.00  0.00     0.274 HD
ATOM     26  H31 UNL     1      11.684  12.231  29.503  1.00  0.00     0.274 HD
ENDBRANCH   6  23
BRANCH   3  27
HETATM   27  O3  UNL     1      10.844   7.349  26.179  1.00  0.00    -0.359 OA
BRANCH  27  28
HETATM   28  C10 UNL     1      10.714   6.065  26.653  1.00  0.00     0.174 C 
HETATM   29  C12 UNL     1      11.806   5.155  26.159  1.00  0.00     0.052 C 
HETATM   30  C13 UNL     1      11.676   3.951  27.048  1.00  0.00     0.006 C 
HETATM   31  C14 UNL     1      11.003   4.420  28.310  1.00  0.00     0.036 C 
HETATM   32  C15 UNL     1      10.745   5.910  28.120  1.00  0.00     0.166 C 
BRANCH  28  33
HETATM   33  C11 UNL     1       9.415   5.541  26.163  1.00  0.00     0.212 C 
HETATM   34  O4  UNL     1       9.255   4.438  25.587  1.00  0.00    -0.646 OA
HETATM   35  O5  UNL     1       8.268   6.324  26.349  1.00  0.00    -0.646 OA
ENDBRANCH  28  33
BRANCH  32  36
HETATM   36  O6  UNL     1       9.514   6.171  28.727  1.00  0.00    -0.387 OA
HETATM   37  C16 UNL     1       9.362   5.389  29.854  1.00  0.00     0.202 C 
ENDBRANCH  32  36
ENDBRANCH  27  28
ENDBRANCH   3  27
BRANCH   4  38
HETATM   38  N2  UNL     1      11.750   9.461  25.069  1.00  0.00    -0.072 N 
ATOM     39  H23 UNL     1      11.143   8.724  24.711  1.00  0.00     0.274 HD
ATOM     40  H22 UNL     1      11.138  10.254  24.880  1.00  0.00     0.274 HD
ATOM     41  H21 UNL     1      12.633   9.521  24.560  1.00  0.00     0.274 HD
ENDBRANCH   4  38
TORSDOF 12
ENDMDL
MODEL 4
REMARK VINA RESULT: -6.166396559      4.865      8.979
REMARK  12 active torsions:
REMARK  status: ('A' for Active; 'I' for Inactive)
REMARK    1  A    between atoms: N1_2  and  C2_4 
REMARK    2  A    between atoms: C2_4  and  C3_5 
REMARK    3  A    between atoms: C6_9  and  O2_10 
REMARK    4  A    between atoms: O2_10  and  C7_11 
REMARK    5  A    between atoms: C9_13  and  O3_14 
REMARK    6  A    between atoms: O3_14  and  C10_15 
REMARK    7  A    between atoms: C10_15  and  C11_16 
REMARK    8  A    between atoms: C15_22  and  O6_23 
REMARK    9  A    between atoms: C17_25  and  N2_26 
REMARK   10  A    between atoms: C19_31  and  N3_32 
REMARK   11  A    between atoms: C20_36  and  O7_37 
REMARK   12  A    between atoms: C21_39  and  O8_40 
ROOT
HETATM    1  C7  UNL     1       7.612  10.740  27.695  1.00  0.00     0.157 C 
HETATM    2  C8  UNL     1       8.689   9.685  27.797  1.00  0.00     0.068 C 
HETATM    3  C9  UNL     1       8.259   8.359  27.217  1.00  0.00     0.156 C 
HETATM    4  C17 UNL     1       6.744   8.246  27.130  1.00  0.00     0.214 C 
HETATM    5  C18 UNL     1       6.081   9.370  26.415  1.00  0.00     0.070 C 
HETATM    6  C19 UNL     1       6.986  10.559  26.304  1.00  0.00     0.214 C 
ENDROOT
BRANCH   1   7
HETATM    7  O2  UNL     1       8.095  12.010  27.870  1.00  0.00    -0.351 OA
BRANCH   7   8
HETATM    8  C6  UNL     1       9.477  11.980  27.576  1.00  0.00     0.291 C 
HETATM    9  O1  UNL     1      10.112  12.579  28.635  1.00  0.00    -0.353 OA
HETATM   10  C4  UNL     1      11.527  12.547  28.523  1.00  0.00     0.132 C 
HETATM   11  C3  UNL     1      11.969  13.281  27.313  1.00  0.00     0.084 C 
HETATM   12  C5  UNL     1      12.006  11.116  28.601  1.00  0.00     0.040 C 
HETATM   13  C21 UNL     1      11.224  12.801  26.054  1.00  0.00     0.163 C 
HETATM   14  C20 UNL     1       9.738  12.784  26.321  1.00  0.00     0.202 C 
BRANCH  11  15
HETATM   15  C2  UNL     1      13.417  13.351  27.058  1.00  0.00     0.065 C 
BRANCH  15  16
HETATM   16  N1  UNL     1      13.912  13.749  25.808  1.00  0.00    -0.406 N 
HETATM   17  C1  UNL     1      14.822  14.813  25.660  1.00  0.00     0.145 C 
ATOM     18  H1  UNL     1      13.601  13.249  24.975  1.00  0.00     0.158 HD
ENDBRANCH  15  16
ENDBRANCH  11  15
BRANCH  13  19
HETATM   19  O8  UNL     1      11.703  11.591  25.621  1.00  0.00    -0.392 OA
ATOM     20  H8  UNL     1      12.129  11.115  26.325  1.00  0.00     0.210 HD
ENDBRANCH  13  19
BRANCH  14  21
HETATM   21  O7  UNL     1       9.322  14.097  26.532  1.00  0.00    -0.388 OA
ATOM     22  H7  UNL     1       9.879  14.681  26.031  1.00  0.00     0.210 HD
ENDBRANCH  14  21
ENDBRANCH   7   8
ENDBRANCH   1   7
BRANCH   6  23
HETATM   23  N3  UNL     1       6.342  11.751  25.847  1.00  0.00    -0.072 N 
ATOM     24  H33 UNL     1       5.392  11.559  25.530  1.00  0.00     0.274 HD
ATOM     25  H32 UNL     1       6.130  12.377  26.623  1.00  0.00     0.274 HD
ATOM     26  H31 UNL     1       6.885  12.226  25.126  1.00  0.00     0.274 HD
ENDBRANCH   6  23
BRANCH   3  27
HETATM   27  O3  UNL     1       8.673   7.371  28.052  1.00  0.00    -0.359 OA
BRANCH  27  28
HETATM   28  C10 UNL     1       9.650   6.510  27.612  1.00  0.00     0.174 C 
HETATM   29  C12 UNL     1      10.450   7.080  26.472  1.00  0.00     0.052 C 
HETATM   30  C13 UNL     1      11.637   6.164  26.394  1.00  0.00     0.006 C 
HETATM   31  C14 UNL     1      11.791   5.543  27.757  1.00  0.00     0.036 C 
HETATM   32  C15 UNL     1      10.665   6.118  28.609  1.00  0.00     0.166 C 
BRANCH  28  33
HETATM   33  C11 UNL     1       8.974   5.278  27.136  1.00  0.00     0.212 C 
HETATM   34  O4  UNL     1       8.685   4.291  27.856  1.00  0.00    -0.646 OA
HETATM   35  O5  UNL     1       8.623   5.191  25.782  1.00  0.00    -0.646 OA
ENDBRANCH  28  33
BRANCH  32  36
HETATM   36  O6  UNL     1      10.243   5.081  29.445  1.00  0.00    -0.387 OA
HETATM   37  C16 UNL     1      10.334   5.467  30.767  1.00  0.00     0.202 C 
ENDBRANCH  32  36
ENDBRANCH  27  28
ENDBRANCH   3  27
BRANCH   4  38
HETATM   38  N2  UNL     1       6.223   7.972  28.444  1.00  0.00    -0.072 N 
ATOM     39  H23 UNL     1       6.180   8.807  29.028  1.00  0.00     0.274 HD
ATOM     40  H22 UNL     1       5.226   7.756  28.431  1.00  0.00     0.274 HD
ATOM     41  H21 UNL     1       6.777   7.227  28.868  1.00  0.00     0.274 HD
ENDBRANCH   4  38
TORSDOF 12
ENDMDL
MODEL 5
REMARK VINA RESULT: -6.096795444      3.693      8.385
REMARK  12 active torsions:
REMARK  status: ('A' for Active; 'I' for Inactive)
REMARK    1  A    between atoms: N1_2  and  C2_4 
REMARK    2  A    between atoms: C2_4  and  C3_5 
REMARK    3  A    between atoms: C6_9  and  O2_10 
REMARK    4  A    between atoms: O2_10  and  C7_11 
REMARK    5  A    between atoms: C9_13  and  O3_14 
REMARK    6  A    between atoms: O3_14  and  C10_15 
REMARK    7  A    between atoms: C10_15  and  C11_16 
REMARK    8  A    between atoms: C15_22  and  O6_23 
REMARK    9  A    between atoms: C17_25  and  N2_26 
REMARK   10  A    between atoms: C19_31  and  N3_32 
REMARK   11  A    between atoms: C20_36  and  O7_37 
REMARK   12  A    between atoms: C21_39  and  O8_40 
ROOT
HETATM    1  C7  UNL     1       4.689   9.058  30.051  1.00  0.00     0.157 C 
HETATM    2  C8  UNL     1       5.371   7.712  30.130  1.00  0.00     0.068 C 
HETATM    3  C9  UNL     1       4.966   6.928  31.356  1.00  0.00     0.156 C 
HETATM    4  C17 UNL     1       4.388   7.830  32.437  1.00  0.00     0.214 C 
HETATM    5  C18 UNL     1       3.273   8.703  31.981  1.00  0.00     0.070 C 
HETATM    6  C19 UNL     1       3.238   8.812  30.487  1.00  0.00     0.214 C 
ENDROOT
BRANCH   1   7
HETATM    7  O2  UNL     1       4.753   9.611  28.799  1.00  0.00    -0.351 OA
BRANCH   7   8
HETATM    8  C6  UNL     1       6.109   9.597  28.399  1.00  0.00     0.291 C 
HETATM    9  O1  UNL     1       6.763  10.486  29.215  1.00  0.00    -0.353 OA
HETATM   10  C4  UNL     1       8.164  10.518  28.988  1.00  0.00     0.132 C 
HETATM   11  C3  UNL     1       8.455  10.947  27.599  1.00  0.00     0.084 C 
HETATM   12  C5  UNL     1       8.768   9.189  29.375  1.00  0.00     0.040 C 
HETATM   13  C21 UNL     1       7.667  10.115  26.571  1.00  0.00     0.163 C 
HETATM   14  C20 UNL     1       6.211  10.071  26.965  1.00  0.00     0.202 C 
BRANCH  11  15
HETATM   15  C2  UNL     1       9.871  11.044  27.206  1.00  0.00     0.065 C 
BRANCH  15  16
HETATM   16  N1  UNL     1      10.247  11.039  25.855  1.00  0.00    -0.406 N 
HETATM   17  C1  UNL     1      11.595  11.041  25.447  1.00  0.00     0.145 C 
ATOM     18  H1  UNL     1       9.518  11.034  25.142  1.00  0.00     0.158 HD
ENDBRANCH  15  16
ENDBRANCH  11  15
BRANCH  13  19
HETATM   19  O8  UNL     1       8.217   8.868  26.411  1.00  0.00    -0.392 OA
ATOM     20  H8  UNL     1       8.049   8.317  27.166  1.00  0.00     0.210 HD
ENDBRANCH  13  19
BRANCH  14  21
HETATM   21  O7  UNL     1       5.700  11.363  26.880  1.00  0.00    -0.388 OA
ATOM     22  H7  UNL     1       6.309  11.963  27.295  1.00  0.00     0.210 HD
ENDBRANCH  14  21
ENDBRANCH   7   8
ENDBRANCH   1   7
BRANCH   6  23
HETATM   23  N3  UNL     1       2.351   9.817  29.989  1.00  0.00    -0.072 N 
ATOM     24  H33 UNL     1       2.866  10.633  29.657  1.00  0.00     0.274 HD
ATOM     25  H32 UNL     1       1.922   9.528  29.110  1.00  0.00     0.274 HD
ATOM     26  H31 UNL     1       1.645  10.079  30.677  1.00  0.00     0.274 HD
ENDBRANCH   6  23
BRANCH   3  27
HETATM   27  O3  UNL     1       6.078   6.354  31.885  1.00  0.00    -0.359 OA
BRANCH  27  28
HETATM   28  C10 UNL     1       6.046   5.010  32.173  1.00  0.00     0.174 C 
HETATM   29  C12 UNL     1       4.760   4.359  31.740  1.00  0.00     0.052 C 
HETATM   30  C13 UNL     1       5.075   2.893  31.821  1.00  0.00     0.006 C 
HETATM   31  C14 UNL     1       6.569   2.766  31.693  1.00  0.00     0.036 C 
HETATM   32  C15 UNL     1       7.099   4.188  31.547  1.00  0.00     0.166 C 
BRANCH  28  33
HETATM   33  C11 UNL     1       6.166   4.869  33.645  1.00  0.00     0.212 C 
HETATM   34  O4  UNL     1       5.757   3.886  34.309  1.00  0.00    -0.646 OA
HETATM   35  O5  UNL     1       6.782   5.900  34.366  1.00  0.00    -0.646 OA
ENDBRANCH  28  33
BRANCH  32  36
HETATM   36  O6  UNL     1       8.311   4.224  32.242  1.00  0.00    -0.387 OA
HETATM   37  C16 UNL     1       9.244   4.956  31.537  1.00  0.00     0.202 C 
ENDBRANCH  32  36
ENDBRANCH  27  28
ENDBRANCH   3  27
BRANCH   4  38
HETATM   38  N2  UNL     1       5.469   8.519  33.093  1.00  0.00    -0.072 N 
ATOM     39  H23 UNL     1       5.146   9.114  33.856  1.00  0.00     0.274 HD
ATOM     40  H22 UNL     1       6.056   7.891  33.642  1.00  0.00     0.274 HD
ATOM     41  H21 UNL     1       6.002   9.037  32.392  1.00  0.00     0.274 HD
ENDBRANCH   4  38
TORSDOF 12
ENDMDL
