MODEL 1
REMARK VINA RESULT: -7.736004996      0.000      0.000
REMARK  12 active torsions:
REMARK  status: ('A' for Active; 'I' for Inactive)
REMARK    1  A    between atoms: C1_2  and  C2_4 
REMARK    2  A    between atoms: C3_6  and  S1_7 
REMARK    3  A    between atoms: S1_7  and  C4_8 
REMARK    4  A    between atoms: C5_9  and  C6_10 
REMARK    5  A    between atoms: C6_10  and  N2_11 
REMARK    6  A    between atoms: N2_11  and  C7_13 
REMARK    7  A    between atoms: C7_13  and  C8_14 
REMARK    8  A    between atoms: C14_21  and  C15_22 
REMARK    9  A    between atoms: C15_22  and  O4_23 
REMARK   10  A    between atoms: C16_25  and  O5_26 
REMARK   11  A    between atoms: C18_30  and  O7_31 
REMARK   12  A    between atoms: C20_34  and  O8_35 
ROOT
HETATM    1  C4  UNL     1       7.488  10.256  27.142  1.00  0.00     0.114 C 
HETATM    2  C5  UNL     1       7.145   8.991  26.430  1.00  0.00     0.156 C 
HETATM    3  O3  UNL     1       5.811   8.796  26.573  1.00  0.00    -0.373 OA
HETATM    4  C14 UNL     1       5.233   9.723  27.384  1.00  0.00     0.175 C 
HETATM    5  C16 UNL     1       6.193  10.842  27.575  1.00  0.00     0.165 C 
ENDROOT
BRANCH   1   6
HETATM    6  S1  UNL     1       8.477  11.415  26.158  1.00  0.00    -0.100 SA
BRANCH   6   7
HETATM    7  C3  UNL     1       9.888  11.927  27.163  1.00  0.00     0.328 C 
HETATM    8  O2  UNL     1      10.889  12.300  26.250  1.00  0.00    -0.326 OA
HETATM    9  C2  UNL     1      12.065  11.715  26.636  1.00  0.00     0.196 C 
HETATM   10  C17 UNL     1      11.752  11.303  28.056  1.00  0.00     0.200 C 
HETATM   11  C20 UNL     1      12.338  10.379  25.982  1.00  0.00     0.167 C 
HETATM   12  O6  UNL     1      10.427  10.851  27.877  1.00  0.00    -0.341 OA
HETATM   13  C18 UNL     1      12.672  10.164  28.384  1.00  0.00     0.153 C 
HETATM   14  C19 UNL     1      12.996   9.531  27.066  1.00  0.00     0.069 C 
BRANCH   9  15
HETATM   15  C1  UNL     1      13.157  12.671  26.504  1.00  0.00     0.271 C 
HETATM   16  N1  UNL     1      13.590  13.417  27.627  1.00  0.00    -0.059 NA
HETATM   17  O1  UNL     1      13.742  12.868  25.411  1.00  0.00    -0.273 OA
ENDBRANCH   9  15
BRANCH  13  18
HETATM   18  O7  UNL     1      13.812  10.631  28.999  1.00  0.00    -0.393 OA
ATOM     19  H7  UNL     1      14.083  11.454  28.610  1.00  0.00     0.210 HD
ENDBRANCH  13  18
BRANCH  11  20
HETATM   20  O8  UNL     1      11.123   9.763  25.654  1.00  0.00    -0.392 OA
ATOM     21  H8  UNL     1      11.065   8.923  26.095  1.00  0.00     0.210 HD
ENDBRANCH  11  20
ENDBRANCH   6   7
ENDBRANCH   1   6
BRANCH   2  22
HETATM   22  C6  UNL     1       8.008   7.886  26.992  1.00  0.00     0.152 C 
BRANCH  22  23
HETATM   23  N2  UNL     1       9.287   7.689  26.419  1.00  0.00    -0.396 N 
ATOM     24  H2  UNL     1       9.577   8.139  25.551  1.00  0.00     0.159 HD
BRANCH  23  25
HETATM   25  C7  UNL     1      10.126   6.822  27.143  1.00  0.00     0.094 C 
BRANCH  25  26
HETATM   26  C8  UNL     1      10.026   5.399  26.701  1.00  0.00    -0.021 A 
HETATM   27  C9  UNL     1      10.912   4.468  27.188  1.00  0.00     0.013 A 
HETATM   28  C10 UNL     1      10.856   3.131  26.801  1.00  0.00     0.001 A 
HETATM   29  C11 UNL     1       9.900   2.717  25.912  1.00  0.00     0.000 A 
HETATM   30  C12 UNL     1       9.010   3.643  25.421  1.00  0.00     0.001 A 
HETATM   31  C13 UNL     1       9.064   4.989  25.808  1.00  0.00     0.013 A 
ENDBRANCH  25  26
ENDBRANCH  23  25
ENDBRANCH  22  23
ENDBRANCH   2  22
BRANCH   5  32
HETATM   32  O5  UNL     1       5.847  11.985  26.855  1.00  0.00    -0.392 OA
ATOM     33  H5  UNL     1       4.909  12.122  26.809  1.00  0.00     0.210 HD
ENDBRANCH   5  32
BRANCH   4  34
HETATM   34  C15 UNL     1       4.905   9.062  28.717  1.00  0.00     0.198 C 
BRANCH  34  35
HETATM   35  O4  UNL     1       4.755   7.685  28.573  1.00  0.00    -0.398 OA
ATOM     36  H4  UNL     1       4.458   7.462  27.698  1.00  0.00     0.209 HD
ENDBRANCH  34  35
ENDBRANCH   4  34
TORSDOF 12
ENDMDL
MODEL 2
REMARK VINA RESULT: -7.719734206      4.144      8.226
REMARK  12 active torsions:
REMARK  status: ('A' for Active; 'I' for Inactive)
REMARK    1  A    between atoms: C1_2  and  C2_4 
REMARK    2  A    between atoms: C3_6  and  S1_7 
REMARK    3  A    between atoms: S1_7  and  C4_8 
REMARK    4  A    between atoms: C5_9  and  C6_10 
REMARK    5  A    between atoms: C6_10  and  N2_11 
REMARK    6  A    between atoms: N2_11  and  C7_13 
REMARK    7  A    between atoms: C7_13  and  C8_14 
REMARK    8  A    between atoms: C14_21  and  C15_22 
REMARK    9  A    between atoms: C15_22  and  O4_23 
REMARK   10  A    between atoms: C16_25  and  O5_26 
REMARK   11  A    between atoms: C18_30  and  O7_31 
REMARK   12  A    between atoms: C20_34  and  O8_35 
ROOT
HETATM    1  C4  UNL     1       5.977   8.250  29.562  1.00  0.00     0.114 C 
HETATM    2  C5  UNL     1       7.241   9.002  29.315  1.00  0.00     0.156 C 
HETATM    3  O3  UNL     1       6.959   9.983  28.422  1.00  0.00    -0.373 OA
HETATM    4  C14 UNL     1       5.681   9.914  27.959  1.00  0.00     0.175 C 
HETATM    5  C16 UNL     1       4.913   8.993  28.839  1.00  0.00     0.165 C 
ENDROOT
BRANCH   1   6
HETATM    6  S1  UNL     1       5.586   8.016  31.318  1.00  0.00    -0.100 SA
BRANCH   6   7
HETATM    7  C3  UNL     1       4.966   6.332  31.525  1.00  0.00     0.328 C 
HETATM    8  O2  UNL     1       4.265   6.037  30.344  1.00  0.00    -0.326 OA
HETATM    9  C2  UNL     1       3.059   5.484  30.685  1.00  0.00     0.196 C 
HETATM   10  C17 UNL     1       3.287   5.119  32.134  1.00  0.00     0.200 C 
HETATM   11  C20 UNL     1       1.927   6.481  30.793  1.00  0.00     0.167 C 
HETATM   12  O6  UNL     1       4.011   6.258  32.546  1.00  0.00    -0.341 OA
HETATM   13  C18 UNL     1       1.934   5.076  32.781  1.00  0.00     0.153 C 
HETATM   14  C19 UNL     1       1.080   5.996  31.965  1.00  0.00     0.069 C 
BRANCH   9  15
HETATM   15  C1  UNL     1       2.771   4.355  29.809  1.00  0.00     0.271 C 
HETATM   16  N1  UNL     1       3.206   3.054  30.158  1.00  0.00    -0.059 NA
HETATM   17  O1  UNL     1       2.140   4.491  28.732  1.00  0.00    -0.273 OA
ENDBRANCH   9  15
BRANCH  13  18
HETATM   18  O7  UNL     1       1.434   3.794  32.760  1.00  0.00    -0.393 OA
ATOM     19  H7  UNL     1       0.661   3.732  33.308  1.00  0.00     0.210 HD
ENDBRANCH  13  18
BRANCH  11  20
HETATM   20  O8  UNL     1       2.443   7.736  31.143  1.00  0.00    -0.392 OA
ATOM     21  H8  UNL     1       2.582   7.769  32.083  1.00  0.00     0.210 HD
ENDBRANCH  11  20
ENDBRANCH   6   7
ENDBRANCH   1   6
BRANCH   2  22
HETATM   22  C6  UNL     1       8.293   8.019  28.859  1.00  0.00     0.152 C 
BRANCH  22  23
HETATM   23  N2  UNL     1       7.888   6.968  28.002  1.00  0.00    -0.396 N 
ATOM     24  H2  UNL     1       7.104   6.352  28.217  1.00  0.00     0.159 HD
BRANCH  23  25
HETATM   25  C7  UNL     1       8.655   6.841  26.829  1.00  0.00     0.094 C 
BRANCH  25  26
HETATM   26  C8  UNL     1       9.285   5.495  26.679  1.00  0.00    -0.021 A 
HETATM   27  C9  UNL     1       8.829   4.630  25.713  1.00  0.00     0.013 A 
HETATM   28  C10 UNL     1       9.387   3.365  25.540  1.00  0.00     0.001 A 
HETATM   29  C11 UNL     1      10.417   2.958  26.346  1.00  0.00     0.000 A 
HETATM   30  C12 UNL     1      10.879   3.818  27.314  1.00  0.00     0.001 A 
HETATM   31  C13 UNL     1      10.319   5.091  27.491  1.00  0.00     0.013 A 
ENDBRANCH  25  26
ENDBRANCH  23  25
ENDBRANCH  22  23
ENDBRANCH   2  22
BRANCH   5  32
HETATM   32  O5  UNL     1       4.039   9.659  29.695  1.00  0.00    -0.392 OA
ATOM     33  H5  UNL     1       3.178   9.789  29.317  1.00  0.00     0.210 HD
ENDBRANCH   5  32
BRANCH   4  34
HETATM   34  C15 UNL     1       5.711   9.392  26.528  1.00  0.00     0.198 C 
BRANCH  34  35
HETATM   35  O4  UNL     1       5.272   8.071  26.466  1.00  0.00    -0.398 OA
ATOM     36  H4  UNL     1       5.762   7.518  27.063  1.00  0.00     0.209 HD
ENDBRANCH  34  35
ENDBRANCH   4  34
TORSDOF 12
ENDMDL
MODEL 3
REMARK VINA RESULT: -7.673832078      3.704      6.946
REMARK  12 active torsions:
REMARK  status: ('A' for Active; 'I' for Inactive)
REMARK    1  A    between atoms: C1_2  and  C2_4 
REMARK    2  A    between atoms: C3_6  and  S1_7 
REMARK    3  A    between atoms: S1_7  and  C4_8 
REMARK    4  A    between atoms: C5_9  and  C6_10 
REMARK    5  A    between atoms: C6_10  and  N2_11 
REMARK    6  A    between atoms: N2_11  and  C7_13 
REMARK    7  A    between atoms: C7_13  and  C8_14 
REMARK    8  A    between atoms: C14_21  and  C15_22 
REMARK    9  A    between atoms: C15_22  and  O4_23 
REMARK   10  A    between atoms: C16_25  and  O5_26 
REMARK   11  A    between atoms: C18_30  and  O7_31 
REMARK   12  A    between atoms: C20_34  and  O8_35 
ROOT
HETATM    1  C4  UNL     1       7.479   8.752  29.133  1.00  0.00     0.114 C 
HETATM    2  C5  UNL     1       8.276   9.767  28.386  1.00  0.00     0.156 C 
HETATM    3  O3  UNL     1       7.411  10.481  27.626  1.00  0.00    -0.373 OA
HETATM    4  C14 UNL     1       6.139  10.001  27.692  1.00  0.00     0.175 C 
HETATM    5  C16 UNL     1       6.054   9.059  28.840  1.00  0.00     0.165 C 
ENDROOT
BRANCH   1   6
HETATM    6  S1  UNL     1       7.823   8.703  30.913  1.00  0.00    -0.100 SA
BRANCH   6   7
HETATM    7  C3  UNL     1       7.743   6.978  31.443  1.00  0.00     0.328 C 
HETATM    8  O2  UNL     1       6.612   6.438  30.809  1.00  0.00    -0.326 OA
HETATM    9  C2  UNL     1       5.886   5.744  31.741  1.00  0.00     0.196 C 
HETATM   10  C17 UNL     1       6.890   5.593  32.862  1.00  0.00     0.200 C 
HETATM   11  C20 UNL     1       4.798   6.553  32.410  1.00  0.00     0.167 C 
HETATM   12  O6  UNL     1       7.481   6.873  32.814  1.00  0.00    -0.341 OA
HETATM   13  C18 UNL     1       6.097   5.411  34.123  1.00  0.00     0.153 C 
HETATM   14  C19 UNL     1       4.784   6.081  33.860  1.00  0.00     0.069 C 
BRANCH   9  15
HETATM   15  C1  UNL     1       5.420   4.488  31.166  1.00  0.00     0.271 C 
HETATM   16  N1  UNL     1       6.233   3.331  31.229  1.00  0.00    -0.059 NA
HETATM   17  O1  UNL     1       4.304   4.388  30.602  1.00  0.00    -0.273 OA
ENDBRANCH   9  15
BRANCH  13  18
HETATM   18  O7  UNL     1       5.922   4.072  34.389  1.00  0.00    -0.393 OA
ATOM     19  H7  UNL     1       5.004   3.884  34.544  1.00  0.00     0.210 HD
ENDBRANCH  13  18
BRANCH  11  20
HETATM   20  O8  UNL     1       5.160   7.906  32.418  1.00  0.00    -0.392 OA
ATOM     21  H8  UNL     1       5.404   8.164  33.299  1.00  0.00     0.210 HD
ENDBRANCH  11  20
ENDBRANCH   6   7
ENDBRANCH   1   6
BRANCH   2  22
HETATM   22  C6  UNL     1       9.349   9.042  27.607  1.00  0.00     0.152 C 
BRANCH  22  23
HETATM   23  N2  UNL     1       9.114   7.689  27.261  1.00  0.00    -0.396 N 
ATOM     24  H2  UNL     1       8.230   7.366  26.868  1.00  0.00     0.159 HD
BRANCH  23  25
HETATM   25  C7  UNL     1      10.198   6.826  27.503  1.00  0.00     0.094 C 
BRANCH  25  26
HETATM   26  C8  UNL     1      10.021   5.472  26.898  1.00  0.00    -0.021 A 
HETATM   27  C9  UNL     1      10.840   4.439  27.284  1.00  0.00     0.013 A 
HETATM   28  C10 UNL     1      10.710   3.160  26.743  1.00  0.00     0.001 A 
HETATM   29  C11 UNL     1       9.747   2.912  25.802  1.00  0.00     0.000 A 
HETATM   30  C12 UNL     1       8.924   3.941  25.411  1.00  0.00     0.001 A 
HETATM   31  C13 UNL     1       9.051   5.229  25.953  1.00  0.00     0.013 A 
ENDBRANCH  25  26
ENDBRANCH  23  25
ENDBRANCH  22  23
ENDBRANCH   2  22
BRANCH   5  32
HETATM   32  O5  UNL     1       5.379   9.594  29.935  1.00  0.00    -0.392 OA
ATOM     33  H5  UNL     1       4.736  10.249  29.689  1.00  0.00     0.210 HD
ENDBRANCH   5  32
BRANCH   4  34
HETATM   34  C15 UNL     1       5.822   9.286  26.385  1.00  0.00     0.198 C 
BRANCH  34  35
HETATM   35  O4  UNL     1       5.245   8.040  26.620  1.00  0.00    -0.398 OA
ATOM     36  H4  UNL     1       5.907   7.360  26.675  1.00  0.00     0.209 HD
ENDBRANCH  34  35
ENDBRANCH   4  34
TORSDOF 12
ENDMDL
MODEL 4
REMARK VINA RESULT: -7.605075340      3.773      7.018
REMARK  12 active torsions:
REMARK  status: ('A' for Active; 'I' for Inactive)
REMARK    1  A    between atoms: C1_2  and  C2_4 
REMARK    2  A    between atoms: C3_6  and  S1_7 
REMARK    3  A    between atoms: S1_7  and  C4_8 
REMARK    4  A    between atoms: C5_9  and  C6_10 
REMARK    5  A    between atoms: C6_10  and  N2_11 
REMARK    6  A    between atoms: N2_11  and  C7_13 
REMARK    7  A    between atoms: C7_13  and  C8_14 
REMARK    8  A    between atoms: C14_21  and  C15_22 
REMARK    9  A    between atoms: C15_22  and  O4_23 
REMARK   10  A    between atoms: C16_25  and  O5_26 
REMARK   11  A    between atoms: C18_30  and  O7_31 
REMARK   12  A    between atoms: C20_34  and  O8_35 
ROOT
HETATM    1  C4  UNL     1       7.492   8.721  29.111  1.00  0.00     0.114 C 
HETATM    2  C5  UNL     1       8.298   9.730  28.366  1.00  0.00     0.156 C 
HETATM    3  O3  UNL     1       7.435  10.466  27.622  1.00  0.00    -0.373 OA
HETATM    4  C14 UNL     1       6.157  10.004  27.698  1.00  0.00     0.175 C 
HETATM    5  C16 UNL     1       6.070   9.052  28.837  1.00  0.00     0.165 C 
ENDROOT
BRANCH   1   6
HETATM    6  S1  UNL     1       7.855   8.648  30.887  1.00  0.00    -0.100 SA
BRANCH   6   7
HETATM    7  C3  UNL     1       7.735   6.922  31.405  1.00  0.00     0.328 C 
HETATM    8  O2  UNL     1       6.565   6.426  30.805  1.00  0.00    -0.326 OA
HETATM    9  C2  UNL     1       5.848   5.747  31.755  1.00  0.00     0.196 C 
HETATM   10  C17 UNL     1       6.883   5.552  32.839  1.00  0.00     0.200 C 
HETATM   11  C20 UNL     1       4.811   6.586  32.466  1.00  0.00     0.167 C 
HETATM   12  O6  UNL     1       7.515   6.813  32.782  1.00  0.00    -0.341 OA
HETATM   13  C18 UNL     1       6.128   5.385  34.125  1.00  0.00     0.153 C 
HETATM   14  C19 UNL     1       4.829   6.100  33.912  1.00  0.00     0.069 C 
BRANCH   9  15
HETATM   15  C1  UNL     1       5.322   4.514  31.184  1.00  0.00     0.271 C 
HETATM   16  N1  UNL     1       4.056   4.506  30.550  1.00  0.00    -0.059 NA
HETATM   17  O1  UNL     1       5.957   3.433  31.234  1.00  0.00    -0.273 OA
ENDBRANCH   9  15
BRANCH  13  18
HETATM   18  O7  UNL     1       5.916   4.050  34.385  1.00  0.00    -0.393 OA
ATOM     19  H7  UNL     1       5.452   3.642  33.664  1.00  0.00     0.210 HD
ENDBRANCH  13  18
BRANCH  11  20
HETATM   20  O8  UNL     1       5.219   7.926  32.473  1.00  0.00    -0.392 OA
ATOM     21  H8  UNL     1       4.665   8.429  31.887  1.00  0.00     0.210 HD
ENDBRANCH  11  20
ENDBRANCH   6   7
ENDBRANCH   1   6
BRANCH   2  22
HETATM   22  C6  UNL     1       9.350   8.997  27.568  1.00  0.00     0.152 C 
BRANCH  22  23
HETATM   23  N2  UNL     1       9.098   7.646  27.226  1.00  0.00    -0.396 N 
ATOM     24  H2  UNL     1       8.287   7.359  26.678  1.00  0.00     0.159 HD
BRANCH  23  25
HETATM   25  C7  UNL     1      10.056   6.733  27.702  1.00  0.00     0.094 C 
BRANCH  25  26
HETATM   26  C8  UNL     1       9.980   5.397  27.037  1.00  0.00    -0.021 A 
HETATM   27  C9  UNL     1       9.044   5.175  26.056  1.00  0.00     0.013 A 
HETATM   28  C10 UNL     1       8.938   3.943  25.412  1.00  0.00     0.001 A 
HETATM   29  C11 UNL     1       9.780   2.919  25.755  1.00  0.00     0.000 A 
HETATM   30  C12 UNL     1      10.718   3.135  26.736  1.00  0.00     0.001 A 
HETATM   31  C13 UNL     1      10.828   4.372  27.386  1.00  0.00     0.013 A 
ENDBRANCH  25  26
ENDBRANCH  23  25
ENDBRANCH  22  23
ENDBRANCH   2  22
BRANCH   5  32
HETATM   32  O5  UNL     1       5.414   9.587  29.945  1.00  0.00    -0.392 OA
ATOM     33  H5  UNL     1       4.703  10.169  29.707  1.00  0.00     0.210 HD
ENDBRANCH   5  32
BRANCH   4  34
HETATM   34  C15 UNL     1       5.815   9.307  26.387  1.00  0.00     0.198 C 
BRANCH  34  35
HETATM   35  O4  UNL     1       5.237   8.061  26.616  1.00  0.00    -0.398 OA
ATOM     36  H4  UNL     1       4.299   8.137  26.751  1.00  0.00     0.209 HD
ENDBRANCH  34  35
ENDBRANCH   4  34
TORSDOF 12
ENDMDL
MODEL 5
REMARK VINA RESULT: -7.569542741      4.356      7.326
REMARK  12 active torsions:
REMARK  status: ('A' for Active; 'I' for Inactive)
REMARK    1  A    between atoms: C1_2  and  C2_4 
REMARK    2  A    between atoms: C3_6  and  S1_7 
REMARK    3  A    between atoms: S1_7  and  C4_8 
REMARK    4  A    between atoms: C5_9  and  C6_10 
REMARK    5  A    between atoms: C6_10  and  N2_11 
REMARK    6  A    between atoms: N2_11  and  C7_13 
REMARK    7  A    between atoms: C7_13  and  C8_14 
REMARK    8  A    between atoms: C14_21  and  C15_22 
REMARK    9  A    between atoms: C15_22  and  O4_23 
REMARK   10  A    between atoms: C16_25  and  O5_26 
REMARK   11  A    between atoms: C18_30  and  O7_31 
REMARK   12  A    between atoms: C20_34  and  O8_35 
ROOT
HETATM    1  C4  UNL     1       6.529   8.401  29.297  1.00  0.00     0.114 C 
HETATM    2  C5  UNL     1       7.687   9.210  28.817  1.00  0.00     0.156 C 
HETATM    3  O3  UNL     1       7.197  10.163  27.987  1.00  0.00    -0.373 OA
HETATM    4  C14 UNL     1       5.860  10.027  27.768  1.00  0.00     0.175 C 
HETATM    5  C16 UNL     1       5.314   9.082  28.779  1.00  0.00     0.165 C 
ENDROOT
BRANCH   1   6
HETATM    6  S1  UNL     1       6.479   8.172  31.096  1.00  0.00    -0.100 SA
BRANCH   6   7
HETATM    7  C3  UNL     1       7.164   6.542  31.464  1.00  0.00     0.328 C 
HETATM    8  O2  UNL     1       6.125   5.629  31.215  1.00  0.00    -0.326 OA
HETATM    9  C2  UNL     1       6.049   4.764  32.275  1.00  0.00     0.196 C 
HETATM   10  C17 UNL     1       7.375   5.001  32.961  1.00  0.00     0.200 C 
HETATM   11  C20 UNL     1       5.068   5.180  33.347  1.00  0.00     0.167 C 
HETATM   12  O6  UNL     1       7.455   6.404  32.826  1.00  0.00    -0.341 OA
HETATM   13  C18 UNL     1       7.190   4.606  34.397  1.00  0.00     0.153 C 
HETATM   14  C19 UNL     1       5.727   4.782  34.665  1.00  0.00     0.069 C 
BRANCH   9  15
HETATM   15  C1  UNL     1       5.849   3.405  31.786  1.00  0.00     0.271 C 
HETATM   16  N1  UNL     1       4.618   3.036  31.193  1.00  0.00    -0.059 NA
HETATM   17  O1  UNL     1       6.743   2.528  31.871  1.00  0.00    -0.273 OA
ENDBRANCH   9  15
BRANCH  13  18
HETATM   18  O7  UNL     1       7.570   3.297  34.586  1.00  0.00    -0.393 OA
ATOM     19  H7  UNL     1       7.355   3.015  35.467  1.00  0.00     0.210 HD
ENDBRANCH  13  18
BRANCH  11  20
HETATM   20  O8  UNL     1       4.944   6.576  33.350  1.00  0.00    -0.392 OA
ATOM     21  H8  UNL     1       4.119   6.819  33.754  1.00  0.00     0.210 HD
ENDBRANCH  11  20
ENDBRANCH   6   7
ENDBRANCH   1   6
BRANCH   2  22
HETATM   22  C6  UNL     1       8.684   8.271  28.180  1.00  0.00     0.152 C 
BRANCH  22  23
HETATM   23  N2  UNL     1       8.186   7.103  27.554  1.00  0.00    -0.396 N 
ATOM     24  H2  UNL     1       7.428   6.547  27.948  1.00  0.00     0.159 HD
BRANCH  23  25
HETATM   25  C7  UNL     1       8.822   6.771  26.344  1.00  0.00     0.094 C 
BRANCH  25  26
HETATM   26  C8  UNL     1       9.389   5.389  26.335  1.00  0.00    -0.021 A 
HETATM   27  C9  UNL     1      10.503   5.102  27.087  1.00  0.00     0.013 A 
HETATM   28  C10 UNL     1      11.065   3.827  27.107  1.00  0.00     0.001 A 
HETATM   29  C11 UNL     1      10.506   2.824  26.361  1.00  0.00     0.000 A 
HETATM   30  C12 UNL     1       9.391   3.103  25.606  1.00  0.00     0.001 A 
HETATM   31  C13 UNL     1       8.823   4.385  25.585  1.00  0.00     0.013 A 
ENDBRANCH  25  26
ENDBRANCH  23  25
ENDBRANCH  22  23
ENDBRANCH   2  22
BRANCH   5  32
HETATM   32  O5  UNL     1       4.581   9.718  29.779  1.00  0.00    -0.392 OA
ATOM     33  H5  UNL     1       5.099   9.908  30.552  1.00  0.00     0.210 HD
ENDBRANCH   5  32
BRANCH   4  34
HETATM   34  C15 UNL     1       5.652   9.488  26.359  1.00  0.00     0.198 C 
BRANCH  34  35
HETATM   35  O4  UNL     1       5.276   8.146  26.384  1.00  0.00    -0.398 OA
ATOM     36  H4  UNL     1       4.443   8.032  26.828  1.00  0.00     0.209 HD
ENDBRANCH  34  35
ENDBRANCH   4  34
TORSDOF 12
ENDMDL
