MODEL 1
REMARK VINA RESULT: -6.372352108      0.000      0.000
REMARK  12 active torsions:
REMARK  status: ('A' for Active; 'I' for Inactive)
REMARK    1  A    between atoms: C2_2  and  N1_4 
REMARK    2  A    between atoms: N1_4  and  C4_6 
REMARK    3  A    between atoms: C8_10  and  O1_11 
REMARK    4  A    between atoms: O1_11  and  C9_12 
REMARK    5  A    between atoms: C12_16  and  O3_17 
REMARK    6  A    between atoms: C13_19  and  O4_20 
REMARK    7  A    between atoms: C14_22  and  N2_23 
REMARK    8  A    between atoms: C15_27  and  O5_28 
REMARK    9  A    between atoms: O5_28  and  C16_29 
REMARK   10  A    between atoms: C19_32  and  C20_33 
REMARK   11  A    between atoms: C20_33  and  N3_34 
REMARK   12  A    between atoms: C21_39  and  O7_40 
ROOT
HETATM    1  C4  UNL     1       7.470   8.388  28.138  1.00  0.00     0.108 C 
HETATM    2  C5  UNL     1       8.121   9.478  28.914  1.00  0.00     0.034 C 
HETATM    3  C6  UNL     1       9.470   9.094  29.486  1.00  0.00     0.015 C 
HETATM    4  C7  UNL     1       9.299   8.094  30.611  1.00  0.00     0.012 C 
HETATM    5  C8  UNL     1      10.448   8.627  28.450  1.00  0.00     0.160 C 
HETATM    6  C15 UNL     1       9.804   7.874  27.308  1.00  0.00     0.184 C 
HETATM    7  C21 UNL     1       8.439   7.328  27.686  1.00  0.00     0.172 C 
ENDROOT
BRANCH   5   8
HETATM    8  O1  UNL     1      11.145   9.755  27.969  1.00  0.00    -0.351 OA
BRANCH   8   9
HETATM    9  C9  UNL     1      10.866  10.023  26.655  1.00  0.00     0.293 C 
HETATM   10  O2  UNL     1       9.906  10.958  26.416  1.00  0.00    -0.351 OA
HETATM   11  C10 UNL     1      10.170  12.252  26.732  1.00  0.00     0.152 C 
HETATM   12  C11 UNL     1       9.628  12.602  28.128  1.00  0.00     0.042 C 
HETATM   13  C12 UNL     1      11.559  12.738  26.551  1.00  0.00     0.177 C 
HETATM   14  C13 UNL     1      12.598  11.734  26.263  1.00  0.00     0.184 C 
HETATM   15  C14 UNL     1      12.084  10.385  25.840  1.00  0.00     0.269 C 
BRANCH  13  16
HETATM   16  O3  UNL     1      11.658  13.754  25.570  1.00  0.00    -0.390 OA
ATOM     17  H3  UNL     1      12.210  14.476  25.845  1.00  0.00     0.210 HD
ENDBRANCH  13  16
BRANCH  14  18
HETATM   18  O4  UNL     1      13.481  12.162  25.258  1.00  0.00    -0.391 OA
ATOM     19  H4  UNL     1      14.346  12.357  25.601  1.00  0.00     0.210 HD
ENDBRANCH  14  18
BRANCH  15  20
HETATM   20  N2  UNL     1      11.649  10.498  24.455  1.00  0.00    -0.068 N 
ATOM     21  H23 UNL     1      12.348  10.172  23.787  1.00  0.00     0.275 HD
ATOM     22  H22 UNL     1      10.915   9.833  24.210  1.00  0.00     0.275 HD
ATOM     23  H21 UNL     1      11.376  11.470  24.309  1.00  0.00     0.275 HD
ENDBRANCH  15  20
ENDBRANCH   8   9
ENDBRANCH   5   8
BRANCH   6  24
HETATM   24  O5  UNL     1      10.545   6.758  26.958  1.00  0.00    -0.351 OA
BRANCH  24  25
HETATM   25  C16 UNL     1      10.904   5.932  27.962  1.00  0.00     0.261 C 
HETATM   26  C17 UNL     1      12.314   5.465  27.985  1.00  0.00     0.063 C 
HETATM   27  C18 UNL     1      12.276   4.197  27.179  1.00  0.00     0.038 C 
HETATM   28  C19 UNL     1      10.836   3.813  27.242  1.00  0.00     0.150 C 
HETATM   29  O6  UNL     1      10.101   4.775  27.856  1.00  0.00    -0.354 OA
BRANCH  28  30
HETATM   30  C20 UNL     1      10.375   3.587  25.795  1.00  0.00     0.261 C 
BRANCH  30  31
HETATM   31  N3  UNL     1       9.092   4.219  25.590  1.00  0.00    -0.077 N 
ATOM     32  H33 UNL     1       8.324   3.549  25.619  1.00  0.00     0.274 HD
ATOM     33  H32 UNL     1       8.815   4.795  26.386  1.00  0.00     0.274 HD
ATOM     34  H31 UNL     1       9.107   4.749  24.718  1.00  0.00     0.274 HD
ENDBRANCH  30  31
ENDBRANCH  28  30
ENDBRANCH  24  25
ENDBRANCH   6  24
BRANCH   7  35
HETATM   35  O7  UNL     1       7.884   6.731  26.556  1.00  0.00    -0.391 OA
ATOM     36  H7  UNL     1       7.964   7.358  25.847  1.00  0.00     0.210 HD
ENDBRANCH   7  35
BRANCH   1  37
HETATM   37  N1  UNL     1       6.407   7.694  28.835  1.00  0.00    -0.411 N 
ATOM     38  H1  UNL     1       6.142   6.735  28.611  1.00  0.00     0.154 HD
BRANCH  37  39
HETATM   39  C2  UNL     1       5.757   8.445  29.856  1.00  0.00     0.068 C 
HETATM   40  C1  UNL     1       4.346   8.798  29.372  1.00  0.00     0.031 C 
HETATM   41  C3  UNL     1       5.530   7.504  31.044  1.00  0.00     0.031 C 
ENDBRANCH  37  39
ENDBRANCH   1  37
TORSDOF 12
ENDMDL
MODEL 2
REMARK VINA RESULT: -6.335137582      3.251      7.922
REMARK  12 active torsions:
REMARK  status: ('A' for Active; 'I' for Inactive)
REMARK    1  A    between atoms: C2_2  and  N1_4 
REMARK    2  A    between atoms: N1_4  and  C4_6 
REMARK    3  A    between atoms: C8_10  and  O1_11 
REMARK    4  A    between atoms: O1_11  and  C9_12 
REMARK    5  A    between atoms: C12_16  and  O3_17 
REMARK    6  A    between atoms: C13_19  and  O4_20 
REMARK    7  A    between atoms: C14_22  and  N2_23 
REMARK    8  A    between atoms: C15_27  and  O5_28 
REMARK    9  A    between atoms: O5_28  and  C16_29 
REMARK   10  A    between atoms: C19_32  and  C20_33 
REMARK   11  A    between atoms: C20_33  and  N3_34 
REMARK   12  A    between atoms: C21_39  and  O7_40 
ROOT
HETATM    1  C4  UNL     1       9.005   5.356  27.573  1.00  0.00     0.108 C 
HETATM    2  C5  UNL     1       9.305   4.767  28.906  1.00  0.00     0.034 C 
HETATM    3  C6  UNL     1       9.715   5.792  29.943  1.00  0.00     0.015 C 
HETATM    4  C7  UNL     1      11.093   6.338  29.628  1.00  0.00     0.012 C 
HETATM    5  C8  UNL     1       8.702   6.879  30.144  1.00  0.00     0.160 C 
HETATM    6  C15 UNL     1       7.959   7.251  28.881  1.00  0.00     0.184 C 
HETATM    7  C21 UNL     1       8.713   6.832  27.633  1.00  0.00     0.172 C 
ENDROOT
BRANCH   5   8
HETATM    8  O1  UNL     1       7.801   6.455  31.143  1.00  0.00    -0.351 OA
BRANCH   8   9
HETATM    9  C9  UNL     1       6.696   5.834  30.623  1.00  0.00     0.293 C 
HETATM   10  O2  UNL     1       6.687   4.473  30.666  1.00  0.00    -0.351 OA
HETATM   11  C10 UNL     1       6.590   3.865  31.875  1.00  0.00     0.152 C 
HETATM   12  C11 UNL     1       7.980   3.494  32.423  1.00  0.00     0.042 C 
HETATM   13  C12 UNL     1       5.754   4.516  32.912  1.00  0.00     0.177 C 
HETATM   14  C13 UNL     1       5.276   5.883  32.639  1.00  0.00     0.184 C 
HETATM   15  C14 UNL     1       5.394   6.328  31.207  1.00  0.00     0.269 C 
BRANCH  13  16
HETATM   16  O3  UNL     1       4.632   3.733  33.279  1.00  0.00    -0.390 OA
ATOM     17  H3  UNL     1       3.941   4.249  33.678  1.00  0.00     0.210 HD
ENDBRANCH  13  16
BRANCH  14  18
HETATM   18  O4  UNL     1       3.932   6.055  33.006  1.00  0.00    -0.391 OA
ATOM     19  H4  UNL     1       3.638   6.950  32.880  1.00  0.00     0.210 HD
ENDBRANCH  14  18
BRANCH  15  20
HETATM   20  N2  UNL     1       4.324   5.683  30.460  1.00  0.00    -0.068 N 
ATOM     21  H23 UNL     1       3.714   6.346  29.980  1.00  0.00     0.275 HD
ATOM     22  H22 UNL     1       4.654   5.188  29.631  1.00  0.00     0.275 HD
ATOM     23  H21 UNL     1       3.826   5.081  31.115  1.00  0.00     0.275 HD
ENDBRANCH  15  20
ENDBRANCH   8   9
ENDBRANCH   5   8
BRANCH   6  24
HETATM   24  O5  UNL     1       7.821   8.624  28.764  1.00  0.00    -0.351 OA
BRANCH  24  25
HETATM   25  C16 UNL     1       6.601   9.134  29.035  1.00  0.00     0.261 C 
HETATM   26  C17 UNL     1       5.467   8.662  28.199  1.00  0.00     0.063 C 
HETATM   27  C18 UNL     1       5.440   9.643  27.061  1.00  0.00     0.038 C 
HETATM   28  C19 UNL     1       6.169  10.817  27.624  1.00  0.00     0.150 C 
HETATM   29  O6  UNL     1       6.684  10.531  28.847  1.00  0.00    -0.354 OA
BRANCH  28  30
HETATM   30  C20 UNL     1       7.271  11.177  26.616  1.00  0.00     0.261 C 
BRANCH  30  31
HETATM   31  N3  UNL     1       7.776   9.974  25.999  1.00  0.00    -0.077 N 
ATOM     32  H33 UNL     1       7.812   9.192  26.653  1.00  0.00     0.274 HD
ATOM     33  H32 UNL     1       7.115   9.577  25.331  1.00  0.00     0.274 HD
ATOM     34  H31 UNL     1       8.685  10.162  25.575  1.00  0.00     0.274 HD
ENDBRANCH  30  31
ENDBRANCH  28  30
ENDBRANCH  24  25
ENDBRANCH   6  24
BRANCH   7  35
HETATM   35  O7  UNL     1       7.920   7.131  26.528  1.00  0.00    -0.391 OA
ATOM     36  H7  UNL     1       8.352   7.838  26.063  1.00  0.00     0.210 HD
ENDBRANCH   7  35
BRANCH   1  37
HETATM   37  N1  UNL     1      10.049   5.189  26.583  1.00  0.00    -0.411 N 
ATOM     38  H1  UNL     1      10.229   5.883  25.857  1.00  0.00     0.154 HD
BRANCH  37  39
HETATM   39  C2  UNL     1      10.806   3.988  26.695  1.00  0.00     0.068 C 
HETATM   40  C1  UNL     1      10.186   2.938  25.764  1.00  0.00     0.031 C 
HETATM   41  C3  UNL     1      12.190   4.261  26.095  1.00  0.00     0.031 C 
ENDBRANCH  37  39
ENDBRANCH   1  37
TORSDOF 12
ENDMDL
MODEL 3
REMARK VINA RESULT: -6.189217128      3.429      7.971
REMARK  12 active torsions:
REMARK  status: ('A' for Active; 'I' for Inactive)
REMARK    1  A    between atoms: C2_2  and  N1_4 
REMARK    2  A    between atoms: N1_4  and  C4_6 
REMARK    3  A    between atoms: C8_10  and  O1_11 
REMARK    4  A    between atoms: O1_11  and  C9_12 
REMARK    5  A    between atoms: C12_16  and  O3_17 
REMARK    6  A    between atoms: C13_19  and  O4_20 
REMARK    7  A    between atoms: C14_22  and  N2_23 
REMARK    8  A    between atoms: C15_27  and  O5_28 
REMARK    9  A    between atoms: O5_28  and  C16_29 
REMARK   10  A    between atoms: C19_32  and  C20_33 
REMARK   11  A    between atoms: C20_33  and  N3_34 
REMARK   12  A    between atoms: C21_39  and  O7_40 
ROOT
HETATM    1  C4  UNL     1       8.902   5.458  27.263  1.00  0.00     0.108 C 
HETATM    2  C5  UNL     1       8.982   4.675  28.525  1.00  0.00     0.034 C 
HETATM    3  C6  UNL     1       9.387   5.501  29.728  1.00  0.00     0.015 C 
HETATM    4  C7  UNL     1      10.845   5.903  29.625  1.00  0.00     0.012 C 
HETATM    5  C8  UNL     1       8.488   6.675  29.978  1.00  0.00     0.160 C 
HETATM    6  C15 UNL     1       7.938   7.294  28.712  1.00  0.00     0.184 C 
HETATM    7  C21 UNL     1       8.776   6.941  27.497  1.00  0.00     0.172 C 
ENDROOT
BRANCH   5   8
HETATM    8  O1  UNL     1       7.438   6.249  30.817  1.00  0.00    -0.351 OA
BRANCH   8   9
HETATM    9  C9  UNL     1       7.662   5.007  31.349  1.00  0.00     0.293 C 
HETATM   10  O2  UNL     1       8.262   4.969  32.571  1.00  0.00    -0.351 OA
HETATM   11  C10 UNL     1       7.568   5.420  33.647  1.00  0.00     0.152 C 
HETATM   12  C11 UNL     1       7.905   6.890  33.948  1.00  0.00     0.042 C 
HETATM   13  C12 UNL     1       6.104   5.182  33.674  1.00  0.00     0.177 C 
HETATM   14  C13 UNL     1       5.474   4.683  32.440  1.00  0.00     0.184 C 
HETATM   15  C14 UNL     1       6.426   4.142  31.409  1.00  0.00     0.269 C 
BRANCH  13  16
HETATM   16  O3  UNL     1       5.710   4.330  34.734  1.00  0.00    -0.390 OA
ATOM     17  H3  UNL     1       5.052   3.698  34.470  1.00  0.00     0.210 HD
ENDBRANCH  13  16
BRANCH  14  18
HETATM   18  O4  UNL     1       4.539   3.668  32.698  1.00  0.00    -0.391 OA
ATOM     19  H4  UNL     1       4.957   2.835  32.881  1.00  0.00     0.210 HD
ENDBRANCH  14  18
BRANCH  15  20
HETATM   20  N2  UNL     1       6.854   2.825  31.858  1.00  0.00    -0.068 N 
ATOM     21  H23 UNL     1       6.620   2.637  32.833  1.00  0.00     0.275 HD
ATOM     22  H22 UNL     1       6.311   2.065  31.447  1.00  0.00     0.275 HD
ATOM     23  H21 UNL     1       7.853   2.755  31.664  1.00  0.00     0.275 HD
ENDBRANCH  15  20
ENDBRANCH   8   9
ENDBRANCH   5   8
BRANCH   6  24
HETATM   24  O5  UNL     1       7.971   8.677  28.771  1.00  0.00    -0.351 OA
BRANCH  24  25
HETATM   25  C16 UNL     1       6.811   9.297  29.073  1.00  0.00     0.261 C 
HETATM   26  C17 UNL     1       5.557   8.654  28.603  1.00  0.00     0.063 C 
HETATM   27  C18 UNL     1       5.337   9.265  27.247  1.00  0.00     0.038 C 
HETATM   28  C19 UNL     1       6.144  10.518  27.319  1.00  0.00     0.150 C 
HETATM   29  O6  UNL     1       6.855  10.575  28.474  1.00  0.00    -0.354 OA
BRANCH  28  30
HETATM   30  C20 UNL     1       7.063  10.523  26.088  1.00  0.00     0.261 C 
BRANCH  30  31
HETATM   31  N3  UNL     1       8.441  10.603  26.513  1.00  0.00    -0.077 N 
ATOM     32  H33 UNL     1       9.067  10.837  25.743  1.00  0.00     0.274 HD
ATOM     33  H32 UNL     1       8.617  11.419  27.099  1.00  0.00     0.274 HD
ATOM     34  H31 UNL     1       8.708   9.732  26.974  1.00  0.00     0.274 HD
ENDBRANCH  30  31
ENDBRANCH  28  30
ENDBRANCH  24  25
ENDBRANCH   6  24
BRANCH   7  35
HETATM   35  O7  UNL     1       8.151   7.474  26.372  1.00  0.00    -0.391 OA
ATOM     36  H7  UNL     1       8.651   8.240  26.117  1.00  0.00     0.210 HD
ENDBRANCH   7  35
BRANCH   1  37
HETATM   37  N1  UNL     1      10.025   5.284  26.365  1.00  0.00    -0.411 N 
ATOM     38  H1  UNL     1      10.282   5.986  25.669  1.00  0.00     0.154 HD
BRANCH  37  39
HETATM   39  C2  UNL     1      10.746   4.066  26.521  1.00  0.00     0.068 C 
HETATM   40  C1  UNL     1      10.177   3.039  25.534  1.00  0.00     0.031 C 
HETATM   41  C3  UNL     1      12.177   4.313  26.032  1.00  0.00     0.031 C 
ENDBRANCH  37  39
ENDBRANCH   1  37
TORSDOF 12
ENDMDL
MODEL 4
REMARK VINA RESULT: -6.165464085      2.008      4.709
REMARK  12 active torsions:
REMARK  status: ('A' for Active; 'I' for Inactive)
REMARK    1  A    between atoms: C2_2  and  N1_4 
REMARK    2  A    between atoms: N1_4  and  C4_6 
REMARK    3  A    between atoms: C8_10  and  O1_11 
REMARK    4  A    between atoms: O1_11  and  C9_12 
REMARK    5  A    between atoms: C12_16  and  O3_17 
REMARK    6  A    between atoms: C13_19  and  O4_20 
REMARK    7  A    between atoms: C14_22  and  N2_23 
REMARK    8  A    between atoms: C15_27  and  O5_28 
REMARK    9  A    between atoms: O5_28  and  C16_29 
REMARK   10  A    between atoms: C19_32  and  C20_33 
REMARK   11  A    between atoms: C20_33  and  N3_34 
REMARK   12  A    between atoms: C21_39  and  O7_40 
ROOT
HETATM    1  C4  UNL     1      11.269   7.474  29.170  1.00  0.00     0.108 C 
HETATM    2  C5  UNL     1      12.286   7.916  28.178  1.00  0.00     0.034 C 
HETATM    3  C6  UNL     1      11.691   8.397  26.871  1.00  0.00     0.015 C 
HETATM    4  C7  UNL     1      11.117   7.230  26.093  1.00  0.00     0.012 C 
HETATM    5  C8  UNL     1      10.704   9.513  27.038  1.00  0.00     0.160 C 
HETATM    6  C15 UNL     1       9.899   9.421  28.314  1.00  0.00     0.184 C 
HETATM    7  C21 UNL     1       9.893   8.013  28.882  1.00  0.00     0.172 C 
ENDROOT
BRANCH   5   8
HETATM    8  O1  UNL     1      11.413  10.732  26.987  1.00  0.00    -0.351 OA
BRANCH   8   9
HETATM    9  C9  UNL     1      11.335  11.333  25.758  1.00  0.00     0.293 C 
HETATM   10  O2  UNL     1      10.494  12.399  25.655  1.00  0.00    -0.351 OA
HETATM   11  C10 UNL     1      10.815  13.543  26.311  1.00  0.00     0.152 C 
HETATM   12  C11 UNL     1      10.120  13.610  27.682  1.00  0.00     0.042 C 
HETATM   13  C12 UNL     1      12.250  13.902  26.412  1.00  0.00     0.177 C 
HETATM   14  C13 UNL     1      13.235  12.887  25.999  1.00  0.00     0.184 C 
HETATM   15  C14 UNL     1      12.677  11.742  25.200  1.00  0.00     0.269 C 
BRANCH  13  16
HETATM   16  O3  UNL     1      12.560  15.105  25.732  1.00  0.00    -0.390 OA
ATOM     17  H3  UNL     1      13.373  15.495  26.031  1.00  0.00     0.210 HD
ENDBRANCH  13  16
BRANCH  14  18
HETATM   18  O4  UNL     1      14.277  13.442  25.238  1.00  0.00    -0.391 OA
ATOM     19  H4  UNL     1      14.760  14.102  25.720  1.00  0.00     0.210 HD
ENDBRANCH  14  18
BRANCH  15  20
HETATM   20  N2  UNL     1      12.442  12.228  23.848  1.00  0.00    -0.068 N 
ATOM     21  H23 UNL     1      13.231  12.069  23.221  1.00  0.00     0.275 HD
ATOM     22  H22 UNL     1      11.757  11.672  23.335  1.00  0.00     0.275 HD
ATOM     23  H21 UNL     1      12.183  13.211  23.927  1.00  0.00     0.275 HD
ENDBRANCH  15  20
ENDBRANCH   8   9
ENDBRANCH   5   8
BRANCH   6  24
HETATM   24  O5  UNL     1       8.564   9.716  28.091  1.00  0.00    -0.351 OA
BRANCH  24  25
HETATM   25  C16 UNL     1       8.127   9.612  26.819  1.00  0.00     0.261 C 
HETATM   26  C17 UNL     1       7.350  10.754  26.273  1.00  0.00     0.063 C 
HETATM   27  C18 UNL     1       5.928  10.404  26.614  1.00  0.00     0.038 C 
HETATM   28  C19 UNL     1       5.996   8.928  26.820  1.00  0.00     0.150 C 
HETATM   29  O6  UNL     1       7.277   8.485  26.763  1.00  0.00    -0.354 OA
BRANCH  28  30
HETATM   30  C20 UNL     1       5.359   8.643  28.189  1.00  0.00     0.261 C 
BRANCH  30  31
HETATM   31  N3  UNL     1       6.252   7.827  28.978  1.00  0.00    -0.077 N 
ATOM     32  H33 UNL     1       6.694   7.094  28.423  1.00  0.00     0.274 HD
ATOM     33  H32 UNL     1       7.095   8.333  29.252  1.00  0.00     0.274 HD
ATOM     34  H31 UNL     1       5.750   7.451  29.783  1.00  0.00     0.274 HD
ENDBRANCH  30  31
ENDBRANCH  28  30
ENDBRANCH  24  25
ENDBRANCH   6  24
BRANCH   7  35
HETATM   35  O7  UNL     1       9.208   8.039  30.095  1.00  0.00    -0.391 OA
ATOM     36  H7  UNL     1       8.353   7.656  29.936  1.00  0.00     0.210 HD
ENDBRANCH   7  35
BRANCH   1  37
HETATM   37  N1  UNL     1      11.123   6.038  29.296  1.00  0.00    -0.411 N 
ATOM     38  H1  UNL     1      10.251   5.602  29.597  1.00  0.00     0.154 HD
BRANCH  37  39
HETATM   39  C2  UNL     1      12.283   5.279  28.971  1.00  0.00     0.068 C 
HETATM   40  C1  UNL     1      12.756   4.554  30.238  1.00  0.00     0.031 C 
HETATM   41  C3  UNL     1      11.845   4.153  28.028  1.00  0.00     0.031 C 
ENDBRANCH  37  39
ENDBRANCH   1  37
TORSDOF 12
ENDMDL
MODEL 5
REMARK VINA RESULT: -6.165294799      3.351      7.863
REMARK  12 active torsions:
REMARK  status: ('A' for Active; 'I' for Inactive)
REMARK    1  A    between atoms: C2_2  and  N1_4 
REMARK    2  A    between atoms: N1_4  and  C4_6 
REMARK    3  A    between atoms: C8_10  and  O1_11 
REMARK    4  A    between atoms: O1_11  and  C9_12 
REMARK    5  A    between atoms: C12_16  and  O3_17 
REMARK    6  A    between atoms: C13_19  and  O4_20 
REMARK    7  A    between atoms: C14_22  and  N2_23 
REMARK    8  A    between atoms: C15_27  and  O5_28 
REMARK    9  A    between atoms: O5_28  and  C16_29 
REMARK   10  A    between atoms: C19_32  and  C20_33 
REMARK   11  A    between atoms: C20_33  and  N3_34 
REMARK   12  A    between atoms: C21_39  and  O7_40 
ROOT
HETATM    1  C4  UNL     1       9.025   5.550  27.243  1.00  0.00     0.108 C 
HETATM    2  C5  UNL     1       8.898   4.715  28.467  1.00  0.00     0.034 C 
HETATM    3  C6  UNL     1       9.123   5.483  29.752  1.00  0.00     0.015 C 
HETATM    4  C7  UNL     1      10.584   5.859  29.893  1.00  0.00     0.012 C 
HETATM    5  C8  UNL     1       8.212   6.663  29.912  1.00  0.00     0.160 C 
HETATM    6  C15 UNL     1       7.873   7.344  28.605  1.00  0.00     0.184 C 
HETATM    7  C21 UNL     1       8.883   7.024  27.519  1.00  0.00     0.172 C 
ENDROOT
BRANCH   5   8
HETATM    8  O1  UNL     1       7.038   6.223  30.560  1.00  0.00    -0.351 OA
BRANCH   8   9
HETATM    9  C9  UNL     1       6.896   6.762  31.811  1.00  0.00     0.293 C 
HETATM   10  O2  UNL     1       5.655   6.691  32.366  1.00  0.00    -0.351 OA
HETATM   11  C10 UNL     1       5.174   5.473  32.721  1.00  0.00     0.152 C 
HETATM   12  C11 UNL     1       4.295   4.877  31.608  1.00  0.00     0.042 C 
HETATM   13  C12 UNL     1       6.138   4.475  33.245  1.00  0.00     0.177 C 
HETATM   14  C13 UNL     1       7.572   4.790  33.129  1.00  0.00     0.184 C 
HETATM   15  C14 UNL     1       7.888   6.227  32.816  1.00  0.00     0.269 C 
BRANCH  13  16
HETATM   16  O3  UNL     1       5.881   4.125  34.593  1.00  0.00    -0.390 OA
ATOM     17  H3  UNL     1       5.681   4.878  35.135  1.00  0.00     0.210 HD
ENDBRANCH  13  16
BRANCH  14  18
HETATM   18  O4  UNL     1       8.280   4.467  34.298  1.00  0.00    -0.391 OA
ATOM     19  H4  UNL     1       9.207   4.343  34.132  1.00  0.00     0.210 HD
ENDBRANCH  14  18
BRANCH  15  20
HETATM   20  N2  UNL     1       7.703   6.992  34.040  1.00  0.00    -0.068 N 
ATOM     21  H23 UNL     1       7.117   7.817  33.914  1.00  0.00     0.275 HD
ATOM     22  H22 UNL     1       7.114   6.518  34.725  1.00  0.00     0.275 HD
ATOM     23  H21 UNL     1       8.634   7.212  34.395  1.00  0.00     0.275 HD
ENDBRANCH  15  20
ENDBRANCH   8   9
ENDBRANCH   5   8
BRANCH   6  24
HETATM   24  O5  UNL     1       7.914   8.722  28.729  1.00  0.00    -0.351 OA
BRANCH  24  25
HETATM   25  C16 UNL     1       6.736   9.346  28.939  1.00  0.00     0.261 C 
HETATM   26  C17 UNL     1       5.531   8.750  28.307  1.00  0.00     0.063 C 
HETATM   27  C18 UNL     1       5.463   9.433  26.970  1.00  0.00     0.038 C 
HETATM   28  C19 UNL     1       6.273  10.667  27.192  1.00  0.00     0.150 C 
HETATM   29  O6  UNL     1       6.859  10.652  28.417  1.00  0.00    -0.354 OA
BRANCH  28  30
HETATM   30  C20 UNL     1       7.316  10.720  26.066  1.00  0.00     0.261 C 
BRANCH  30  31
HETATM   31  N3  UNL     1       8.643  10.658  26.632  1.00  0.00    -0.077 N 
ATOM     32  H33 UNL     1       8.907  11.530  27.091  1.00  0.00     0.274 HD
ATOM     33  H32 UNL     1       8.686  10.044  27.447  1.00  0.00     0.274 HD
ATOM     34  H31 UNL     1       9.311  10.386  25.910  1.00  0.00     0.274 HD
ENDBRANCH  30  31
ENDBRANCH  28  30
ENDBRANCH  24  25
ENDBRANCH   6  24
BRANCH   7  35
HETATM   35  O7  UNL     1       8.448   7.615  26.335  1.00  0.00    -0.391 OA
ATOM     36  H7  UNL     1       8.995   7.272  25.639  1.00  0.00     0.210 HD
ENDBRANCH   7  35
BRANCH   1  37
HETATM   37  N1  UNL     1      10.271   5.391  26.522  1.00  0.00    -0.411 N 
ATOM     38  H1  UNL     1      10.667   6.134  25.945  1.00  0.00     0.154 HD
BRANCH  37  39
HETATM   39  C2  UNL     1      10.904   4.124  26.674  1.00  0.00     0.068 C 
HETATM   40  C1  UNL     1      10.435   3.211  25.535  1.00  0.00     0.031 C 
HETATM   41  C3  UNL     1      12.400   4.325  26.411  1.00  0.00     0.031 C 
ENDBRANCH  37  39
ENDBRANCH   1  37
TORSDOF 12
ENDMDL
