MODEL 1
REMARK VINA RESULT: -7.803570926      0.000      0.000
REMARK  8 active torsions:
REMARK  status: ('A' for Active; 'I' for Inactive)
REMARK    1  A    between atoms: N1_1  and  N2_4 
REMARK       I    between atoms: N2_4  and  C1_6 
REMARK    2  A    between atoms: C1_6  and  C2_8 
REMARK    3  A    between atoms: C5_21  and  N5_22 
REMARK       I    between atoms: N5_22  and  C6_24 
REMARK       I    between atoms: C6_24  and  N6_26 
REMARK    4  A    between atoms: N6_26  and  C7_28 
REMARK    5  A    between atoms: C7_28  and  C8_29 
REMARK    6  A    between atoms: C8_29  and  C9_30 
REMARK    7  A    between atoms: C9_30  and  C10_31 
REMARK    8  A    between atoms: C10_31  and  C11_32 
ROOT
HETATM    1  C2  UNL     1      11.809  12.886  26.824  1.00  0.00     0.265 A 
HETATM    2  N3  UNL     1      11.524  13.765  25.656  1.00  0.00    -0.260 N 
ATOM      3  H3  UNL     1      10.590  14.005  25.322  1.00  0.00     0.177 HD
HETATM    4  S1  UNL     1      12.987  14.315  24.955  1.00  0.00     0.359 S 
HETATM    5  O2  UNL     1      14.201  13.749  25.626  1.00  0.00    -0.176 OA
HETATM    6  O3  UNL     1      13.000  13.909  23.509  1.00  0.00    -0.176 OA
HETATM    7  O4  UNL     1      13.074  16.003  25.011  1.00  0.00    -0.257 OA
HETATM    8  C3  UNL     1      14.204  16.383  25.759  1.00  0.00     0.219 C 
HETATM    9  C4  UNL     1      14.051  16.000  27.218  1.00  0.00     0.214 C 
HETATM   10  O5  UNL     1      12.776  15.639  27.565  1.00  0.00    -0.307 OA
HETATM   11  S2  UNL     1      13.006  13.616  28.002  1.00  0.00     0.059 SA
HETATM   12  N4  UNL     1      11.115  13.210  28.863  1.00  0.00    -0.301 N 
ATOM     13  H4  UNL     1      10.684  13.313  29.781  1.00  0.00     0.176 HD
HETATM   14  C5  UNL     1      10.764  12.789  27.740  1.00  0.00     0.145 A 
ENDROOT
BRANCH  14  15
HETATM   15  N5  UNL     1       9.377  12.285  27.563  1.00  0.00    -0.294 N 
HETATM   16  C6  UNL     1       8.968  11.008  27.888  1.00  0.00     0.321 C 
HETATM   17  O6  UNL     1       9.632  10.056  28.359  1.00  0.00    -0.247 OA
HETATM   18  N6  UNL     1       7.566  10.639  27.681  1.00  0.00    -0.343 N 
ATOM     19  H6  UNL     1       6.923  11.332  27.299  1.00  0.00     0.164 HD
ATOM     20  H5  UNL     1       8.683  12.924  27.175  1.00  0.00     0.172 HD
BRANCH  18  21
HETATM   21  C7  UNL     1       7.071   9.338  27.999  1.00  0.00     0.124 C 
BRANCH  21  22
HETATM   22  C8  UNL     1       7.315   8.362  26.853  1.00  0.00     0.020 C 
BRANCH  22  23
HETATM   23  C9  UNL     1       8.107   7.182  27.276  1.00  0.00     0.004 C 
BRANCH  23  24
HETATM   24  C10 UNL     1       8.862   6.498  26.228  1.00  0.00     0.033 C 
BRANCH  24  25
HETATM   25  C11 UNL     1       9.271   5.123  26.270  1.00  0.00     0.186 C 
HETATM   26  C12 UNL     1       8.883   4.150  25.195  1.00  0.00     0.034 C 
HETATM   27  C13 UNL     1       9.373   2.863  25.942  1.00  0.00     0.029 C 
HETATM   28  C14 UNL     1      10.595   3.377  26.703  1.00  0.00     0.233 C 
HETATM   29  N7  UNL     1      10.689   4.808  26.357  1.00  0.00    -0.071 N 
ATOM     30  H72 UNL     1      11.252   5.036  25.537  1.00  0.00     0.277 HD
ATOM     31  H71 UNL     1      11.240   5.388  26.990  1.00  0.00     0.277 HD
ENDBRANCH  24  25
ENDBRANCH  23  24
ENDBRANCH  22  23
ENDBRANCH  21  22
ENDBRANCH  18  21
ENDBRANCH  14  15
BRANCH   1  32
HETATM   32  C1  UNL     1      12.323  11.562  26.259  1.00  0.00     0.286 C 
HETATM   33  N2  UNL     1      11.614  10.989  25.185  1.00  0.00    -0.273 N 
ATOM     34  H2  UNL     1      10.793  11.483  24.835  1.00  0.00     0.189 HD
HETATM   35  O1  UNL     1      13.324  11.025  26.736  1.00  0.00    -0.267 OA
BRANCH  33  36
HETATM   36  N1  UNL     1      11.965   9.792  24.573  1.00  0.00    -0.343 N 
ATOM     37  H12 UNL     1      12.949   9.665  24.338  1.00  0.00     0.176 HD
ATOM     38  H11 UNL     1      11.302   9.050  24.351  1.00  0.00     0.176 HD
ENDBRANCH  33  36
ENDBRANCH   1  32
TORSDOF 8
ENDMDL
MODEL 2
REMARK VINA RESULT: -7.624174697      2.723      3.999
REMARK  8 active torsions:
REMARK  status: ('A' for Active; 'I' for Inactive)
REMARK    1  A    between atoms: N1_1  and  N2_4 
REMARK       I    between atoms: N2_4  and  C1_6 
REMARK    2  A    between atoms: C1_6  and  C2_8 
REMARK    3  A    between atoms: C5_21  and  N5_22 
REMARK       I    between atoms: N5_22  and  C6_24 
REMARK       I    between atoms: C6_24  and  N6_26 
REMARK    4  A    between atoms: N6_26  and  C7_28 
REMARK    5  A    between atoms: C7_28  and  C8_29 
REMARK    6  A    between atoms: C8_29  and  C9_30 
REMARK    7  A    between atoms: C9_30  and  C10_31 
REMARK    8  A    between atoms: C10_31  and  C11_32 
ROOT
HETATM    1  C2  UNL     1      11.805  10.775  26.441  1.00  0.00     0.265 A 
HETATM    2  N3  UNL     1      10.458  11.279  26.826  1.00  0.00    -0.260 N 
ATOM      3  H3  UNL     1       9.605  10.719  26.831  1.00  0.00     0.177 HD
HETATM    4  S1  UNL     1      10.545  12.934  27.261  1.00  0.00     0.359 S 
HETATM    5  O2  UNL     1      11.921  13.505  27.101  1.00  0.00    -0.176 OA
HETATM    6  O3  UNL     1       9.597  13.703  26.387  1.00  0.00    -0.176 OA
HETATM    7  O4  UNL     1      10.051  13.152  28.865  1.00  0.00    -0.257 OA
HETATM    8  C3  UNL     1      11.111  13.711  29.602  1.00  0.00     0.219 C 
HETATM    9  C4  UNL     1      12.264  12.735  29.731  1.00  0.00     0.214 C 
HETATM   10  O5  UNL     1      11.948  11.453  29.371  1.00  0.00    -0.307 OA
HETATM   11  S2  UNL     1      13.107  11.187  27.662  1.00  0.00     0.059 SA
HETATM   12  N4  UNL     1      12.853   9.105  27.368  1.00  0.00    -0.301 N 
ATOM     13  H4  UNL     1      13.275   8.251  27.732  1.00  0.00     0.176 HD
HETATM   14  C5  UNL     1      11.954   9.394  26.549  1.00  0.00     0.145 A 
ENDROOT
BRANCH  14  15
HETATM   15  N5  UNL     1      11.228   8.294  25.863  1.00  0.00    -0.294 N 
HETATM   16  C6  UNL     1      10.405   7.391  26.502  1.00  0.00     0.321 C 
HETATM   17  O6  UNL     1      10.119   7.297  27.719  1.00  0.00    -0.247 OA
HETATM   18  N6  UNL     1       9.730   6.361  25.708  1.00  0.00    -0.343 N 
ATOM     19  H6  UNL     1       9.886   6.332  24.701  1.00  0.00     0.164 HD
ATOM     20  H5  UNL     1      11.345   8.201  24.854  1.00  0.00     0.172 HD
BRANCH  18  21
HETATM   21  C7  UNL     1       8.861   5.395  26.302  1.00  0.00     0.124 C 
BRANCH  21  22
HETATM   22  C8  UNL     1       8.923   4.068  25.555  1.00  0.00     0.020 C 
BRANCH  22  23
HETATM   23  C9  UNL     1      10.264   3.440  25.632  1.00  0.00     0.004 C 
BRANCH  23  24
HETATM   24  C10 UNL     1      10.771   3.156  26.974  1.00  0.00     0.033 C 
BRANCH  24  25
HETATM   25  C11 UNL     1      11.862   3.841  27.607  1.00  0.00     0.186 C 
HETATM   26  C12 UNL     1      12.839   4.667  26.822  1.00  0.00     0.034 C 
HETATM   27  C13 UNL     1      13.861   4.883  27.989  1.00  0.00     0.029 C 
HETATM   28  C14 UNL     1      12.944   4.957  29.210  1.00  0.00     0.233 C 
HETATM   29  N7  UNL     1      11.579   4.786  28.678  1.00  0.00    -0.071 N 
ATOM     30  H72 UNL     1      11.092   5.640  28.407  1.00  0.00     0.277 HD
ATOM     31  H71 UNL     1      10.866   4.502  29.350  1.00  0.00     0.277 HD
ENDBRANCH  24  25
ENDBRANCH  23  24
ENDBRANCH  22  23
ENDBRANCH  21  22
ENDBRANCH  18  21
ENDBRANCH  14  15
BRANCH   1  32
HETATM   32  C1  UNL     1      12.119  11.372  25.070  1.00  0.00     0.286 C 
HETATM   33  N2  UNL     1      13.220  12.247  24.973  1.00  0.00    -0.273 N 
ATOM     34  H2  UNL     1      13.754  12.440  25.821  1.00  0.00     0.189 HD
HETATM   35  O1  UNL     1      11.427  11.089  24.091  1.00  0.00    -0.267 OA
BRANCH  33  36
HETATM   36  N1  UNL     1      13.622  12.861  23.795  1.00  0.00    -0.343 N 
ATOM     37  H12 UNL     1      12.996  12.779  22.994  1.00  0.00     0.176 HD
ATOM     38  H11 UNL     1      14.494  13.379  23.691  1.00  0.00     0.176 HD
ENDBRANCH  33  36
ENDBRANCH   1  32
TORSDOF 8
ENDMDL
MODEL 3
REMARK VINA RESULT: -7.621890473      2.750      4.719
REMARK  8 active torsions:
REMARK  status: ('A' for Active; 'I' for Inactive)
REMARK    1  A    between atoms: N1_1  and  N2_4 
REMARK       I    between atoms: N2_4  and  C1_6 
REMARK    2  A    between atoms: C1_6  and  C2_8 
REMARK    3  A    between atoms: C5_21  and  N5_22 
REMARK       I    between atoms: N5_22  and  C6_24 
REMARK       I    between atoms: C6_24  and  N6_26 
REMARK    4  A    between atoms: N6_26  and  C7_28 
REMARK    5  A    between atoms: C7_28  and  C8_29 
REMARK    6  A    between atoms: C8_29  and  C9_30 
REMARK    7  A    between atoms: C9_30  and  C10_31 
REMARK    8  A    between atoms: C10_31  and  C11_32 
ROOT
HETATM    1  C2  UNL     1      10.143   9.754  27.628  1.00  0.00     0.265 A 
HETATM    2  N3  UNL     1      11.261   9.404  26.709  1.00  0.00    -0.260 N 
ATOM      3  H3  UNL     1      11.235   8.652  26.019  1.00  0.00     0.177 HD
HETATM    4  S1  UNL     1      12.597  10.444  26.975  1.00  0.00     0.359 S 
HETATM    5  O2  UNL     1      12.364  11.414  28.093  1.00  0.00    -0.176 OA
HETATM    6  O3  UNL     1      13.794   9.601  27.307  1.00  0.00    -0.176 OA
HETATM    7  O4  UNL     1      12.960  11.314  25.569  1.00  0.00    -0.257 OA
HETATM    8  C3  UNL     1      12.837  12.690  25.834  1.00  0.00     0.219 C 
HETATM    9  C4  UNL     1      11.394  13.070  26.107  1.00  0.00     0.214 C 
HETATM   10  O5  UNL     1      10.492  12.097  25.771  1.00  0.00    -0.307 OA
HETATM   11  S2  UNL     1       9.744  11.541  27.633  1.00  0.00     0.059 SA
HETATM   12  N4  UNL     1       8.127  10.316  27.027  1.00  0.00    -0.301 N 
ATOM     13  H4  UNL     1       7.161  10.460  26.732  1.00  0.00     0.176 HD
HETATM   14  C5  UNL     1       8.888   9.338  27.191  1.00  0.00     0.145 A 
ENDROOT
BRANCH  14  15
HETATM   15  N5  UNL     1       8.373   7.972  26.912  1.00  0.00    -0.294 N 
HETATM   16  C6  UNL     1       9.138   6.945  26.401  1.00  0.00     0.321 C 
HETATM   17  O6  UNL     1      10.347   6.940  26.071  1.00  0.00    -0.247 OA
HETATM   18  N6  UNL     1       8.515   5.636  26.186  1.00  0.00    -0.343 N 
ATOM     19  H6  UNL     1       7.529   5.514  26.416  1.00  0.00     0.164 HD
ATOM     20  H5  UNL     1       7.391   7.783  27.111  1.00  0.00     0.172 HD
BRANCH  18  21
HETATM   21  C7  UNL     1       9.246   4.526  25.664  1.00  0.00     0.124 C 
BRANCH  21  22
HETATM   22  C8  UNL     1       9.578   3.522  26.763  1.00  0.00     0.020 C 
BRANCH  22  23
HETATM   23  C9  UNL     1      11.027   3.482  27.071  1.00  0.00     0.004 C 
BRANCH  23  24
HETATM   24  C10 UNL     1      11.497   4.409  28.100  1.00  0.00     0.033 C 
BRANCH  24  25
HETATM   25  C11 UNL     1      12.814   4.978  28.159  1.00  0.00     0.186 C 
HETATM   26  C12 UNL     1      13.939   4.457  27.314  1.00  0.00     0.034 C 
HETATM   27  C13 UNL     1      15.077   5.268  28.022  1.00  0.00     0.029 C 
HETATM   28  C14 UNL     1      14.364   6.569  28.391  1.00  0.00     0.233 C 
HETATM   29  N7  UNL     1      12.982   6.401  27.904  1.00  0.00    -0.071 N 
ATOM     30  H72 UNL     1      12.801   6.712  26.949  1.00  0.00     0.277 HD
ATOM     31  H71 UNL     1      12.282   7.018  28.317  1.00  0.00     0.277 HD
ENDBRANCH  24  25
ENDBRANCH  23  24
ENDBRANCH  22  23
ENDBRANCH  21  22
ENDBRANCH  18  21
ENDBRANCH  14  15
BRANCH   1  32
HETATM   32  C1  UNL     1      10.555   9.273  29.020  1.00  0.00     0.286 C 
HETATM   33  N2  UNL     1      10.554  10.217  30.066  1.00  0.00    -0.273 N 
ATOM     34  H2  UNL     1      10.280  11.175  29.846  1.00  0.00     0.189 HD
HETATM   35  O1  UNL     1      10.874   8.098  29.206  1.00  0.00    -0.267 OA
BRANCH  33  36
HETATM   36  N1  UNL     1      10.904   9.923  31.377  1.00  0.00    -0.343 N 
ATOM     37  H12 UNL     1      11.316   9.007  31.551  1.00  0.00     0.176 HD
ATOM     38  H11 UNL     1      10.772  10.564  32.160  1.00  0.00     0.176 HD
ENDBRANCH  33  36
ENDBRANCH   1  32
TORSDOF 8
ENDMDL
MODEL 4
REMARK VINA RESULT: -7.603956139      6.756     10.198
REMARK  8 active torsions:
REMARK  status: ('A' for Active; 'I' for Inactive)
REMARK    1  A    between atoms: N1_1  and  N2_4 
REMARK       I    between atoms: N2_4  and  C1_6 
REMARK    2  A    between atoms: C1_6  and  C2_8 
REMARK    3  A    between atoms: C5_21  and  N5_22 
REMARK       I    between atoms: N5_22  and  C6_24 
REMARK       I    between atoms: C6_24  and  N6_26 
REMARK    4  A    between atoms: N6_26  and  C7_28 
REMARK    5  A    between atoms: C7_28  and  C8_29 
REMARK    6  A    between atoms: C8_29  and  C9_30 
REMARK    7  A    between atoms: C9_30  and  C10_31 
REMARK    8  A    between atoms: C10_31  and  C11_32 
ROOT
HETATM    1  C2  UNL     1       4.547   5.554  31.349  1.00  0.00     0.265 A 
HETATM    2  N3  UNL     1       5.820   4.913  30.920  1.00  0.00    -0.260 N 
ATOM      3  H3  UNL     1       6.378   5.204  30.117  1.00  0.00     0.177 HD
HETATM    4  S1  UNL     1       6.214   3.615  31.967  1.00  0.00     0.359 S 
HETATM    5  O2  UNL     1       5.176   3.385  33.023  1.00  0.00    -0.176 OA
HETATM    6  O3  UNL     1       6.351   2.367  31.144  1.00  0.00    -0.176 OA
HETATM    7  O4  UNL     1       7.703   3.893  32.722  1.00  0.00    -0.257 OA
HETATM    8  C3  UNL     1       7.514   3.930  34.116  1.00  0.00     0.219 C 
HETATM    9  C4  UNL     1       6.693   5.136  34.527  1.00  0.00     0.214 C 
HETATM   10  O5  UNL     1       6.549   6.071  33.537  1.00  0.00    -0.307 OA
HETATM   11  S2  UNL     1       4.509   5.962  33.134  1.00  0.00     0.059 SA
HETATM   12  N4  UNL     1       4.292   7.652  31.878  1.00  0.00    -0.301 N 
ATOM     13  H4  UNL     1       4.166   8.655  32.005  1.00  0.00     0.176 HD
HETATM   14  C5  UNL     1       4.388   6.866  30.910  1.00  0.00     0.145 A 
ENDROOT
BRANCH  14  15
HETATM   15  N5  UNL     1       4.325   7.416  29.530  1.00  0.00    -0.294 N 
HETATM   16  C6  UNL     1       4.989   8.552  29.117  1.00  0.00     0.321 C 
HETATM   17  O6  UNL     1       5.729   9.324  29.770  1.00  0.00    -0.247 OA
HETATM   18  N6  UNL     1       4.860   8.980  27.722  1.00  0.00    -0.343 N 
ATOM     19  H6  UNL     1       4.279   8.431  27.088  1.00  0.00     0.164 HD
ATOM     20  H5  UNL     1       3.755   6.920  28.845  1.00  0.00     0.172 HD
BRANCH  18  21
HETATM   21  C7  UNL     1       5.521  10.143  27.222  1.00  0.00     0.124 C 
BRANCH  21  22
HETATM   22  C8  UNL     1       6.600   9.770  26.212  1.00  0.00     0.020 C 
BRANCH  22  23
HETATM   23  C9  UNL     1       7.786   9.155  26.855  1.00  0.00     0.004 C 
BRANCH  23  24
HETATM   24  C10 UNL     1       7.848   7.695  26.843  1.00  0.00     0.033 C 
BRANCH  24  25
HETATM   25  C11 UNL     1       9.051   6.920  26.741  1.00  0.00     0.186 C 
HETATM   26  C12 UNL     1       9.085   5.600  26.029  1.00  0.00     0.034 C 
HETATM   27  C13 UNL     1      10.519   5.184  26.500  1.00  0.00     0.029 C 
HETATM   28  C14 UNL     1      11.242   6.530  26.556  1.00  0.00     0.233 C 
HETATM   29  N7  UNL     1      10.234   7.526  26.146  1.00  0.00    -0.071 N 
ATOM     30  H72 UNL     1      10.182   7.728  25.148  1.00  0.00     0.277 HD
ATOM     31  H71 UNL     1      10.425   8.493  26.410  1.00  0.00     0.277 HD
ENDBRANCH  24  25
ENDBRANCH  23  24
ENDBRANCH  22  23
ENDBRANCH  21  22
ENDBRANCH  18  21
ENDBRANCH  14  15
BRANCH   1  32
HETATM   32  C1  UNL     1       3.423   4.588  30.976  1.00  0.00     0.286 C 
HETATM   33  N2  UNL     1       2.644   4.053  32.021  1.00  0.00    -0.273 N 
ATOM     34  H2  UNL     1       2.867   4.335  32.976  1.00  0.00     0.189 HD
HETATM   35  O1  UNL     1       3.216   4.296  29.797  1.00  0.00    -0.267 OA
BRANCH  33  36
HETATM   36  N1  UNL     1       1.593   3.166  31.831  1.00  0.00    -0.343 N 
ATOM     37  H12 UNL     1       1.319   2.974  30.867  1.00  0.00     0.176 HD
ATOM     38  H11 UNL     1       1.090   2.706  32.589  1.00  0.00     0.176 HD
ENDBRANCH  33  36
ENDBRANCH   1  32
TORSDOF 8
ENDMDL
MODEL 5
REMARK VINA RESULT: -7.593761155      5.514      7.305
REMARK  8 active torsions:
REMARK  status: ('A' for Active; 'I' for Inactive)
REMARK    1  A    between atoms: N1_1  and  N2_4 
REMARK       I    between atoms: N2_4  and  C1_6 
REMARK    2  A    between atoms: C1_6  and  C2_8 
REMARK    3  A    between atoms: C5_21  and  N5_22 
REMARK       I    between atoms: N5_22  and  C6_24 
REMARK       I    between atoms: C6_24  and  N6_26 
REMARK    4  A    between atoms: N6_26  and  C7_28 
REMARK    5  A    between atoms: C7_28  and  C8_29 
REMARK    6  A    between atoms: C8_29  and  C9_30 
REMARK    7  A    between atoms: C9_30  and  C10_31 
REMARK    8  A    between atoms: C10_31  and  C11_32 
ROOT
HETATM    1  C2  UNL     1       7.514   8.654  27.755  1.00  0.00     0.265 A 
HETATM    2  N3  UNL     1       6.702   7.668  28.519  1.00  0.00    -0.260 N 
ATOM      3  H3  UNL     1       6.744   6.656  28.394  1.00  0.00     0.177 HD
HETATM    4  S1  UNL     1       5.686   8.475  29.638  1.00  0.00     0.359 S 
HETATM    5  O2  UNL     1       5.799   9.967  29.554  1.00  0.00    -0.176 OA
HETATM    6  O3  UNL     1       4.264   8.081  29.356  1.00  0.00    -0.176 OA
HETATM    7  O4  UNL     1       6.044   7.992  31.219  1.00  0.00    -0.257 OA
HETATM    8  C3  UNL     1       6.444   9.116  31.966  1.00  0.00     0.219 C 
HETATM    9  C4  UNL     1       7.767   9.665  31.468  1.00  0.00     0.214 C 
HETATM   10  O5  UNL     1       8.430   8.822  30.617  1.00  0.00    -0.307 OA
HETATM   11  S2  UNL     1       8.359   9.878  28.824  1.00  0.00     0.059 SA
HETATM   12  N4  UNL     1       9.689   8.713  27.660  1.00  0.00    -0.301 N 
ATOM     13  H4  UNL     1      10.699   8.652  27.531  1.00  0.00     0.176 HD
HETATM   14  C5  UNL     1       8.681   8.133  27.202  1.00  0.00     0.145 A 
ENDROOT
BRANCH  14  15
HETATM   15  N5  UNL     1       8.869   7.045  26.207  1.00  0.00    -0.294 N 
HETATM   16  C6  UNL     1       8.791   5.700  26.503  1.00  0.00     0.321 C 
HETATM   17  O6  UNL     1       8.573   5.139  27.602  1.00  0.00    -0.247 OA
HETATM   18  N6  UNL     1       8.978   4.725  25.427  1.00  0.00    -0.343 N 
ATOM     19  H6  UNL     1       9.165   5.061  24.482  1.00  0.00     0.164 HD
ATOM     20  H5  UNL     1       9.068   7.310  25.242  1.00  0.00     0.172 HD
BRANCH  18  21
HETATM   21  C7  UNL     1       8.907   3.317  25.659  1.00  0.00     0.124 C 
BRANCH  21  22
HETATM   22  C8  UNL     1      10.300   2.715  25.809  1.00  0.00     0.020 C 
BRANCH  22  23
HETATM   23  C9  UNL     1      11.327   3.740  26.114  1.00  0.00     0.004 C 
BRANCH  23  24
HETATM   24  C10 UNL     1      11.832   3.764  27.486  1.00  0.00     0.033 C 
BRANCH  24  25
HETATM   25  C11 UNL     1      12.073   4.951  28.256  1.00  0.00     0.186 C 
HETATM   26  C12 UNL     1      12.318   6.280  27.604  1.00  0.00     0.034 C 
HETATM   27  C13 UNL     1      12.759   7.032  28.905  1.00  0.00     0.029 C 
HETATM   28  C14 UNL     1      11.891   6.367  29.973  1.00  0.00     0.233 C 
HETATM   29  N7  UNL     1      11.090   5.363  29.246  1.00  0.00    -0.071 N 
ATOM     30  H72 UNL     1      10.192   5.683  28.883  1.00  0.00     0.277 HD
ATOM     31  H71 UNL     1      10.682   4.619  29.812  1.00  0.00     0.277 HD
ENDBRANCH  24  25
ENDBRANCH  23  24
ENDBRANCH  22  23
ENDBRANCH  21  22
ENDBRANCH  18  21
ENDBRANCH  14  15
BRANCH   1  32
HETATM   32  C1  UNL     1       6.562   9.338  26.773  1.00  0.00     0.286 C 
HETATM   33  N2  UNL     1       6.790  10.697  26.478  1.00  0.00    -0.273 N 
ATOM     34  H2  UNL     1       7.577  11.160  26.933  1.00  0.00     0.189 HD
HETATM   35  O1  UNL     1       5.633   8.710  26.264  1.00  0.00    -0.267 OA
BRANCH  33  36
HETATM   36  N1  UNL     1       6.008  11.444  25.607  1.00  0.00    -0.343 N 
ATOM     37  H12 UNL     1       4.997  11.316  25.668  1.00  0.00     0.176 HD
ATOM     38  H11 UNL     1       6.384  12.099  24.923  1.00  0.00     0.176 HD
ENDBRANCH  33  36
ENDBRANCH   1  32
TORSDOF 8
ENDMDL
