MODEL 1
REMARK VINA RESULT: -7.300621840      0.000      0.000
REMARK  13 active torsions:
REMARK  status: ('A' for Active; 'I' for Inactive)
REMARK    1  A    between atoms: C3_4  and  C4_5 
REMARK    2  A    between atoms: C4_5  and  C5_6 
REMARK    3  A    between atoms: C5_6  and  O2_7 
REMARK    4  A    between atoms: O2_7  and  C6_8 
REMARK    5  A    between atoms: C7_9  and  O3_10 
REMARK    6  A    between atoms: O3_10  and  C8_11 
REMARK    7  A    between atoms: C14_17  and  O4_18 
REMARK    8  A    between atoms: C15_20  and  O5_21 
REMARK    9  A    between atoms: C16_23  and  O6_24 
REMARK   10  A    between atoms: C17_26  and  C18_27 
REMARK   11  A    between atoms: C19_30  and  O9_31 
REMARK   12  A    between atoms: C20_33  and  O10_34 
REMARK   13  A    between atoms: C21_36  and  O11_37 
ROOT
HETATM    1  C6  UNL     1       8.156   9.706  28.136  1.00  0.00     0.169 C 
HETATM    2  C7  UNL     1       7.603  11.102  28.054  1.00  0.00     0.183 C 
HETATM    3  C14 UNL     1       6.555  11.230  26.972  1.00  0.00     0.180 C 
HETATM    4  C15 UNL     1       6.329  10.032  26.134  1.00  0.00     0.179 C 
HETATM    5  C16 UNL     1       6.384   8.707  26.812  1.00  0.00     0.166 C 
HETATM    6  C17 UNL     1       6.981   8.731  28.181  1.00  0.00     0.149 C 
ENDROOT
BRANCH   1   7
HETATM    7  O2  UNL     1       8.916   9.445  29.249  1.00  0.00    -0.382 OA
BRANCH   7   8
HETATM    8  C5  UNL     1       9.542   8.227  29.277  1.00  0.00     0.171 C 
BRANCH   8   9
HETATM    9  C4  UNL     1      10.581   8.035  28.199  1.00  0.00     0.061 C 
BRANCH   9  10
HETATM   10  C3  UNL     1      10.525   6.620  27.671  1.00  0.00     0.155 C 
HETATM   11  O1  UNL     1      11.628   6.327  26.874  1.00  0.00    -0.376 OA
HETATM   12  C2  UNL     1      11.627   4.974  26.568  1.00  0.00     0.149 C 
HETATM   13  C1  UNL     1      12.873   4.407  27.266  1.00  0.00     0.042 C 
HETATM   14  C21 UNL     1      10.464   4.208  27.090  1.00  0.00     0.178 C 
HETATM   15  C20 UNL     1       9.120   4.813  26.876  1.00  0.00     0.180 C 
HETATM   16  C19 UNL     1       9.231   6.317  26.952  1.00  0.00     0.178 C 
BRANCH  14  17
HETATM   17  O11 UNL     1      10.461   2.965  26.410  1.00  0.00    -0.390 OA
ATOM     18  H11 UNL     1       9.789   2.433  26.822  1.00  0.00     0.210 HD
ENDBRANCH  14  17
BRANCH  15  19
HETATM   19  O10 UNL     1       8.582   4.492  25.615  1.00  0.00    -0.390 OA
ATOM     20  H10 UNL     1       9.278   4.587  24.976  1.00  0.00     0.210 HD
ENDBRANCH  15  19
BRANCH  16  21
HETATM   21  O9  UNL     1       9.314   6.814  25.662  1.00  0.00    -0.390 OA
ATOM     22  H9  UNL     1       9.451   6.089  25.064  1.00  0.00     0.210 HD
ENDBRANCH  16  21
ENDBRANCH   9  10
ENDBRANCH   8   9
ENDBRANCH   7   8
ENDBRANCH   1   7
BRANCH   2  23
HETATM   23  O3  UNL     1       8.587  11.991  27.792  1.00  0.00    -0.375 OA
BRANCH  23  24
HETATM   24  C8  UNL     1       9.857  11.549  27.564  1.00  0.00     0.122 C 
HETATM   25  C9  UNL     1      10.900  12.166  28.458  1.00  0.00     0.032 C 
HETATM   26  C10 UNL     1      12.246  11.555  28.151  1.00  0.00     0.002 C 
HETATM   27  C11 UNL     1      12.607  11.631  26.699  1.00  0.00     0.000 C 
HETATM   28  C12 UNL     1      11.506  11.013  25.840  1.00  0.00     0.002 C 
HETATM   29  C13 UNL     1      10.256  11.816  26.149  1.00  0.00     0.032 C 
ENDBRANCH  23  24
ENDBRANCH   2  23
BRANCH   6  30
HETATM   30  C18 UNL     1       6.005   9.046  29.233  1.00  0.00     0.182 C 
HETATM   31  O7  UNL     1       6.295   8.802  30.429  1.00  0.00    -0.648 OA
HETATM   32  O8  UNL     1       4.769   9.605  28.965  1.00  0.00    -0.648 OA
ENDBRANCH   6  30
BRANCH   3  33
HETATM   33  O4  UNL     1       6.929  12.272  26.087  1.00  0.00    -0.390 OA
ATOM     34  H4  UNL     1       7.129  11.899  25.236  1.00  0.00     0.210 HD
ENDBRANCH   3  33
BRANCH   5  35
HETATM   35  O6  UNL     1       5.158   8.042  26.842  1.00  0.00    -0.392 OA
ATOM     36  H6  UNL     1       5.239   7.097  26.899  1.00  0.00     0.210 HD
ENDBRANCH   5  35
BRANCH   4  37
HETATM   37  O5  UNL     1       5.024  10.140  25.588  1.00  0.00    -0.390 OA
ATOM     38  H5  UNL     1       4.512   9.421  25.938  1.00  0.00     0.210 HD
ENDBRANCH   4  37
TORSDOF 13
ENDMDL
MODEL 2
REMARK VINA RESULT: -7.243989959      5.038      8.857
REMARK  13 active torsions:
REMARK  status: ('A' for Active; 'I' for Inactive)
REMARK    1  A    between atoms: C3_4  and  C4_5 
REMARK    2  A    between atoms: C4_5  and  C5_6 
REMARK    3  A    between atoms: C5_6  and  O2_7 
REMARK    4  A    between atoms: O2_7  and  C6_8 
REMARK    5  A    between atoms: C7_9  and  O3_10 
REMARK    6  A    between atoms: O3_10  and  C8_11 
REMARK    7  A    between atoms: C14_17  and  O4_18 
REMARK    8  A    between atoms: C15_20  and  O5_21 
REMARK    9  A    between atoms: C16_23  and  O6_24 
REMARK   10  A    between atoms: C17_26  and  C18_27 
REMARK   11  A    between atoms: C19_30  and  O9_31 
REMARK   12  A    between atoms: C20_33  and  O10_34 
REMARK   13  A    between atoms: C21_36  and  O11_37 
ROOT
HETATM    1  C6  UNL     1       5.136   5.236  31.123  1.00  0.00     0.169 C 
HETATM    2  C7  UNL     1       4.229   4.062  31.371  1.00  0.00     0.183 C 
HETATM    3  C14 UNL     1       5.007   2.794  31.634  1.00  0.00     0.180 C 
HETATM    4  C15 UNL     1       6.478   2.891  31.507  1.00  0.00     0.179 C 
HETATM    5  C16 UNL     1       7.123   4.144  31.989  1.00  0.00     0.166 C 
HETATM    6  C17 UNL     1       6.179   5.275  32.238  1.00  0.00     0.149 C 
ENDROOT
BRANCH   1   7
HETATM    7  O2  UNL     1       4.518   6.462  31.131  1.00  0.00    -0.382 OA
BRANCH   7   8
HETATM    8  C5  UNL     1       4.735   7.251  30.033  1.00  0.00     0.171 C 
BRANCH   8   9
HETATM    9  C4  UNL     1       5.561   8.485  30.305  1.00  0.00     0.061 C 
BRANCH   9  10
HETATM   10  C3  UNL     1       6.127   9.025  29.013  1.00  0.00     0.155 C 
HETATM   11  O1  UNL     1       6.614  10.320  29.169  1.00  0.00    -0.376 OA
HETATM   12  C2  UNL     1       7.285  10.701  28.016  1.00  0.00     0.149 C 
HETATM   13  C1  UNL     1       8.753  10.857  28.443  1.00  0.00     0.042 C 
HETATM   14  C21 UNL     1       7.269   9.701  26.916  1.00  0.00     0.178 C 
HETATM   15  C20 UNL     1       5.951   9.084  26.597  1.00  0.00     0.180 C 
HETATM   16  C19 UNL     1       5.146   8.942  27.867  1.00  0.00     0.178 C 
BRANCH  14  17
HETATM   17  O11 UNL     1       7.691  10.380  25.746  1.00  0.00    -0.390 OA
ATOM     18  H11 UNL     1       8.269   9.786  25.281  1.00  0.00     0.210 HD
ENDBRANCH  14  17
BRANCH  15  19
HETATM   19  O10 UNL     1       5.195   9.868  25.703  1.00  0.00    -0.390 OA
ATOM     20  H10 UNL     1       4.542   9.301  25.309  1.00  0.00     0.210 HD
ENDBRANCH  15  19
BRANCH  16  21
HETATM   21  O9  UNL     1       4.272  10.012  27.952  1.00  0.00    -0.390 OA
ATOM     22  H9  UNL     1       3.382   9.681  27.936  1.00  0.00     0.210 HD
ENDBRANCH  16  21
ENDBRANCH   9  10
ENDBRANCH   8   9
ENDBRANCH   7   8
ENDBRANCH   1   7
BRANCH   2  23
HETATM   23  O3  UNL     1       3.424   3.847  30.306  1.00  0.00    -0.375 OA
BRANCH  23  24
HETATM   24  C8  UNL     1       2.097   4.149  30.388  1.00  0.00     0.122 C 
HETATM   25  C9  UNL     1       1.332   3.329  31.393  1.00  0.00     0.032 C 
HETATM   26  C10 UNL     1      -0.103   3.796  31.431  1.00  0.00     0.002 C 
HETATM   27  C11 UNL     1      -0.751   3.810  30.080  1.00  0.00     0.000 C 
HETATM   28  C12 UNL     1       0.077   4.636  29.097  1.00  0.00     0.002 C 
HETATM   29  C13 UNL     1       1.439   3.966  29.058  1.00  0.00     0.032 C 
ENDBRANCH  23  24
ENDBRANCH   2  23
BRANCH   6  30
HETATM   30  C18 UNL     1       5.591   5.253  33.584  1.00  0.00     0.182 C 
HETATM   31  O7  UNL     1       4.996   6.272  34.008  1.00  0.00    -0.648 OA
HETATM   32  O8  UNL     1       5.664   4.150  34.415  1.00  0.00    -0.648 OA
ENDBRANCH   6  30
BRANCH   3  33
HETATM   33  O4  UNL     1       4.591   1.797  30.717  1.00  0.00    -0.390 OA
ATOM     34  H4  UNL     1       5.003   1.958  29.877  1.00  0.00     0.210 HD
ENDBRANCH   3  33
BRANCH   5  35
HETATM   35  O6  UNL     1       7.945   3.960  33.101  1.00  0.00    -0.392 OA
ATOM     36  H6  UNL     1       8.239   4.772  33.495  1.00  0.00     0.210 HD
ENDBRANCH   5  35
BRANCH   4  37
HETATM   37  O5  UNL     1       7.038   1.840  32.278  1.00  0.00    -0.390 OA
ATOM     38  H5  UNL     1       7.964   1.798  32.069  1.00  0.00     0.210 HD
ENDBRANCH   4  37
TORSDOF 13
ENDMDL
MODEL 3
REMARK VINA RESULT: -7.127813248      2.688      6.112
REMARK  13 active torsions:
REMARK  status: ('A' for Active; 'I' for Inactive)
REMARK    1  A    between atoms: C3_4  and  C4_5 
REMARK    2  A    between atoms: C4_5  and  C5_6 
REMARK    3  A    between atoms: C5_6  and  O2_7 
REMARK    4  A    between atoms: O2_7  and  C6_8 
REMARK    5  A    between atoms: C7_9  and  O3_10 
REMARK    6  A    between atoms: O3_10  and  C8_11 
REMARK    7  A    between atoms: C14_17  and  O4_18 
REMARK    8  A    between atoms: C15_20  and  O5_21 
REMARK    9  A    between atoms: C16_23  and  O6_24 
REMARK   10  A    between atoms: C17_26  and  C18_27 
REMARK   11  A    between atoms: C19_30  and  O9_31 
REMARK   12  A    between atoms: C20_33  and  O10_34 
REMARK   13  A    between atoms: C21_36  and  O11_37 
ROOT
HETATM    1  C6  UNL     1      11.231  11.919  27.330  1.00  0.00     0.169 C 
HETATM    2  C7  UNL     1      12.030  10.916  26.544  1.00  0.00     0.183 C 
HETATM    3  C14 UNL     1      12.364  11.422  25.160  1.00  0.00     0.180 C 
HETATM    4  C15 UNL     1      11.785  12.730  24.783  1.00  0.00     0.179 C 
HETATM    5  C16 UNL     1      11.715  13.774  25.842  1.00  0.00     0.166 C 
HETATM    6  C17 UNL     1      11.936  13.270  27.231  1.00  0.00     0.149 C 
ENDROOT
BRANCH   1   7
HETATM    7  O2  UNL     1      11.109  11.645  28.670  1.00  0.00    -0.382 OA
BRANCH   7   8
HETATM    8  C5  UNL     1       9.866  11.257  29.093  1.00  0.00     0.171 C 
BRANCH   8   9
HETATM    9  C4  UNL     1       8.726  11.829  28.286  1.00  0.00     0.061 C 
BRANCH   9  10
HETATM   10  C3  UNL     1       7.774  10.728  27.879  1.00  0.00     0.155 C 
HETATM   11  O1  UNL     1       8.451   9.640  27.336  1.00  0.00    -0.376 OA
HETATM   12  C2  UNL     1       7.562   8.591  27.152  1.00  0.00     0.149 C 
HETATM   13  C1  UNL     1       8.032   7.496  28.121  1.00  0.00     0.042 C 
HETATM   14  C21 UNL     1       6.149   8.891  27.505  1.00  0.00     0.178 C 
HETATM   15  C20 UNL     1       5.591  10.171  26.986  1.00  0.00     0.180 C 
HETATM   16  C19 UNL     1       6.683  11.215  26.954  1.00  0.00     0.178 C 
BRANCH  14  17
HETATM   17  O11 UNL     1       5.364   7.852  26.945  1.00  0.00    -0.390 OA
ATOM     18  H11 UNL     1       4.929   8.221  26.184  1.00  0.00     0.210 HD
ENDBRANCH  14  17
BRANCH  15  19
HETATM   19  O10 UNL     1       5.087  10.046  25.677  1.00  0.00    -0.390 OA
ATOM     20  H10 UNL     1       5.796   9.732  25.128  1.00  0.00     0.210 HD
ENDBRANCH  15  19
BRANCH  16  21
HETATM   21  O9  UNL     1       7.188  11.277  25.666  1.00  0.00    -0.390 OA
ATOM     22  H9  UNL     1       6.655  11.878  25.158  1.00  0.00     0.210 HD
ENDBRANCH  16  21
ENDBRANCH   9  10
ENDBRANCH   8   9
ENDBRANCH   7   8
ENDBRANCH   1   7
BRANCH   2  23
HETATM   23  O3  UNL     1      11.345   9.758  26.413  1.00  0.00    -0.375 OA
BRANCH  23  24
HETATM   24  C8  UNL     1      11.689   8.677  27.170  1.00  0.00     0.122 C 
HETATM   25  C9  UNL     1      13.134   8.650  27.596  1.00  0.00     0.032 C 
HETATM   26  C10 UNL     1      13.373   7.445  28.473  1.00  0.00     0.002 C 
HETATM   27  C11 UNL     1      12.931   6.161  27.840  1.00  0.00     0.000 C 
HETATM   28  C12 UNL     1      11.469   6.253  27.407  1.00  0.00     0.002 C 
HETATM   29  C13 UNL     1      11.412   7.410  26.427  1.00  0.00     0.032 C 
ENDBRANCH  23  24
ENDBRANCH   2  23
BRANCH   6  30
HETATM   30  C18 UNL     1      13.355  13.214  27.608  1.00  0.00     0.182 C 
HETATM   31  O7  UNL     1      13.662  13.003  28.806  1.00  0.00    -0.648 OA
HETATM   32  O8  UNL     1      14.380  13.384  26.695  1.00  0.00    -0.648 OA
ENDBRANCH   6  30
BRANCH   3  33
HETATM   33  O4  UNL     1      11.900  10.488  24.201  1.00  0.00    -0.390 OA
ATOM     34  H4  UNL     1      12.606   9.890  23.984  1.00  0.00     0.210 HD
ENDBRANCH   3  33
BRANCH   5  35
HETATM   35  O6  UNL     1      12.540  14.873  25.601  1.00  0.00    -0.392 OA
ATOM     36  H6  UNL     1      12.064  15.684  25.464  1.00  0.00     0.210 HD
ENDBRANCH   5  35
BRANCH   4  37
HETATM   37  O5  UNL     1      12.596  13.269  23.752  1.00  0.00    -0.390 OA
ATOM     38  H5  UNL     1      12.125  14.004  23.377  1.00  0.00     0.210 HD
ENDBRANCH   4  37
TORSDOF 13
ENDMDL
MODEL 4
REMARK VINA RESULT: -6.990090931      2.627      6.298
REMARK  13 active torsions:
REMARK  status: ('A' for Active; 'I' for Inactive)
REMARK    1  A    between atoms: C3_4  and  C4_5 
REMARK    2  A    between atoms: C4_5  and  C5_6 
REMARK    3  A    between atoms: C5_6  and  O2_7 
REMARK    4  A    between atoms: O2_7  and  C6_8 
REMARK    5  A    between atoms: C7_9  and  O3_10 
REMARK    6  A    between atoms: O3_10  and  C8_11 
REMARK    7  A    between atoms: C14_17  and  O4_18 
REMARK    8  A    between atoms: C15_20  and  O5_21 
REMARK    9  A    between atoms: C16_23  and  O6_24 
REMARK   10  A    between atoms: C17_26  and  C18_27 
REMARK   11  A    between atoms: C19_30  and  O9_31 
REMARK   12  A    between atoms: C20_33  and  O10_34 
REMARK   13  A    between atoms: C21_36  and  O11_37 
ROOT
HETATM    1  C6  UNL     1      10.944  12.013  27.167  1.00  0.00     0.169 C 
HETATM    2  C7  UNL     1      11.754  10.899  26.563  1.00  0.00     0.183 C 
HETATM    3  C14 UNL     1      12.251  11.249  25.180  1.00  0.00     0.180 C 
HETATM    4  C15 UNL     1      11.790  12.541  24.626  1.00  0.00     0.179 C 
HETATM    5  C16 UNL     1      11.681  13.687  25.571  1.00  0.00     0.166 C 
HETATM    6  C17 UNL     1      11.736  13.311  27.016  1.00  0.00     0.149 C 
ENDROOT
BRANCH   1   7
HETATM    7  O2  UNL     1      10.677  11.879  28.507  1.00  0.00    -0.382 OA
BRANCH   7   8
HETATM    8  C5  UNL     1       9.389  12.142  28.891  1.00  0.00     0.171 C 
BRANCH   8   9
HETATM    9  C4  UNL     1       8.694  10.990  29.576  1.00  0.00     0.061 C 
BRANCH   9  10
HETATM   10  C3  UNL     1       7.723  10.330  28.626  1.00  0.00     0.155 C 
HETATM   11  O1  UNL     1       6.904  11.264  27.998  1.00  0.00    -0.376 OA
HETATM   12  C2  UNL     1       6.164  10.636  27.008  1.00  0.00     0.149 C 
HETATM   13  C1  UNL     1       6.667  11.244  25.689  1.00  0.00     0.042 C 
HETATM   14  C21 UNL     1       6.369   9.167  26.902  1.00  0.00     0.178 C 
HETATM   15  C20 UNL     1       6.332   8.397  28.177  1.00  0.00     0.180 C 
HETATM   16  C19 UNL     1       6.909   9.242  29.287  1.00  0.00     0.178 C 
BRANCH  14  17
HETATM   17  O11 UNL     1       5.313   8.669  26.099  1.00  0.00    -0.390 OA
ATOM     18  H11 UNL     1       5.294   9.205  25.314  1.00  0.00     0.210 HD
ENDBRANCH  14  17
BRANCH  15  19
HETATM   19  O10 UNL     1       5.022   8.043  28.552  1.00  0.00    -0.390 OA
ATOM     20  H10 UNL     1       4.889   7.136  28.303  1.00  0.00     0.210 HD
ENDBRANCH  15  19
BRANCH  16  21
HETATM   21  O9  UNL     1       5.862   9.830  29.978  1.00  0.00    -0.390 OA
ATOM     22  H9  UNL     1       5.250  10.196  29.349  1.00  0.00     0.210 HD
ENDBRANCH  16  21
ENDBRANCH   9  10
ENDBRANCH   8   9
ENDBRANCH   7   8
ENDBRANCH   1   7
BRANCH   2  23
HETATM   23  O3  UNL     1      11.016   9.769  26.470  1.00  0.00    -0.375 OA
BRANCH  23  24
HETATM   24  C8  UNL     1      11.367   8.669  27.195  1.00  0.00     0.122 C 
HETATM   25  C9  UNL     1      12.799   8.663  27.664  1.00  0.00     0.032 C 
HETATM   26  C10 UNL     1      13.045   7.430  28.500  1.00  0.00     0.002 C 
HETATM   27  C11 UNL     1      12.657   6.161  27.804  1.00  0.00     0.000 C 
HETATM   28  C12 UNL     1      11.207   6.232  27.331  1.00  0.00     0.002 C 
HETATM   29  C13 UNL     1      11.147   7.426  26.395  1.00  0.00     0.032 C 
ENDBRANCH  23  24
ENDBRANCH   2  23
BRANCH   6  30
HETATM   30  C18 UNL     1      13.105  13.220  27.540  1.00  0.00     0.182 C 
HETATM   31  O7  UNL     1      13.283  13.155  28.780  1.00  0.00    -0.648 OA
HETATM   32  O8  UNL     1      14.221  13.203  26.722  1.00  0.00    -0.648 OA
ENDBRANCH   6  30
BRANCH   3  33
HETATM   33  O4  UNL     1      11.826  10.250  24.269  1.00  0.00    -0.390 OA
ATOM     34  H4  UNL     1      12.581   9.923  23.793  1.00  0.00     0.210 HD
ENDBRANCH   3  33
BRANCH   5  35
HETATM   35  O6  UNL     1      12.590  14.713  25.315  1.00  0.00    -0.392 OA
ATOM     36  H6  UNL     1      12.492  15.462  25.891  1.00  0.00     0.210 HD
ENDBRANCH   5  35
BRANCH   4  37
HETATM   37  O5  UNL     1      12.729  12.935  23.638  1.00  0.00    -0.390 OA
ATOM     38  H5  UNL     1      12.445  12.558  22.813  1.00  0.00     0.210 HD
ENDBRANCH   4  37
TORSDOF 13
ENDMDL
MODEL 5
REMARK VINA RESULT: -6.965462192      3.801      7.243
REMARK  13 active torsions:
REMARK  status: ('A' for Active; 'I' for Inactive)
REMARK    1  A    between atoms: C3_4  and  C4_5 
REMARK    2  A    between atoms: C4_5  and  C5_6 
REMARK    3  A    between atoms: C5_6  and  O2_7 
REMARK    4  A    between atoms: O2_7  and  C6_8 
REMARK    5  A    between atoms: C7_9  and  O3_10 
REMARK    6  A    between atoms: O3_10  and  C8_11 
REMARK    7  A    between atoms: C14_17  and  O4_18 
REMARK    8  A    between atoms: C15_20  and  O5_21 
REMARK    9  A    between atoms: C16_23  and  O6_24 
REMARK   10  A    between atoms: C17_26  and  C18_27 
REMARK   11  A    between atoms: C19_30  and  O9_31 
REMARK   12  A    between atoms: C20_33  and  O10_34 
REMARK   13  A    between atoms: C21_36  and  O11_37 
ROOT
HETATM    1  C6  UNL     1       7.360   6.007  31.924  1.00  0.00     0.169 C 
HETATM    2  C7  UNL     1       8.383   4.972  31.546  1.00  0.00     0.183 C 
HETATM    3  C14 UNL     1       8.732   4.074  32.710  1.00  0.00     0.180 C 
HETATM    4  C15 UNL     1       8.110   4.413  34.008  1.00  0.00     0.179 C 
HETATM    5  C16 UNL     1       6.704   4.902  33.982  1.00  0.00     0.166 C 
HETATM    6  C17 UNL     1       6.206   5.299  32.631  1.00  0.00     0.149 C 
ENDROOT
BRANCH   1   7
HETATM    7  O2  UNL     1       6.805   6.689  30.869  1.00  0.00    -0.382 OA
BRANCH   7   8
HETATM    8  C5  UNL     1       6.979   8.048  30.874  1.00  0.00     0.171 C 
BRANCH   8   9
HETATM    9  C4  UNL     1       5.865   8.822  30.214  1.00  0.00     0.061 C 
BRANCH   9  10
HETATM   10  C3  UNL     1       6.322   9.350  28.875  1.00  0.00     0.155 C 
HETATM   11  O1  UNL     1       6.693  10.690  28.950  1.00  0.00    -0.376 OA
HETATM   12  C2  UNL     1       7.275  11.074  27.752  1.00  0.00     0.149 C 
HETATM   13  C1  UNL     1       8.739  11.383  28.101  1.00  0.00     0.042 C 
HETATM   14  C21 UNL     1       7.303  10.026  26.698  1.00  0.00     0.178 C 
HETATM   15  C20 UNL     1       6.034   9.279  26.469  1.00  0.00     0.180 C 
HETATM   16  C19 UNL     1       5.303   9.124  27.781  1.00  0.00     0.178 C 
BRANCH  14  17
HETATM   17  O11 UNL     1       7.608  10.685  25.481  1.00  0.00    -0.390 OA
ATOM     18  H11 UNL     1       8.506  10.986  25.554  1.00  0.00     0.210 HD
ENDBRANCH  14  17
BRANCH  15  19
HETATM   19  O10 UNL     1       5.171   9.947  25.580  1.00  0.00    -0.390 OA
ATOM     20  H10 UNL     1       4.678  10.583  26.085  1.00  0.00     0.210 HD
ENDBRANCH  15  19
BRANCH  16  21
HETATM   21  O9  UNL     1       4.338  10.114  27.862  1.00  0.00    -0.390 OA
ATOM     22  H9  UNL     1       3.486   9.722  27.710  1.00  0.00     0.210 HD
ENDBRANCH  16  21
ENDBRANCH   9  10
ENDBRANCH   8   9
ENDBRANCH   7   8
ENDBRANCH   1   7
BRANCH   2  23
HETATM   23  O3  UNL     1       9.521   5.561  31.114  1.00  0.00    -0.375 OA
BRANCH  23  24
HETATM   24  C8  UNL     1       9.858   5.499  29.795  1.00  0.00     0.122 C 
HETATM   25  C9  UNL     1       8.885   4.731  28.939  1.00  0.00     0.032 C 
HETATM   26  C10 UNL     1       9.336   4.785  27.499  1.00  0.00     0.002 C 
HETATM   27  C11 UNL     1      10.754   4.338  27.310  1.00  0.00     0.000 C 
HETATM   28  C12 UNL     1      11.692   5.132  28.217  1.00  0.00     0.002 C 
HETATM   29  C13 UNL     1      11.203   4.868  29.630  1.00  0.00     0.032 C 
ENDBRANCH  23  24
ENDBRANCH   2  23
BRANCH   6  30
HETATM   30  C18 UNL     1       5.657   4.174  31.862  1.00  0.00     0.182 C 
HETATM   31  O7  UNL     1       4.941   4.409  30.859  1.00  0.00    -0.648 OA
HETATM   32  O8  UNL     1       5.894   2.852  32.195  1.00  0.00    -0.648 OA
ENDBRANCH   6  30
BRANCH   3  33
HETATM   33  O4  UNL     1      10.134   4.109  32.917  1.00  0.00    -0.390 OA
ATOM     34  H4  UNL     1      10.519   3.316  32.563  1.00  0.00     0.210 HD
ENDBRANCH   3  33
BRANCH   5  35
HETATM   35  O6  UNL     1       5.796   4.030  34.583  1.00  0.00    -0.392 OA
ATOM     36  H6  UNL     1       5.345   3.465  33.967  1.00  0.00     0.210 HD
ENDBRANCH   5  35
BRANCH   4  37
HETATM   37  O5  UNL     1       8.100   3.231  34.793  1.00  0.00    -0.390 OA
ATOM     38  H5  UNL     1       8.812   3.302  35.418  1.00  0.00     0.210 HD
ENDBRANCH   4  37
TORSDOF 13
ENDMDL
