MODEL 1
REMARK VINA RESULT: -11.153686785      0.000      0.000
REMARK  1 active torsions:
REMARK  status: ('A' for Active; 'I' for Inactive)
REMARK    1  A    between atoms: N4_43  and  C35_44 
ROOT
HETATM    1  N1  UNL     1      75.718 -10.449  15.371  1.00  0.00    -0.365 N 
ATOM      2  H11 UNL     1      76.250  -9.582  15.445  1.00  0.00     0.159 HD
ATOM      3  H12 UNL     1      75.990 -10.914  14.505  1.00  0.00     0.159 HD
HETATM    4  C1  UNL     1      74.863 -10.836  16.255  1.00  0.00     0.214 C 
HETATM    5  N2  UNL     1      74.121 -12.044  16.154  1.00  0.00    -0.353 N 
ATOM      6  H2  UNL     1      74.262 -12.768  15.449  1.00  0.00     0.163 HD
HETATM    7  C2  UNL     1      73.138 -12.083  17.210  1.00  0.00     0.172 C 
HETATM    8  C3  UNL     1      73.121 -10.627  17.631  1.00  0.00     0.148 A 
HETATM    9  C4  UNL     1      72.397  -9.943  16.500  1.00  0.00     0.109 A 
HETATM   10  N3  UNL     1      71.418  -9.167  16.691  1.00  0.00    -0.333 N 
ATOM     11  H3  UNL     1      71.005  -8.768  15.848  1.00  0.00     0.168 HD
HETATM   12  C5  UNL     1      70.824  -8.779  17.891  1.00  0.00     0.255 A 
HETATM   13  O1  UNL     1      69.881  -8.043  18.090  1.00  0.00    -0.268 OA
HETATM   14  C6  UNL     1      71.364  -9.296  19.050  1.00  0.00     0.066 A 
HETATM   15  C7  UNL     1      72.505 -10.206  18.734  1.00  0.00     0.030 A 
HETATM   16  C8  UNL     1      73.003 -10.405  20.103  1.00  0.00     0.137 A 
HETATM   17  C9  UNL     1      73.968 -10.933  20.720  1.00  0.00     0.093 A 
HETATM   18  C10 UNL     1      73.825 -10.550  22.231  1.00  0.00    -0.023 A 
HETATM   19  C11 UNL     1      72.795  -9.728  22.602  1.00  0.00     0.007 A 
HETATM   20  C12 UNL     1      71.702  -9.129  21.675  1.00  0.00     0.274 A 
HETATM   21  C13 UNL     1      70.990  -8.815  20.477  1.00  0.00     0.235 A 
HETATM   22  C14 UNL     1      69.713  -8.127  20.506  1.00  0.00     0.008 C 
HETATM   23  C15 UNL     1      69.481  -6.760  20.529  1.00  0.00    -0.026 A 
HETATM   24  C16 UNL     1      68.517  -5.997  19.920  1.00  0.00     0.012 A 
HETATM   25  C17 UNL     1      68.404  -4.650  19.996  1.00  0.00     0.001 A 
HETATM   26  C18 UNL     1      69.304  -3.928  20.728  1.00  0.00     0.000 A 
HETATM   27  C19 UNL     1      70.299  -4.600  21.365  1.00  0.00     0.001 A 
HETATM   28  C20 UNL     1      70.389  -5.944  21.276  1.00  0.00     0.012 A 
HETATM   29  C21 UNL     1      68.761  -9.264  20.993  1.00  0.00    -0.013 C 
HETATM   30  C22 UNL     1      69.270 -10.520  21.041  1.00  0.00     0.023 C 
HETATM   31  C23 UNL     1      70.645 -10.897  20.669  1.00  0.00     0.157 C 
HETATM   32  C24 UNL     1      71.288 -11.925  20.277  1.00  0.00     0.039 C 
HETATM   33  C25 UNL     1      70.675 -13.269  20.032  1.00  0.00     0.005 C 
HETATM   34  C26 UNL     1      69.537 -13.654  20.537  1.00  0.00     0.030 C 
HETATM   35  C27 UNL     1      68.575 -12.973  21.426  1.00  0.00     0.047 A 
HETATM   36  C28 UNL     1      68.424 -11.666  21.659  1.00  0.00     0.015 A 
HETATM   37  C29 UNL     1      67.405 -11.400  22.685  1.00  0.00    -0.021 A 
HETATM   38  C30 UNL     1      66.666 -10.304  22.978  1.00  0.00     0.012 C 
HETATM   39  C31 UNL     1      66.673  -9.040  22.307  1.00  0.00     0.002 C 
HETATM   40  C32 UNL     1      67.604  -8.626  21.446  1.00  0.00     0.013 C 
HETATM   41  C33 UNL     1      66.665 -12.472  23.383  1.00  0.00     0.029 A 
HETATM   42  C34 UNL     1      66.909 -13.704  23.075  1.00  0.00     0.093 A 
HETATM   43  N4  UNL     1      67.862 -14.018  22.089  1.00  0.00    -0.342 N 
HETATM   44  N5  UNL     1      72.229  -9.730  20.731  1.00  0.00     0.022 N 
HETATM   45  O3  UNL     1      74.494 -10.206  17.431  1.00  0.00    -0.299 OA
ENDROOT
BRANCH  43  46
HETATM   46  C35 UNL     1      68.050 -15.434  21.893  1.00  0.00     0.172 A 
HETATM   47  C36 UNL     1      66.713 -16.006  21.533  1.00  0.00     0.087 A 
HETATM   48  S1  UNL     1      65.861 -15.512  20.237  1.00  0.00    -0.078 SA
HETATM   49  C37 UNL     1      66.328 -17.005  22.463  1.00  0.00     0.202 A 
HETATM   50  O2  UNL     1      65.286 -17.741  22.495  1.00  0.00    -0.286 OA
HETATM   51  C38 UNL     1      67.389 -17.075  23.465  1.00  0.00     0.024 A 
HETATM   52  C39 UNL     1      67.499 -17.881  24.607  1.00  0.00     0.016 A 
HETATM   53  C43 UNL     1      68.359 -16.161  23.144  1.00  0.00    -0.015 A 
HETATM   54  C40 UNL     1      68.570 -17.800  25.457  1.00  0.00     0.001 A 
HETATM   55  C41 UNL     1      69.549 -16.892  25.151  1.00  0.00     0.001 A 
HETATM   56  C42 UNL     1      69.433 -16.088  24.005  1.00  0.00     0.010 A 
ENDBRANCH  43  46
TORSDOF 1
ENDMDL
MODEL 2
REMARK VINA RESULT: -10.894348791      4.433      9.224
REMARK  1 active torsions:
REMARK  status: ('A' for Active; 'I' for Inactive)
REMARK    1  A    between atoms: N4_43  and  C35_44 
ROOT
HETATM    1  N1  UNL     1      82.432  -8.473  16.603  1.00  0.00    -0.365 N 
ATOM      2  H11 UNL     1      82.983  -9.093  16.011  1.00  0.00     0.159 HD
ATOM      3  H12 UNL     1      83.055  -7.756  16.975  1.00  0.00     0.159 HD
HETATM    4  C1  UNL     1      81.168  -8.621  16.808  1.00  0.00     0.214 C 
HETATM    5  N2  UNL     1      80.399  -7.756  17.634  1.00  0.00    -0.353 N 
ATOM      6  H2  UNL     1      80.731  -6.887  18.052  1.00  0.00     0.163 HD
HETATM    7  C2  UNL     1      79.073  -8.306  17.785  1.00  0.00     0.172 C 
HETATM    8  C3  UNL     1      79.307  -9.732  17.330  1.00  0.00     0.148 A 
HETATM    9  C4  UNL     1      80.075 -10.345  18.473  1.00  0.00     0.109 A 
HETATM   10  N3  UNL     1      79.732 -11.434  19.015  1.00  0.00    -0.333 N 
ATOM     11  H3  UNL     1      80.325 -11.745  19.784  1.00  0.00     0.168 HD
HETATM   12  C5  UNL     1      78.659 -12.269  18.710  1.00  0.00     0.255 A 
HETATM   13  O1  UNL     1      78.312 -13.311  19.225  1.00  0.00    -0.268 OA
HETATM   14  C6  UNL     1      77.840 -11.879  17.670  1.00  0.00     0.066 A 
HETATM   15  C7  UNL     1      78.309 -10.583  17.094  1.00  0.00     0.030 A 
HETATM   16  C8  UNL     1      77.432 -10.545  15.915  1.00  0.00     0.137 A 
HETATM   17  C9  UNL     1      77.244  -9.872  14.864  1.00  0.00     0.093 A 
HETATM   18  C10 UNL     1      76.158 -10.619  14.019  1.00  0.00    -0.023 A 
HETATM   19  C11 UNL     1      75.670 -11.809  14.487  1.00  0.00     0.007 A 
HETATM   20  C12 UNL     1      76.059 -12.519  15.812  1.00  0.00     0.274 A 
HETATM   21  C13 UNL     1      76.741 -12.775  17.042  1.00  0.00     0.235 A 
HETATM   22  C14 UNL     1      76.337 -13.849  17.929  1.00  0.00     0.008 C 
HETATM   23  C15 UNL     1      76.733 -15.179  17.893  1.00  0.00    -0.026 A 
HETATM   24  C16 UNL     1      77.008 -16.066  18.903  1.00  0.00     0.012 A 
HETATM   25  C17 UNL     1      77.417 -17.348  18.746  1.00  0.00     0.001 A 
HETATM   26  C18 UNL     1      77.591 -17.860  17.491  1.00  0.00     0.000 A 
HETATM   27  C19 UNL     1      77.345 -17.052  16.427  1.00  0.00     0.001 A 
HETATM   28  C20 UNL     1      76.937 -15.778  16.610  1.00  0.00     0.012 A 
HETATM   29  C21 UNL     1      75.037 -13.259  18.558  1.00  0.00    -0.013 C 
HETATM   30  C22 UNL     1      74.771 -11.951  18.316  1.00  0.00     0.023 C 
HETATM   31  C23 UNL     1      75.608 -11.046  17.510  1.00  0.00     0.157 C 
HETATM   32  C24 UNL     1      75.837  -9.797  17.391  1.00  0.00     0.039 C 
HETATM   33  C25 UNL     1      75.191  -8.732  18.221  1.00  0.00     0.005 C 
HETATM   34  C26 UNL     1      74.076  -8.893  18.874  1.00  0.00     0.030 C 
HETATM   35  C27 UNL     1      73.169 -10.050  19.001  1.00  0.00     0.047 A 
HETATM   36  C28 UNL     1      73.421 -11.345  18.786  1.00  0.00     0.015 A 
HETATM   37  C29 UNL     1      72.218 -12.177  18.938  1.00  0.00    -0.021 A 
HETATM   38  C30 UNL     1      72.043 -13.497  19.181  1.00  0.00     0.012 C 
HETATM   39  C31 UNL     1      73.054 -14.489  19.388  1.00  0.00     0.002 C 
HETATM   40  C32 UNL     1      74.350 -14.344  19.105  1.00  0.00     0.013 C 
HETATM   41  C33 UNL     1      70.889 -11.619  19.264  1.00  0.00     0.029 A 
HETATM   42  C34 UNL     1      70.771 -10.344  19.439  1.00  0.00     0.093 A 
HETATM   43  N4  UNL     1      71.891  -9.500  19.324  1.00  0.00    -0.342 N 
HETATM   44  N5  UNL     1      76.819 -11.572  16.050  1.00  0.00     0.022 N 
HETATM   45  O3  UNL     1      80.322  -9.593  16.303  1.00  0.00    -0.299 OA
ENDROOT
BRANCH  43  46
HETATM   46  C35 UNL     1      71.586  -8.103  19.503  1.00  0.00     0.172 A 
HETATM   47  C36 UNL     1      70.967  -7.963  20.860  1.00  0.00     0.087 A 
HETATM   48  S1  UNL     1      71.728  -8.407  22.229  1.00  0.00    -0.078 SA
HETATM   49  C37 UNL     1      69.667  -7.403  20.763  1.00  0.00     0.202 A 
HETATM   50  O2  UNL     1      68.831  -7.102  21.678  1.00  0.00    -0.286 OA
HETATM   51  C38 UNL     1      69.403  -7.204  19.340  1.00  0.00     0.024 A 
HETATM   52  C39 UNL     1      68.265  -6.697  18.696  1.00  0.00     0.016 A 
HETATM   53  C43 UNL     1      70.496  -7.624  18.626  1.00  0.00    -0.015 A 
HETATM   54  C40 UNL     1      68.182  -6.597  17.333  1.00  0.00     0.001 A 
HETATM   55  C41 UNL     1      69.265  -7.012  16.603  1.00  0.00     0.001 A 
HETATM   56  C42 UNL     1      70.402  -7.519  17.255  1.00  0.00     0.010 A 
ENDBRANCH  43  46
TORSDOF 1
ENDMDL
MODEL 3
REMARK VINA RESULT: -10.211423203      3.292      9.211
REMARK  1 active torsions:
REMARK  status: ('A' for Active; 'I' for Inactive)
REMARK    1  A    between atoms: N4_43  and  C35_44 
ROOT
HETATM    1  N1  UNL     1      66.676  -5.883  19.983  1.00  0.00    -0.365 N 
ATOM      2  H11 UNL     1      66.146  -6.009  20.845  1.00  0.00     0.159 HD
ATOM      3  H12 UNL     1      66.172  -5.217  19.396  1.00  0.00     0.159 HD
HETATM    4  C1  UNL     1      67.786  -6.490  19.735  1.00  0.00     0.214 C 
HETATM    5  N2  UNL     1      68.525  -6.316  18.534  1.00  0.00    -0.353 N 
ATOM      6  H2  UNL     1      68.322  -5.629  17.808  1.00  0.00     0.163 HD
HETATM    7  C2  UNL     1      69.610  -7.268  18.506  1.00  0.00     0.172 C 
HETATM    8  C3  UNL     1      69.156  -8.242  19.574  1.00  0.00     0.148 A 
HETATM    9  C4  UNL     1      68.021  -8.982  18.915  1.00  0.00     0.109 A 
HETATM   10  N3  UNL     1      67.960 -10.245  18.886  1.00  0.00    -0.333 N 
ATOM     11  H3  UNL     1      67.148 -10.632  18.405  1.00  0.00     0.168 HD
HETATM   12  C5  UNL     1      68.844 -11.181  19.418  1.00  0.00     0.255 A 
HETATM   13  O1  UNL     1      68.804 -12.393  19.393  1.00  0.00    -0.268 OA
HETATM   14  C6  UNL     1      69.950 -10.689  20.081  1.00  0.00     0.066 A 
HETATM   15  C7  UNL     1      69.949  -9.195  20.061  1.00  0.00     0.030 A 
HETATM   16  C8  UNL     1      71.058  -8.969  20.998  1.00  0.00     0.137 A 
HETATM   17  C9  UNL     1      71.640  -8.032  21.610  1.00  0.00     0.093 A 
HETATM   18  C10 UNL     1      72.682  -8.680  22.581  1.00  0.00    -0.023 A 
HETATM   19  C11 UNL     1      72.751 -10.046  22.648  1.00  0.00     0.007 A 
HETATM   20  C12 UNL     1      71.908 -11.062  21.831  1.00  0.00     0.274 A 
HETATM   21  C13 UNL     1      70.919 -11.557  20.925  1.00  0.00     0.235 A 
HETATM   22  C14 UNL     1      70.839 -12.963  20.577  1.00  0.00     0.008 C 
HETATM   23  C15 UNL     1      70.157 -13.970  21.247  1.00  0.00    -0.026 A 
HETATM   24  C16 UNL     1      69.453 -15.049  20.776  1.00  0.00     0.012 A 
HETATM   25  C17 UNL     1      68.799 -15.963  21.533  1.00  0.00     0.001 A 
HETATM   26  C18 UNL     1      68.803 -15.850  22.895  1.00  0.00     0.000 A 
HETATM   27  C19 UNL     1      69.474 -14.808  23.451  1.00  0.00     0.001 A 
HETATM   28  C20 UNL     1      70.120 -13.911  22.676  1.00  0.00     0.012 A 
HETATM   29  C21 UNL     1      72.060 -13.114  19.617  1.00  0.00    -0.013 C 
HETATM   30  C22 UNL     1      72.678 -11.974  19.218  1.00  0.00     0.023 C 
HETATM   31  C23 UNL     1      72.290 -10.610  19.616  1.00  0.00     0.157 C 
HETATM   32  C24 UNL     1      72.399  -9.415  19.186  1.00  0.00     0.039 C 
HETATM   33  C25 UNL     1      73.069  -9.031  17.904  1.00  0.00     0.005 C 
HETATM   34  C26 UNL     1      73.932  -9.781  17.279  1.00  0.00     0.030 C 
HETATM   35  C27 UNL     1      74.483 -11.115  17.590  1.00  0.00     0.047 A 
HETATM   36  C28 UNL     1      73.987 -12.065  18.388  1.00  0.00     0.015 A 
HETATM   37  C29 UNL     1      74.889 -13.221  18.500  1.00  0.00    -0.021 A 
HETATM   38  C30 UNL     1      74.683 -14.511  18.857  1.00  0.00     0.012 C 
HETATM   39  C31 UNL     1      73.446 -15.129  19.225  1.00  0.00     0.002 C 
HETATM   40  C32 UNL     1      72.323 -14.483  19.546  1.00  0.00     0.013 C 
HETATM   41  C33 UNL     1      76.200 -13.289  17.821  1.00  0.00     0.029 A 
HETATM   42  C34 UNL     1      76.574 -12.297  17.081  1.00  0.00     0.093 A 
HETATM   43  N4  UNL     1      75.745 -11.171  16.923  1.00  0.00    -0.342 N 
HETATM   44  N5  UNL     1      71.361 -10.101  21.275  1.00  0.00     0.022 N 
HETATM   45  O3  UNL     1      68.469  -7.394  20.530  1.00  0.00    -0.299 OA
ENDROOT
BRANCH  43  46
HETATM   46  C35 UNL     1      76.323 -10.135  16.105  1.00  0.00     0.172 A 
HETATM   47  C36 UNL     1      77.105 -10.817  15.025  1.00  0.00     0.087 A 
HETATM   48  S1  UNL     1      76.432 -11.859  13.971  1.00  0.00    -0.078 SA
HETATM   49  C37 UNL     1      78.467 -10.424  15.067  1.00  0.00     0.202 A 
HETATM   50  O2  UNL     1      79.442 -10.753  14.312  1.00  0.00    -0.286 OA
HETATM   51  C38 UNL     1      78.603  -9.509  16.198  1.00  0.00     0.024 A 
HETATM   52  C39 UNL     1      79.737  -8.846  16.690  1.00  0.00     0.016 A 
HETATM   53  C43 UNL     1      77.379  -9.364  16.797  1.00  0.00    -0.015 A 
HETATM   54  C40 UNL     1      79.684  -8.028  17.787  1.00  0.00     0.001 A 
HETATM   55  C41 UNL     1      78.468  -7.871  18.399  1.00  0.00     0.001 A 
HETATM   56  C42 UNL     1      77.336  -8.538  17.900  1.00  0.00     0.010 A 
ENDBRANCH  43  46
TORSDOF 1
ENDMDL
MODEL 4
REMARK VINA RESULT: -9.940859048      1.940      2.366
REMARK  1 active torsions:
REMARK  status: ('A' for Active; 'I' for Inactive)
REMARK    1  A    between atoms: N4_43  and  C35_44 
ROOT
HETATM    1  N1  UNL     1      76.109 -12.689  16.660  1.00  0.00    -0.365 N 
ATOM      2  H11 UNL     1      76.467 -11.795  16.324  1.00  0.00     0.159 HD
ATOM      3  H12 UNL     1      76.560 -13.431  16.124  1.00  0.00     0.159 HD
HETATM    4  C1  UNL     1      75.236 -12.798  17.602  1.00  0.00     0.214 C 
HETATM    5  N2  UNL     1      74.737 -14.043  18.071  1.00  0.00    -0.353 N 
ATOM      6  H2  UNL     1      75.086 -14.962  17.797  1.00  0.00     0.163 HD
HETATM    7  C2  UNL     1      73.656 -13.799  18.996  1.00  0.00     0.172 C 
HETATM    8  C3  UNL     1      73.333 -12.354  18.675  1.00  0.00     0.148 A 
HETATM    9  C4  UNL     1      72.640 -12.437  17.339  1.00  0.00     0.109 A 
HETATM   10  N3  UNL     1      71.524 -11.888  17.117  1.00  0.00    -0.333 N 
ATOM     11  H3  UNL     1      71.151 -12.019  16.177  1.00  0.00     0.168 HD
HETATM   12  C5  UNL     1      70.731 -11.128  17.975  1.00  0.00     0.255 A 
HETATM   13  O1  UNL     1      69.657 -10.601  17.780  1.00  0.00    -0.268 OA
HETATM   14  C6  UNL     1      71.211 -10.926  19.252  1.00  0.00     0.066 A 
HETATM   15  C7  UNL     1      72.525 -11.614  19.432  1.00  0.00     0.030 A 
HETATM   16  C8  UNL     1      72.882 -11.050  20.742  1.00  0.00     0.137 A 
HETATM   17  C9  UNL     1      73.845 -11.017  21.557  1.00  0.00     0.093 A 
HETATM   18  C10 UNL     1      73.456 -10.022  22.701  1.00  0.00    -0.023 A 
HETATM   19  C11 UNL     1      72.260  -9.361  22.614  1.00  0.00     0.007 A 
HETATM   20  C12 UNL     1      71.198  -9.502  21.490  1.00  0.00     0.274 A 
HETATM   21  C13 UNL     1      70.590  -9.934  20.271  1.00  0.00     0.235 A 
HETATM   22  C14 UNL     1      69.218  -9.598  19.941  1.00  0.00     0.008 C 
HETATM   23  C15 UNL     1      68.748  -8.457  19.308  1.00  0.00    -0.026 A 
HETATM   24  C16 UNL     1      67.744  -8.284  18.388  1.00  0.00     0.012 A 
HETATM   25  C17 UNL     1      67.387  -7.112  17.812  1.00  0.00     0.001 A 
HETATM   26  C18 UNL     1      68.052  -5.962  18.134  1.00  0.00     0.000 A 
HETATM   27  C19 UNL     1      69.065  -6.037  19.036  1.00  0.00     0.001 A 
HETATM   28  C20 UNL     1      69.402  -7.218  19.598  1.00  0.00     0.012 A 
HETATM   29  C21 UNL     1      68.430 -10.556  20.889  1.00  0.00    -0.013 C 
HETATM   30  C22 UNL     1      69.143 -11.509  21.539  1.00  0.00     0.023 C 
HETATM   31  C23 UNL     1      70.597 -11.714  21.421  1.00  0.00     0.157 C 
HETATM   32  C24 UNL     1      71.454 -12.645  21.578  1.00  0.00     0.039 C 
HETATM   33  C25 UNL     1      71.121 -14.046  21.988  1.00  0.00     0.005 C 
HETATM   34  C26 UNL     1      70.016 -14.386  22.590  1.00  0.00     0.030 C 
HETATM   35  C27 UNL     1      68.850 -13.594  23.027  1.00  0.00     0.047 A 
HETATM   36  C28 UNL     1      68.444 -12.392  22.607  1.00  0.00     0.015 A 
HETATM   37  C29 UNL     1      67.279 -11.906  23.361  1.00  0.00    -0.021 A 
HETATM   38  C30 UNL     1      66.329 -10.983  23.083  1.00  0.00     0.012 C 
HETATM   39  C31 UNL     1      66.193 -10.201  21.892  1.00  0.00     0.002 C 
HETATM   40  C32 UNL     1      67.133 -10.043  20.958  1.00  0.00     0.013 C 
HETATM   41  C33 UNL     1      66.662 -12.667  24.469  1.00  0.00     0.029 A 
HETATM   42  C34 UNL     1      67.154 -13.818  24.788  1.00  0.00     0.093 A 
HETATM   43  N4  UNL     1      68.259 -14.342  24.090  1.00  0.00    -0.342 N 
HETATM   44  N5  UNL     1      71.932 -10.343  20.957  1.00  0.00     0.022 N 
HETATM   45  O3  UNL     1      74.624 -11.791  18.329  1.00  0.00    -0.299 OA
ENDROOT
BRANCH  43  46
HETATM   46  C35 UNL     1      68.715 -15.612  24.595  1.00  0.00     0.172 A 
HETATM   47  C36 UNL     1      67.544 -16.546  24.549  1.00  0.00     0.087 A 
HETATM   48  S1  UNL     1      66.751 -16.900  23.173  1.00  0.00    -0.078 SA
HETATM   49  C37 UNL     1      67.254 -17.050  25.843  1.00  0.00     0.202 A 
HETATM   50  O2  UNL     1      66.363 -17.882  26.220  1.00  0.00    -0.286 OA
HETATM   51  C38 UNL     1      68.205 -16.425  26.758  1.00  0.00     0.024 A 
HETATM   52  C39 UNL     1      68.344 -16.563  28.147  1.00  0.00     0.016 A 
HETATM   53  C43 UNL     1      69.024 -15.591  26.042  1.00  0.00    -0.015 A 
HETATM   54  C40 UNL     1      69.294 -15.878  28.857  1.00  0.00     0.001 A 
HETATM   55  C41 UNL     1      70.121 -15.039  28.156  1.00  0.00     0.001 A 
HETATM   56  C42 UNL     1      69.977 -14.906  26.765  1.00  0.00     0.010 A 
ENDBRANCH  43  46
TORSDOF 1
ENDMDL
MODEL 5
REMARK VINA RESULT: -9.381984919      3.102      8.479
REMARK  1 active torsions:
REMARK  status: ('A' for Active; 'I' for Inactive)
REMARK    1  A    between atoms: N4_43  and  C35_44 
ROOT
HETATM    1  N1  UNL     1      67.876  -5.591  19.592  1.00  0.00    -0.365 N 
ATOM      2  H11 UNL     1      67.469  -5.450  20.517  1.00  0.00     0.159 HD
ATOM      3  H12 UNL     1      67.497  -4.878  18.969  1.00  0.00     0.159 HD
HETATM    4  C1  UNL     1      68.718  -6.528  19.321  1.00  0.00     0.214 C 
HETATM    5  N2  UNL     1      69.286  -6.726  18.033  1.00  0.00    -0.353 N 
ATOM      6  H2  UNL     1      69.177  -6.099  17.236  1.00  0.00     0.163 HD
HETATM    7  C2  UNL     1      70.041  -7.956  18.035  1.00  0.00     0.172 C 
HETATM    8  C3  UNL     1      69.498  -8.617  19.285  1.00  0.00     0.148 A 
HETATM    9  C4  UNL     1      68.115  -9.054  18.880  1.00  0.00     0.109 A 
HETATM   10  N3  UNL     1      67.696 -10.234  19.055  1.00  0.00    -0.333 N 
ATOM     11  H3  UNL     1      66.745 -10.413  18.733  1.00  0.00     0.168 HD
HETATM   12  C5  UNL     1      68.351 -11.323  19.626  1.00  0.00     0.255 A 
HETATM   13  O1  UNL     1      67.967 -12.461  19.794  1.00  0.00    -0.268 OA
HETATM   14  C6  UNL     1      69.637 -11.112  20.077  1.00  0.00     0.066 A 
HETATM   15  C7  UNL     1      70.054  -9.701  19.824  1.00  0.00     0.030 A 
HETATM   16  C8  UNL     1      71.311  -9.711  20.587  1.00  0.00     0.137 A 
HETATM   17  C9  UNL     1      72.219  -8.926  20.976  1.00  0.00     0.093 A 
HETATM   18  C10 UNL     1      73.171  -9.740  21.916  1.00  0.00    -0.023 A 
HETATM   19  C11 UNL     1      72.861 -11.046  22.186  1.00  0.00     0.007 A 
HETATM   20  C12 UNL     1      71.652 -11.850  21.636  1.00  0.00     0.274 A 
HETATM   21  C13 UNL     1      70.438 -12.127  20.934  1.00  0.00     0.235 A 
HETATM   22  C14 UNL     1      69.913 -13.475  20.821  1.00  0.00     0.008 C 
HETATM   23  C15 UNL     1      69.085 -14.144  21.710  1.00  0.00    -0.026 A 
HETATM   24  C16 UNL     1      68.043 -15.010  21.495  1.00  0.00     0.012 A 
HETATM   25  C17 UNL     1      67.280 -15.590  22.453  1.00  0.00     0.001 A 
HETATM   26  C18 UNL     1      67.522 -15.325  23.771  1.00  0.00     0.000 A 
HETATM   27  C19 UNL     1      68.535 -14.475  24.081  1.00  0.00     0.001 A 
HETATM   28  C20 UNL     1      69.282 -13.911  23.108  1.00  0.00     0.012 A 
HETATM   29  C21 UNL     1      70.882 -14.096  19.767  1.00  0.00    -0.013 C 
HETATM   30  C22 UNL     1      71.729 -13.250  19.129  1.00  0.00     0.023 C 
HETATM   31  C23 UNL     1      71.806 -11.796  19.349  1.00  0.00     0.157 C 
HETATM   32  C24 UNL     1      72.181 -10.747  18.729  1.00  0.00     0.039 C 
HETATM   33  C25 UNL     1      72.730 -10.734  17.336  1.00  0.00     0.005 C 
HETATM   34  C26 UNL     1      73.241 -11.777  16.745  1.00  0.00     0.030 C 
HETATM   35  C27 UNL     1      73.434 -13.168  17.197  1.00  0.00     0.047 A 
HETATM   36  C28 UNL     1      72.817 -13.826  18.184  1.00  0.00     0.015 A 
HETATM   37  C29 UNL     1      73.362 -15.178  18.375  1.00  0.00    -0.021 A 
HETATM   38  C30 UNL     1      72.858 -16.295  18.949  1.00  0.00     0.012 C 
HETATM   39  C31 UNL     1      71.567 -16.466  19.543  1.00  0.00     0.002 C 
HETATM   40  C32 UNL     1      70.735 -15.480  19.882  1.00  0.00     0.013 C 
HETATM   41  C33 UNL     1      74.482 -15.716  17.573  1.00  0.00     0.029 A 
HETATM   42  C34 UNL     1      75.004 -14.975  16.651  1.00  0.00     0.093 A 
HETATM   43  N4  UNL     1      74.512 -13.679  16.412  1.00  0.00    -0.342 N 
HETATM   44  N5  UNL     1      71.321 -10.841  21.001  1.00  0.00     0.022 N 
HETATM   45  O3  UNL     1      69.232  -7.496  20.167  1.00  0.00    -0.299 OA
ENDROOT
BRANCH  43  46
HETATM   46  C35 UNL     1      75.228 -12.967  15.384  1.00  0.00     0.172 A 
HETATM   47  C36 UNL     1      75.624 -13.976  14.349  1.00  0.00     0.087 A 
HETATM   48  S1  UNL     1      74.542 -14.893  13.551  1.00  0.00    -0.078 SA
HETATM   49  C37 UNL     1      77.033 -14.000  14.185  1.00  0.00     0.202 A 
HETATM   50  O2  UNL     1      77.757 -14.691  13.394  1.00  0.00    -0.286 OA
HETATM   51  C38 UNL     1      77.581 -13.035  15.135  1.00  0.00     0.024 A 
HETATM   52  C39 UNL     1      78.913 -12.682  15.394  1.00  0.00     0.016 A 
HETATM   53  C43 UNL     1      76.546 -12.463  15.829  1.00  0.00    -0.015 A 
HETATM   54  C40 UNL     1      79.251 -11.757  16.346  1.00  0.00     0.001 A 
HETATM   55  C41 UNL     1      78.229 -11.176  17.050  1.00  0.00     0.001 A 
HETATM   56  C42 UNL     1      76.896 -11.534  16.785  1.00  0.00     0.010 A 
ENDBRANCH  43  46
TORSDOF 1
ENDMDL
