MODEL 1
REMARK VINA RESULT: -10.184644728      0.000      0.000
REMARK  3 active torsions:
REMARK  status: ('A' for Active; 'I' for Inactive)
REMARK    1  A    between atoms: S1_2  and  N1_5 
REMARK    2  A    between atoms: C32_39  and  O5_40 
REMARK    3  A    between atoms: C36_45  and  O6_46 
ROOT
HETATM    1  N1  UNL     1      68.006 -11.146  21.329  1.00  0.00    -0.307 N 
HETATM    2  C2  UNL     1      68.611  -9.879  21.123  1.00  0.00     0.161 C 
HETATM    3  C3  UNL     1      68.067  -8.874  22.136  1.00  0.00     0.196 C 
HETATM    4  O3  UNL     1      69.105  -8.102  22.604  1.00  0.00    -0.349 OA
HETATM    5  C4  UNL     1      69.964  -7.136  22.128  1.00  0.00     0.071 A 
HETATM    6  C5  UNL     1      70.068  -6.062  23.039  1.00  0.00     0.037 A 
HETATM    7  C6  UNL     1      70.853  -4.955  22.835  1.00  0.00     0.005 A 
HETATM    8  C7  UNL     1      71.557  -4.954  21.647  1.00  0.00     0.037 A 
HETATM    9  C8  UNL     1      71.486  -5.982  20.729  1.00  0.00     0.078 A 
HETATM   10  C9  UNL     1      70.685  -7.088  20.958  1.00  0.00     0.074 A 
HETATM   11  O4  UNL     1      72.294  -5.750  19.604  1.00  0.00    -0.311 OA
HETATM   12  C10 UNL     1      73.374  -6.462  19.059  1.00  0.00     0.076 A 
HETATM   13  C11 UNL     1      73.210  -7.724  18.598  1.00  0.00     0.038 A 
HETATM   14  C12 UNL     1      74.325  -8.410  18.063  1.00  0.00     0.015 A 
HETATM   15  C13 UNL     1      75.604  -7.866  17.973  1.00  0.00    -0.026 A 
HETATM   16  C14 UNL     1      75.714  -6.573  18.454  1.00  0.00     0.015 A 
HETATM   17  C15 UNL     1      74.608  -5.882  18.992  1.00  0.00     0.038 A 
HETATM   18  C16 UNL     1      76.713  -8.728  17.348  1.00  0.00    -0.026 A 
HETATM   19  C17 UNL     1      76.979  -8.637  15.996  1.00  0.00     0.013 A 
HETATM   20  C18 UNL     1      77.837  -9.491  15.256  1.00  0.00     0.010 A 
HETATM   21  C19 UNL     1      78.483 -10.513  15.906  1.00  0.00    -0.040 A 
HETATM   22  C20 UNL     1      78.263 -10.638  17.263  1.00  0.00     0.010 A 
HETATM   23  C21 UNL     1      77.395  -9.760  17.954  1.00  0.00     0.013 A 
HETATM   24  C22 UNL     1      79.199 -11.619  15.104  1.00  0.00     0.166 C 
HETATM   25  N2  UNL     1      78.382 -12.889  15.230  1.00  0.00    -0.361 N 
HETATM   26  C23 UNL     1      78.994 -14.061  15.529  1.00  0.00     0.091 A 
HETATM   27  C24 UNL     1      78.011 -14.979  15.703  1.00  0.00     0.031 A 
HETATM   28  C25 UNL     1      76.763 -14.326  15.501  1.00  0.00    -0.006 A 
HETATM   29  C26 UNL     1      77.066 -13.012  15.198  1.00  0.00     0.103 A 
HETATM   30  C27 UNL     1      75.454 -15.040  15.725  1.00  0.00     0.009 A 
HETATM   31  C28 UNL     1      74.377 -14.708  16.505  1.00  0.00     0.027 A 
HETATM   32  C29 UNL     1      73.286 -15.523  16.618  1.00  0.00    -0.025 A 
HETATM   33  C30 UNL     1      73.326 -16.738  15.876  1.00  0.00     0.015 A 
HETATM   34  C31 UNL     1      74.356 -17.135  15.082  1.00  0.00     0.038 A 
HETATM   35  C32 UNL     1      75.413 -16.264  15.024  1.00  0.00     0.076 A 
HETATM   36  C33 UNL     1      72.031 -15.405  17.456  1.00  0.00    -0.023 A 
HETATM   37  C34 UNL     1      71.692 -16.641  18.091  1.00  0.00     0.015 A 
HETATM   38  C35 UNL     1      70.631 -16.854  18.905  1.00  0.00     0.040 A 
HETATM   39  C36 UNL     1      69.827 -15.754  19.120  1.00  0.00     0.099 A 
HETATM   40  C37 UNL     1      70.088 -14.518  18.541  1.00  0.00     0.102 A 
HETATM   41  C38 UNL     1      71.182 -14.367  17.720  1.00  0.00     0.052 A 
HETATM   42  O7  UNL     1      69.139 -13.578  18.917  1.00  0.00    -0.347 OA
HETATM   43  C39 UNL     1      69.154 -12.333  19.537  1.00  0.00     0.196 C 
HETATM   44  C40 UNL     1      68.766 -12.294  20.968  1.00  0.00     0.161 C 
ENDROOT
BRANCH   1  45
HETATM   45  S1  UNL     1      66.334 -11.240  21.106  1.00  0.00     0.224 S 
HETATM   46  C1  UNL     1      65.817 -10.271  19.717  1.00  0.00     0.186 C 
HETATM   47  O1  UNL     1      65.968 -12.685  20.794  1.00  0.00    -0.206 OA
HETATM   48  O2  UNL     1      65.549 -10.887  22.341  1.00  0.00    -0.206 OA
ENDBRANCH   1  45
BRANCH  39  49
HETATM   49  O6  UNL     1      68.718 -16.008  19.973  1.00  0.00    -0.358 OA
ATOM     50  H6  UNL     1      68.453 -15.260  20.495  1.00  0.00     0.217 HD
ENDBRANCH  39  49
BRANCH  35  51
HETATM   51  O5  UNL     1      76.481 -16.680  14.203  1.00  0.00    -0.360 OA
ATOM     52  H5  UNL     1      77.119 -16.062  13.868  1.00  0.00     0.217 HD
ENDBRANCH  35  51
TORSDOF 3
ENDMDL
MODEL 2
REMARK VINA RESULT: -9.983207286      3.059     11.872
REMARK  3 active torsions:
REMARK  status: ('A' for Active; 'I' for Inactive)
REMARK    1  A    between atoms: S1_2  and  N1_5 
REMARK    2  A    between atoms: C32_39  and  O5_40 
REMARK    3  A    between atoms: C36_45  and  O6_46 
ROOT
HETATM    1  N1  UNL     1      76.420 -10.676  16.959  1.00  0.00    -0.307 N 
HETATM    2  C2  UNL     1      75.709 -11.902  16.885  1.00  0.00     0.161 C 
HETATM    3  C3  UNL     1      76.683 -13.050  16.631  1.00  0.00     0.196 C 
HETATM    4  O3  UNL     1      76.326 -14.123  17.415  1.00  0.00    -0.349 OA
HETATM    5  C4  UNL     1      75.297 -15.034  17.505  1.00  0.00     0.071 A 
HETATM    6  C5  UNL     1      75.797 -16.342  17.682  1.00  0.00     0.037 A 
HETATM    7  C6  UNL     1      75.007 -17.458  17.805  1.00  0.00     0.005 A 
HETATM    8  C7  UNL     1      73.648 -17.215  17.744  1.00  0.00     0.037 A 
HETATM    9  C8  UNL     1      73.116 -15.953  17.574  1.00  0.00     0.078 A 
HETATM   10  C9  UNL     1      73.936 -14.844  17.451  1.00  0.00     0.074 A 
HETATM   11  O4  UNL     1      71.712 -15.964  17.547  1.00  0.00    -0.311 OA
HETATM   12  C10 UNL     1      70.750 -15.345  18.359  1.00  0.00     0.076 A 
HETATM   13  C11 UNL     1      70.670 -13.996  18.434  1.00  0.00     0.038 A 
HETATM   14  C12 UNL     1      69.692 -13.411  19.271  1.00  0.00     0.015 A 
HETATM   15  C13 UNL     1      68.785 -14.140  20.035  1.00  0.00    -0.026 A 
HETATM   16  C14 UNL     1      68.908 -15.513  19.919  1.00  0.00     0.015 A 
HETATM   17  C15 UNL     1      69.883 -16.106  19.089  1.00  0.00     0.038 A 
HETATM   18  C16 UNL     1      67.765 -13.361  20.882  1.00  0.00    -0.026 A 
HETATM   19  C17 UNL     1      66.521 -13.062  20.363  1.00  0.00     0.013 A 
HETATM   20  C18 UNL     1      65.557 -12.204  20.952  1.00  0.00     0.010 A 
HETATM   21  C19 UNL     1      65.847 -11.597  22.149  1.00  0.00    -0.040 A 
HETATM   22  C20 UNL     1      67.072 -11.876  22.718  1.00  0.00     0.010 A 
HETATM   23  C21 UNL     1      68.000 -12.739  22.089  1.00  0.00     0.013 A 
HETATM   24  C22 UNL     1      64.954 -10.457  22.682  1.00  0.00     0.166 C 
HETATM   25  N2  UNL     1      65.726  -9.161  22.550  1.00  0.00    -0.361 N 
HETATM   26  C23 UNL     1      65.779  -8.295  23.592  1.00  0.00     0.091 A 
HETATM   27  C24 UNL     1      66.635  -7.306  23.232  1.00  0.00     0.031 A 
HETATM   28  C25 UNL     1      67.111  -7.596  21.923  1.00  0.00    -0.006 A 
HETATM   29  C26 UNL     1      66.495  -8.774  21.546  1.00  0.00     0.103 A 
HETATM   30  C27 UNL     1      68.168  -6.747  21.262  1.00  0.00     0.009 A 
HETATM   31  C28 UNL     1      69.372  -7.091  20.705  1.00  0.00     0.027 A 
HETATM   32  C29 UNL     1      70.227  -6.157  20.193  1.00  0.00    -0.025 A 
HETATM   33  C30 UNL     1      69.797  -4.801  20.266  1.00  0.00     0.015 A 
HETATM   34  C31 UNL     1      68.620  -4.382  20.802  1.00  0.00     0.038 A 
HETATM   35  C32 UNL     1      67.820  -5.380  21.296  1.00  0.00     0.076 A 
HETATM   36  C33 UNL     1      71.614  -6.286  19.601  1.00  0.00    -0.023 A 
HETATM   37  C34 UNL     1      72.504  -5.280  20.094  1.00  0.00     0.015 A 
HETATM   38  C35 UNL     1      73.807  -5.135  19.757  1.00  0.00     0.040 A 
HETATM   39  C36 UNL     1      74.286  -6.062  18.854  1.00  0.00     0.099 A 
HETATM   40  C37 UNL     1      73.487  -7.070  18.329  1.00  0.00     0.102 A 
HETATM   41  C38 UNL     1      72.167  -7.163  18.710  1.00  0.00     0.052 A 
HETATM   42  O7  UNL     1      74.204  -7.872  17.452  1.00  0.00    -0.347 OA
HETATM   43  C39 UNL     1      74.499  -9.228  17.349  1.00  0.00     0.196 C 
HETATM   44  C40 UNL     1      75.858  -9.648  17.769  1.00  0.00     0.161 C 
ENDROOT
BRANCH   1  45
HETATM   45  S1  UNL     1      77.242 -10.184  15.568  1.00  0.00     0.224 S 
HETATM   46  C1  UNL     1      78.898 -10.809  15.547  1.00  0.00     0.186 C 
HETATM   47  O1  UNL     1      76.535 -10.772  14.354  1.00  0.00    -0.206 OA
HETATM   48  O2  UNL     1      77.218  -8.693  15.359  1.00  0.00    -0.206 OA
ENDBRANCH   1  45
BRANCH  39  49
HETATM   49  O6  UNL     1      75.655  -5.882  18.513  1.00  0.00    -0.358 OA
ATOM     50  H6  UNL     1      75.918  -4.972  18.438  1.00  0.00     0.217 HD
ENDBRANCH  39  49
BRANCH  35  51
HETATM   51  O5  UNL     1      66.602  -4.942  21.854  1.00  0.00    -0.360 OA
ATOM     52  H5  UNL     1      65.802  -4.914  21.341  1.00  0.00     0.217 HD
ENDBRANCH  35  51
TORSDOF 3
ENDMDL
MODEL 3
REMARK VINA RESULT: -9.805581765      3.764     11.460
REMARK  3 active torsions:
REMARK  status: ('A' for Active; 'I' for Inactive)
REMARK    1  A    between atoms: S1_2  and  N1_5 
REMARK    2  A    between atoms: C32_39  and  O5_40 
REMARK    3  A    between atoms: C36_45  and  O6_46 
ROOT
HETATM    1  N1  UNL     1      77.713 -11.735  16.921  1.00  0.00    -0.307 N 
HETATM    2  C2  UNL     1      77.320 -13.028  17.355  1.00  0.00     0.161 C 
HETATM    3  C3  UNL     1      78.556 -13.876  17.645  1.00  0.00     0.196 C 
HETATM    4  O3  UNL     1      78.347 -14.594  18.800  1.00  0.00    -0.349 OA
HETATM    5  C4  UNL     1      77.551 -15.629  19.237  1.00  0.00     0.071 A 
HETATM    6  C5  UNL     1      78.307 -16.570  19.970  1.00  0.00     0.037 A 
HETATM    7  C6  UNL     1      77.783 -17.707  20.532  1.00  0.00     0.005 A 
HETATM    8  C7  UNL     1      76.427 -17.882  20.330  1.00  0.00     0.037 A 
HETATM    9  C8  UNL     1      75.650 -16.988  19.621  1.00  0.00     0.078 A 
HETATM   10  C9  UNL     1      76.204 -15.848  19.064  1.00  0.00     0.074 A 
HETATM   11  O4  UNL     1      74.304 -17.384  19.558  1.00  0.00    -0.311 OA
HETATM   12  C10 UNL     1      73.122 -16.770  19.998  1.00  0.00     0.076 A 
HETATM   13  C11 UNL     1      72.726 -15.581  19.488  1.00  0.00     0.038 A 
HETATM   14  C12 UNL     1      71.531 -14.992  19.964  1.00  0.00     0.015 A 
HETATM   15  C13 UNL     1      70.717 -15.564  20.938  1.00  0.00    -0.026 A 
HETATM   16  C14 UNL     1      71.165 -16.780  21.422  1.00  0.00     0.015 A 
HETATM   17  C15 UNL     1      72.357 -17.374  20.955  1.00  0.00     0.038 A 
HETATM   18  C16 UNL     1      69.436 -14.813  21.340  1.00  0.00    -0.026 A 
HETATM   19  C17 UNL     1      68.243 -15.092  20.703  1.00  0.00     0.013 A 
HETATM   20  C18 UNL     1      67.035 -14.362  20.840  1.00  0.00     0.010 A 
HETATM   21  C19 UNL     1      67.006 -13.270  21.672  1.00  0.00    -0.040 A 
HETATM   22  C20 UNL     1      68.169 -12.958  22.345  1.00  0.00     0.010 A 
HETATM   23  C21 UNL     1      69.349 -13.719  22.172  1.00  0.00     0.013 A 
HETATM   24  C22 UNL     1      65.810 -12.296  21.641  1.00  0.00     0.166 C 
HETATM   25  N2  UNL     1      66.277 -11.008  20.993  1.00  0.00    -0.361 N 
HETATM   26  C23 UNL     1      65.982  -9.816  21.568  1.00  0.00     0.091 A 
HETATM   27  C24 UNL     1      66.632  -8.867  20.848  1.00  0.00     0.031 A 
HETATM   28  C25 UNL     1      67.342  -9.522  19.803  1.00  0.00    -0.006 A 
HETATM   29  C26 UNL     1      67.070 -10.869  19.944  1.00  0.00     0.103 A 
HETATM   30  C27 UNL     1      68.259  -8.763  18.878  1.00  0.00     0.009 A 
HETATM   31  C28 UNL     1      69.576  -8.968  18.558  1.00  0.00     0.027 A 
HETATM   32  C29 UNL     1      70.259  -8.128  17.725  1.00  0.00    -0.025 A 
HETATM   33  C30 UNL     1      69.525  -7.026  17.199  1.00  0.00     0.015 A 
HETATM   34  C31 UNL     1      68.219  -6.758  17.467  1.00  0.00     0.038 A 
HETATM   35  C32 UNL     1      67.606  -7.645  18.314  1.00  0.00     0.076 A 
HETATM   36  C33 UNL     1      71.707  -8.110  17.288  1.00  0.00    -0.023 A 
HETATM   37  C34 UNL     1      72.265  -6.793  17.333  1.00  0.00     0.015 A 
HETATM   38  C35 UNL     1      73.535  -6.455  17.008  1.00  0.00     0.040 A 
HETATM   39  C36 UNL     1      74.336  -7.502  16.601  1.00  0.00     0.099 A 
HETATM   40  C37 UNL     1      73.870  -8.809  16.531  1.00  0.00     0.102 A 
HETATM   41  C38 UNL     1      72.567  -9.089  16.873  1.00  0.00     0.052 A 
HETATM   42  O7  UNL     1      74.868  -9.673  16.103  1.00  0.00    -0.347 OA
HETATM   43  C39 UNL     1      75.477 -10.823  16.596  1.00  0.00     0.196 C 
HETATM   44  C40 UNL     1      76.823 -10.659  17.199  1.00  0.00     0.161 C 
ENDROOT
BRANCH   1  45
HETATM   45  S1  UNL     1      78.589 -11.646  15.480  1.00  0.00     0.224 S 
HETATM   46  C1  UNL     1      78.390 -10.066  14.705  1.00  0.00     0.186 C 
HETATM   47  O1  UNL     1      80.070 -11.792  15.804  1.00  0.00    -0.206 OA
HETATM   48  O2  UNL     1      78.278 -12.766  14.524  1.00  0.00    -0.206 OA
ENDBRANCH   1  45
BRANCH  39  49
HETATM   49  O6  UNL     1      75.662  -7.116  16.260  1.00  0.00    -0.358 OA
ATOM     50  H6  UNL     1      76.123  -7.752  15.726  1.00  0.00     0.217 HD
ENDBRANCH  39  49
BRANCH  35  51
HETATM   51  O5  UNL     1      66.254  -7.363  18.594  1.00  0.00    -0.360 OA
ATOM     52  H5  UNL     1      65.577  -7.481  17.939  1.00  0.00     0.217 HD
ENDBRANCH  35  51
TORSDOF 3
ENDMDL
MODEL 4
REMARK VINA RESULT: -9.791470568      5.429      8.746
REMARK  3 active torsions:
REMARK  status: ('A' for Active; 'I' for Inactive)
REMARK    1  A    between atoms: S1_2  and  N1_5 
REMARK    2  A    between atoms: C32_39  and  O5_40 
REMARK    3  A    between atoms: C36_45  and  O6_46 
ROOT
HETATM    1  N1  UNL     1      66.960 -12.519  29.094  1.00  0.00    -0.307 N 
HETATM    2  C2  UNL     1      66.249 -11.321  28.822  1.00  0.00     0.161 C 
HETATM    3  C3  UNL     1      65.795 -10.680  30.132  1.00  0.00     0.196 C 
HETATM    4  O3  UNL     1      65.990  -9.320  30.057  1.00  0.00    -0.349 OA
HETATM    5  C4  UNL     1      65.476  -8.244  29.368  1.00  0.00     0.071 A 
HETATM    6  C5  UNL     1      65.235  -7.158  30.238  1.00  0.00     0.037 A 
HETATM    7  C6  UNL     1      64.724  -5.949  29.835  1.00  0.00     0.005 A 
HETATM    8  C7  UNL     1      64.452  -5.856  28.484  1.00  0.00     0.037 A 
HETATM    9  C8  UNL     1      64.674  -6.891  27.598  1.00  0.00     0.078 A 
HETATM   10  C9  UNL     1      65.189  -8.101  28.030  1.00  0.00     0.074 A 
HETATM   11  O4  UNL     1      64.322  -6.551  26.282  1.00  0.00    -0.311 OA
HETATM   12  C10 UNL     1      65.068  -6.492  25.094  1.00  0.00     0.076 A 
HETATM   13  C11 UNL     1      65.645  -7.603  24.582  1.00  0.00     0.038 A 
HETATM   14  C12 UNL     1      66.395  -7.499  23.387  1.00  0.00     0.015 A 
HETATM   15  C13 UNL     1      66.581  -6.310  22.686  1.00  0.00    -0.026 A 
HETATM   16  C14 UNL     1      65.966  -5.207  23.251  1.00  0.00     0.015 A 
HETATM   17  C15 UNL     1      65.219  -5.300  24.444  1.00  0.00     0.038 A 
HETATM   18  C16 UNL     1      67.406  -6.358  21.390  1.00  0.00    -0.026 A 
HETATM   19  C17 UNL     1      66.775  -6.545  20.176  1.00  0.00     0.013 A 
HETATM   20  C18 UNL     1      67.414  -6.789  18.933  1.00  0.00     0.010 A 
HETATM   21  C19 UNL     1      68.785  -6.852  18.889  1.00  0.00    -0.040 A 
HETATM   22  C20 UNL     1      69.465  -6.656  20.074  1.00  0.00     0.010 A 
HETATM   23  C21 UNL     1      68.779  -6.417  21.288  1.00  0.00     0.013 A 
HETATM   24  C22 UNL     1      69.502  -7.382  17.630  1.00  0.00     0.166 C 
HETATM   25  N2  UNL     1      70.072  -8.746  17.959  1.00  0.00    -0.361 N 
HETATM   26  C23 UNL     1      71.351  -9.044  17.625  1.00  0.00     0.091 A 
HETATM   27  C24 UNL     1      71.616 -10.265  18.154  1.00  0.00     0.031 A 
HETATM   28  C25 UNL     1      70.447 -10.711  18.830  1.00  0.00    -0.006 A 
HETATM   29  C26 UNL     1      69.506  -9.713  18.663  1.00  0.00     0.103 A 
HETATM   30  C27 UNL     1      70.435 -11.993  19.624  1.00  0.00     0.009 A 
HETATM   31  C28 UNL     1      70.081 -12.236  20.925  1.00  0.00     0.027 A 
HETATM   32  C29 UNL     1      70.189 -13.477  21.486  1.00  0.00    -0.025 A 
HETATM   33  C30 UNL     1      70.688 -14.510  20.641  1.00  0.00     0.015 A 
HETATM   34  C31 UNL     1      71.058 -14.348  19.343  1.00  0.00     0.038 A 
HETATM   35  C32 UNL     1      70.923 -13.074  18.856  1.00  0.00     0.076 A 
HETATM   36  C33 UNL     1      69.930 -13.966  22.894  1.00  0.00    -0.023 A 
HETATM   37  C34 UNL     1      70.969 -14.831  23.362  1.00  0.00     0.015 A 
HETATM   38  C35 UNL     1      71.026 -15.422  24.579  1.00  0.00     0.040 A 
HETATM   39  C36 UNL     1      69.968 -15.140  25.419  1.00  0.00     0.099 A 
HETATM   40  C37 UNL     1      68.921 -14.309  25.040  1.00  0.00     0.102 A 
HETATM   41  C38 UNL     1      68.920 -13.739  23.787  1.00  0.00     0.052 A 
HETATM   42  O7  UNL     1      67.990 -14.180  26.062  1.00  0.00    -0.347 OA
HETATM   43  C39 UNL     1      67.434 -13.128  26.782  1.00  0.00     0.196 C 
HETATM   44  C40 UNL     1      67.955 -12.909  28.154  1.00  0.00     0.161 C 
ENDROOT
BRANCH   1  45
HETATM   45  S1  UNL     1      66.104 -13.760  29.855  1.00  0.00     0.224 S 
HETATM   46  C1  UNL     1      66.273 -15.288  28.977  1.00  0.00     0.186 C 
HETATM   47  O1  UNL     1      66.700 -13.981  31.239  1.00  0.00    -0.206 OA
HETATM   48  O2  UNL     1      64.656 -13.425  30.094  1.00  0.00    -0.206 OA
ENDBRANCH   1  45
BRANCH  39  49
HETATM   49  O6  UNL     1      70.051 -15.779  26.686  1.00  0.00    -0.358 OA
ATOM     50  H6  UNL     1      69.217 -15.854  27.136  1.00  0.00     0.217 HD
ENDBRANCH  39  49
BRANCH  35  51
HETATM   51  O5  UNL     1      71.310 -12.907  17.511  1.00  0.00    -0.360 OA
ATOM     52  H5  UNL     1      70.917 -12.242  16.960  1.00  0.00     0.217 HD
ENDBRANCH  35  51
TORSDOF 3
ENDMDL
MODEL 5
REMARK VINA RESULT: -9.681684666      3.802     11.382
REMARK  3 active torsions:
REMARK  status: ('A' for Active; 'I' for Inactive)
REMARK    1  A    between atoms: S1_2  and  N1_5 
REMARK    2  A    between atoms: C32_39  and  O5_40 
REMARK    3  A    between atoms: C36_45  and  O6_46 
ROOT
HETATM    1  N1  UNL     1      78.685 -10.186  18.030  1.00  0.00    -0.307 N 
HETATM    2  C2  UNL     1      78.510 -11.594  18.058  1.00  0.00     0.161 C 
HETATM    3  C3  UNL     1      79.854 -12.278  18.298  1.00  0.00     0.196 C 
HETATM    4  O3  UNL     1      79.679 -13.312  19.189  1.00  0.00    -0.349 OA
HETATM    5  C4  UNL     1      79.061 -14.542  19.229  1.00  0.00     0.071 A 
HETATM    6  C5  UNL     1      79.912 -15.514  19.800  1.00  0.00     0.037 A 
HETATM    7  C6  UNL     1      79.567 -16.831  19.971  1.00  0.00     0.005 A 
HETATM    8  C7  UNL     1      78.297 -17.160  19.538  1.00  0.00     0.037 A 
HETATM    9  C8  UNL     1      77.433 -16.242  18.976  1.00  0.00     0.078 A 
HETATM   10  C9  UNL     1      77.806 -14.919  18.813  1.00  0.00     0.074 A 
HETATM   11  O4  UNL     1      76.202 -16.817  18.620  1.00  0.00    -0.311 OA
HETATM   12  C10 UNL     1      74.886 -16.548  19.026  1.00  0.00     0.076 A 
HETATM   13  C11 UNL     1      74.317 -15.344  18.784  1.00  0.00     0.038 A 
HETATM   14  C12 UNL     1      72.991 -15.111  19.217  1.00  0.00     0.015 A 
HETATM   15  C13 UNL     1      72.214 -16.054  19.885  1.00  0.00    -0.026 A 
HETATM   16  C14 UNL     1      72.842 -17.267  20.102  1.00  0.00     0.015 A 
HETATM   17  C15 UNL     1      74.165 -17.508  19.677  1.00  0.00     0.038 A 
HETATM   18  C16 UNL     1      70.779 -15.660  20.275  1.00  0.00    -0.026 A 
HETATM   19  C17 UNL     1      69.730 -15.941  19.423  1.00  0.00     0.013 A 
HETATM   20  C18 UNL     1      68.395 -15.481  19.565  1.00  0.00     0.010 A 
HETATM   21  C19 UNL     1      68.075 -14.682  20.635  1.00  0.00    -0.040 A 
HETATM   22  C20 UNL     1      69.086 -14.385  21.526  1.00  0.00     0.010 A 
HETATM   23  C21 UNL     1      70.402 -14.868  21.338  1.00  0.00     0.013 A 
HETATM   24  C22 UNL     1      66.722 -13.944  20.681  1.00  0.00     0.166 C 
HETATM   25  N2  UNL     1      66.989 -12.470  20.457  1.00  0.00    -0.361 N 
HETATM   26  C23 UNL     1      66.415 -11.547  21.267  1.00  0.00     0.091 A 
HETATM   27  C24 UNL     1      66.934 -10.344  20.914  1.00  0.00     0.031 A 
HETATM   28  C25 UNL     1      67.854 -10.561  19.851  1.00  0.00    -0.006 A 
HETATM   29  C26 UNL     1      67.837 -11.920  19.604  1.00  0.00     0.103 A 
HETATM   30  C27 UNL     1      68.691  -9.438  19.292  1.00  0.00     0.009 A 
HETATM   31  C28 UNL     1      70.047  -9.330  19.125  1.00  0.00     0.027 A 
HETATM   32  C29 UNL     1      70.630  -8.194  18.640  1.00  0.00    -0.025 A 
HETATM   33  C30 UNL     1      69.749  -7.124  18.312  1.00  0.00     0.015 A 
HETATM   34  C31 UNL     1      68.397  -7.154  18.449  1.00  0.00     0.038 A 
HETATM   35  C32 UNL     1      67.890  -8.328  18.944  1.00  0.00     0.076 A 
HETATM   36  C33 UNL     1      72.082  -7.822  18.436  1.00  0.00    -0.023 A 
HETATM   37  C34 UNL     1      72.367  -6.498  18.895  1.00  0.00     0.015 A 
HETATM   38  C35 UNL     1      73.572  -5.882  18.854  1.00  0.00     0.040 A 
HETATM   39  C36 UNL     1      74.597  -6.632  18.315  1.00  0.00     0.099 A 
HETATM   40  C37 UNL     1      74.402  -7.926  17.847  1.00  0.00     0.102 A 
HETATM   41  C38 UNL     1      73.152  -8.496  17.915  1.00  0.00     0.052 A 
HETATM   42  O7  UNL     1      75.585  -8.465  17.361  1.00  0.00    -0.347 OA
HETATM   43  C39 UNL     1      76.356  -9.593  17.628  1.00  0.00     0.196 C 
HETATM   44  C40 UNL     1      77.580  -9.387  18.440  1.00  0.00     0.161 C 
ENDROOT
BRANCH   1  45
HETATM   45  S1  UNL     1      79.661  -9.561  16.801  1.00  0.00     0.224 S 
HETATM   46  C1  UNL     1      79.416 -10.435  15.281  1.00  0.00     0.186 C 
HETATM   47  O1  UNL     1      79.253  -8.116  16.548  1.00  0.00    -0.206 OA
HETATM   48  O2  UNL     1      81.119  -9.505  17.170  1.00  0.00    -0.206 OA
ENDBRANCH   1  45
BRANCH  39  49
HETATM   49  O6  UNL     1      75.848  -5.959  18.278  1.00  0.00    -0.358 OA
ATOM     50  H6  UNL     1      76.014  -5.409  19.034  1.00  0.00     0.217 HD
ENDBRANCH  39  49
BRANCH  35  51
HETATM   51  O5  UNL     1      66.488  -8.356  19.088  1.00  0.00    -0.360 OA
ATOM     52  H5  UNL     1      66.029  -7.702  19.601  1.00  0.00     0.217 HD
ENDBRANCH  35  51
TORSDOF 3
ENDMDL
