MODEL 1
REMARK VINA RESULT: -12.412637824      0.000      0.000
REMARK  5 active torsions:
REMARK  status: ('A' for Active; 'I' for Inactive)
REMARK    1  A    between atoms: C5_7  and  N2_8 
REMARK       I    between atoms: N2_8  and  C6_10 
REMARK    2  A    between atoms: C6_10  and  C7_12 
REMARK    3  A    between atoms: C10_15  and  O2_16 
REMARK    4  A    between atoms: C11_18  and  C12_19 
REMARK    5  A    between atoms: C37_48  and  O4_49 
ROOT
HETATM    1  C12 UNL     1      70.507  -5.563  22.991  1.00  0.00     0.063 A 
HETATM    2  C13 UNL     1      71.632  -5.779  22.232  1.00  0.00     0.065 A 
HETATM    3  C14 UNL     1      71.247  -6.398  21.013  1.00  0.00     0.080 A 
HETATM    4  N3  UNL     1      69.953  -6.522  21.085  1.00  0.00    -0.285 N 
HETATM    5  N4  UNL     1      69.511  -6.024  22.267  1.00  0.00    -0.297 N 
ATOM      6  H4  UNL     1      68.533  -6.009  22.557  1.00  0.00     0.187 HD
HETATM    7  C15 UNL     1      68.998  -7.066  20.124  1.00  0.00     0.187 C 
HETATM    8  C16 UNL     1      68.749  -8.552  20.281  1.00  0.00    -0.038 A 
HETATM    9  C17 UNL     1      68.890  -9.454  19.244  1.00  0.00     0.010 A 
HETATM   10  C18 UNL     1      68.707 -10.819  19.447  1.00  0.00     0.013 A 
HETATM   11  C19 UNL     1      68.374 -11.454  20.658  1.00  0.00    -0.025 A 
HETATM   12  C20 UNL     1      68.235 -10.521  21.675  1.00  0.00     0.013 A 
HETATM   13  C21 UNL     1      68.413  -9.151  21.486  1.00  0.00     0.010 A 
HETATM   14  C22 UNL     1      68.336 -12.985  20.823  1.00  0.00    -0.017 A 
HETATM   15  C23 UNL     1      69.540 -13.692  21.029  1.00  0.00     0.049 A 
HETATM   16  C24 UNL     1      69.576 -15.055  21.027  1.00  0.00     0.070 A 
HETATM   17  C25 UNL     1      68.410 -15.782  20.836  1.00  0.00     0.037 A 
HETATM   18  C26 UNL     1      67.193 -15.167  20.638  1.00  0.00     0.010 A 
HETATM   19  C27 UNL     1      67.207 -13.804  20.638  1.00  0.00    -0.051 A 
HETATM   20  C28 UNL     1      65.847 -13.218  20.424  1.00  0.00     0.049 C 
HETATM   21  O3  UNL     1      70.682 -15.914  21.183  1.00  0.00    -0.347 OA
HETATM   22  C29 UNL     1      71.885 -15.946  20.375  1.00  0.00     0.214 C 
HETATM   23  C30 UNL     1      72.112 -14.684  19.586  1.00  0.00    -0.034 A 
HETATM   24  C31 UNL     1      73.062 -13.768  19.950  1.00  0.00     0.010 A 
HETATM   25  C32 UNL     1      73.224 -12.509  19.266  1.00  0.00     0.008 A 
HETATM   26  C33 UNL     1      72.449 -12.127  18.206  1.00  0.00    -0.052 A 
HETATM   27  C34 UNL     1      71.500 -13.057  17.840  1.00  0.00     0.008 A 
HETATM   28  C35 UNL     1      71.338 -14.300  18.513  1.00  0.00     0.010 A 
HETATM   29  C36 UNL     1      72.577 -10.786  17.547  1.00  0.00     0.105 C 
HETATM   30  C37 UNL     1      73.473  -9.779  18.103  1.00  0.00     0.074 C 
HETATM   31  C38 UNL     1      73.264  -8.419  18.564  1.00  0.00     0.062 A 
HETATM   32  C39 UNL     1      74.122  -7.427  18.048  1.00  0.00     0.032 A 
HETATM   33  C40 UNL     1      74.026  -6.133  18.474  1.00  0.00     0.005 A 
HETATM   34  C41 UNL     1      73.071  -5.837  19.417  1.00  0.00     0.032 A 
HETATM   35  C42 UNL     1      72.202  -6.784  19.955  1.00  0.00     0.061 A 
HETATM   36  N5  UNL     1      72.370  -8.023  19.474  1.00  0.00    -0.352 N 
ATOM     37  H5  UNL     1      71.748  -8.742  19.844  1.00  0.00     0.166 HD
ENDROOT
BRANCH   1  38
HETATM   38  C11 UNL     1      70.442  -4.949  24.334  1.00  0.00     0.026 A 
HETATM   39  C10 UNL     1      71.294  -3.898  24.605  1.00  0.00     0.078 A 
HETATM   40  C9  UNL     1      71.235  -3.317  25.841  1.00  0.00     0.038 A 
HETATM   41  C8  UNL     1      70.355  -3.754  26.813  1.00  0.00     0.020 A 
HETATM   42  C7  UNL     1      69.498  -4.805  26.555  1.00  0.00     0.033 A 
HETATM   43  C43 UNL     1      69.558  -5.396  25.293  1.00  0.00     0.033 A 
BRANCH  39  44
HETATM   44  O2  UNL     1      72.166  -3.473  23.623  1.00  0.00    -0.360 OA
ATOM     45  H2  UNL     1      72.756  -2.738  23.743  1.00  0.00     0.217 HD
ENDBRANCH  39  44
BRANCH  42  46
HETATM   46  C6  UNL     1      68.561  -5.284  27.559  1.00  0.00     0.269 C 
HETATM   47  N2  UNL     1      67.597  -6.249  27.253  1.00  0.00    -0.155 N 
ATOM     48  H2  UNL     1      67.744  -7.220  27.527  1.00  0.00     0.187 HD
HETATM   49  O1  UNL     1      68.619  -4.825  28.722  1.00  0.00    -0.267 OA
BRANCH  47  50
HETATM   50  C5  UNL     1      66.524  -5.913  26.629  1.00  0.00     0.685 A 
HETATM   51  N1  UNL     1      66.120  -6.608  25.543  1.00  0.00    -0.202 N 
HETATM   52  C4  UNL     1      64.990  -6.206  24.935  1.00  0.00     0.108 A 
ATOM     53  H1  UNL     1      66.652  -7.407  25.197  1.00  0.00     0.183 HD
HETATM   54  C3  UNL     1      64.248  -5.137  25.370  1.00  0.00     0.042 A 
HETATM   55  C2  UNL     1      64.671  -4.445  26.468  1.00  0.00     0.024 A 
HETATM   56  C1  UNL     1      63.947  -3.284  27.017  1.00  0.00     0.068 C 
HETATM   57  N6  UNL     1      65.815  -4.877  27.058  1.00  0.00    -0.196 N 
ATOM     58  H6  UNL     1      66.149  -4.374  27.881  1.00  0.00     0.184 HD
ENDBRANCH  47  50
ENDBRANCH  42  46
ENDBRANCH   1  38
BRANCH  30  59
HETATM   59  O4  UNL     1      74.708 -10.205  18.194  1.00  0.00    -0.362 OA
ATOM     60  H4  UNL     1      75.212  -9.724  18.841  1.00  0.00     0.217 HD
ENDBRANCH  30  59
TORSDOF 5
ENDMDL
MODEL 2
REMARK VINA RESULT: -12.126566412      0.321      1.003
REMARK  5 active torsions:
REMARK  status: ('A' for Active; 'I' for Inactive)
REMARK    1  A    between atoms: C5_7  and  N2_8 
REMARK       I    between atoms: N2_8  and  C6_10 
REMARK    2  A    between atoms: C6_10  and  C7_12 
REMARK    3  A    between atoms: C10_15  and  O2_16 
REMARK    4  A    between atoms: C11_18  and  C12_19 
REMARK    5  A    between atoms: C37_48  and  O4_49 
ROOT
HETATM    1  C12 UNL     1      70.510  -5.497  23.078  1.00  0.00     0.063 A 
HETATM    2  C13 UNL     1      71.624  -5.719  22.306  1.00  0.00     0.065 A 
HETATM    3  C14 UNL     1      71.218  -6.324  21.086  1.00  0.00     0.080 A 
HETATM    4  N3  UNL     1      69.925  -6.436  21.171  1.00  0.00    -0.285 N 
HETATM    5  N4  UNL     1      69.501  -5.942  22.363  1.00  0.00    -0.297 N 
ATOM      6  H4  UNL     1      68.527  -5.919  22.663  1.00  0.00     0.187 HD
HETATM    7  C15 UNL     1      68.954  -6.961  20.217  1.00  0.00     0.187 C 
HETATM    8  C16 UNL     1      68.690  -8.446  20.366  1.00  0.00    -0.038 A 
HETATM    9  C17 UNL     1      68.810  -9.342  19.320  1.00  0.00     0.010 A 
HETATM   10  C18 UNL     1      68.614 -10.706  19.515  1.00  0.00     0.013 A 
HETATM   11  C19 UNL     1      68.288 -11.346  20.724  1.00  0.00    -0.025 A 
HETATM   12  C20 UNL     1      68.171 -10.420  21.750  1.00  0.00     0.013 A 
HETATM   13  C21 UNL     1      68.361  -9.051  21.569  1.00  0.00     0.010 A 
HETATM   14  C22 UNL     1      68.236 -12.879  20.878  1.00  0.00    -0.017 A 
HETATM   15  C23 UNL     1      69.435 -13.600  21.065  1.00  0.00     0.049 A 
HETATM   16  C24 UNL     1      69.456 -14.963  21.052  1.00  0.00     0.070 A 
HETATM   17  C25 UNL     1      68.280 -15.677  20.868  1.00  0.00     0.037 A 
HETATM   18  C26 UNL     1      67.068 -15.047  20.689  1.00  0.00     0.010 A 
HETATM   19  C27 UNL     1      67.096 -13.684  20.699  1.00  0.00    -0.051 A 
HETATM   20  C28 UNL     1      65.740 -13.082  20.505  1.00  0.00     0.049 C 
HETATM   21  O3  UNL     1      70.554 -15.835  21.189  1.00  0.00    -0.347 OA
HETATM   22  C29 UNL     1      71.748 -15.874  20.367  1.00  0.00     0.214 C 
HETATM   23  C30 UNL     1      71.979 -14.608  19.586  1.00  0.00    -0.034 A 
HETATM   24  C31 UNL     1      72.943 -13.704  19.946  1.00  0.00     0.010 A 
HETATM   25  C32 UNL     1      73.111 -12.442  19.270  1.00  0.00     0.008 A 
HETATM   26  C33 UNL     1      72.328 -12.043  18.222  1.00  0.00    -0.052 A 
HETATM   27  C34 UNL     1      71.365 -12.960  17.859  1.00  0.00     0.008 A 
HETATM   28  C35 UNL     1      71.198 -14.207  18.525  1.00  0.00     0.010 A 
HETATM   29  C36 UNL     1      72.463 -10.699  17.572  1.00  0.00     0.105 C 
HETATM   30  C37 UNL     1      73.376  -9.706  18.125  1.00  0.00     0.074 C 
HETATM   31  C38 UNL     1      73.187  -8.347  18.599  1.00  0.00     0.062 A 
HETATM   32  C39 UNL     1      74.050  -7.361  18.081  1.00  0.00     0.032 A 
HETATM   33  C40 UNL     1      73.973  -6.069  18.519  1.00  0.00     0.005 A 
HETATM   34  C41 UNL     1      73.031  -5.770  19.475  1.00  0.00     0.032 A 
HETATM   35  C42 UNL     1      72.158  -6.712  20.014  1.00  0.00     0.061 A 
HETATM   36  N5  UNL     1      72.307  -7.949  19.522  1.00  0.00    -0.352 N 
ATOM     37  H5  UNL     1      71.682  -8.665  19.893  1.00  0.00     0.166 HD
ENDROOT
BRANCH   1  38
HETATM   38  C11 UNL     1      70.466  -4.893  24.427  1.00  0.00     0.026 A 
HETATM   39  C10 UNL     1      71.330  -3.851  24.696  1.00  0.00     0.078 A 
HETATM   40  C9  UNL     1      71.291  -3.280  25.937  1.00  0.00     0.038 A 
HETATM   41  C8  UNL     1      70.419  -3.717  26.916  1.00  0.00     0.020 A 
HETATM   42  C7  UNL     1      69.551  -4.758  26.660  1.00  0.00     0.033 A 
HETATM   43  C43 UNL     1      69.590  -5.340  25.393  1.00  0.00     0.033 A 
BRANCH  39  44
HETATM   44  O2  UNL     1      72.195  -3.427  23.706  1.00  0.00    -0.360 OA
ATOM     45  H2  UNL     1      72.584  -4.021  23.076  1.00  0.00     0.217 HD
ENDBRANCH  39  44
BRANCH  42  46
HETATM   46  C6  UNL     1      68.622  -5.237  27.672  1.00  0.00     0.269 C 
HETATM   47  N2  UNL     1      67.730  -6.280  27.406  1.00  0.00    -0.155 N 
ATOM     48  H2  UNL     1      67.934  -7.222  27.742  1.00  0.00     0.187 HD
HETATM   49  O1  UNL     1      68.620  -4.705  28.805  1.00  0.00    -0.267 OA
BRANCH  47  50
HETATM   50  C5  UNL     1      66.655  -6.056  26.739  1.00  0.00     0.685 A 
HETATM   51  N1  UNL     1      65.789  -5.099  27.141  1.00  0.00    -0.202 N 
HETATM   52  C4  UNL     1      64.683  -4.913  26.400  1.00  0.00     0.108 A 
ATOM     53  H1  UNL     1      65.968  -4.539  27.975  1.00  0.00     0.183 HD
HETATM   54  C3  UNL     1      64.407  -5.645  25.273  1.00  0.00     0.042 A 
HETATM   55  C2  UNL     1      65.293  -6.608  24.881  1.00  0.00     0.024 A 
HETATM   56  C1  UNL     1      65.091  -7.449  23.686  1.00  0.00     0.068 C 
HETATM   57  N6  UNL     1      66.398  -6.770  25.651  1.00  0.00    -0.196 N 
ATOM     58  H6  UNL     1      67.073  -7.484  25.376  1.00  0.00     0.184 HD
ENDBRANCH  47  50
ENDBRANCH  42  46
ENDBRANCH   1  38
BRANCH  30  59
HETATM   59  O4  UNL     1      74.608 -10.146  18.199  1.00  0.00    -0.362 OA
ATOM     60  H4  UNL     1      74.844 -10.692  17.458  1.00  0.00     0.217 HD
ENDBRANCH  30  59
TORSDOF 5
ENDMDL
MODEL 3
REMARK VINA RESULT: -11.849450552      3.582      6.792
REMARK  5 active torsions:
REMARK  status: ('A' for Active; 'I' for Inactive)
REMARK    1  A    between atoms: C5_7  and  N2_8 
REMARK       I    between atoms: N2_8  and  C6_10 
REMARK    2  A    between atoms: C6_10  and  C7_12 
REMARK    3  A    between atoms: C10_15  and  O2_16 
REMARK    4  A    between atoms: C11_18  and  C12_19 
REMARK    5  A    between atoms: C37_48  and  O4_49 
ROOT
HETATM    1  C12 UNL     1      64.973  -6.955  27.771  1.00  0.00     0.063 A 
HETATM    2  C13 UNL     1      66.232  -6.408  27.839  1.00  0.00     0.065 A 
HETATM    3  C14 UNL     1      66.559  -5.861  26.569  1.00  0.00     0.080 A 
HETATM    4  N3  UNL     1      65.522  -6.090  25.818  1.00  0.00    -0.285 N 
HETATM    5  N4  UNL     1      64.573  -6.744  26.536  1.00  0.00    -0.297 N 
ATOM      6  H4  UNL     1      63.668  -7.035  26.165  1.00  0.00     0.187 HD
HETATM    7  C15 UNL     1      65.264  -5.742  24.424  1.00  0.00     0.187 C 
HETATM    8  C16 UNL     1      65.713  -6.798  23.435  1.00  0.00    -0.038 A 
HETATM    9  C17 UNL     1      66.559  -6.529  22.376  1.00  0.00     0.010 A 
HETATM   10  C18 UNL     1      66.992  -7.542  21.525  1.00  0.00     0.013 A 
HETATM   11  C19 UNL     1      66.662  -8.907  21.603  1.00  0.00    -0.025 A 
HETATM   12  C20 UNL     1      65.809  -9.142  22.672  1.00  0.00     0.013 A 
HETATM   13  C21 UNL     1      65.365  -8.137  23.531  1.00  0.00     0.010 A 
HETATM   14  C22 UNL     1      67.306  -9.982  20.707  1.00  0.00    -0.017 A 
HETATM   15  C23 UNL     1      68.581 -10.490  21.036  1.00  0.00     0.049 A 
HETATM   16  C24 UNL     1      69.255 -11.324  20.195  1.00  0.00     0.070 A 
HETATM   17  C25 UNL     1      68.685 -11.708  18.989  1.00  0.00     0.037 A 
HETATM   18  C26 UNL     1      67.440 -11.265  18.600  1.00  0.00     0.010 A 
HETATM   19  C27 UNL     1      66.807 -10.425  19.468  1.00  0.00    -0.051 A 
HETATM   20  C28 UNL     1      65.462  -9.997  18.972  1.00  0.00     0.049 C 
HETATM   21  O3  UNL     1      70.535 -11.893  20.347  1.00  0.00    -0.347 OA
HETATM   22  C29 UNL     1      71.787 -11.189  20.546  1.00  0.00     0.214 C 
HETATM   23  C30 UNL     1      71.610  -9.777  21.036  1.00  0.00    -0.034 A 
HETATM   24  C31 UNL     1      71.861  -9.428  22.336  1.00  0.00     0.010 A 
HETATM   25  C32 UNL     1      71.600  -8.104  22.846  1.00  0.00     0.008 A 
HETATM   26  C33 UNL     1      71.084  -7.095  22.081  1.00  0.00    -0.052 A 
HETATM   27  C34 UNL     1      70.841  -7.450  20.771  1.00  0.00     0.008 A 
HETATM   28  C35 UNL     1      71.098  -8.756  20.266  1.00  0.00     0.010 A 
HETATM   29  C36 UNL     1      70.749  -5.743  22.637  1.00  0.00     0.105 C 
HETATM   30  C37 UNL     1      70.857  -5.493  24.069  1.00  0.00     0.074 C 
HETATM   31  C38 UNL     1      69.906  -5.033  25.064  1.00  0.00     0.062 A 
HETATM   32  C39 UNL     1      70.302  -3.954  25.880  1.00  0.00     0.032 A 
HETATM   33  C40 UNL     1      69.486  -3.500  26.877  1.00  0.00     0.005 A 
HETATM   34  C41 UNL     1      68.277  -4.128  27.054  1.00  0.00     0.032 A 
HETATM   35  C42 UNL     1      67.845  -5.198  26.272  1.00  0.00     0.061 A 
HETATM   36  N5  UNL     1      68.710  -5.570  25.320  1.00  0.00    -0.352 N 
ATOM     37  H5  UNL     1      68.425  -6.349  24.726  1.00  0.00     0.166 HD
ENDROOT
BRANCH   1  38
HETATM   38  C11 UNL     1      64.237  -7.635  28.857  1.00  0.00     0.026 A 
HETATM   39  C10 UNL     1      64.910  -8.586  29.596  1.00  0.00     0.078 A 
HETATM   40  C9  UNL     1      64.240  -9.215  30.608  1.00  0.00     0.038 A 
HETATM   41  C8  UNL     1      62.921  -8.926  30.902  1.00  0.00     0.020 A 
HETATM   42  C7  UNL     1      62.236  -7.978  30.170  1.00  0.00     0.033 A 
HETATM   43  C43 UNL     1      62.921  -7.336  29.138  1.00  0.00     0.033 A 
BRANCH  39  44
HETATM   44  O2  UNL     1      66.227  -8.862  29.289  1.00  0.00    -0.360 OA
ATOM     45  H2  UNL     1      66.565  -9.748  29.230  1.00  0.00     0.217 HD
ENDBRANCH  39  44
BRANCH  42  46
HETATM   46  C6  UNL     1      60.848  -7.653  30.459  1.00  0.00     0.269 C 
HETATM   47  N2  UNL     1      60.013  -7.094  29.487  1.00  0.00    -0.155 N 
ATOM     48  H2  UNL     1      59.340  -7.681  28.995  1.00  0.00     0.187 HD
HETATM   49  O1  UNL     1      60.389  -7.880  31.601  1.00  0.00    -0.267 OA
BRANCH  47  50
HETATM   50  C5  UNL     1      60.093  -5.840  29.213  1.00  0.00     0.685 A 
HETATM   51  N1  UNL     1      60.240  -5.429  27.934  1.00  0.00    -0.202 N 
HETATM   52  C4  UNL     1      60.317  -4.105  27.714  1.00  0.00     0.108 A 
ATOM     53  H1  UNL     1      60.291  -6.098  27.165  1.00  0.00     0.183 HD
HETATM   54  C3  UNL     1      60.253  -3.175  28.721  1.00  0.00     0.042 A 
HETATM   55  C2  UNL     1      60.105  -3.609  30.008  1.00  0.00     0.024 A 
HETATM   56  C1  UNL     1      60.024  -2.693  31.161  1.00  0.00     0.068 C 
HETATM   57  N6  UNL     1      60.030  -4.951  30.195  1.00  0.00    -0.196 N 
ATOM     58  H6  UNL     1      59.919  -5.296  31.148  1.00  0.00     0.184 HD
ENDBRANCH  47  50
ENDBRANCH  42  46
ENDBRANCH   1  38
BRANCH  30  59
HETATM   59  O4  UNL     1      72.060  -5.735  24.529  1.00  0.00    -0.362 OA
ATOM     60  H4  UNL     1      72.681  -5.056  24.295  1.00  0.00     0.217 HD
ENDBRANCH  30  59
TORSDOF 5
ENDMDL
MODEL 4
REMARK VINA RESULT: -11.726229587      4.726      8.494
REMARK  5 active torsions:
REMARK  status: ('A' for Active; 'I' for Inactive)
REMARK    1  A    between atoms: C5_7  and  N2_8 
REMARK       I    between atoms: N2_8  and  C6_10 
REMARK    2  A    between atoms: C6_10  and  C7_12 
REMARK    3  A    between atoms: C10_15  and  O2_16 
REMARK    4  A    between atoms: C11_18  and  C12_19 
REMARK    5  A    between atoms: C37_48  and  O4_49 
ROOT
HETATM    1  C12 UNL     1      68.742 -13.529  21.427  1.00  0.00     0.063 A 
HETATM    2  C13 UNL     1      68.318 -12.227  21.313  1.00  0.00     0.065 A 
HETATM    3  C14 UNL     1      68.577 -11.779  19.990  1.00  0.00     0.080 A 
HETATM    4  N3  UNL     1      69.124 -12.792  19.385  1.00  0.00    -0.285 N 
HETATM    5  N4  UNL     1      69.224 -13.839  20.243  1.00  0.00    -0.297 N 
ATOM      6  H4  UNL     1      69.620 -14.746  20.002  1.00  0.00     0.187 HD
HETATM    7  C15 UNL     1      69.585 -12.937  18.007  1.00  0.00     0.187 C 
HETATM    8  C16 UNL     1      71.034 -12.544  17.801  1.00  0.00    -0.038 A 
HETATM    9  C17 UNL     1      71.438 -11.619  16.857  1.00  0.00     0.010 A 
HETATM   10  C18 UNL     1      72.773 -11.244  16.741  1.00  0.00     0.013 A 
HETATM   11  C19 UNL     1      73.850 -11.713  17.514  1.00  0.00    -0.025 A 
HETATM   12  C20 UNL     1      73.412 -12.642  18.447  1.00  0.00     0.013 A 
HETATM   13  C21 UNL     1      72.079 -13.028  18.573  1.00  0.00     0.010 A 
HETATM   14  C22 UNL     1      75.274 -11.133  17.415  1.00  0.00    -0.017 A 
HETATM   15  C23 UNL     1      75.585  -9.934  18.092  1.00  0.00     0.049 A 
HETATM   16  C24 UNL     1      76.779  -9.302  17.911  1.00  0.00     0.070 A 
HETATM   17  C25 UNL     1      77.731  -9.843  17.058  1.00  0.00     0.037 A 
HETATM   18  C26 UNL     1      77.508 -11.014  16.368  1.00  0.00     0.010 A 
HETATM   19  C27 UNL     1      76.297 -11.605  16.572  1.00  0.00    -0.051 A 
HETATM   20  C28 UNL     1      76.140 -12.873  15.792  1.00  0.00     0.049 C 
HETATM   21  O3  UNL     1      77.240  -8.096  18.475  1.00  0.00    -0.347 OA
HETATM   22  C29 UNL     1      76.611  -6.793  18.384  1.00  0.00     0.214 C 
HETATM   23  C30 UNL     1      75.155  -6.854  18.008  1.00  0.00    -0.034 A 
HETATM   24  C31 UNL     1      74.163  -6.640  18.928  1.00  0.00     0.010 A 
HETATM   25  C32 UNL     1      72.765  -6.794  18.608  1.00  0.00     0.008 A 
HETATM   26  C33 UNL     1      72.317  -7.164  17.371  1.00  0.00    -0.052 A 
HETATM   27  C34 UNL     1      73.319  -7.370  16.447  1.00  0.00     0.008 A 
HETATM   28  C35 UNL     1      74.699  -7.219  16.761  1.00  0.00     0.010 A 
HETATM   29  C36 UNL     1      70.866  -7.392  17.067  1.00  0.00     0.105 C 
HETATM   30  C37 UNL     1      69.876  -7.337  18.136  1.00  0.00     0.074 C 
HETATM   31  C38 UNL     1      68.895  -8.289  18.621  1.00  0.00     0.062 A 
HETATM   32  C39 UNL     1      67.568  -7.832  18.755  1.00  0.00     0.032 A 
HETATM   33  C40 UNL     1      66.597  -8.651  19.258  1.00  0.00     0.005 A 
HETATM   34  C41 UNL     1      66.958  -9.925  19.626  1.00  0.00     0.032 A 
HETATM   35  C42 UNL     1      68.256 -10.419  19.511  1.00  0.00     0.061 A 
HETATM   36  N5  UNL     1      69.137  -9.545  19.006  1.00  0.00    -0.352 N 
ATOM     37  H5  UNL     1      70.097  -9.874  18.905  1.00  0.00     0.166 HD
ENDROOT
BRANCH   1  38
HETATM   38  C11 UNL     1      68.673 -14.388  22.628  1.00  0.00     0.026 A 
HETATM   39  C10 UNL     1      67.620 -15.274  22.729  1.00  0.00     0.078 A 
HETATM   40  C9  UNL     1      67.552 -16.078  23.832  1.00  0.00     0.038 A 
HETATM   41  C8  UNL     1      68.500 -16.023  24.836  1.00  0.00     0.020 A 
HETATM   42  C7  UNL     1      69.557 -15.141  24.748  1.00  0.00     0.033 A 
HETATM   43  C43 UNL     1      69.626 -14.322  23.622  1.00  0.00     0.033 A 
BRANCH  39  44
HETATM   44  O2  UNL     1      66.682 -15.315  21.716  1.00  0.00    -0.360 OA
ATOM     45  H2  UNL     1      65.921 -14.747  21.699  1.00  0.00     0.217 HD
ENDBRANCH  39  44
BRANCH  42  46
HETATM   46  C6  UNL     1      70.569 -15.064  25.790  1.00  0.00     0.269 C 
HETATM   47  N2  UNL     1      70.220 -15.032  27.143  1.00  0.00    -0.155 N 
ATOM     48  H2  UNL     1      70.297 -15.878  27.709  1.00  0.00     0.187 HD
HETATM   49  O1  UNL     1      71.779 -15.026  25.470  1.00  0.00    -0.267 OA
BRANCH  47  50
HETATM   50  C5  UNL     1      69.803 -13.940  27.676  1.00  0.00     0.685 A 
HETATM   51  N1  UNL     1      70.597 -13.244  28.519  1.00  0.00    -0.202 N 
HETATM   52  C4  UNL     1      70.101 -12.109  29.042  1.00  0.00     0.108 A 
ATOM     53  H1  UNL     1      71.537 -13.567  28.749  1.00  0.00     0.183 HD
HETATM   54  C3  UNL     1      68.843 -11.641  28.756  1.00  0.00     0.042 A 
HETATM   55  C2  UNL     1      68.054 -12.358  27.903  1.00  0.00     0.024 A 
HETATM   56  C1  UNL     1      66.688 -11.943  27.530  1.00  0.00     0.068 C 
HETATM   57  N6  UNL     1      68.584 -13.498  27.393  1.00  0.00    -0.196 N 
ATOM     58  H6  UNL     1      68.011 -14.048  26.753  1.00  0.00     0.184 HD
ENDBRANCH  47  50
ENDBRANCH  42  46
ENDBRANCH   1  38
BRANCH  30  59
HETATM   59  O4  UNL     1      69.890  -6.191  18.771  1.00  0.00    -0.362 OA
ATOM     60  H4  UNL     1      70.501  -6.187  19.499  1.00  0.00     0.217 HD
ENDBRANCH  30  59
TORSDOF 5
ENDMDL
MODEL 5
REMARK VINA RESULT: -11.622162860      1.229      1.749
REMARK  5 active torsions:
REMARK  status: ('A' for Active; 'I' for Inactive)
REMARK    1  A    between atoms: C5_7  and  N2_8 
REMARK       I    between atoms: N2_8  and  C6_10 
REMARK    2  A    between atoms: C6_10  and  C7_12 
REMARK    3  A    between atoms: C10_15  and  O2_16 
REMARK    4  A    between atoms: C11_18  and  C12_19 
REMARK    5  A    between atoms: C37_48  and  O4_49 
ROOT
HETATM    1  C12 UNL     1      69.437  -5.482  24.324  1.00  0.00     0.063 A 
HETATM    2  C13 UNL     1      70.590  -5.345  23.590  1.00  0.00     0.065 A 
HETATM    3  C14 UNL     1      70.335  -5.768  22.258  1.00  0.00     0.080 A 
HETATM    4  N3  UNL     1      69.084  -6.126  22.245  1.00  0.00    -0.285 N 
HETATM    5  N4  UNL     1      68.547  -5.956  23.480  1.00  0.00    -0.297 N 
ATOM      6  H4  UNL     1      67.579  -6.169  23.721  1.00  0.00     0.187 HD
HETATM    7  C15 UNL     1      68.253  -6.626  21.155  1.00  0.00     0.187 C 
HETATM    8  C16 UNL     1      68.271  -8.134  21.010  1.00  0.00    -0.038 A 
HETATM    9  C17 UNL     1      68.583  -8.775  19.827  1.00  0.00     0.010 A 
HETATM   10  C18 UNL     1      68.646 -10.164  19.754  1.00  0.00     0.013 A 
HETATM   11  C19 UNL     1      68.419 -11.073  20.802  1.00  0.00    -0.025 A 
HETATM   12  C20 UNL     1      68.104 -10.399  21.973  1.00  0.00     0.013 A 
HETATM   13  C21 UNL     1      68.036  -9.010  22.060  1.00  0.00     0.010 A 
HETATM   14  C22 UNL     1      68.655 -12.590  20.667  1.00  0.00    -0.017 A 
HETATM   15  C23 UNL     1      69.964 -13.104  20.788  1.00  0.00     0.049 A 
HETATM   16  C24 UNL     1      70.243 -14.412  20.524  1.00  0.00     0.070 A 
HETATM   17  C25 UNL     1      69.228 -15.278  20.143  1.00  0.00     0.037 A 
HETATM   18  C26 UNL     1      67.923 -14.856  20.012  1.00  0.00     0.010 A 
HETATM   19  C27 UNL     1      67.692 -13.540  20.276  1.00  0.00    -0.051 A 
HETATM   20  C28 UNL     1      66.252 -13.168  20.117  1.00  0.00     0.049 C 
HETATM   21  O3  UNL     1      71.483 -15.079  20.562  1.00  0.00    -0.347 OA
HETATM   22  C29 UNL     1      72.681 -14.742  19.819  1.00  0.00     0.214 C 
HETATM   23  C30 UNL     1      72.687 -13.328  19.300  1.00  0.00    -0.034 A 
HETATM   24  C31 UNL     1      73.453 -12.351  19.877  1.00  0.00     0.010 A 
HETATM   25  C32 UNL     1      73.394 -10.973  19.457  1.00  0.00     0.008 A 
HETATM   26  C33 UNL     1      72.575 -10.529  18.457  1.00  0.00    -0.052 A 
HETATM   27  C34 UNL     1      71.811 -11.519  17.874  1.00  0.00     0.008 A 
HETATM   28  C35 UNL     1      71.868 -12.880  18.287  1.00  0.00     0.010 A 
HETATM   29  C36 UNL     1      72.467  -9.083  18.076  1.00  0.00     0.105 C 
HETATM   30  C37 UNL     1      73.162  -8.066  18.855  1.00  0.00     0.074 C 
HETATM   31  C38 UNL     1      72.708  -6.882  19.560  1.00  0.00     0.062 A 
HETATM   32  C39 UNL     1      73.380  -5.674  19.285  1.00  0.00     0.032 A 
HETATM   33  C40 UNL     1      73.049  -4.526  19.948  1.00  0.00     0.005 A 
HETATM   34  C41 UNL     1      72.046  -4.593  20.886  1.00  0.00     0.032 A 
HETATM   35  C42 UNL     1      71.355  -5.765  21.190  1.00  0.00     0.061 A 
HETATM   36  N5  UNL     1      71.748  -6.835  20.488  1.00  0.00    -0.352 N 
ATOM     37  H5  UNL     1      71.261  -7.711  20.682  1.00  0.00     0.166 HD
ENDROOT
BRANCH   1  38
HETATM   38  C11 UNL     1      69.248  -5.167  25.755  1.00  0.00     0.026 A 
HETATM   39  C10 UNL     1      70.157  -4.320  26.355  1.00  0.00     0.078 A 
HETATM   40  C9  UNL     1      69.986  -4.015  27.677  1.00  0.00     0.038 A 
HETATM   41  C8  UNL     1      68.939  -4.531  28.417  1.00  0.00     0.020 A 
HETATM   42  C7  UNL     1      68.023  -5.380  27.829  1.00  0.00     0.033 A 
HETATM   43  C43 UNL     1      68.198  -5.689  26.480  1.00  0.00     0.033 A 
BRANCH  39  44
HETATM   44  O2  UNL     1      71.197  -3.813  25.602  1.00  0.00    -0.360 OA
ATOM     45  H2  UNL     1      71.781  -3.137  25.924  1.00  0.00     0.217 HD
ENDBRANCH  39  44
BRANCH  42  46
HETATM   46  C6  UNL     1      66.911  -5.936  28.584  1.00  0.00     0.269 C 
HETATM   47  N2  UNL     1      65.730  -6.337  27.951  1.00  0.00    -0.155 N 
ATOM     48  H2  UNL     1      65.560  -7.326  27.770  1.00  0.00     0.187 HD
HETATM   49  O1  UNL     1      67.012  -6.059  29.825  1.00  0.00    -0.267 OA
BRANCH  47  50
HETATM   50  C5  UNL     1      64.858  -5.461  27.599  1.00  0.00     0.685 A 
HETATM   51  N1  UNL     1      64.601  -5.241  26.290  1.00  0.00    -0.202 N 
HETATM   52  C4  UNL     1      63.678  -4.312  25.987  1.00  0.00     0.108 A 
ATOM     53  H1  UNL     1      65.089  -5.761  25.560  1.00  0.00     0.183 HD
HETATM   54  C3  UNL     1      63.001  -3.593  26.940  1.00  0.00     0.042 A 
HETATM   55  C2  UNL     1      63.274  -3.827  28.258  1.00  0.00     0.024 A 
HETATM   56  C1  UNL     1      62.602  -3.111  29.358  1.00  0.00     0.068 C 
HETATM   57  N6  UNL     1      64.210  -4.771  28.529  1.00  0.00    -0.196 N 
ATOM     58  H6  UNL     1      64.429  -4.962  29.507  1.00  0.00     0.184 HD
ENDBRANCH  47  50
ENDBRANCH  42  46
ENDBRANCH   1  38
BRANCH  30  59
HETATM   59  O4  UNL     1      74.453  -8.281  18.919  1.00  0.00    -0.362 OA
ATOM     60  H4  UNL     1      74.671  -9.204  18.854  1.00  0.00     0.217 HD
ENDBRANCH  30  59
TORSDOF 5
ENDMDL
