MODEL 1
REMARK VINA RESULT: -8.490644214      0.000      0.000
REMARK  16 active torsions:
REMARK  status: ('A' for Active; 'I' for Inactive)
REMARK    1  A    between atoms: O1_2  and  C2_3 
REMARK    2  A    between atoms: C2_3  and  C5_6 
REMARK       I    between atoms: C5_6  and  N1_8 
REMARK       I    between atoms: N2_11  and  C8_12 
REMARK    3  A    between atoms: C8_12  and  C9_14 
REMARK    4  A    between atoms: C9_14  and  C11_16 
REMARK    5  A    between atoms: C11_16  and  C12_17 
REMARK    6  A    between atoms: C12_17  and  N3_18 
REMARK    7  A    between atoms: C12_17  and  C26_38 
REMARK       I    between atoms: N3_18  and  C13_20 
REMARK    8  A    between atoms: C13_20  and  C14_22 
REMARK    9  A    between atoms: N4_26  and  C18_27 
REMARK   10  A    between atoms: C18_27  and  O5_28 
REMARK   11  A    between atoms: C18_27  and  C19_30 
REMARK   12  A    between atoms: C19_30  and  C20_32 
REMARK   13  A    between atoms: C20_32  and  C23_35 
REMARK   14  A    between atoms: C26_38  and  O7_39 
REMARK   15  A    between atoms: C26_38  and  C27_41 
REMARK   16  A    between atoms: C27_41  and  C28_42 
ROOT
HETATM    1  C12 UNL     1       0.981   1.603 -20.274  1.00  0.00     0.019 C 
ENDROOT
BRANCH   1   2
HETATM    2  C11 UNL     1       1.886   2.797 -20.252  1.00  0.00     0.069 C 
BRANCH   2   3
HETATM    3  C9  UNL     1       3.359   2.530 -20.393  1.00  0.00     0.079 C 
HETATM    4  C10 UNL     1       4.100   2.762 -19.079  1.00  0.00     0.020 C 
BRANCH   3   5
HETATM    5  C8  UNL     1       3.980   3.497 -21.348  1.00  0.00     0.224 C 
HETATM    6  N2  UNL     1       4.743   3.083 -22.454  1.00  0.00    -0.349 N 
HETATM    7  C7  UNL     1       5.058   1.736 -22.847  1.00  0.00     0.145 C 
HETATM    8  C31 UNL     1       5.302   4.127 -23.324  1.00  0.00     0.145 C 
HETATM    9  C6  UNL     1       6.387   1.711 -23.630  1.00  0.00     0.145 C 
HETATM   10  N1  UNL     1       6.251   2.467 -24.844  1.00  0.00    -0.346 N 
HETATM   11  C5  UNL     1       6.824   2.228 -26.096  1.00  0.00     0.254 C 
HETATM   12  C32 UNL     1       5.379   3.655 -24.745  1.00  0.00     0.145 C 
HETATM   13  O2  UNL     1       6.526   3.019 -27.081  1.00  0.00    -0.270 OA
HETATM   14  O3  UNL     1       3.812   4.719 -21.154  1.00  0.00    -0.273 OA
BRANCH  11  15
HETATM   15  C2  UNL     1       7.765   1.149 -26.495  1.00  0.00     0.133 C 
HETATM   16  C3  UNL     1       7.900   1.413 -28.043  1.00  0.00     0.056 C 
HETATM   17  C4  UNL     1       9.140   1.364 -25.933  1.00  0.00     0.056 C 
BRANCH  15  18
HETATM   18  O1  UNL     1       7.287  -0.123 -26.432  1.00  0.00    -0.376 OA
HETATM   19  C1  UNL     1       8.181  -1.083 -26.031  1.00  0.00     0.203 C 
ENDBRANCH  15  18
ENDBRANCH  11  15
ENDBRANCH   3   5
ENDBRANCH   2   3
ENDBRANCH   1   2
BRANCH   1  20
HETATM   20  N3  UNL     1       1.608   0.321 -20.255  1.00  0.00    -0.330 N 
HETATM   21  C13 UNL     1       1.594  -0.568 -21.406  1.00  0.00     0.244 C 
HETATM   22  O4  UNL     1       1.004  -0.163 -22.403  1.00  0.00    -0.271 OA
ATOM     23  H3  UNL     1       2.083   0.017 -19.405  1.00  0.00     0.168 HD
BRANCH  21  24
HETATM   24  C14 UNL     1       2.262  -1.847 -21.309  1.00  0.00     0.178 C 
HETATM   25  C15 UNL     1       1.465  -2.674 -20.230  1.00  0.00     0.037 C 
HETATM   26  C16 UNL     1       1.835  -4.079 -20.572  1.00  0.00     0.022 C 
HETATM   27  C17 UNL     1       2.881  -3.992 -21.619  1.00  0.00     0.126 C 
HETATM   28  N4  UNL     1       2.361  -2.753 -22.373  1.00  0.00    -0.345 N 
BRANCH  28  29
HETATM   29  C18 UNL     1       2.269  -2.881 -23.757  1.00  0.00     0.186 C 
BRANCH  29  30
HETATM   30  O5  UNL     1       1.984  -4.118 -24.131  1.00  0.00    -0.343 OA
ATOM     31  H5  UNL     1       1.256  -4.484 -23.643  1.00  0.00     0.219 HD
ENDBRANCH  29  30
BRANCH  29  32
HETATM   32  C19 UNL     1       2.415  -2.010 -24.870  1.00  0.00     0.207 C 
HETATM   33  O6  UNL     1       1.467  -1.359 -25.345  1.00  0.00    -0.288 OA
BRANCH  32  34
HETATM   34  C20 UNL     1       3.725  -1.783 -25.579  1.00  0.00     0.025 C 
HETATM   35  C21 UNL     1       3.890  -0.394 -26.087  1.00  0.00     0.024 C 
HETATM   36  C22 UNL     1       4.800  -1.902 -24.450  1.00  0.00     0.024 C 
BRANCH  34  37
HETATM   37  C23 UNL     1       4.091  -2.816 -26.561  1.00  0.00    -0.007 C 
HETATM   38  C24 UNL     1       5.116  -3.745 -25.883  1.00  0.00     0.011 C 
HETATM   39  C25 UNL     1       4.706  -2.391 -27.848  1.00  0.00     0.011 C 
ENDBRANCH  34  37
ENDBRANCH  32  34
ENDBRANCH  29  32
ENDBRANCH  28  29
ENDBRANCH  21  24
ENDBRANCH   1  20
BRANCH   1  40
HETATM   40  C26 UNL     1      -0.212   1.788 -19.383  1.00  0.00     0.164 C 
BRANCH  40  41
HETATM   41  O7  UNL     1      -0.326   0.571 -18.645  1.00  0.00    -0.390 OA
ATOM     42  H7  UNL     1      -0.075   0.791 -17.756  1.00  0.00     0.210 HD
ENDBRANCH  40  41
BRANCH  40  43
HETATM   43  C27 UNL     1      -1.523   2.083 -19.937  1.00  0.00     0.041 C 
BRANCH  43  44
HETATM   44  C28 UNL     1      -2.156   3.416 -19.703  1.00  0.00    -0.020 C 
HETATM   45  C29 UNL     1      -1.480   4.179 -18.576  1.00  0.00     0.009 C 
HETATM   46  C30 UNL     1      -3.561   3.085 -19.128  1.00  0.00     0.009 C 
ENDBRANCH  43  44
ENDBRANCH  40  43
ENDBRANCH   1  40
TORSDOF 16
ENDMDL
MODEL 2
REMARK VINA RESULT: -8.433106462      2.135      8.439
REMARK  16 active torsions:
REMARK  status: ('A' for Active; 'I' for Inactive)
REMARK    1  A    between atoms: O1_2  and  C2_3 
REMARK    2  A    between atoms: C2_3  and  C5_6 
REMARK       I    between atoms: C5_6  and  N1_8 
REMARK       I    between atoms: N2_11  and  C8_12 
REMARK    3  A    between atoms: C8_12  and  C9_14 
REMARK    4  A    between atoms: C9_14  and  C11_16 
REMARK    5  A    between atoms: C11_16  and  C12_17 
REMARK    6  A    between atoms: C12_17  and  N3_18 
REMARK    7  A    between atoms: C12_17  and  C26_38 
REMARK       I    between atoms: N3_18  and  C13_20 
REMARK    8  A    between atoms: C13_20  and  C14_22 
REMARK    9  A    between atoms: N4_26  and  C18_27 
REMARK   10  A    between atoms: C18_27  and  O5_28 
REMARK   11  A    between atoms: C18_27  and  C19_30 
REMARK   12  A    between atoms: C19_30  and  C20_32 
REMARK   13  A    between atoms: C20_32  and  C23_35 
REMARK   14  A    between atoms: C26_38  and  O7_39 
REMARK   15  A    between atoms: C26_38  and  C27_41 
REMARK   16  A    between atoms: C27_41  and  C28_42 
ROOT
HETATM    1  C12 UNL     1       4.633   2.769 -22.377  1.00  0.00     0.019 C 
ENDROOT
BRANCH   1   2
HETATM    2  C11 UNL     1       3.386   3.518 -22.017  1.00  0.00     0.069 C 
BRANCH   2   3
HETATM    3  C9  UNL     1       3.017   3.554 -20.560  1.00  0.00     0.079 C 
HETATM    4  C10 UNL     1       4.252   3.665 -19.670  1.00  0.00     0.020 C 
BRANCH   3   5
HETATM    5  C8  UNL     1       2.374   2.269 -20.148  1.00  0.00     0.224 C 
HETATM    6  N2  UNL     1       1.036   2.195 -19.726  1.00  0.00    -0.349 N 
HETATM    7  C7  UNL     1       0.091   3.274 -19.611  1.00  0.00     0.145 C 
HETATM    8  C31 UNL     1       0.514   0.875 -19.347  1.00  0.00     0.145 C 
HETATM    9  C6  UNL     1      -0.963   2.941 -18.535  1.00  0.00     0.145 C 
HETATM   10  N1  UNL     1      -1.715   1.784 -18.933  1.00  0.00    -0.346 N 
HETATM   11  C5  UNL     1      -3.068   1.501 -18.721  1.00  0.00     0.254 C 
HETATM   12  C32 UNL     1      -0.946   0.763 -19.672  1.00  0.00     0.145 C 
HETATM   13  O2  UNL     1      -3.561   0.406 -19.214  1.00  0.00    -0.270 OA
HETATM   14  O3  UNL     1       3.056   1.223 -20.182  1.00  0.00    -0.273 OA
BRANCH  11  15
HETATM   15  C2  UNL     1      -4.080   2.303 -17.986  1.00  0.00     0.133 C 
HETATM   16  C3  UNL     1      -4.600   3.261 -19.124  1.00  0.00     0.056 C 
HETATM   17  C4  UNL     1      -5.268   1.480 -17.584  1.00  0.00     0.056 C 
BRANCH  15  18
HETATM   18  O1  UNL     1      -3.602   3.161 -17.045  1.00  0.00    -0.376 OA
HETATM   19  C1  UNL     1      -4.509   4.049 -16.523  1.00  0.00     0.203 C 
ENDBRANCH  15  18
ENDBRANCH  11  15
ENDBRANCH   3   5
ENDBRANCH   2   3
ENDBRANCH   1   2
BRANCH   1  20
HETATM   20  N3  UNL     1       4.470   1.599 -23.181  1.00  0.00    -0.330 N 
HETATM   21  C13 UNL     1       3.862   1.642 -24.501  1.00  0.00     0.244 C 
HETATM   22  O4  UNL     1       3.483   2.742 -24.894  1.00  0.00    -0.271 OA
ATOM     23  H3  UNL     1       4.792   0.703 -22.816  1.00  0.00     0.168 HD
BRANCH  21  24
HETATM   24  C14 UNL     1       3.743   0.414 -25.256  1.00  0.00     0.178 C 
HETATM   25  C15 UNL     1       4.480   0.670 -26.624  1.00  0.00     0.037 C 
HETATM   26  C16 UNL     1       4.789  -0.716 -27.081  1.00  0.00     0.022 C 
HETATM   27  C17 UNL     1       4.110  -1.630 -26.132  1.00  0.00     0.126 C 
HETATM   28  N4  UNL     1       4.289  -0.807 -24.841  1.00  0.00    -0.345 N 
BRANCH  28  29
HETATM   29  C18 UNL     1       4.786  -1.505 -23.743  1.00  0.00     0.186 C 
BRANCH  29  30
HETATM   30  O5  UNL     1       5.942  -1.019 -23.318  1.00  0.00    -0.343 OA
ATOM     31  H5  UNL     1       6.555  -1.704 -23.077  1.00  0.00     0.219 HD
ENDBRANCH  29  30
BRANCH  29  32
HETATM   32  C19 UNL     1       4.362  -2.617 -22.968  1.00  0.00     0.207 C 
HETATM   33  O6  UNL     1       5.147  -3.488 -22.552  1.00  0.00    -0.288 OA
BRANCH  32  34
HETATM   34  C20 UNL     1       2.928  -2.849 -22.567  1.00  0.00     0.025 C 
HETATM   35  C21 UNL     1       2.077  -3.358 -23.678  1.00  0.00     0.024 C 
HETATM   36  C22 UNL     1       2.995  -4.046 -21.564  1.00  0.00     0.024 C 
BRANCH  34  37
HETATM   37  C23 UNL     1       2.308  -1.752 -21.806  1.00  0.00    -0.007 C 
HETATM   38  C24 UNL     1       1.473  -2.394 -20.681  1.00  0.00     0.011 C 
HETATM   39  C25 UNL     1       1.393  -0.819 -22.518  1.00  0.00     0.011 C 
ENDBRANCH  34  37
ENDBRANCH  32  34
ENDBRANCH  29  32
ENDBRANCH  28  29
ENDBRANCH  21  24
ENDBRANCH   1  20
BRANCH   1  40
HETATM   40  C26 UNL     1       5.756   3.694 -22.745  1.00  0.00     0.164 C 
BRANCH  40  41
HETATM   41  O7  UNL     1       5.140   4.780 -23.438  1.00  0.00    -0.390 OA
ATOM     42  H7  UNL     1       5.712   4.967 -24.172  1.00  0.00     0.210 HD
ENDBRANCH  40  41
BRANCH  40  43
HETATM   43  C27 UNL     1       6.868   3.236 -23.559  1.00  0.00     0.041 C 
BRANCH  43  44
HETATM   44  C28 UNL     1       7.258   3.988 -24.790  1.00  0.00    -0.020 C 
HETATM   45  C29 UNL     1       6.896   3.234 -26.059  1.00  0.00     0.009 C 
HETATM   46  C30 UNL     1       8.812   3.968 -24.784  1.00  0.00     0.009 C 
ENDBRANCH  43  44
ENDBRANCH  40  43
ENDBRANCH   1  40
TORSDOF 16
ENDMDL
MODEL 3
REMARK VINA RESULT: -8.319522374      1.965      9.195
REMARK  16 active torsions:
REMARK  status: ('A' for Active; 'I' for Inactive)
REMARK    1  A    between atoms: O1_2  and  C2_3 
REMARK    2  A    between atoms: C2_3  and  C5_6 
REMARK       I    between atoms: C5_6  and  N1_8 
REMARK       I    between atoms: N2_11  and  C8_12 
REMARK    3  A    between atoms: C8_12  and  C9_14 
REMARK    4  A    between atoms: C9_14  and  C11_16 
REMARK    5  A    between atoms: C11_16  and  C12_17 
REMARK    6  A    between atoms: C12_17  and  N3_18 
REMARK    7  A    between atoms: C12_17  and  C26_38 
REMARK       I    between atoms: N3_18  and  C13_20 
REMARK    8  A    between atoms: C13_20  and  C14_22 
REMARK    9  A    between atoms: N4_26  and  C18_27 
REMARK   10  A    between atoms: C18_27  and  O5_28 
REMARK   11  A    between atoms: C18_27  and  C19_30 
REMARK   12  A    between atoms: C19_30  and  C20_32 
REMARK   13  A    between atoms: C20_32  and  C23_35 
REMARK   14  A    between atoms: C26_38  and  O7_39 
REMARK   15  A    between atoms: C26_38  and  C27_41 
REMARK   16  A    between atoms: C27_41  and  C28_42 
ROOT
HETATM    1  C12 UNL     1       3.188  -1.886 -23.541  1.00  0.00     0.019 C 
ENDROOT
BRANCH   1   2
HETATM    2  C11 UNL     1       2.642  -1.869 -22.146  1.00  0.00     0.069 C 
BRANCH   2   3
HETATM    3  C9  UNL     1       1.378  -1.086 -21.924  1.00  0.00     0.079 C 
HETATM    4  C10 UNL     1       0.877  -0.449 -23.218  1.00  0.00     0.020 C 
BRANCH   3   5
HETATM    5  C8  UNL     1       1.629   0.071 -21.011  1.00  0.00     0.224 C 
HETATM    6  N2  UNL     1       0.594   0.733 -20.328  1.00  0.00    -0.349 N 
HETATM    7  C7  UNL     1      -0.815   0.446 -20.378  1.00  0.00     0.145 C 
HETATM    8  C31 UNL     1       0.965   1.856 -19.456  1.00  0.00     0.145 C 
HETATM    9  C6  UNL     1      -1.625   1.724 -20.077  1.00  0.00     0.145 C 
HETATM   10  N1  UNL     1      -1.349   2.170 -18.740  1.00  0.00    -0.346 N 
HETATM   11  C5  UNL     1      -2.212   2.775 -17.821  1.00  0.00     0.254 C 
HETATM   12  C32 UNL     1       0.037   1.951 -18.282  1.00  0.00     0.145 C 
HETATM   13  O2  UNL     1      -1.764   3.057 -16.636  1.00  0.00    -0.270 OA
HETATM   14  O3  UNL     1       2.805   0.461 -20.852  1.00  0.00    -0.273 OA
BRANCH  11  15
HETATM   15  C2  UNL     1      -3.637   3.158 -17.999  1.00  0.00     0.133 C 
HETATM   16  C3  UNL     1      -4.021   3.605 -16.538  1.00  0.00     0.056 C 
HETATM   17  C4  UNL     1      -3.789   4.387 -18.845  1.00  0.00     0.056 C 
BRANCH  15  18
HETATM   18  O1  UNL     1      -4.506   2.144 -18.258  1.00  0.00    -0.376 OA
HETATM   19  C1  UNL     1      -5.367   1.815 -17.241  1.00  0.00     0.203 C 
ENDBRANCH  15  18
ENDBRANCH  11  15
ENDBRANCH   3   5
ENDBRANCH   2   3
ENDBRANCH   1   2
BRANCH   1  20
HETATM   20  N3  UNL     1       4.289  -1.018 -23.811  1.00  0.00    -0.330 N 
HETATM   21  C13 UNL     1       4.323  -0.144 -24.973  1.00  0.00     0.244 C 
HETATM   22  O4  UNL     1       3.354  -0.194 -25.724  1.00  0.00    -0.271 OA
ATOM     23  H3  UNL     1       5.079  -1.010 -23.166  1.00  0.00     0.168 HD
BRANCH  21  24
HETATM   24  C14 UNL     1       5.471   0.712 -25.169  1.00  0.00     0.178 C 
HETATM   25  C15 UNL     1       5.842   0.601 -26.696  1.00  0.00     0.037 C 
HETATM   26  C16 UNL     1       6.618   1.855 -26.926  1.00  0.00     0.022 C 
HETATM   27  C17 UNL     1       6.802   2.481 -25.595  1.00  0.00     0.126 C 
HETATM   28  N4  UNL     1       5.451   2.097 -24.963  1.00  0.00    -0.345 N 
BRANCH  28  29
HETATM   29  C18 UNL     1       4.755   3.135 -24.345  1.00  0.00     0.186 C 
BRANCH  29  30
HETATM   30  O5  UNL     1       3.902   3.727 -25.165  1.00  0.00    -0.343 OA
ATOM     31  H5  UNL     1       4.175   4.606 -25.398  1.00  0.00     0.219 HD
ENDBRANCH  29  30
BRANCH  29  32
HETATM   32  C19 UNL     1       4.741   3.721 -23.051  1.00  0.00     0.207 C 
HETATM   33  O6  UNL     1       3.745   4.303 -22.585  1.00  0.00    -0.288 OA
BRANCH  32  34
HETATM   34  C20 UNL     1       5.922   3.691 -22.115  1.00  0.00     0.025 C 
HETATM   35  C21 UNL     1       7.111   4.417 -22.638  1.00  0.00     0.024 C 
HETATM   36  C22 UNL     1       5.465   4.547 -20.890  1.00  0.00     0.024 C 
BRANCH  34  37
HETATM   37  C23 UNL     1       6.239   2.368 -21.555  1.00  0.00    -0.007 C 
HETATM   38  C24 UNL     1       6.097   2.476 -20.024  1.00  0.00     0.011 C 
HETATM   39  C25 UNL     1       7.589   1.793 -21.804  1.00  0.00     0.011 C 
ENDBRANCH  34  37
ENDBRANCH  32  34
ENDBRANCH  29  32
ENDBRANCH  28  29
ENDBRANCH  21  24
ENDBRANCH   1  20
BRANCH   1  40
HETATM   40  C26 UNL     1       3.270  -3.278 -24.094  1.00  0.00     0.164 C 
BRANCH  40  41
HETATM   41  O7  UNL     1       2.267  -4.021 -23.398  1.00  0.00    -0.390 OA
ATOM     42  H7  UNL     1       1.441  -3.739 -23.772  1.00  0.00     0.210 HD
ENDBRANCH  40  41
BRANCH  40  43
HETATM   43  C27 UNL     1       4.503  -4.042 -24.021  1.00  0.00     0.041 C 
BRANCH  43  44
HETATM   44  C28 UNL     1       5.434  -4.080 -25.190  1.00  0.00    -0.020 C 
HETATM   45  C29 UNL     1       4.796  -3.512 -26.447  1.00  0.00     0.009 C 
HETATM   46  C30 UNL     1       5.593  -5.592 -25.513  1.00  0.00     0.009 C 
ENDBRANCH  43  44
ENDBRANCH  40  43
ENDBRANCH   1  40
TORSDOF 16
ENDMDL
MODEL 4
REMARK VINA RESULT: -8.285065522      2.199      8.693
REMARK  16 active torsions:
REMARK  status: ('A' for Active; 'I' for Inactive)
REMARK    1  A    between atoms: O1_2  and  C2_3 
REMARK    2  A    between atoms: C2_3  and  C5_6 
REMARK       I    between atoms: C5_6  and  N1_8 
REMARK       I    between atoms: N2_11  and  C8_12 
REMARK    3  A    between atoms: C8_12  and  C9_14 
REMARK    4  A    between atoms: C9_14  and  C11_16 
REMARK    5  A    between atoms: C11_16  and  C12_17 
REMARK    6  A    between atoms: C12_17  and  N3_18 
REMARK    7  A    between atoms: C12_17  and  C26_38 
REMARK       I    between atoms: N3_18  and  C13_20 
REMARK    8  A    between atoms: C13_20  and  C14_22 
REMARK    9  A    between atoms: N4_26  and  C18_27 
REMARK   10  A    between atoms: C18_27  and  O5_28 
REMARK   11  A    between atoms: C18_27  and  C19_30 
REMARK   12  A    between atoms: C19_30  and  C20_32 
REMARK   13  A    between atoms: C20_32  and  C23_35 
REMARK   14  A    between atoms: C26_38  and  O7_39 
REMARK   15  A    between atoms: C26_38  and  C27_41 
REMARK   16  A    between atoms: C27_41  and  C28_42 
ROOT
HETATM    1  C12 UNL     1       2.747   0.692 -24.247  1.00  0.00     0.019 C 
ENDROOT
BRANCH   1   2
HETATM    2  C11 UNL     1       1.859  -0.164 -23.397  1.00  0.00     0.069 C 
BRANCH   2   3
HETATM    3  C9  UNL     1       2.438  -0.658 -22.100  1.00  0.00     0.079 C 
HETATM    4  C10 UNL     1       1.541  -1.706 -21.447  1.00  0.00     0.020 C 
BRANCH   3   5
HETATM    5  C8  UNL     1       2.508   0.449 -21.100  1.00  0.00     0.224 C 
HETATM    6  N2  UNL     1       1.367   0.967 -20.463  1.00  0.00    -0.349 N 
HETATM    7  C7  UNL     1      -0.001   0.560 -20.647  1.00  0.00     0.145 C 
HETATM    8  C31 UNL     1       1.562   2.056 -19.496  1.00  0.00     0.145 C 
HETATM    9  C6  UNL     1      -0.949   1.736 -20.334  1.00  0.00     0.145 C 
HETATM   10  N1  UNL     1      -0.819   2.111 -18.953  1.00  0.00    -0.346 N 
HETATM   11  C5  UNL     1      -1.802   2.571 -18.073  1.00  0.00     0.254 C 
HETATM   12  C32 UNL     1       0.543   1.985 -18.398  1.00  0.00     0.145 C 
HETATM   13  O2  UNL     1      -1.474   2.809 -16.839  1.00  0.00    -0.270 OA
HETATM   14  O3  UNL     1       3.626   0.931 -20.820  1.00  0.00    -0.273 OA
BRANCH  11  15
HETATM   15  C2  UNL     1      -3.239   2.836 -18.343  1.00  0.00     0.133 C 
HETATM   16  C3  UNL     1      -3.735   3.320 -16.927  1.00  0.00     0.056 C 
HETATM   17  C4  UNL     1      -3.434   4.011 -19.256  1.00  0.00     0.056 C 
BRANCH  15  18
HETATM   18  O1  UNL     1      -4.016   1.749 -18.595  1.00  0.00    -0.376 OA
HETATM   19  C1  UNL     1      -5.247   1.735 -17.988  1.00  0.00     0.203 C 
ENDBRANCH  15  18
ENDBRANCH  11  15
ENDBRANCH   3   5
ENDBRANCH   2   3
ENDBRANCH   1   2
BRANCH   1  20
HETATM   20  N3  UNL     1       3.631   1.580 -23.562  1.00  0.00    -0.330 N 
HETATM   21  C13 UNL     1       3.821   2.961 -23.977  1.00  0.00     0.244 C 
HETATM   22  O4  UNL     1       3.184   3.329 -24.960  1.00  0.00    -0.271 OA
ATOM     23  H3  UNL     1       4.148   1.233 -22.754  1.00  0.00     0.168 HD
BRANCH  21  24
HETATM   24  C14 UNL     1       4.727   3.798 -23.224  1.00  0.00     0.178 C 
HETATM   25  C15 UNL     1       3.907   4.326 -21.987  1.00  0.00     0.037 C 
HETATM   26  C16 UNL     1       4.987   4.692 -21.024  1.00  0.00     0.022 C 
HETATM   27  C17 UNL     1       6.267   4.546 -21.758  1.00  0.00     0.126 C 
HETATM   28  N4  UNL     1       5.904   3.328 -22.629  1.00  0.00    -0.345 N 
BRANCH  28  29
HETATM   29  C18 UNL     1       6.833   2.289 -22.633  1.00  0.00     0.186 C 
BRANCH  29  30
HETATM   30  O5  UNL     1       6.530   1.339 -21.763  1.00  0.00    -0.343 OA
ATOM     31  H5  UNL     1       6.922   1.490 -20.911  1.00  0.00     0.219 HD
ENDBRANCH  29  30
BRANCH  29  32
HETATM   32  C19 UNL     1       8.032   2.001 -23.337  1.00  0.00     0.207 C 
HETATM   33  O6  UNL     1       9.107   1.747 -22.764  1.00  0.00    -0.288 OA
BRANCH  32  34
HETATM   34  C20 UNL     1       8.122   1.965 -24.841  1.00  0.00     0.025 C 
HETATM   35  C21 UNL     1       9.333   1.262 -25.346  1.00  0.00     0.024 C 
HETATM   36  C22 UNL     1       6.939   1.040 -25.277  1.00  0.00     0.024 C 
BRANCH  34  37
HETATM   37  C23 UNL     1       7.864   3.249 -25.512  1.00  0.00    -0.007 C 
HETATM   38  C24 UNL     1       6.838   2.981 -26.629  1.00  0.00     0.011 C 
HETATM   39  C25 UNL     1       9.003   3.957 -26.158  1.00  0.00     0.011 C 
ENDBRANCH  34  37
ENDBRANCH  32  34
ENDBRANCH  29  32
ENDBRANCH  28  29
ENDBRANCH  21  24
ENDBRANCH   1  20
BRANCH   1  40
HETATM   40  C26 UNL     1       3.316  -0.070 -25.408  1.00  0.00     0.164 C 
BRANCH  40  41
HETATM   41  O7  UNL     1       2.859   0.619 -26.573  1.00  0.00    -0.390 OA
ATOM     42  H7  UNL     1       2.898  -0.021 -27.275  1.00  0.00     0.210 HD
ENDBRANCH  40  41
BRANCH  40  43
HETATM   43  C27 UNL     1       3.021  -1.480 -25.596  1.00  0.00     0.041 C 
BRANCH  43  44
HETATM   44  C28 UNL     1       4.013  -2.517 -25.178  1.00  0.00    -0.020 C 
HETATM   45  C29 UNL     1       4.581  -3.275 -26.367  1.00  0.00     0.009 C 
HETATM   46  C30 UNL     1       3.167  -3.588 -24.434  1.00  0.00     0.009 C 
ENDBRANCH  43  44
ENDBRANCH  40  43
ENDBRANCH   1  40
TORSDOF 16
ENDMDL
MODEL 5
REMARK VINA RESULT: -8.257984245      0.711      1.182
REMARK  16 active torsions:
REMARK  status: ('A' for Active; 'I' for Inactive)
REMARK    1  A    between atoms: O1_2  and  C2_3 
REMARK    2  A    between atoms: C2_3  and  C5_6 
REMARK       I    between atoms: C5_6  and  N1_8 
REMARK       I    between atoms: N2_11  and  C8_12 
REMARK    3  A    between atoms: C8_12  and  C9_14 
REMARK    4  A    between atoms: C9_14  and  C11_16 
REMARK    5  A    between atoms: C11_16  and  C12_17 
REMARK    6  A    between atoms: C12_17  and  N3_18 
REMARK    7  A    between atoms: C12_17  and  C26_38 
REMARK       I    between atoms: N3_18  and  C13_20 
REMARK    8  A    between atoms: C13_20  and  C14_22 
REMARK    9  A    between atoms: N4_26  and  C18_27 
REMARK   10  A    between atoms: C18_27  and  O5_28 
REMARK   11  A    between atoms: C18_27  and  C19_30 
REMARK   12  A    between atoms: C19_30  and  C20_32 
REMARK   13  A    between atoms: C20_32  and  C23_35 
REMARK   14  A    between atoms: C26_38  and  O7_39 
REMARK   15  A    between atoms: C26_38  and  C27_41 
REMARK   16  A    between atoms: C27_41  and  C28_42 
ROOT
HETATM    1  C12 UNL     1       1.297   1.709 -20.431  1.00  0.00     0.019 C 
ENDROOT
BRANCH   1   2
HETATM    2  C11 UNL     1       2.196   2.883 -20.191  1.00  0.00     0.069 C 
BRANCH   2   3
HETATM    3  C9  UNL     1       3.673   2.644 -20.342  1.00  0.00     0.079 C 
HETATM    4  C10 UNL     1       4.419   2.886 -19.032  1.00  0.00     0.020 C 
BRANCH   3   5
HETATM    5  C8  UNL     1       4.270   3.624 -21.299  1.00  0.00     0.224 C 
HETATM    6  N2  UNL     1       5.055   3.229 -22.395  1.00  0.00    -0.349 N 
HETATM    7  C7  UNL     1       5.418   1.890 -22.777  1.00  0.00     0.145 C 
HETATM    8  C31 UNL     1       5.587   4.285 -23.268  1.00  0.00     0.145 C 
HETATM    9  C6  UNL     1       6.753   1.904 -23.549  1.00  0.00     0.145 C 
HETATM   10  N1  UNL     1       6.602   2.648 -24.769  1.00  0.00    -0.346 N 
HETATM   11  C5  UNL     1       7.193   2.419 -26.015  1.00  0.00     0.254 C 
HETATM   12  C32 UNL     1       5.691   3.806 -24.685  1.00  0.00     0.145 C 
HETATM   13  O2  UNL     1       6.877   3.193 -27.008  1.00  0.00    -0.270 OA
HETATM   14  O3  UNL     1       4.060   4.842 -21.114  1.00  0.00    -0.273 OA
BRANCH  11  15
HETATM   15  C2  UNL     1       8.173   1.370 -26.399  1.00  0.00     0.133 C 
HETATM   16  C3  UNL     1       8.011   1.355 -27.967  1.00  0.00     0.056 C 
HETATM   17  C4  UNL     1       9.588   1.800 -26.148  1.00  0.00     0.056 C 
BRANCH  15  18
HETATM   18  O1  UNL     1       7.864   0.095 -26.038  1.00  0.00    -0.376 OA
HETATM   19  C1  UNL     1       8.911  -0.677 -25.601  1.00  0.00     0.203 C 
ENDBRANCH  15  18
ENDBRANCH  11  15
ENDBRANCH   3   5
ENDBRANCH   2   3
ENDBRANCH   1   2
BRANCH   1  20
HETATM   20  N3  UNL     1       1.901   0.416 -20.382  1.00  0.00    -0.330 N 
HETATM   21  C13 UNL     1       1.758  -0.549 -21.460  1.00  0.00     0.244 C 
HETATM   22  O4  UNL     1       1.079  -0.200 -22.422  1.00  0.00    -0.271 OA
ATOM     23  H3  UNL     1       2.453   0.160 -19.563  1.00  0.00     0.168 HD
BRANCH  21  24
HETATM   24  C14 UNL     1       2.410  -1.834 -21.339  1.00  0.00     0.178 C 
HETATM   25  C15 UNL     1       1.611  -2.626 -20.236  1.00  0.00     0.037 C 
HETATM   26  C16 UNL     1       1.960  -4.043 -20.548  1.00  0.00     0.022 C 
HETATM   27  C17 UNL     1       2.999  -3.994 -21.604  1.00  0.00     0.126 C 
HETATM   28  N4  UNL     1       2.489  -2.765 -22.382  1.00  0.00    -0.345 N 
BRANCH  28  29
HETATM   29  C18 UNL     1       2.385  -2.924 -23.762  1.00  0.00     0.186 C 
BRANCH  29  30
HETATM   30  O5  UNL     1       2.130  -4.175 -24.108  1.00  0.00    -0.343 OA
ATOM     31  H5  UNL     1       2.895  -4.617 -24.456  1.00  0.00     0.219 HD
ENDBRANCH  29  30
BRANCH  29  32
HETATM   32  C19 UNL     1       2.494  -2.072 -24.895  1.00  0.00     0.207 C 
HETATM   33  O6  UNL     1       1.506  -1.554 -25.446  1.00  0.00    -0.288 OA
BRANCH  32  34
HETATM   34  C20 UNL     1       3.809  -1.707 -25.533  1.00  0.00     0.025 C 
HETATM   35  C21 UNL     1       4.927  -1.584 -24.558  1.00  0.00     0.024 C 
HETATM   36  C22 UNL     1       4.187  -2.962 -26.385  1.00  0.00     0.024 C 
BRANCH  34  37
HETATM   37  C23 UNL     1       3.746  -0.599 -26.500  1.00  0.00    -0.007 C 
HETATM   38  C24 UNL     1       4.918  -0.787 -27.483  1.00  0.00     0.011 C 
HETATM   39  C25 UNL     1       3.853   0.796 -25.993  1.00  0.00     0.011 C 
ENDBRANCH  34  37
ENDBRANCH  32  34
ENDBRANCH  29  32
ENDBRANCH  28  29
ENDBRANCH  21  24
ENDBRANCH   1  20
BRANCH   1  40
HETATM   40  C26 UNL     1      -0.026   1.866 -19.739  1.00  0.00     0.164 C 
BRANCH  40  41
HETATM   41  O7  UNL     1      -0.942   1.067 -20.490  1.00  0.00    -0.390 OA
ATOM     42  H7  UNL     1      -1.110   0.304 -19.950  1.00  0.00     0.210 HD
ENDBRANCH  40  41
BRANCH  40  43
HETATM   43  C27 UNL     1      -0.632   3.175 -19.569  1.00  0.00     0.041 C 
BRANCH  43  44
HETATM   44  C28 UNL     1      -1.311   3.528 -18.286  1.00  0.00    -0.020 C 
HETATM   45  C29 UNL     1      -1.219   2.407 -17.264  1.00  0.00     0.009 C 
HETATM   46  C30 UNL     1      -2.822   3.573 -18.643  1.00  0.00     0.009 C 
ENDBRANCH  43  44
ENDBRANCH  40  43
ENDBRANCH   1  40
TORSDOF 16
ENDMDL
