MODEL 1
REMARK VINA RESULT: -8.519500834      0.000      0.000
REMARK  14 active torsions:
REMARK  status: ('A' for Active; 'I' for Inactive)
REMARK    1  A    between atoms: C2_2  and  C3_3 
REMARK       I    between atoms: N1_4  and  C4_6 
REMARK    2  A    between atoms: C4_6  and  C5_8 
REMARK       I    between atoms: N2_11  and  C8_12 
REMARK    3  A    between atoms: C8_12  and  C9_14 
REMARK    4  A    between atoms: C9_14  and  C10_16 
REMARK    5  A    between atoms: C10_16  and  C11_17 
REMARK    6  A    between atoms: C10_16  and  N3_22 
REMARK    7  A    between atoms: C11_17  and  C12_18 
REMARK       I    between atoms: N3_22  and  C16_24 
REMARK    8  A    between atoms: C16_24  and  C17_26 
REMARK       I    between atoms: N4_30  and  C21_31 
REMARK    9  A    between atoms: C21_31  and  C22_33 
REMARK   10  A    between atoms: C22_33  and  C23_35 
REMARK   11  A    between atoms: C23_35  and  N5_36 
REMARK   12  A    between atoms: C23_35  and  C29_45 
REMARK       I    between atoms: N5_36  and  C24_38 
REMARK   13  A    between atoms: C24_38  and  O8_40 
REMARK   14  A    between atoms: O8_40  and  C25_41 
ROOT
HETATM    1  N3  UNL     1       2.685   1.523 -21.707  1.00  0.00    -0.347 N 
ATOM      2  H3  UNL     1       2.750   2.160 -22.501  1.00  0.00     0.163 HD
HETATM    3  C16 UNL     1       2.496   0.102 -21.945  1.00  0.00     0.241 C 
HETATM    4  O4  UNL     1       2.422  -0.573 -20.900  1.00  0.00    -0.271 OA
ENDROOT
BRANCH   3   5
HETATM    5  C17 UNL     1       2.421  -0.310 -23.305  1.00  0.00     0.179 C 
HETATM    6  C18 UNL     1       1.293  -1.294 -23.658  1.00  0.00     0.037 C 
HETATM    7  C19 UNL     1       1.656  -1.789 -25.050  1.00  0.00     0.022 C 
HETATM    8  C20 UNL     1       2.935  -0.977 -25.349  1.00  0.00     0.127 C 
HETATM    9  N4  UNL     1       3.504  -0.952 -23.988  1.00  0.00    -0.332 N 
HETATM   10  C21 UNL     1       4.735  -1.513 -23.620  1.00  0.00     0.296 C 
HETATM   11  O5  UNL     1       4.976  -1.514 -22.360  1.00  0.00    -0.264 OA
BRANCH  10  12
HETATM   12  C22 UNL     1       5.751  -2.080 -24.445  1.00  0.00     0.262 C 
HETATM   13  O6  UNL     1       6.544  -1.295 -25.066  1.00  0.00    -0.280 OA
BRANCH  12  14
HETATM   14  C23 UNL     1       5.998  -3.493 -24.667  1.00  0.00     0.073 C 
BRANCH  14  15
HETATM   15  N5  UNL     1       6.105  -4.166 -23.376  1.00  0.00    -0.302 N 
HETATM   16  C24 UNL     1       7.287  -4.292 -22.624  1.00  0.00     0.365 C 
HETATM   17  O7  UNL     1       8.403  -3.806 -23.022  1.00  0.00    -0.238 OA
ATOM     18  H5  UNL     1       5.256  -4.578 -22.989  1.00  0.00     0.171 HD
BRANCH  16  19
HETATM   19  O8  UNL     1       7.359  -4.944 -21.404  1.00  0.00    -0.294 OA
BRANCH  19  20
HETATM   20  C25 UNL     1       6.791  -6.211 -21.172  1.00  0.00     0.061 C 
HETATM   21  C26 UNL     1       7.233  -6.633 -19.774  1.00  0.00     0.046 C 
HETATM   22  C27 UNL     1       7.284  -7.271 -22.123  1.00  0.00     0.046 C 
HETATM   23  C28 UNL     1       5.284  -6.186 -21.252  1.00  0.00     0.046 C 
ENDBRANCH  19  20
ENDBRANCH  16  19
ENDBRANCH  14  15
BRANCH  14  24
HETATM   24  C29 UNL     1       5.317  -4.252 -25.723  1.00  0.00     0.032 C 
HETATM   25  C30 UNL     1       6.093  -5.584 -25.992  1.00  0.00     0.016 C 
HETATM   26  C31 UNL     1       5.316  -3.576 -27.078  1.00  0.00     0.016 C 
ENDBRANCH  14  24
ENDBRANCH  12  14
ENDBRANCH  10  12
ENDBRANCH   3   5
BRANCH   1  27
HETATM   27  C10 UNL     1       2.782   2.058 -20.337  1.00  0.00     0.165 C 
BRANCH  27  28
HETATM   28  C9  UNL     1       3.968   2.899 -20.206  1.00  0.00     0.239 C 
HETATM   29  O3  UNL     1       3.792   4.082 -19.755  1.00  0.00    -0.285 OA
BRANCH  28  30
HETATM   30  C8  UNL     1       5.329   2.522 -20.542  1.00  0.00     0.292 C 
HETATM   31  N2  UNL     1       6.021   3.116 -21.621  1.00  0.00    -0.332 N 
HETATM   32  C5  UNL     1       5.648   4.130 -22.592  1.00  0.00     0.181 C 
HETATM   33  C7  UNL     1       7.331   3.000 -22.218  1.00  0.00     0.129 C 
HETATM   34  C6  UNL     1       7.101   4.274 -23.001  1.00  0.00     0.055 C 
HETATM   35  O2  UNL     1       5.907   1.649 -19.857  1.00  0.00    -0.264 OA
BRANCH  32  36
HETATM   36  C4  UNL     1       4.822   3.630 -23.708  1.00  0.00     0.244 C 
HETATM   37  N1  UNL     1       5.457   3.230 -24.905  1.00  0.00    -0.339 N 
HETATM   38  C3  UNL     1       5.541   2.056 -25.376  1.00  0.00     0.063 C 
ATOM     39  H1  UNL     1       5.897   3.970 -25.453  1.00  0.00     0.167 HD
HETATM   40  O1  UNL     1       3.556   3.536 -23.658  1.00  0.00    -0.271 OA
BRANCH  38  41
HETATM   41  C2  UNL     1       6.247   1.827 -26.647  1.00  0.00     0.040 C 
HETATM   42  C1  UNL     1       6.973   3.085 -27.038  1.00  0.00     0.010 C 
ENDBRANCH  38  41
ENDBRANCH  32  36
ENDBRANCH  28  30
ENDBRANCH  27  28
BRANCH  27  43
HETATM   43  C11 UNL     1       1.466   2.759 -20.049  1.00  0.00     0.038 C 
BRANCH  43  44
HETATM   44  C12 UNL     1       0.534   1.961 -19.203  1.00  0.00    -0.012 C 
HETATM   45  C13 UNL     1      -0.466   1.216 -20.079  1.00  0.00     0.005 C 
HETATM   46  C14 UNL     1      -1.541   2.198 -19.725  1.00  0.00     0.001 C 
HETATM   47  C15 UNL     1      -0.638   2.784 -18.677  1.00  0.00     0.005 C 
ENDBRANCH  43  44
ENDBRANCH  27  43
ENDBRANCH   1  27
TORSDOF 14
ENDMDL
MODEL 2
REMARK VINA RESULT: -8.518892928      1.949      3.896
REMARK  14 active torsions:
REMARK  status: ('A' for Active; 'I' for Inactive)
REMARK    1  A    between atoms: C2_2  and  C3_3 
REMARK       I    between atoms: N1_4  and  C4_6 
REMARK    2  A    between atoms: C4_6  and  C5_8 
REMARK       I    between atoms: N2_11  and  C8_12 
REMARK    3  A    between atoms: C8_12  and  C9_14 
REMARK    4  A    between atoms: C9_14  and  C10_16 
REMARK    5  A    between atoms: C10_16  and  C11_17 
REMARK    6  A    between atoms: C10_16  and  N3_22 
REMARK    7  A    between atoms: C11_17  and  C12_18 
REMARK       I    between atoms: N3_22  and  C16_24 
REMARK    8  A    between atoms: C16_24  and  C17_26 
REMARK       I    between atoms: N4_30  and  C21_31 
REMARK    9  A    between atoms: C21_31  and  C22_33 
REMARK   10  A    between atoms: C22_33  and  C23_35 
REMARK   11  A    between atoms: C23_35  and  N5_36 
REMARK   12  A    between atoms: C23_35  and  C29_45 
REMARK       I    between atoms: N5_36  and  C24_38 
REMARK   13  A    between atoms: C24_38  and  O8_40 
REMARK   14  A    between atoms: O8_40  and  C25_41 
ROOT
HETATM    1  N3  UNL     1       2.055   1.358 -21.421  1.00  0.00    -0.347 N 
ATOM      2  H3  UNL     1       2.277   1.786 -22.320  1.00  0.00     0.163 HD
HETATM    3  C16 UNL     1       1.685  -0.046 -21.370  1.00  0.00     0.241 C 
HETATM    4  O4  UNL     1       1.427  -0.451 -20.220  1.00  0.00    -0.271 OA
ENDROOT
BRANCH   3   5
HETATM    5  C17 UNL     1       1.665  -0.743 -22.610  1.00  0.00     0.179 C 
HETATM    6  C18 UNL     1       1.132  -2.185 -22.573  1.00  0.00     0.037 C 
HETATM    7  C19 UNL     1       1.528  -2.761 -23.924  1.00  0.00     0.022 C 
HETATM    8  C20 UNL     1       2.202  -1.546 -24.599  1.00  0.00     0.127 C 
HETATM    9  N4  UNL     1       2.837  -0.956 -23.406  1.00  0.00    -0.332 N 
HETATM   10  C21 UNL     1       4.218  -0.792 -23.227  1.00  0.00     0.296 C 
HETATM   11  O5  UNL     1       4.571  -0.396 -22.059  1.00  0.00    -0.264 OA
BRANCH  10  12
HETATM   12  C22 UNL     1       5.280  -1.003 -24.157  1.00  0.00     0.262 C 
HETATM   13  O6  UNL     1       6.280  -0.209 -24.134  1.00  0.00    -0.280 OA
BRANCH  12  14
HETATM   14  C23 UNL     1       5.359  -2.050 -25.159  1.00  0.00     0.073 C 
BRANCH  14  15
HETATM   15  N5  UNL     1       5.647  -1.446 -26.456  1.00  0.00    -0.302 N 
HETATM   16  C24 UNL     1       4.796  -1.485 -27.575  1.00  0.00     0.365 C 
HETATM   17  O7  UNL     1       3.658  -2.071 -27.544  1.00  0.00    -0.238 OA
ATOM     18  H5  UNL     1       6.536  -0.957 -26.559  1.00  0.00     0.171 HD
BRANCH  16  19
HETATM   19  O8  UNL     1       5.101  -0.908 -28.796  1.00  0.00    -0.294 OA
BRANCH  19  20
HETATM   20  C25 UNL     1       5.830  -1.571 -29.802  1.00  0.00     0.061 C 
HETATM   21  C26 UNL     1       5.065  -1.357 -31.104  1.00  0.00     0.046 C 
HETATM   22  C27 UNL     1       5.921  -3.060 -29.591  1.00  0.00     0.046 C 
HETATM   23  C28 UNL     1       7.235  -1.038 -29.935  1.00  0.00     0.046 C 
ENDBRANCH  19  20
ENDBRANCH  16  19
ENDBRANCH  14  15
BRANCH  14  24
HETATM   24  C29 UNL     1       6.016  -3.336 -24.899  1.00  0.00     0.032 C 
HETATM   25  C30 UNL     1       4.970  -4.492 -25.025  1.00  0.00     0.016 C 
HETATM   26  C31 UNL     1       6.538  -3.499 -23.486  1.00  0.00     0.016 C 
ENDBRANCH  14  24
ENDBRANCH  12  14
ENDBRANCH  10  12
ENDBRANCH   3   5
BRANCH   1  27
HETATM   27  C10 UNL     1       2.113   2.174 -20.195  1.00  0.00     0.165 C 
BRANCH  27  28
HETATM   28  C9  UNL     1       3.293   3.035 -20.216  1.00  0.00     0.239 C 
HETATM   29  O3  UNL     1       3.090   4.296 -20.162  1.00  0.00    -0.285 OA
BRANCH  28  30
HETATM   30  C8  UNL     1       4.674   2.597 -20.297  1.00  0.00     0.292 C 
HETATM   31  N2  UNL     1       5.548   3.071 -21.301  1.00  0.00    -0.332 N 
HETATM   32  C5  UNL     1       5.369   3.998 -22.405  1.00  0.00     0.181 C 
HETATM   33  C7  UNL     1       6.929   2.869 -21.669  1.00  0.00     0.129 C 
HETATM   34  C6  UNL     1       6.872   4.069 -22.590  1.00  0.00     0.055 C 
HETATM   35  O2  UNL     1       5.104   1.779 -19.454  1.00  0.00    -0.264 OA
BRANCH  32  36
HETATM   36  C4  UNL     1       4.708   3.415 -23.589  1.00  0.00     0.244 C 
HETATM   37  N1  UNL     1       5.300   3.590 -24.861  1.00  0.00    -0.339 N 
HETATM   38  C3  UNL     1       5.824   2.699 -25.595  1.00  0.00     0.063 C 
ATOM     39  H1  UNL     1       5.306   4.541 -25.229  1.00  0.00     0.167 HD
HETATM   40  O1  UNL     1       3.624   2.756 -23.535  1.00  0.00    -0.271 OA
BRANCH  38  41
HETATM   41  C2  UNL     1       6.396   3.070 -26.899  1.00  0.00     0.040 C 
HETATM   42  C1  UNL     1       7.409   2.034 -27.302  1.00  0.00     0.010 C 
ENDBRANCH  38  41
ENDBRANCH  32  36
ENDBRANCH  28  30
ENDBRANCH  27  28
BRANCH  27  43
HETATM   43  C11 UNL     1       0.787   2.908 -20.097  1.00  0.00     0.038 C 
BRANCH  43  44
HETATM   44  C12 UNL     1      -0.148   2.324 -19.094  1.00  0.00    -0.012 C 
HETATM   45  C13 UNL     1      -1.314   1.639 -19.798  1.00  0.00     0.005 C 
HETATM   46  C14 UNL     1      -2.219   2.784 -19.460  1.00  0.00     0.001 C 
HETATM   47  C15 UNL     1      -1.152   3.341 -18.560  1.00  0.00     0.005 C 
ENDBRANCH  43  44
ENDBRANCH  27  43
ENDBRANCH   1  27
TORSDOF 14
ENDMDL
MODEL 3
REMARK VINA RESULT: -8.405043637      2.355      5.599
REMARK  14 active torsions:
REMARK  status: ('A' for Active; 'I' for Inactive)
REMARK    1  A    between atoms: C2_2  and  C3_3 
REMARK       I    between atoms: N1_4  and  C4_6 
REMARK    2  A    between atoms: C4_6  and  C5_8 
REMARK       I    between atoms: N2_11  and  C8_12 
REMARK    3  A    between atoms: C8_12  and  C9_14 
REMARK    4  A    between atoms: C9_14  and  C10_16 
REMARK    5  A    between atoms: C10_16  and  C11_17 
REMARK    6  A    between atoms: C10_16  and  N3_22 
REMARK    7  A    between atoms: C11_17  and  C12_18 
REMARK       I    between atoms: N3_22  and  C16_24 
REMARK    8  A    between atoms: C16_24  and  C17_26 
REMARK       I    between atoms: N4_30  and  C21_31 
REMARK    9  A    between atoms: C21_31  and  C22_33 
REMARK   10  A    between atoms: C22_33  and  C23_35 
REMARK   11  A    between atoms: C23_35  and  N5_36 
REMARK   12  A    between atoms: C23_35  and  C29_45 
REMARK       I    between atoms: N5_36  and  C24_38 
REMARK   13  A    between atoms: C24_38  and  O8_40 
REMARK   14  A    between atoms: O8_40  and  C25_41 
ROOT
HETATM    1  N3  UNL     1       2.303   0.682 -20.853  1.00  0.00    -0.347 N 
ATOM      2  H3  UNL     1       2.947  -0.109 -20.861  1.00  0.00     0.163 HD
HETATM    3  C16 UNL     1       2.781   1.989 -20.438  1.00  0.00     0.241 C 
HETATM    4  O4  UNL     1       1.902   2.872 -20.461  1.00  0.00    -0.271 OA
ENDROOT
BRANCH   3   5
HETATM    5  C17 UNL     1       4.153   2.075 -20.069  1.00  0.00     0.179 C 
HETATM    6  C18 UNL     1       4.476   2.957 -18.850  1.00  0.00     0.037 C 
HETATM    7  C19 UNL     1       5.988   3.115 -18.898  1.00  0.00     0.022 C 
HETATM    8  C20 UNL     1       6.356   2.250 -20.124  1.00  0.00     0.127 C 
HETATM    9  N4  UNL     1       5.174   2.538 -20.959  1.00  0.00    -0.332 N 
HETATM   10  C21 UNL     1       5.209   3.163 -22.214  1.00  0.00     0.296 C 
HETATM   11  O5  UNL     1       4.061   3.454 -22.707  1.00  0.00    -0.264 OA
BRANCH  10  12
HETATM   12  C22 UNL     1       6.335   3.519 -23.014  1.00  0.00     0.262 C 
HETATM   13  O6  UNL     1       7.060   4.504 -22.646  1.00  0.00    -0.280 OA
BRANCH  12  14
HETATM   14  C23 UNL     1       6.768   2.872 -24.238  1.00  0.00     0.073 C 
BRANCH  14  15
HETATM   15  N5  UNL     1       6.866   1.434 -24.006  1.00  0.00    -0.302 N 
HETATM   16  C24 UNL     1       7.922   0.792 -23.334  1.00  0.00     0.365 C 
HETATM   17  O7  UNL     1       8.915   1.440 -22.851  1.00  0.00    -0.238 OA
ATOM     18  H5  UNL     1       6.109   0.848 -24.360  1.00  0.00     0.171 HD
BRANCH  16  19
HETATM   19  O8  UNL     1       7.991  -0.577 -23.136  1.00  0.00    -0.294 OA
BRANCH  19  20
HETATM   20  C25 UNL     1       8.576  -1.462 -24.062  1.00  0.00     0.061 C 
HETATM   21  C26 UNL     1       8.345  -2.869 -23.520  1.00  0.00     0.046 C 
HETATM   22  C27 UNL     1      10.067  -1.287 -24.196  1.00  0.00     0.046 C 
HETATM   23  C28 UNL     1       7.972  -1.333 -25.438  1.00  0.00     0.046 C 
ENDBRANCH  19  20
ENDBRANCH  16  19
ENDBRANCH  14  15
BRANCH  14  24
HETATM   24  C29 UNL     1       6.260   3.268 -25.557  1.00  0.00     0.032 C 
HETATM   25  C30 UNL     1       5.011   2.397 -25.919  1.00  0.00     0.016 C 
HETATM   26  C31 UNL     1       7.212   2.995 -26.703  1.00  0.00     0.016 C 
ENDBRANCH  14  24
ENDBRANCH  12  14
ENDBRANCH  10  12
ENDBRANCH   3   5
BRANCH   1  27
HETATM   27  C10 UNL     1       0.902   0.480 -21.262  1.00  0.00     0.165 C 
BRANCH  27  28
HETATM   28  C9  UNL     1       0.823  -0.524 -22.320  1.00  0.00     0.239 C 
HETATM   29  O3  UNL     1       0.149  -0.216 -23.361  1.00  0.00    -0.285 OA
BRANCH  28  30
HETATM   30  C8  UNL     1       1.432  -1.841 -22.300  1.00  0.00     0.292 C 
HETATM   31  N2  UNL     1       2.728  -2.071 -22.815  1.00  0.00    -0.332 N 
HETATM   32  C5  UNL     1       3.709  -1.199 -23.438  1.00  0.00     0.181 C 
HETATM   33  C7  UNL     1       3.617  -3.200 -22.949  1.00  0.00     0.129 C 
HETATM   34  C6  UNL     1       4.768  -2.270 -23.271  1.00  0.00     0.055 C 
HETATM   35  O2  UNL     1       0.794  -2.801 -21.812  1.00  0.00    -0.264 OA
BRANCH  32  36
HETATM   36  C4  UNL     1       3.451  -0.914 -24.862  1.00  0.00     0.244 C 
HETATM   37  N1  UNL     1       4.292  -1.494 -25.840  1.00  0.00    -0.339 N 
HETATM   38  C3  UNL     1       3.982  -2.379 -26.693  1.00  0.00     0.063 C 
ATOM     39  H1  UNL     1       5.256  -1.162 -25.862  1.00  0.00     0.167 HD
HETATM   40  O1  UNL     1       2.508  -0.168 -25.271  1.00  0.00    -0.271 OA
BRANCH  38  41
HETATM   41  C2  UNL     1       4.996  -2.868 -27.641  1.00  0.00     0.040 C 
HETATM   42  C1  UNL     1       5.780  -3.975 -26.992  1.00  0.00     0.010 C 
ENDBRANCH  38  41
ENDBRANCH  32  36
ENDBRANCH  28  30
ENDBRANCH  27  28
BRANCH  27  43
HETATM   43  C11 UNL     1       0.124   0.144 -20.002  1.00  0.00     0.038 C 
BRANCH  43  44
HETATM   44  C12 UNL     1      -0.880   1.178 -19.623  1.00  0.00    -0.012 C 
HETATM   45  C13 UNL     1      -0.577   1.721 -18.231  1.00  0.00     0.005 C 
HETATM   46  C14 UNL     1      -1.701   0.917 -17.650  1.00  0.00     0.001 C 
HETATM   47  C15 UNL     1      -2.156   0.577 -19.041  1.00  0.00     0.005 C 
ENDBRANCH  43  44
ENDBRANCH  27  43
ENDBRANCH   1  27
TORSDOF 14
ENDMDL
MODEL 4
REMARK VINA RESULT: -8.341711839      1.484      2.013
REMARK  14 active torsions:
REMARK  status: ('A' for Active; 'I' for Inactive)
REMARK    1  A    between atoms: C2_2  and  C3_3 
REMARK       I    between atoms: N1_4  and  C4_6 
REMARK    2  A    between atoms: C4_6  and  C5_8 
REMARK       I    between atoms: N2_11  and  C8_12 
REMARK    3  A    between atoms: C8_12  and  C9_14 
REMARK    4  A    between atoms: C9_14  and  C10_16 
REMARK    5  A    between atoms: C10_16  and  C11_17 
REMARK    6  A    between atoms: C10_16  and  N3_22 
REMARK    7  A    between atoms: C11_17  and  C12_18 
REMARK       I    between atoms: N3_22  and  C16_24 
REMARK    8  A    between atoms: C16_24  and  C17_26 
REMARK       I    between atoms: N4_30  and  C21_31 
REMARK    9  A    between atoms: C21_31  and  C22_33 
REMARK   10  A    between atoms: C22_33  and  C23_35 
REMARK   11  A    between atoms: C23_35  and  N5_36 
REMARK   12  A    between atoms: C23_35  and  C29_45 
REMARK       I    between atoms: N5_36  and  C24_38 
REMARK   13  A    between atoms: C24_38  and  O8_40 
REMARK   14  A    between atoms: O8_40  and  C25_41 
ROOT
HETATM    1  N3  UNL     1       2.222   1.134 -21.396  1.00  0.00    -0.347 N 
ATOM      2  H3  UNL     1       2.480   1.629 -22.250  1.00  0.00     0.163 HD
HETATM    3  C16 UNL     1       1.765  -0.242 -21.478  1.00  0.00     0.241 C 
HETATM    4  O4  UNL     1       1.470  -0.735 -20.372  1.00  0.00    -0.271 OA
ENDROOT
BRANCH   3   5
HETATM    5  C17 UNL     1       1.715  -0.819 -22.778  1.00  0.00     0.179 C 
HETATM    6  C18 UNL     1       1.177  -2.257 -22.865  1.00  0.00     0.037 C 
HETATM    7  C19 UNL     1       1.541  -2.704 -24.273  1.00  0.00     0.022 C 
HETATM    8  C20 UNL     1       2.204  -1.432 -24.845  1.00  0.00     0.127 C 
HETATM    9  N4  UNL     1       2.868  -0.958 -23.616  1.00  0.00    -0.332 N 
HETATM   10  C21 UNL     1       4.253  -0.814 -23.454  1.00  0.00     0.296 C 
HETATM   11  O5  UNL     1       4.634  -0.531 -22.262  1.00  0.00    -0.264 OA
BRANCH  10  12
HETATM   12  C22 UNL     1       5.293  -0.938 -24.422  1.00  0.00     0.262 C 
HETATM   13  O6  UNL     1       5.600   0.083 -25.126  1.00  0.00    -0.280 OA
BRANCH  12  14
HETATM   14  C23 UNL     1       6.070  -2.129 -24.712  1.00  0.00     0.073 C 
BRANCH  14  15
HETATM   15  N5  UNL     1       5.877  -3.096 -23.636  1.00  0.00    -0.302 N 
HETATM   16  C24 UNL     1       6.879  -3.537 -22.754  1.00  0.00     0.365 C 
HETATM   17  O7  UNL     1       8.083  -3.108 -22.822  1.00  0.00    -0.238 OA
ATOM     18  H5  UNL     1       4.941  -3.483 -23.515  1.00  0.00     0.171 HD
BRANCH  16  19
HETATM   19  O8  UNL     1       6.666  -4.463 -21.746  1.00  0.00    -0.294 OA
BRANCH  19  20
HETATM   20  C25 UNL     1       6.460  -5.835 -21.989  1.00  0.00     0.061 C 
HETATM   21  C26 UNL     1       4.999  -6.118 -21.656  1.00  0.00     0.046 C 
HETATM   22  C27 UNL     1       7.289  -6.730 -21.105  1.00  0.00     0.046 C 
HETATM   23  C28 UNL     1       6.746  -6.211 -23.422  1.00  0.00     0.046 C 
ENDBRANCH  19  20
ENDBRANCH  16  19
ENDBRANCH  14  15
BRANCH  14  24
HETATM   24  C29 UNL     1       6.165  -2.694 -26.063  1.00  0.00     0.032 C 
HETATM   25  C30 UNL     1       5.164  -3.889 -26.201  1.00  0.00     0.016 C 
HETATM   26  C31 UNL     1       7.502  -3.328 -26.385  1.00  0.00     0.016 C 
ENDBRANCH  14  24
ENDBRANCH  12  14
ENDBRANCH  10  12
ENDBRANCH   3   5
BRANCH   1  27
HETATM   27  C10 UNL     1       2.318   1.828 -20.100  1.00  0.00     0.165 C 
BRANCH  27  28
HETATM   28  C9  UNL     1       3.611   2.496 -19.978  1.00  0.00     0.239 C 
HETATM   29  O3  UNL     1       4.485   1.933 -19.233  1.00  0.00    -0.285 OA
BRANCH  28  30
HETATM   30  C8  UNL     1       3.997   3.740 -20.615  1.00  0.00     0.292 C 
HETATM   31  N2  UNL     1       4.798   3.764 -21.779  1.00  0.00    -0.332 N 
HETATM   32  C5  UNL     1       5.402   2.714 -22.581  1.00  0.00     0.181 C 
HETATM   33  C7  UNL     1       5.348   4.773 -22.653  1.00  0.00     0.129 C 
HETATM   34  C6  UNL     1       5.685   3.716 -23.683  1.00  0.00     0.055 C 
HETATM   35  O2  UNL     1       3.611   4.824 -20.123  1.00  0.00    -0.264 OA
BRANCH  32  36
HETATM   36  C4  UNL     1       6.651   2.162 -22.021  1.00  0.00     0.244 C 
HETATM   37  N1  UNL     1       7.339   1.158 -22.738  1.00  0.00    -0.339 N 
HETATM   38  C3  UNL     1       8.470   1.254 -23.303  1.00  0.00     0.063 C 
ATOM     39  H1  UNL     1       6.874   0.253 -22.810  1.00  0.00     0.167 HD
HETATM   40  O1  UNL     1       7.152   2.539 -20.916  1.00  0.00    -0.271 OA
BRANCH  38  41
HETATM   41  C2  UNL     1       9.035   0.094 -24.010  1.00  0.00     0.040 C 
HETATM   42  C1  UNL     1       9.013   0.363 -25.489  1.00  0.00     0.010 C 
ENDBRANCH  38  41
ENDBRANCH  32  36
ENDBRANCH  28  30
ENDBRANCH  27  28
BRANCH  27  43
HETATM   43  C11 UNL     1       1.112   2.747 -20.007  1.00  0.00     0.038 C 
BRANCH  43  44
HETATM   44  C12 UNL     1       0.036   2.235 -19.112  1.00  0.00    -0.012 C 
HETATM   45  C13 UNL     1      -1.102   1.649 -19.939  1.00  0.00     0.005 C 
HETATM   46  C14 UNL     1      -1.944   2.861 -19.680  1.00  0.00     0.001 C 
HETATM   47  C15 UNL     1      -0.934   3.327 -18.670  1.00  0.00     0.005 C 
ENDBRANCH  43  44
ENDBRANCH  27  43
ENDBRANCH   1  27
TORSDOF 14
ENDMDL
MODEL 5
REMARK VINA RESULT: -8.333675112      3.105      7.541
REMARK  14 active torsions:
REMARK  status: ('A' for Active; 'I' for Inactive)
REMARK    1  A    between atoms: C2_2  and  C3_3 
REMARK       I    between atoms: N1_4  and  C4_6 
REMARK    2  A    between atoms: C4_6  and  C5_8 
REMARK       I    between atoms: N2_11  and  C8_12 
REMARK    3  A    between atoms: C8_12  and  C9_14 
REMARK    4  A    between atoms: C9_14  and  C10_16 
REMARK    5  A    between atoms: C10_16  and  C11_17 
REMARK    6  A    between atoms: C10_16  and  N3_22 
REMARK    7  A    between atoms: C11_17  and  C12_18 
REMARK       I    between atoms: N3_22  and  C16_24 
REMARK    8  A    between atoms: C16_24  and  C17_26 
REMARK       I    between atoms: N4_30  and  C21_31 
REMARK    9  A    between atoms: C21_31  and  C22_33 
REMARK   10  A    between atoms: C22_33  and  C23_35 
REMARK   11  A    between atoms: C23_35  and  N5_36 
REMARK   12  A    between atoms: C23_35  and  C29_45 
REMARK       I    between atoms: N5_36  and  C24_38 
REMARK   13  A    between atoms: C24_38  and  O8_40 
REMARK   14  A    between atoms: O8_40  and  C25_41 
ROOT
HETATM    1  N3  UNL     1       1.978   2.529 -20.332  1.00  0.00    -0.347 N 
ATOM      2  H3  UNL     1       1.752   2.967 -21.225  1.00  0.00     0.163 HD
HETATM    3  C16 UNL     1       3.242   2.832 -19.686  1.00  0.00     0.241 C 
HETATM    4  O4  UNL     1       3.408   2.230 -18.607  1.00  0.00    -0.271 OA
ENDROOT
BRANCH   3   5
HETATM    5  C17 UNL     1       4.096   3.750 -20.360  1.00  0.00     0.179 C 
HETATM    6  C18 UNL     1       3.451   4.583 -21.481  1.00  0.00     0.037 C 
HETATM    7  C19 UNL     1       4.634   5.204 -22.208  1.00  0.00     0.022 C 
HETATM    8  C20 UNL     1       5.825   4.686 -21.372  1.00  0.00     0.127 C 
HETATM    9  N4  UNL     1       5.294   3.351 -21.036  1.00  0.00    -0.332 N 
HETATM   10  C21 UNL     1       5.878   2.134 -21.415  1.00  0.00     0.296 C 
HETATM   11  O5  UNL     1       5.180   1.091 -21.150  1.00  0.00    -0.264 OA
BRANCH  10  12
HETATM   12  C22 UNL     1       7.133   1.894 -22.050  1.00  0.00     0.262 C 
HETATM   13  O6  UNL     1       8.201   2.010 -21.359  1.00  0.00    -0.280 OA
BRANCH  12  14
HETATM   14  C23 UNL     1       7.345   1.522 -23.436  1.00  0.00     0.073 C 
BRANCH  14  15
HETATM   15  N5  UNL     1       6.106   0.969 -23.975  1.00  0.00    -0.302 N 
HETATM   16  C24 UNL     1       5.778  -0.398 -24.014  1.00  0.00     0.365 C 
HETATM   17  O7  UNL     1       6.566  -1.300 -23.561  1.00  0.00    -0.238 OA
ATOM     18  H5  UNL     1       5.423   1.626 -24.353  1.00  0.00     0.171 HD
BRANCH  16  19
HETATM   19  O8  UNL     1       4.596  -0.893 -24.539  1.00  0.00    -0.294 OA
BRANCH  19  20
HETATM   20  C25 UNL     1       4.206  -0.701 -25.878  1.00  0.00     0.061 C 
HETATM   21  C26 UNL     1       3.223  -1.820 -26.207  1.00  0.00     0.046 C 
HETATM   22  C27 UNL     1       5.346  -0.823 -26.856  1.00  0.00     0.046 C 
HETATM   23  C28 UNL     1       3.554   0.642 -26.097  1.00  0.00     0.046 C 
ENDBRANCH  19  20
ENDBRANCH  16  19
ENDBRANCH  14  15
BRANCH  14  24
HETATM   24  C29 UNL     1       8.123   2.353 -24.362  1.00  0.00     0.032 C 
HETATM   25  C30 UNL     1       7.349   3.683 -24.646  1.00  0.00     0.016 C 
HETATM   26  C31 UNL     1       8.297   1.757 -25.744  1.00  0.00     0.016 C 
ENDBRANCH  14  24
ENDBRANCH  12  14
ENDBRANCH  10  12
ENDBRANCH   3   5
BRANCH   1  27
HETATM   27  C10 UNL     1       1.015   1.597 -19.719  1.00  0.00     0.165 C 
BRANCH  27  28
HETATM   28  C9  UNL     1      -0.135   2.329 -19.195  1.00  0.00     0.239 C 
HETATM   29  O3  UNL     1      -0.424   3.437 -19.764  1.00  0.00    -0.285 OA
BRANCH  28  30
HETATM   30  C8  UNL     1      -0.978   1.922 -18.087  1.00  0.00     0.292 C 
HETATM   31  N2  UNL     1      -2.242   1.325 -18.292  1.00  0.00    -0.332 N 
HETATM   32  C5  UNL     1      -2.988   0.986 -19.492  1.00  0.00     0.181 C 
HETATM   33  C7  UNL     1      -3.305   0.809 -17.462  1.00  0.00     0.129 C 
HETATM   34  C6  UNL     1      -3.935   0.138 -18.665  1.00  0.00     0.055 C 
HETATM   35  O2  UNL     1      -0.576   2.104 -16.916  1.00  0.00    -0.264 OA
BRANCH  32  36
HETATM   36  C4  UNL     1      -3.690   2.125 -20.114  1.00  0.00     0.244 C 
HETATM   37  N1  UNL     1      -4.441   2.999 -19.294  1.00  0.00    -0.339 N 
HETATM   38  C3  UNL     1      -4.188   4.213 -19.031  1.00  0.00     0.063 C 
ATOM     39  H1  UNL     1      -5.280   2.608 -18.866  1.00  0.00     0.167 HD
HETATM   40  O1  UNL     1      -3.662   2.373 -21.359  1.00  0.00    -0.271 OA
BRANCH  38  41
HETATM   41  C2  UNL     1      -5.090   4.972 -18.150  1.00  0.00     0.040 C 
HETATM   42  C1  UNL     1      -5.142   4.300 -16.805  1.00  0.00     0.010 C 
ENDBRANCH  38  41
ENDBRANCH  32  36
ENDBRANCH  28  30
ENDBRANCH  27  28
BRANCH  27  43
HETATM   43  C11 UNL     1       0.684   0.556 -20.774  1.00  0.00     0.038 C 
BRANCH  43  44
HETATM   44  C12 UNL     1       1.814   0.258 -21.699  1.00  0.00    -0.012 C 
HETATM   45  C13 UNL     1       1.281  -0.188 -23.055  1.00  0.00     0.005 C 
HETATM   46  C14 UNL     1       1.619  -1.614 -22.743  1.00  0.00     0.001 C 
HETATM   47  C15 UNL     1       2.365  -1.154 -21.523  1.00  0.00     0.005 C 
ENDBRANCH  43  44
ENDBRANCH  27  43
ENDBRANCH   1  27
TORSDOF 14
ENDMDL
