MODEL 1
REMARK VINA RESULT: -7.675262110      0.000      0.000
REMARK  13 active torsions:
REMARK  status: ('A' for Active; 'I' for Inactive)
REMARK    1  A    between atoms: C2_2  and  C3_3 
REMARK    2  A    between atoms: C3_3  and  C4_4 
REMARK    3  A    between atoms: C4_4  and  C5_5 
REMARK    4  A    between atoms: C7_10  and  C8_11 
REMARK    5  A    between atoms: C8_11  and  C9_12 
REMARK    6  A    between atoms: C11_14  and  O2_15 
REMARK    7  A    between atoms: C12_18  and  C13_19 
REMARK    8  A    between atoms: C13_19  and  C14_20 
REMARK    9  A    between atoms: C19_27  and  C20_28 
REMARK   10  A    between atoms: C20_28  and  C21_29 
REMARK   11  A    between atoms: C25_36  and  C26_37 
REMARK   12  A    between atoms: C26_37  and  C27_38 
REMARK   13  A    between atoms: C27_38  and  S1_39 
ROOT
HETATM    1  C5  UNL     1       5.373   0.961 -25.158  1.00  0.00     0.178 C 
HETATM    2  C6  UNL     1       6.637   0.188 -25.262  1.00  0.00     0.241 C 
HETATM    3  O1  UNL     1       7.703   0.836 -24.932  1.00  0.00    -0.271 OA
HETATM    4  N1  UNL     1       6.822  -1.113 -25.661  1.00  0.00    -0.350 N 
ATOM      5  H1  UNL     1       7.488  -1.247 -26.421  1.00  0.00     0.163 HD
HETATM    6  C7  UNL     1       6.192  -2.348 -25.143  1.00  0.00     0.139 C 
HETATM    7  C11 UNL     1       5.389  -2.027 -23.932  1.00  0.00     0.280 C 
HETATM    8  O3  UNL     1       4.117  -2.246 -23.721  1.00  0.00    -0.344 OA
HETATM    9  C12 UNL     1       3.100  -2.714 -22.991  1.00  0.00     0.224 C 
HETATM   10  C17 UNL     1       1.982  -1.725 -22.928  1.00  0.00     0.288 C 
HETATM   11  O4  UNL     1       0.973  -1.850 -23.716  1.00  0.00    -0.262 OA
HETATM   12  O5  UNL     1       1.938  -0.653 -22.065  1.00  0.00    -0.317 OA
HETATM   13  C18 UNL     1       2.903   0.341 -21.870  1.00  0.00     0.204 C 
HETATM   14  C19 UNL     1       2.377   1.269 -20.768  1.00  0.00     0.109 C 
HETATM   15  N2  UNL     1       3.060   2.531 -20.778  1.00  0.00    -0.354 N 
ATOM     16  H2  UNL     1       2.990   3.075 -19.918  1.00  0.00     0.163 HD
HETATM   17  C24 UNL     1       3.812   3.125 -21.808  1.00  0.00     0.231 C 
HETATM   18  O6  UNL     1       3.365   4.216 -22.309  1.00  0.00    -0.273 OA
HETATM   19  C25 UNL     1       5.079   2.651 -22.405  1.00  0.00     0.170 C 
HETATM   20  C29 UNL     1       5.204   3.112 -23.803  1.00  0.00     0.233 C 
HETATM   21  O8  UNL     1       4.901   4.333 -24.034  1.00  0.00    -0.272 OA
HETATM   22  N3  UNL     1       5.620   2.362 -24.915  1.00  0.00    -0.342 N 
HETATM   23  C30 UNL     1       6.394   3.038 -25.975  1.00  0.00     0.153 C 
ENDROOT
BRANCH  19  24
HETATM   24  C26 UNL     1       6.169   3.424 -21.625  1.00  0.00     0.036 C 
BRANCH  24  25
HETATM   25  C27 UNL     1       7.064   2.521 -20.847  1.00  0.00     0.109 C 
BRANCH  25  26
HETATM   26  S1  UNL     1       6.197   2.048 -19.372  1.00  0.00     0.010 S 
HETATM   27  C28 UNL     1       5.639   3.469 -18.466  1.00  0.00     0.127 C 
HETATM   28  O7  UNL     1       7.172   1.120 -18.368  1.00  0.00    -0.258 OA
ENDBRANCH  25  26
ENDBRANCH  24  25
ENDBRANCH  19  24
BRANCH  14  29
HETATM   29  C20 UNL     1       0.900   1.309 -20.878  1.00  0.00     0.031 C 
BRANCH  29  30
HETATM   30  C21 UNL     1       0.109   1.645 -19.675  1.00  0.00    -0.021 C 
HETATM   31  C22 UNL     1      -0.768   0.580 -19.120  1.00  0.00     0.009 C 
HETATM   32  C23 UNL     1      -0.733   2.899 -19.845  1.00  0.00     0.009 C 
ENDBRANCH  29  30
ENDBRANCH  14  29
BRANCH   1  33
HETATM   33  C4  UNL     1       4.574   0.854 -26.468  1.00  0.00     0.035 C 
BRANCH  33  34
HETATM   34  C3  UNL     1       3.287   0.135 -26.163  1.00  0.00     0.002 C 
BRANCH  34  35
HETATM   35  C2  UNL     1       2.491   0.989 -25.182  1.00  0.00    -0.004 C 
HETATM   36  C1  UNL     1       2.358   2.411 -25.716  1.00  0.00     0.005 C 
ENDBRANCH  34  35
ENDBRANCH  33  34
ENDBRANCH   1  33
BRANCH   6  37
HETATM   37  C8  UNL     1       5.569  -3.101 -26.236  1.00  0.00     0.030 C 
BRANCH  37  38
HETATM   38  C9  UNL     1       6.128  -2.887 -27.610  1.00  0.00    -0.002 C 
HETATM   39  C10 UNL     1       4.956  -2.387 -28.476  1.00  0.00     0.005 C 
ENDBRANCH  37  38
ENDBRANCH   6  37
BRANCH   9  40
HETATM   40  C13 UNL     1       3.347  -3.173 -21.573  1.00  0.00     0.046 C 
BRANCH  40  41
HETATM   41  C14 UNL     1       2.585  -4.418 -21.270  1.00  0.00    -0.020 C 
HETATM   42  C15 UNL     1       1.516  -4.046 -20.232  1.00  0.00     0.009 C 
HETATM   43  C16 UNL     1       3.480  -5.460 -20.657  1.00  0.00     0.009 C 
ENDBRANCH  40  41
ENDBRANCH   9  40
BRANCH   7  44
HETATM   44  O2  UNL     1       6.216  -1.454 -23.073  1.00  0.00    -0.369 OA
ATOM     45  H2  UNL     1       5.874  -1.637 -22.205  1.00  0.00     0.212 HD
ENDBRANCH   7  44
TORSDOF 13
ENDMDL
MODEL 2
REMARK VINA RESULT: -7.620969506      1.484      1.850
REMARK  13 active torsions:
REMARK  status: ('A' for Active; 'I' for Inactive)
REMARK    1  A    between atoms: C2_2  and  C3_3 
REMARK    2  A    between atoms: C3_3  and  C4_4 
REMARK    3  A    between atoms: C4_4  and  C5_5 
REMARK    4  A    between atoms: C7_10  and  C8_11 
REMARK    5  A    between atoms: C8_11  and  C9_12 
REMARK    6  A    between atoms: C11_14  and  O2_15 
REMARK    7  A    between atoms: C12_18  and  C13_19 
REMARK    8  A    between atoms: C13_19  and  C14_20 
REMARK    9  A    between atoms: C19_27  and  C20_28 
REMARK   10  A    between atoms: C20_28  and  C21_29 
REMARK   11  A    between atoms: C25_36  and  C26_37 
REMARK   12  A    between atoms: C26_37  and  C27_38 
REMARK   13  A    between atoms: C27_38  and  S1_39 
ROOT
HETATM    1  C5  UNL     1       5.679   0.715 -25.440  1.00  0.00     0.178 C 
HETATM    2  C6  UNL     1       6.806  -0.237 -25.617  1.00  0.00     0.241 C 
HETATM    3  O1  UNL     1       7.977   0.252 -25.382  1.00  0.00    -0.271 OA
HETATM    4  N1  UNL     1       6.769  -1.557 -25.995  1.00  0.00    -0.350 N 
ATOM      5  H1  UNL     1       7.349  -1.798 -26.799  1.00  0.00     0.163 HD
HETATM    6  C7  UNL     1       6.007  -2.678 -25.403  1.00  0.00     0.139 C 
HETATM    7  C11 UNL     1       5.353  -2.225 -24.145  1.00  0.00     0.280 C 
HETATM    8  O3  UNL     1       4.083  -2.253 -23.836  1.00  0.00    -0.344 OA
HETATM    9  C12 UNL     1       3.067  -2.555 -23.023  1.00  0.00     0.224 C 
HETATM   10  C17 UNL     1       2.112  -1.412 -22.904  1.00  0.00     0.288 C 
HETATM   11  O4  UNL     1       1.039  -1.399 -23.613  1.00  0.00    -0.262 OA
HETATM   12  O5  UNL     1       2.289  -0.333 -22.067  1.00  0.00    -0.317 OA
HETATM   13  C18 UNL     1       3.402   0.511 -21.967  1.00  0.00     0.204 C 
HETATM   14  C19 UNL     1       3.101   1.521 -20.853  1.00  0.00     0.109 C 
HETATM   15  N2  UNL     1       3.957   2.669 -20.945  1.00  0.00    -0.354 N 
ATOM     16  H2  UNL     1       4.032   3.229 -20.096  1.00  0.00     0.163 HD
HETATM   17  C24 UNL     1       4.707   3.131 -22.041  1.00  0.00     0.231 C 
HETATM   18  O6  UNL     1       4.387   4.269 -22.536  1.00  0.00    -0.273 OA
HETATM   19  C25 UNL     1       5.843   2.468 -22.717  1.00  0.00     0.170 C 
HETATM   20  C29 UNL     1       5.928   2.886 -24.131  1.00  0.00     0.233 C 
HETATM   21  O8  UNL     1       5.789   4.135 -24.370  1.00  0.00    -0.272 OA
HETATM   22  N3  UNL     1       6.145   2.068 -25.251  1.00  0.00    -0.342 N 
HETATM   23  C30 UNL     1       6.927   2.608 -26.381  1.00  0.00     0.153 C 
ENDROOT
BRANCH  19  24
HETATM   24  C26 UNL     1       7.090   3.084 -22.037  1.00  0.00     0.036 C 
BRANCH  24  25
HETATM   25  C27 UNL     1       8.358   2.431 -22.470  1.00  0.00     0.109 C 
BRANCH  25  26
HETATM   26  S1  UNL     1       9.335   3.657 -23.302  1.00  0.00     0.010 S 
HETATM   27  C28 UNL     1      10.137   2.982 -24.735  1.00  0.00     0.127 C 
HETATM   28  O7  UNL     1      10.507   4.293 -22.281  1.00  0.00    -0.258 OA
ENDBRANCH  25  26
ENDBRANCH  24  25
ENDBRANCH  19  24
BRANCH  14  29
HETATM   29  C20 UNL     1       1.641   1.777 -20.857  1.00  0.00     0.031 C 
BRANCH  29  30
HETATM   30  C21 UNL     1       0.895   1.636 -19.589  1.00  0.00    -0.021 C 
HETATM   31  C22 UNL     1       0.115   0.384 -19.394  1.00  0.00     0.009 C 
HETATM   32  C23 UNL     1      -0.031   2.808 -19.308  1.00  0.00     0.009 C 
ENDBRANCH  29  30
ENDBRANCH  14  29
BRANCH   1  33
HETATM   33  C4  UNL     1       4.776   0.708 -26.686  1.00  0.00     0.035 C 
BRANCH  33  34
HETATM   34  C3  UNL     1       3.432   0.169 -26.276  1.00  0.00     0.002 C 
BRANCH  34  35
HETATM   35  C2  UNL     1       2.863   1.090 -25.201  1.00  0.00    -0.004 C 
HETATM   36  C1  UNL     1       2.704   2.501 -25.754  1.00  0.00     0.005 C 
ENDBRANCH  34  35
ENDBRANCH  33  34
ENDBRANCH   1  33
BRANCH   6  37
HETATM   37  C8  UNL     1       5.201  -3.346 -26.428  1.00  0.00     0.030 C 
BRANCH  37  38
HETATM   38  C9  UNL     1       5.771  -3.396 -27.813  1.00  0.00    -0.002 C 
HETATM   39  C10 UNL     1       4.895  -2.465 -28.671  1.00  0.00     0.005 C 
ENDBRANCH  37  38
ENDBRANCH   6  37
BRANCH   9  40
HETATM   40  C13 UNL     1       3.350  -3.026 -21.616  1.00  0.00     0.046 C 
BRANCH  40  41
HETATM   41  C14 UNL     1       2.522  -4.216 -21.269  1.00  0.00    -0.020 C 
HETATM   42  C15 UNL     1       1.511  -3.763 -20.205  1.00  0.00     0.009 C 
HETATM   43  C16 UNL     1       3.370  -5.302 -20.665  1.00  0.00     0.009 C 
ENDBRANCH  40  41
ENDBRANCH   9  40
BRANCH   7  44
HETATM   44  O2  UNL     1       6.317  -1.768 -23.362  1.00  0.00    -0.369 OA
ATOM     45  H2  UNL     1       6.168  -0.835 -23.265  1.00  0.00     0.212 HD
ENDBRANCH   7  44
TORSDOF 13
ENDMDL
MODEL 3
REMARK VINA RESULT: -7.509326029      2.696      7.531
REMARK  13 active torsions:
REMARK  status: ('A' for Active; 'I' for Inactive)
REMARK    1  A    between atoms: C2_2  and  C3_3 
REMARK    2  A    between atoms: C3_3  and  C4_4 
REMARK    3  A    between atoms: C4_4  and  C5_5 
REMARK    4  A    between atoms: C7_10  and  C8_11 
REMARK    5  A    between atoms: C8_11  and  C9_12 
REMARK    6  A    between atoms: C11_14  and  O2_15 
REMARK    7  A    between atoms: C12_18  and  C13_19 
REMARK    8  A    between atoms: C13_19  and  C14_20 
REMARK    9  A    between atoms: C19_27  and  C20_28 
REMARK   10  A    between atoms: C20_28  and  C21_29 
REMARK   11  A    between atoms: C25_36  and  C26_37 
REMARK   12  A    between atoms: C26_37  and  C27_38 
REMARK   13  A    between atoms: C27_38  and  S1_39 
ROOT
HETATM    1  C5  UNL     1       4.420   1.154 -23.568  1.00  0.00     0.178 C 
HETATM    2  C6  UNL     1       5.114   1.052 -22.259  1.00  0.00     0.241 C 
HETATM    3  O1  UNL     1       4.557   0.260 -21.405  1.00  0.00    -0.271 OA
HETATM    4  N1  UNL     1       6.260   1.682 -21.838  1.00  0.00    -0.350 N 
ATOM      5  H1  UNL     1       6.175   2.209 -20.969  1.00  0.00     0.163 HD
HETATM    6  C7  UNL     1       7.599   1.705 -22.467  1.00  0.00     0.139 C 
HETATM    7  C11 UNL     1       7.625   0.760 -23.616  1.00  0.00     0.280 C 
HETATM    8  O3  UNL     1       7.916   1.012 -24.866  1.00  0.00    -0.344 OA
HETATM    9  C12 UNL     1       8.579   0.769 -26.001  1.00  0.00     0.224 C 
HETATM   10  C17 UNL     1       7.663   0.812 -27.181  1.00  0.00     0.288 C 
HETATM   11  O4  UNL     1       7.594   1.878 -27.897  1.00  0.00    -0.262 OA
HETATM   12  O5  UNL     1       6.859  -0.232 -27.581  1.00  0.00    -0.317 OA
HETATM   13  C18 UNL     1       5.934  -0.954 -26.817  1.00  0.00     0.204 C 
HETATM   14  C19 UNL     1       5.342  -2.034 -27.731  1.00  0.00     0.109 C 
HETATM   15  N2  UNL     1       4.109  -2.545 -27.203  1.00  0.00    -0.354 N 
ATOM     16  H2  UNL     1       3.814  -3.448 -27.574  1.00  0.00     0.163 HD
HETATM   17  C24 UNL     1       3.251  -1.977 -26.245  1.00  0.00     0.231 C 
HETATM   18  O6  UNL     1       2.074  -1.648 -26.631  1.00  0.00    -0.273 OA
HETATM   19  C25 UNL     1       3.526  -1.701 -24.819  1.00  0.00     0.170 C 
HETATM   20  C29 UNL     1       2.709  -0.570 -24.336  1.00  0.00     0.233 C 
HETATM   21  O8  UNL     1       1.476  -0.565 -24.678  1.00  0.00    -0.272 OA
HETATM   22  N3  UNL     1       3.129   0.509 -23.542  1.00  0.00    -0.342 N 
HETATM   23  C30 UNL     1       2.182   1.079 -22.562  1.00  0.00     0.153 C 
ENDROOT
BRANCH  19  24
HETATM   24  C26 UNL     1       2.967  -2.944 -24.086  1.00  0.00     0.036 C 
BRANCH  24  25
HETATM   25  C27 UNL     1       3.613  -3.166 -22.761  1.00  0.00     0.109 C 
BRANCH  25  26
HETATM   26  S1  UNL     1       2.343  -3.072 -21.523  1.00  0.00     0.010 S 
HETATM   27  C28 UNL     1       2.270  -4.561 -20.559  1.00  0.00     0.127 C 
HETATM   28  O7  UNL     1       0.838  -2.808 -22.219  1.00  0.00    -0.258 OA
ENDBRANCH  25  26
ENDBRANCH  24  25
ENDBRANCH  19  24
BRANCH  14  29
HETATM   29  C20 UNL     1       5.301  -1.487 -29.108  1.00  0.00     0.031 C 
BRANCH  29  30
HETATM   30  C21 UNL     1       5.023  -2.411 -30.228  1.00  0.00    -0.021 C 
HETATM   31  C22 UNL     1       5.934  -3.576 -30.389  1.00  0.00     0.009 C 
HETATM   32  C23 UNL     1       4.926  -1.708 -31.572  1.00  0.00     0.009 C 
ENDBRANCH  29  30
ENDBRANCH  14  29
BRANCH   1  33
HETATM   33  C4  UNL     1       4.190   2.631 -23.935  1.00  0.00     0.035 C 
BRANCH  33  34
HETATM   34  C3  UNL     1       4.169   2.732 -25.436  1.00  0.00     0.002 C 
BRANCH  34  35
HETATM   35  C2  UNL     1       5.428   3.471 -25.877  1.00  0.00    -0.004 C 
HETATM   36  C1  UNL     1       5.990   4.284 -24.716  1.00  0.00     0.005 C 
ENDBRANCH  34  35
ENDBRANCH  33  34
ENDBRANCH   1  33
BRANCH   6  37
HETATM   37  C8  UNL     1       8.047   3.086 -22.666  1.00  0.00     0.030 C 
BRANCH  37  38
HETATM   38  C9  UNL     1       9.513   3.297 -22.894  1.00  0.00    -0.002 C 
HETATM   39  C10 UNL     1       9.645   3.896 -24.307  1.00  0.00     0.005 C 
ENDBRANCH  37  38
ENDBRANCH   6  37
BRANCH   9  40
HETATM   40  C13 UNL     1       9.393  -0.496 -26.136  1.00  0.00     0.046 C 
BRANCH  40  41
HETATM   41  C14 UNL     1      10.841  -0.233 -25.898  1.00  0.00    -0.020 C 
HETATM   42  C15 UNL     1      11.078  -0.375 -24.387  1.00  0.00     0.009 C 
HETATM   43  C16 UNL     1      11.203   1.172 -26.291  1.00  0.00     0.009 C 
ENDBRANCH  40  41
ENDBRANCH   9  40
BRANCH   7  44
HETATM   44  O2  UNL     1       7.285  -0.425 -23.138  1.00  0.00    -0.369 OA
ATOM     45  H2  UNL     1       6.674  -0.804 -23.758  1.00  0.00     0.212 HD
ENDBRANCH   7  44
TORSDOF 13
ENDMDL
MODEL 4
REMARK VINA RESULT: -7.261352114      2.855      7.598
REMARK  13 active torsions:
REMARK  status: ('A' for Active; 'I' for Inactive)
REMARK    1  A    between atoms: C2_2  and  C3_3 
REMARK    2  A    between atoms: C3_3  and  C4_4 
REMARK    3  A    between atoms: C4_4  and  C5_5 
REMARK    4  A    between atoms: C7_10  and  C8_11 
REMARK    5  A    between atoms: C8_11  and  C9_12 
REMARK    6  A    between atoms: C11_14  and  O2_15 
REMARK    7  A    between atoms: C12_18  and  C13_19 
REMARK    8  A    between atoms: C13_19  and  C14_20 
REMARK    9  A    between atoms: C19_27  and  C20_28 
REMARK   10  A    between atoms: C20_28  and  C21_29 
REMARK   11  A    between atoms: C25_36  and  C26_37 
REMARK   12  A    between atoms: C26_37  and  C27_38 
REMARK   13  A    between atoms: C27_38  and  S1_39 
ROOT
HETATM    1  C5  UNL     1       4.394   1.142 -23.564  1.00  0.00     0.178 C 
HETATM    2  C6  UNL     1       5.089   1.016 -22.258  1.00  0.00     0.241 C 
HETATM    3  O1  UNL     1       4.531   0.211 -21.417  1.00  0.00    -0.271 OA
HETATM    4  N1  UNL     1       6.235   1.638 -21.827  1.00  0.00    -0.350 N 
ATOM      5  H1  UNL     1       6.152   2.149 -20.949  1.00  0.00     0.163 HD
HETATM    6  C7  UNL     1       7.574   1.670 -22.456  1.00  0.00     0.139 C 
HETATM    7  C11 UNL     1       7.598   0.745 -23.622  1.00  0.00     0.280 C 
HETATM    8  O3  UNL     1       7.889   1.018 -24.867  1.00  0.00    -0.344 OA
HETATM    9  C12 UNL     1       8.551   0.795 -26.006  1.00  0.00     0.224 C 
HETATM   10  C17 UNL     1       7.634   0.858 -27.185  1.00  0.00     0.288 C 
HETATM   11  O4  UNL     1       7.566   1.936 -27.883  1.00  0.00    -0.262 OA
HETATM   12  O5  UNL     1       6.828  -0.177 -27.602  1.00  0.00    -0.317 OA
HETATM   13  C18 UNL     1       5.903  -0.912 -26.851  1.00  0.00     0.204 C 
HETATM   14  C19 UNL     1       5.309  -1.975 -27.783  1.00  0.00     0.109 C 
HETATM   15  N2  UNL     1       4.076  -2.494 -27.263  1.00  0.00    -0.354 N 
ATOM     16  H2  UNL     1       3.780  -3.390 -27.650  1.00  0.00     0.163 HD
HETATM   17  C24 UNL     1       3.219  -1.941 -26.295  1.00  0.00     0.231 C 
HETATM   18  O6  UNL     1       2.043  -1.604 -26.675  1.00  0.00    -0.273 OA
HETATM   19  C25 UNL     1       3.495  -1.691 -24.864  1.00  0.00     0.170 C 
HETATM   20  C29 UNL     1       2.680  -0.566 -24.362  1.00  0.00     0.233 C 
HETATM   21  O8  UNL     1       1.447  -0.554 -24.702  1.00  0.00    -0.272 OA
HETATM   22  N3  UNL     1       3.102   0.498 -23.549  1.00  0.00    -0.342 N 
HETATM   23  C30 UNL     1       2.156   1.052 -22.559  1.00  0.00     0.153 C 
ENDROOT
BRANCH  19  24
HETATM   24  C26 UNL     1       2.936  -2.945 -24.153  1.00  0.00     0.036 C 
BRANCH  24  25
HETATM   25  C27 UNL     1       3.541  -3.158 -22.808  1.00  0.00     0.109 C 
BRANCH  25  26
HETATM   26  S1  UNL     1       4.735  -4.465 -22.958  1.00  0.00     0.010 S 
HETATM   27  C28 UNL     1       4.936  -4.964 -24.650  1.00  0.00     0.127 C 
HETATM   28  O7  UNL     1       4.283  -5.804 -22.052  1.00  0.00    -0.258 OA
ENDBRANCH  25  26
ENDBRANCH  24  25
ENDBRANCH  19  24
BRANCH  14  29
HETATM   29  C20 UNL     1       5.268  -1.404 -29.150  1.00  0.00     0.031 C 
BRANCH  29  30
HETATM   30  C21 UNL     1       4.999  -2.310 -30.287  1.00  0.00    -0.021 C 
HETATM   31  C22 UNL     1       5.849  -3.525 -30.403  1.00  0.00     0.009 C 
HETATM   32  C23 UNL     1       5.015  -1.602 -31.632  1.00  0.00     0.009 C 
ENDBRANCH  29  30
ENDBRANCH  14  29
BRANCH   1  33
HETATM   33  C4  UNL     1       4.166   2.625 -23.906  1.00  0.00     0.035 C 
BRANCH  33  34
HETATM   34  C3  UNL     1       4.077   2.742 -25.404  1.00  0.00     0.002 C 
BRANCH  34  35
HETATM   35  C2  UNL     1       5.321   3.477 -25.893  1.00  0.00    -0.004 C 
HETATM   36  C1  UNL     1       5.961   4.244 -24.742  1.00  0.00     0.005 C 
ENDBRANCH  34  35
ENDBRANCH  33  34
ENDBRANCH   1  33
BRANCH   6  37
HETATM   37  C8  UNL     1       8.023   3.054 -22.631  1.00  0.00     0.030 C 
BRANCH  37  38
HETATM   38  C9  UNL     1       9.491   3.268 -22.847  1.00  0.00    -0.002 C 
HETATM   39  C10 UNL     1       9.630   3.917 -24.237  1.00  0.00     0.005 C 
ENDBRANCH  37  38
ENDBRANCH   6  37
BRANCH   9  40
HETATM   40  C13 UNL     1       9.363  -0.470 -26.164  1.00  0.00     0.046 C 
BRANCH  40  41
HETATM   41  C14 UNL     1      10.812  -0.211 -25.928  1.00  0.00    -0.020 C 
HETATM   42  C15 UNL     1      11.054  -0.365 -24.419  1.00  0.00     0.009 C 
HETATM   43  C16 UNL     1      11.176   1.197 -26.312  1.00  0.00     0.009 C 
ENDBRANCH  40  41
ENDBRANCH   9  40
BRANCH   7  44
HETATM   44  O2  UNL     1       7.258  -0.448 -23.164  1.00  0.00    -0.369 OA
ATOM     45  H2  UNL     1       7.100  -0.996 -23.924  1.00  0.00     0.212 HD
ENDBRANCH   7  44
TORSDOF 13
ENDMDL
MODEL 5
REMARK VINA RESULT: -7.189740623      2.463      7.490
REMARK  13 active torsions:
REMARK  status: ('A' for Active; 'I' for Inactive)
REMARK    1  A    between atoms: C2_2  and  C3_3 
REMARK    2  A    between atoms: C3_3  and  C4_4 
REMARK    3  A    between atoms: C4_4  and  C5_5 
REMARK    4  A    between atoms: C7_10  and  C8_11 
REMARK    5  A    between atoms: C8_11  and  C9_12 
REMARK    6  A    between atoms: C11_14  and  O2_15 
REMARK    7  A    between atoms: C12_18  and  C13_19 
REMARK    8  A    between atoms: C13_19  and  C14_20 
REMARK    9  A    between atoms: C19_27  and  C20_28 
REMARK   10  A    between atoms: C20_28  and  C21_29 
REMARK   11  A    between atoms: C25_36  and  C26_37 
REMARK   12  A    between atoms: C26_37  and  C27_38 
REMARK   13  A    between atoms: C27_38  and  S1_39 
ROOT
HETATM    1  C5  UNL     1       3.396  -1.395 -23.565  1.00  0.00     0.178 C 
HETATM    2  C6  UNL     1       3.220  -1.574 -22.102  1.00  0.00     0.241 C 
HETATM    3  O1  UNL     1       3.812  -2.607 -21.601  1.00  0.00    -0.271 OA
HETATM    4  N1  UNL     1       2.516  -0.795 -21.216  1.00  0.00    -0.350 N 
ATOM      5  H1  UNL     1       1.817  -1.287 -20.660  1.00  0.00     0.163 HD
HETATM    6  C7  UNL     1       2.629   0.657 -20.953  1.00  0.00     0.139 C 
HETATM    7  C11 UNL     1       3.796   1.207 -21.695  1.00  0.00     0.280 C 
HETATM    8  O3  UNL     1       3.816   2.177 -22.571  1.00  0.00    -0.344 OA
HETATM    9  C12 UNL     1       4.294   3.327 -23.056  1.00  0.00     0.224 C 
HETATM   10  C17 UNL     1       4.502   3.244 -24.534  1.00  0.00     0.288 C 
HETATM   11  O4  UNL     1       3.612   3.721 -25.331  1.00  0.00    -0.262 OA
HETATM   12  O5  UNL     1       5.605   2.682 -25.135  1.00  0.00    -0.317 OA
HETATM   13  C18 UNL     1       6.148   1.408 -24.930  1.00  0.00     0.204 C 
HETATM   14  C19 UNL     1       7.396   1.304 -25.815  1.00  0.00     0.109 C 
HETATM   15  N2  UNL     1       7.783  -0.064 -26.012  1.00  0.00    -0.354 N 
ATOM     16  H2  UNL     1       8.744  -0.208 -26.323  1.00  0.00     0.163 HD
HETATM   17  C24 UNL     1       7.023  -1.235 -25.838  1.00  0.00     0.231 C 
HETATM   18  O6  UNL     1       6.781  -1.940 -26.880  1.00  0.00    -0.273 OA
HETATM   19  C25 UNL     1       6.451  -1.776 -24.586  1.00  0.00     0.170 C 
HETATM   20  C29 UNL     1       5.242  -2.577 -24.866  1.00  0.00     0.233 C 
HETATM   21  O8  UNL     1       5.308  -3.394 -25.848  1.00  0.00    -0.272 OA
HETATM   22  N3  UNL     1       4.019  -2.546 -24.175  1.00  0.00    -0.342 N 
HETATM   23  C30 UNL     1       3.254  -3.801 -24.034  1.00  0.00     0.153 C 
ENDROOT
BRANCH  19  24
HETATM   24  C26 UNL     1       7.510  -2.797 -24.106  1.00  0.00     0.036 C 
BRANCH  24  25
HETATM   25  C27 UNL     1       7.058  -3.574 -22.917  1.00  0.00     0.109 C 
BRANCH  25  26
HETATM   26  S1  UNL     1       7.266  -5.297 -23.291  1.00  0.00     0.010 S 
HETATM   27  C28 UNL     1       8.029  -5.526 -24.877  1.00  0.00     0.127 C 
HETATM   28  O7  UNL     1       5.792  -6.100 -23.282  1.00  0.00    -0.258 OA
ENDBRANCH  25  26
ENDBRANCH  24  25
ENDBRANCH  19  24
BRANCH  14  29
HETATM   29  C20 UNL     1       7.154   2.110 -27.035  1.00  0.00     0.031 C 
BRANCH  29  30
HETATM   30  C21 UNL     1       8.066   3.235 -27.331  1.00  0.00    -0.021 C 
HETATM   31  C22 UNL     1       9.005   3.066 -28.472  1.00  0.00     0.009 C 
HETATM   32  C23 UNL     1       8.876   3.680 -26.125  1.00  0.00     0.009 C 
ENDBRANCH  29  30
ENDBRANCH  14  29
BRANCH   1  33
HETATM   33  C4  UNL     1       2.031  -1.196 -24.246  1.00  0.00     0.035 C 
BRANCH  33  34
HETATM   34  C3  UNL     1       2.274  -1.041 -25.724  1.00  0.00     0.002 C 
BRANCH  34  35
HETATM   35  C2  UNL     1       3.021   0.271 -25.943  1.00  0.00    -0.004 C 
HETATM   36  C1  UNL     1       3.994   0.129 -27.107  1.00  0.00     0.005 C 
ENDBRANCH  34  35
ENDBRANCH  33  34
ENDBRANCH   1  33
BRANCH   6  37
HETATM   37  C8  UNL     1       1.322   1.304 -21.094  1.00  0.00     0.030 C 
BRANCH  37  38
HETATM   38  C9  UNL     1       0.743   1.937 -19.865  1.00  0.00    -0.002 C 
HETATM   39  C10 UNL     1      -0.051   0.830 -19.147  1.00  0.00     0.005 C 
ENDBRANCH  37  38
ENDBRANCH   6  37
BRANCH   9  40
HETATM   40  C13 UNL     1       5.561   3.913 -22.478  1.00  0.00     0.046 C 
BRANCH  40  41
HETATM   41  C14 UNL     1       5.269   4.747 -21.277  1.00  0.00    -0.020 C 
HETATM   42  C15 UNL     1       5.564   3.877 -20.046  1.00  0.00     0.009 C 
HETATM   43  C16 UNL     1       3.816   5.132 -21.231  1.00  0.00     0.009 C 
ENDBRANCH  40  41
ENDBRANCH   9  40
BRANCH   7  44
HETATM   44  O2  UNL     1       4.853   0.514 -21.302  1.00  0.00    -0.369 OA
ATOM     45  H2  UNL     1       5.569   1.134 -21.223  1.00  0.00     0.212 HD
ENDBRANCH   7  44
TORSDOF 13
ENDMDL
