MODEL 1
REMARK VINA RESULT: -7.945791088      0.000      0.000
REMARK  14 active torsions:
REMARK  status: ('A' for Active; 'I' for Inactive)
REMARK    1  A    between atoms: C2_2  and  O1_3 
REMARK    2  A    between atoms: O1_3  and  C3_4 
REMARK       I    between atoms: C3_4  and  N1_6 
REMARK    3  A    between atoms: N2_9  and  C6_10 
REMARK    4  A    between atoms: C6_10  and  O3_11 
REMARK    5  A    between atoms: C7_13  and  N3_14 
REMARK    6  A    between atoms: C7_13  and  C25_40 
REMARK       I    between atoms: N3_14  and  C8_16 
REMARK    7  A    between atoms: C8_16  and  C9_18 
REMARK    8  A    between atoms: C9_18  and  C10_19 
REMARK    9  A    between atoms: C9_18  and  N4_25 
REMARK   10  A    between atoms: C10_19  and  C11_20 
REMARK   11  A    between atoms: C11_20  and  S1_21 
REMARK   12  A    between atoms: S1_21  and  C12_22 
REMARK       I    between atoms: N4_25  and  C15_27 
REMARK   13  A    between atoms: C15_27  and  C16_29 
REMARK   14  A    between atoms: C25_40  and  C27_42 
ROOT
HETATM    1  N3  UNL     1       3.394   1.217 -21.604  1.00  0.00    -0.322 N 
ATOM      2  H3  UNL     1       3.731   0.395 -21.103  1.00  0.00     0.169 HD
HETATM    3  C8  UNL     1       3.742   1.345 -22.940  1.00  0.00     0.245 C 
HETATM    4  O4  UNL     1       3.327   2.384 -23.574  1.00  0.00    -0.271 OA
ENDROOT
BRANCH   3   5
HETATM    5  C9  UNL     1       4.557   0.390 -23.716  1.00  0.00     0.177 C 
BRANCH   5   6
HETATM    6  C10 UNL     1       4.825  -0.824 -22.866  1.00  0.00     0.045 C 
BRANCH   6   7
HETATM    7  C11 UNL     1       4.005  -2.033 -23.270  1.00  0.00     0.076 C 
BRANCH   7   8
HETATM    8  S1  UNL     1       4.834  -2.844 -24.655  1.00  0.00    -0.165 SA
BRANCH   8   9
HETATM    9  C12 UNL     1       3.738  -2.851 -26.097  1.00  0.00     0.039 C 
HETATM   10  C13 UNL     1       4.476  -2.430 -27.349  1.00  0.00     0.021 C 
HETATM   11  C14 UNL     1       2.598  -1.883 -25.872  1.00  0.00     0.021 C 
ENDBRANCH   8   9
ENDBRANCH   7   8
ENDBRANCH   6   7
ENDBRANCH   5   6
BRANCH   5  12
HETATM   12  N4  UNL     1       5.797   0.950 -24.167  1.00  0.00    -0.346 N 
HETATM   13  C15 UNL     1       6.192   1.111 -25.503  1.00  0.00     0.254 C 
HETATM   14  O5  UNL     1       5.459   0.761 -26.453  1.00  0.00    -0.271 OA
ATOM     15  H4  UNL     1       6.452   1.259 -23.450  1.00  0.00     0.163 HD
BRANCH  13  16
HETATM   16  C16 UNL     1       7.513   1.710 -25.834  1.00  0.00     0.346 C 
HETATM   17  C17 UNL     1       7.394   3.160 -26.226  1.00  0.00     0.265 C 
HETATM   18  C18 UNL     1       7.955   3.434 -27.584  1.00  0.00     0.038 C 
HETATM   19  N6  UNL     1       7.934   4.055 -25.225  1.00  0.00     0.098 N 
HETATM   20  C19 UNL     1       9.376   3.833 -27.640  1.00  0.00     0.004 C 
HETATM   21  C20 UNL     1       9.967   4.385 -26.387  1.00  0.00     0.038 C 
HETATM   22  C21 UNL     1       9.350   3.766 -25.124  1.00  0.00     0.251 C 
HETATM   23  C22 UNL     1       9.665   2.293 -25.169  1.00  0.00     0.308 C 
HETATM   24  N5  UNL     1       8.502   1.460 -24.819  1.00  0.00     0.102 N 
HETATM   25  C23 UNL     1       8.944   0.080 -24.922  1.00  0.00     0.311 C 
HETATM   26  C24 UNL     1       7.249   3.998 -23.974  1.00  0.00     0.311 C 
ENDBRANCH  13  16
ENDBRANCH   5  12
ENDBRANCH   3   5
BRANCH   1  27
HETATM   27  C7  UNL     1       2.566   2.191 -20.851  1.00  0.00     0.088 C 
HETATM   28  C6  UNL     1       1.368   1.597 -20.331  1.00  0.00     0.166 C 
BRANCH  28  29
HETATM   29  N2  UNL     1       0.323   1.945 -19.487  1.00  0.00    -0.357 N 
HETATM   30  C5  UNL     1      -0.358   0.837 -18.693  1.00  0.00     0.145 C 
HETATM   31  C4  UNL     1      -1.815   0.823 -19.074  1.00  0.00     0.148 C 
HETATM   32  N1  UNL     1      -2.407   2.143 -19.163  1.00  0.00    -0.325 N 
HETATM   33  C3  UNL     1      -3.668   2.456 -18.612  1.00  0.00     0.362 C 
HETATM   34  C30 UNL     1      -1.665   3.188 -19.838  1.00  0.00     0.148 C 
HETATM   35  O2  UNL     1      -4.136   3.602 -18.724  1.00  0.00    -0.238 OA
HETATM   36  C29 UNL     1      -0.272   3.213 -19.180  1.00  0.00     0.145 C 
BRANCH  33  37
HETATM   37  O1  UNL     1      -4.384   1.484 -17.947  1.00  0.00    -0.304 OA
BRANCH  37  38
HETATM   38  C2  UNL     1      -5.657   1.794 -17.367  1.00  0.00     0.176 C 
HETATM   39  C1  UNL     1      -5.514   2.456 -16.032  1.00  0.00     0.034 C 
ENDBRANCH  37  38
ENDBRANCH  33  37
ENDBRANCH  28  29
BRANCH  28  40
HETATM   40  O3  UNL     1       1.211   0.343 -20.789  1.00  0.00    -0.344 OA
ATOM     41  H3  UNL     1       1.839   0.157 -21.478  1.00  0.00     0.219 HD
ENDBRANCH  28  40
BRANCH  27  42
HETATM   42  C25 UNL     1       3.384   3.167 -20.116  1.00  0.00    -0.053 C 
HETATM   43  C26 UNL     1       3.779   4.422 -20.812  1.00  0.00     0.046 C 
BRANCH  42  44
HETATM   44  C27 UNL     1       4.311   2.624 -19.074  1.00  0.00     0.031 C 
HETATM   45  C28 UNL     1       5.743   3.045 -19.391  1.00  0.00     0.010 C 
ENDBRANCH  42  44
ENDBRANCH  27  42
ENDBRANCH   1  27
TORSDOF 14
ENDMDL
MODEL 2
REMARK VINA RESULT: -7.902089930      1.258      1.725
REMARK  14 active torsions:
REMARK  status: ('A' for Active; 'I' for Inactive)
REMARK    1  A    between atoms: C2_2  and  O1_3 
REMARK    2  A    between atoms: O1_3  and  C3_4 
REMARK       I    between atoms: C3_4  and  N1_6 
REMARK    3  A    between atoms: N2_9  and  C6_10 
REMARK    4  A    between atoms: C6_10  and  O3_11 
REMARK    5  A    between atoms: C7_13  and  N3_14 
REMARK    6  A    between atoms: C7_13  and  C25_40 
REMARK       I    between atoms: N3_14  and  C8_16 
REMARK    7  A    between atoms: C8_16  and  C9_18 
REMARK    8  A    between atoms: C9_18  and  C10_19 
REMARK    9  A    between atoms: C9_18  and  N4_25 
REMARK   10  A    between atoms: C10_19  and  C11_20 
REMARK   11  A    between atoms: C11_20  and  S1_21 
REMARK   12  A    between atoms: S1_21  and  C12_22 
REMARK       I    between atoms: N4_25  and  C15_27 
REMARK   13  A    between atoms: C15_27  and  C16_29 
REMARK   14  A    between atoms: C25_40  and  C27_42 
ROOT
HETATM    1  N3  UNL     1       3.218   0.842 -21.793  1.00  0.00    -0.322 N 
ATOM      2  H3  UNL     1       3.775   0.223 -21.204  1.00  0.00     0.169 HD
HETATM    3  C8  UNL     1       3.275   0.649 -23.166  1.00  0.00     0.245 C 
HETATM    4  O4  UNL     1       2.582   1.432 -23.914  1.00  0.00    -0.271 OA
ENDROOT
BRANCH   3   5
HETATM    5  C9  UNL     1       4.069  -0.383 -23.860  1.00  0.00     0.177 C 
BRANCH   5   6
HETATM    6  C10 UNL     1       4.601  -1.356 -22.842  1.00  0.00     0.045 C 
BRANCH   6   7
HETATM    7  C11 UNL     1       4.864  -2.736 -23.410  1.00  0.00     0.076 C 
BRANCH   7   8
HETATM    8  S1  UNL     1       3.777  -3.911 -22.573  1.00  0.00    -0.165 SA
BRANCH   8   9
HETATM    9  C12 UNL     1       2.450  -3.013 -21.728  1.00  0.00     0.039 C 
HETATM   10  C13 UNL     1       1.918  -3.800 -20.551  1.00  0.00     0.021 C 
HETATM   11  C14 UNL     1       1.309  -2.771 -22.691  1.00  0.00     0.021 C 
ENDBRANCH   8   9
ENDBRANCH   7   8
ENDBRANCH   6   7
ENDBRANCH   5   6
BRANCH   5  12
HETATM   12  N4  UNL     1       5.153   0.163 -24.622  1.00  0.00    -0.346 N 
HETATM   13  C15 UNL     1       6.141   1.037 -24.145  1.00  0.00     0.254 C 
HETATM   14  O5  UNL     1       6.154   1.429 -22.958  1.00  0.00    -0.271 OA
ATOM     15  H4  UNL     1       5.212  -0.109 -25.603  1.00  0.00     0.163 HD
BRANCH  13  16
HETATM   16  C16 UNL     1       7.215   1.530 -25.048  1.00  0.00     0.346 C 
HETATM   17  C17 UNL     1       6.929   2.918 -25.562  1.00  0.00     0.265 C 
HETATM   18  C18 UNL     1       6.905   2.981 -27.055  1.00  0.00     0.038 C 
HETATM   19  N6  UNL     1       7.805   3.917 -24.989  1.00  0.00     0.098 N 
HETATM   20  C19 UNL     1       8.184   3.309 -27.719  1.00  0.00     0.004 C 
HETATM   21  C20 UNL     1       9.211   4.002 -26.889  1.00  0.00     0.038 C 
HETATM   22  C21 UNL     1       9.151   3.586 -25.411  1.00  0.00     0.251 C 
HETATM   23  C22 UNL     1       9.446   2.109 -25.368  1.00  0.00     0.308 C 
HETATM   24  N5  UNL     1       8.527   1.380 -24.476  1.00  0.00     0.102 N 
HETATM   25  C23 UNL     1       8.914  -0.018 -24.548  1.00  0.00     0.311 C 
HETATM   26  C24 UNL     1       7.669   4.059 -23.576  1.00  0.00     0.311 C 
ENDBRANCH  13  16
ENDBRANCH   5  12
ENDBRANCH   3   5
BRANCH   1  27
HETATM   27  C7  UNL     1       2.404   1.886 -21.122  1.00  0.00     0.088 C 
HETATM   28  C6  UNL     1       1.302   1.327 -20.392  1.00  0.00     0.166 C 
BRANCH  28  29
HETATM   29  N2  UNL     1       0.322   1.757 -19.509  1.00  0.00    -0.357 N 
HETATM   30  C5  UNL     1      -0.426   0.706 -18.699  1.00  0.00     0.145 C 
HETATM   31  C4  UNL     1      -1.891   0.824 -19.028  1.00  0.00     0.148 C 
HETATM   32  N1  UNL     1      -2.367   2.193 -19.087  1.00  0.00    -0.325 N 
HETATM   33  C3  UNL     1      -3.575   2.610 -18.489  1.00  0.00     0.362 C 
HETATM   34  C30 UNL     1      -1.558   3.174 -19.781  1.00  0.00     0.148 C 
HETATM   35  O2  UNL     1      -3.943   3.794 -18.577  1.00  0.00    -0.238 OA
HETATM   36  C29 UNL     1      -0.148   3.070 -19.173  1.00  0.00     0.145 C 
BRANCH  33  37
HETATM   37  O1  UNL     1      -4.350   1.698 -17.806  1.00  0.00    -0.304 OA
BRANCH  37  38
HETATM   38  C2  UNL     1      -5.660   2.061 -17.351  1.00  0.00     0.176 C 
HETATM   39  C1  UNL     1      -5.660   2.444 -15.904  1.00  0.00     0.034 C 
ENDBRANCH  37  38
ENDBRANCH  33  37
ENDBRANCH  28  29
BRANCH  28  40
HETATM   40  O3  UNL     1       1.184   0.009 -20.627  1.00  0.00    -0.344 OA
ATOM     41  H3  UNL     1       1.982  -0.336 -21.012  1.00  0.00     0.219 HD
ENDBRANCH  28  40
BRANCH  27  42
HETATM   42  C25 UNL     1       3.223   3.007 -20.641  1.00  0.00    -0.053 C 
HETATM   43  C26 UNL     1       3.675   4.025 -21.627  1.00  0.00     0.046 C 
BRANCH  42  44
HETATM   44  C27 UNL     1       4.101   2.745 -19.456  1.00  0.00     0.031 C 
HETATM   45  C28 UNL     1       5.550   3.066 -19.809  1.00  0.00     0.010 C 
ENDBRANCH  42  44
ENDBRANCH  27  42
ENDBRANCH   1  27
TORSDOF 14
ENDMDL
MODEL 3
REMARK VINA RESULT: -7.870080533      2.026      3.108
REMARK  14 active torsions:
REMARK  status: ('A' for Active; 'I' for Inactive)
REMARK    1  A    between atoms: C2_2  and  O1_3 
REMARK    2  A    between atoms: O1_3  and  C3_4 
REMARK       I    between atoms: C3_4  and  N1_6 
REMARK    3  A    between atoms: N2_9  and  C6_10 
REMARK    4  A    between atoms: C6_10  and  O3_11 
REMARK    5  A    between atoms: C7_13  and  N3_14 
REMARK    6  A    between atoms: C7_13  and  C25_40 
REMARK       I    between atoms: N3_14  and  C8_16 
REMARK    7  A    between atoms: C8_16  and  C9_18 
REMARK    8  A    between atoms: C9_18  and  C10_19 
REMARK    9  A    between atoms: C9_18  and  N4_25 
REMARK   10  A    between atoms: C10_19  and  C11_20 
REMARK   11  A    between atoms: C11_20  and  S1_21 
REMARK   12  A    between atoms: S1_21  and  C12_22 
REMARK       I    between atoms: N4_25  and  C15_27 
REMARK   13  A    between atoms: C15_27  and  C16_29 
REMARK   14  A    between atoms: C25_40  and  C27_42 
ROOT
HETATM    1  N3  UNL     1       2.693   0.099 -22.414  1.00  0.00    -0.322 N 
ATOM      2  H3  UNL     1       3.512  -0.390 -22.054  1.00  0.00     0.169 HD
HETATM    3  C8  UNL     1       2.127  -0.373 -23.590  1.00  0.00     0.245 C 
HETATM    4  O4  UNL     1       1.099   0.245 -24.054  1.00  0.00    -0.271 OA
ENDROOT
BRANCH   3   5
HETATM    5  C9  UNL     1       2.601  -1.531 -24.372  1.00  0.00     0.177 C 
BRANCH   5   6
HETATM    6  C10 UNL     1       2.823  -2.691 -23.438  1.00  0.00     0.045 C 
BRANCH   6   7
HETATM    7  C11 UNL     1       3.698  -3.779 -24.029  1.00  0.00     0.076 C 
BRANCH   7   8
HETATM    8  S1  UNL     1       5.055  -4.101 -22.881  1.00  0.00    -0.165 SA
BRANCH   8   9
HETATM    9  C12 UNL     1       4.718  -5.622 -21.957  1.00  0.00     0.039 C 
HETATM   10  C13 UNL     1       3.716  -5.380 -20.849  1.00  0.00     0.021 C 
HETATM   11  C14 UNL     1       6.000  -6.130 -21.334  1.00  0.00     0.021 C 
ENDBRANCH   8   9
ENDBRANCH   7   8
ENDBRANCH   6   7
ENDBRANCH   5   6
BRANCH   5  12
HETATM   12  N4  UNL     1       3.803  -1.259 -25.103  1.00  0.00    -0.346 N 
HETATM   13  C15 UNL     1       3.934  -0.360 -26.172  1.00  0.00     0.254 C 
HETATM   14  O5  UNL     1       2.964   0.307 -26.593  1.00  0.00    -0.271 OA
ATOM     15  H4  UNL     1       4.641  -1.766 -24.820  1.00  0.00     0.163 HD
BRANCH  13  16
HETATM   16  C16 UNL     1       5.247  -0.172 -26.846  1.00  0.00     0.346 C 
HETATM   17  C17 UNL     1       6.129   0.799 -26.105  1.00  0.00     0.265 C 
HETATM   18  C18 UNL     1       6.558   1.949 -26.958  1.00  0.00     0.038 C 
HETATM   19  N6  UNL     1       7.251   0.152 -25.460  1.00  0.00     0.098 N 
HETATM   20  C19 UNL     1       7.835   1.787 -27.684  1.00  0.00     0.004 C 
HETATM   21  C20 UNL     1       8.783   0.766 -27.153  1.00  0.00     0.038 C 
HETATM   22  C21 UNL     1       8.063  -0.428 -26.510  1.00  0.00     0.251 C 
HETATM   23  C22 UNL     1       7.252  -1.079 -27.602  1.00  0.00     0.308 C 
HETATM   24  N5  UNL     1       5.890  -1.421 -27.159  1.00  0.00     0.102 N 
HETATM   25  C23 UNL     1       5.227  -2.017 -28.307  1.00  0.00     0.311 C 
HETATM   26  C24 UNL     1       6.874  -0.782 -24.448  1.00  0.00     0.311 C 
ENDBRANCH  13  16
ENDBRANCH   5  12
ENDBRANCH   3   5
BRANCH   1  27
HETATM   27  C7  UNL     1       2.190   1.264 -21.645  1.00  0.00     0.088 C 
HETATM   28  C6  UNL     1       1.099   0.913 -20.782  1.00  0.00     0.166 C 
BRANCH  28  29
HETATM   29  N2  UNL     1       0.339   1.504 -19.782  1.00  0.00    -0.357 N 
HETATM   30  C5  UNL     1      -0.412   0.595 -18.818  1.00  0.00     0.145 C 
HETATM   31  C4  UNL     1      -1.879   0.916 -18.926  1.00  0.00     0.148 C 
HETATM   32  N1  UNL     1      -2.162   2.338 -18.978  1.00  0.00    -0.325 N 
HETATM   33  C3  UNL     1      -3.191   2.942 -18.224  1.00  0.00     0.362 C 
HETATM   34  C30 UNL     1      -1.343   3.173 -19.833  1.00  0.00     0.148 C 
HETATM   35  O2  UNL     1      -3.398   4.164 -18.312  1.00  0.00    -0.238 OA
HETATM   36  C29 UNL     1       0.117   2.880 -19.441  1.00  0.00     0.145 C 
BRANCH  33  37
HETATM   37  O1  UNL     1      -3.969   2.170 -17.389  1.00  0.00    -0.304 OA
BRANCH  37  38
HETATM   38  C2  UNL     1      -5.361   2.468 -17.219  1.00  0.00     0.176 C 
HETATM   39  C1  UNL     1      -5.660   2.956 -15.835  1.00  0.00     0.034 C 
ENDBRANCH  37  38
ENDBRANCH  33  37
ENDBRANCH  28  29
BRANCH  28  40
HETATM   40  O3  UNL     1       0.695  -0.350 -21.001  1.00  0.00    -0.344 OA
ATOM     41  H3  UNL     1       1.442  -0.934 -21.070  1.00  0.00     0.219 HD
ENDBRANCH  28  40
BRANCH  27  42
HETATM   42  C25 UNL     1       3.267   2.192 -21.271  1.00  0.00    -0.053 C 
HETATM   43  C26 UNL     1       3.749   2.184 -19.863  1.00  0.00     0.046 C 
BRANCH  42  44
HETATM   44  C27 UNL     1       3.341   3.482 -22.027  1.00  0.00     0.031 C 
HETATM   45  C28 UNL     1       3.772   4.604 -21.087  1.00  0.00     0.010 C 
ENDBRANCH  42  44
ENDBRANCH  27  42
ENDBRANCH   1  27
TORSDOF 14
ENDMDL
MODEL 4
REMARK VINA RESULT: -7.822978351      1.443      2.142
REMARK  14 active torsions:
REMARK  status: ('A' for Active; 'I' for Inactive)
REMARK    1  A    between atoms: C2_2  and  O1_3 
REMARK    2  A    between atoms: O1_3  and  C3_4 
REMARK       I    between atoms: C3_4  and  N1_6 
REMARK    3  A    between atoms: N2_9  and  C6_10 
REMARK    4  A    between atoms: C6_10  and  O3_11 
REMARK    5  A    between atoms: C7_13  and  N3_14 
REMARK    6  A    between atoms: C7_13  and  C25_40 
REMARK       I    between atoms: N3_14  and  C8_16 
REMARK    7  A    between atoms: C8_16  and  C9_18 
REMARK    8  A    between atoms: C9_18  and  C10_19 
REMARK    9  A    between atoms: C9_18  and  N4_25 
REMARK   10  A    between atoms: C10_19  and  C11_20 
REMARK   11  A    between atoms: C11_20  and  S1_21 
REMARK   12  A    between atoms: S1_21  and  C12_22 
REMARK       I    between atoms: N4_25  and  C15_27 
REMARK   13  A    between atoms: C15_27  and  C16_29 
REMARK   14  A    between atoms: C25_40  and  C27_42 
ROOT
HETATM    1  N3  UNL     1       3.126   0.667 -21.972  1.00  0.00    -0.322 N 
ATOM      2  H3  UNL     1       3.284  -0.213 -21.481  1.00  0.00     0.169 HD
HETATM    3  C8  UNL     1       3.545   0.753 -23.291  1.00  0.00     0.245 C 
HETATM    4  O4  UNL     1       3.356   1.864 -23.912  1.00  0.00    -0.271 OA
ENDROOT
BRANCH   3   5
HETATM    5  C9  UNL     1       4.199  -0.322 -24.062  1.00  0.00     0.177 C 
BRANCH   5   6
HETATM    6  C10 UNL     1       4.800  -1.313 -23.101  1.00  0.00     0.045 C 
BRANCH   6   7
HETATM    7  C11 UNL     1       4.393  -2.746 -23.382  1.00  0.00     0.076 C 
BRANCH   7   8
HETATM    8  S1  UNL     1       3.055  -2.727 -24.596  1.00  0.00    -0.165 SA
BRANCH   8   9
HETATM    9  C12 UNL     1       1.459  -2.777 -23.740  1.00  0.00     0.039 C 
HETATM   10  C13 UNL     1       0.680  -1.498 -23.958  1.00  0.00     0.021 C 
HETATM   11  C14 UNL     1       1.687  -2.945 -22.254  1.00  0.00     0.021 C 
ENDBRANCH   8   9
ENDBRANCH   7   8
ENDBRANCH   6   7
ENDBRANCH   5   6
BRANCH   5  12
HETATM   12  N4  UNL     1       5.210   0.164 -24.954  1.00  0.00    -0.346 N 
HETATM   13  C15 UNL     1       5.114   0.236 -26.351  1.00  0.00     0.254 C 
HETATM   14  O5  UNL     1       4.088  -0.138 -26.960  1.00  0.00    -0.271 OA
ATOM     15  H4  UNL     1       6.081   0.488 -24.533  1.00  0.00     0.163 HD
BRANCH  13  16
HETATM   16  C16 UNL     1       6.244   0.765 -27.161  1.00  0.00     0.346 C 
HETATM   17  C17 UNL     1       7.020   1.826 -26.424  1.00  0.00     0.265 C 
HETATM   18  C18 UNL     1       7.076   3.118 -27.173  1.00  0.00     0.038 C 
HETATM   19  N6  UNL     1       8.333   1.375 -26.019  1.00  0.00     0.098 N 
HETATM   20  C19 UNL     1       8.232   3.305 -28.075  1.00  0.00     0.004 C 
HETATM   21  C20 UNL     1       9.434   2.464 -27.806  1.00  0.00     0.038 C 
HETATM   22  C21 UNL     1       9.072   1.087 -27.231  1.00  0.00     0.251 C 
HETATM   23  C22 UNL     1       8.248   0.387 -28.281  1.00  0.00     0.308 C 
HETATM   24  N5  UNL     1       7.065  -0.281 -27.712  1.00  0.00     0.102 N 
HETATM   25  C23 UNL     1       6.364  -0.891 -28.829  1.00  0.00     0.311 C 
HETATM   26  C24 UNL     1       8.309   0.288 -25.094  1.00  0.00     0.311 C 
ENDBRANCH  13  16
ENDBRANCH   5  12
ENDBRANCH   3   5
BRANCH   1  27
HETATM   27  C7  UNL     1       2.464   1.764 -21.223  1.00  0.00     0.088 C 
HETATM   28  C6  UNL     1       1.294   1.314 -20.525  1.00  0.00     0.166 C 
BRANCH  28  29
HETATM   29  N2  UNL     1       0.381   1.814 -19.607  1.00  0.00    -0.357 N 
HETATM   30  C5  UNL     1      -0.337   0.825 -18.698  1.00  0.00     0.145 C 
HETATM   31  C4  UNL     1      -1.817   0.964 -18.941  1.00  0.00     0.148 C 
HETATM   32  N1  UNL     1      -2.265   2.339 -19.042  1.00  0.00    -0.325 N 
HETATM   33  C3  UNL     1      -3.424   2.817 -18.394  1.00  0.00     0.362 C 
HETATM   34  C30 UNL     1      -1.481   3.263 -19.836  1.00  0.00     0.148 C 
HETATM   35  O2  UNL     1      -3.770   4.004 -18.521  1.00  0.00    -0.238 OA
HETATM   36  C29 UNL     1      -0.037   3.154 -19.312  1.00  0.00     0.145 C 
BRANCH  33  37
HETATM   37  O1  UNL     1      -4.174   1.961 -17.616  1.00  0.00    -0.304 OA
BRANCH  37  38
HETATM   38  C2  UNL     1      -5.531   2.286 -17.289  1.00  0.00     0.176 C 
HETATM   39  C1  UNL     1      -5.660   2.783 -15.882  1.00  0.00     0.034 C 
ENDBRANCH  37  38
ENDBRANCH  33  37
ENDBRANCH  28  29
BRANCH  28  40
HETATM   40  O3  UNL     1       0.995   0.045 -20.849  1.00  0.00    -0.344 OA
ATOM     41  H3  UNL     1       0.605  -0.407 -20.110  1.00  0.00     0.219 HD
ENDBRANCH  28  40
BRANCH  27  42
HETATM   42  C25 UNL     1       3.429   2.726 -20.673  1.00  0.00    -0.053 C 
HETATM   43  C26 UNL     1       3.956   2.491 -19.302  1.00  0.00     0.046 C 
BRANCH  42  44
HETATM   44  C27 UNL     1       3.317   4.143 -21.146  1.00  0.00     0.031 C 
HETATM   45  C28 UNL     1       4.711   4.720 -21.373  1.00  0.00     0.010 C 
ENDBRANCH  42  44
ENDBRANCH  27  42
ENDBRANCH   1  27
TORSDOF 14
ENDMDL
MODEL 5
REMARK VINA RESULT: -7.797194311      0.685      1.041
REMARK  14 active torsions:
REMARK  status: ('A' for Active; 'I' for Inactive)
REMARK    1  A    between atoms: C2_2  and  O1_3 
REMARK    2  A    between atoms: O1_3  and  C3_4 
REMARK       I    between atoms: C3_4  and  N1_6 
REMARK    3  A    between atoms: N2_9  and  C6_10 
REMARK    4  A    between atoms: C6_10  and  O3_11 
REMARK    5  A    between atoms: C7_13  and  N3_14 
REMARK    6  A    between atoms: C7_13  and  C25_40 
REMARK       I    between atoms: N3_14  and  C8_16 
REMARK    7  A    between atoms: C8_16  and  C9_18 
REMARK    8  A    between atoms: C9_18  and  C10_19 
REMARK    9  A    between atoms: C9_18  and  N4_25 
REMARK   10  A    between atoms: C10_19  and  C11_20 
REMARK   11  A    between atoms: C11_20  and  S1_21 
REMARK   12  A    between atoms: S1_21  and  C12_22 
REMARK       I    between atoms: N4_25  and  C15_27 
REMARK   13  A    between atoms: C15_27  and  C16_29 
REMARK   14  A    between atoms: C25_40  and  C27_42 
ROOT
HETATM    1  N3  UNL     1       3.678   1.067 -21.845  1.00  0.00    -0.322 N 
ATOM      2  H3  UNL     1       4.006   0.223 -21.375  1.00  0.00     0.169 HD
HETATM    3  C8  UNL     1       4.021   1.238 -23.178  1.00  0.00     0.245 C 
HETATM    4  O4  UNL     1       3.617   2.305 -23.772  1.00  0.00    -0.271 OA
ENDROOT
BRANCH   3   5
HETATM    5  C9  UNL     1       4.819   0.300 -23.991  1.00  0.00     0.177 C 
BRANCH   5   6
HETATM    6  C10 UNL     1       5.107  -0.931 -23.172  1.00  0.00     0.045 C 
BRANCH   6   7
HETATM    7  C11 UNL     1       5.032  -2.215 -23.973  1.00  0.00     0.076 C 
BRANCH   7   8
HETATM    8  S1  UNL     1       3.437  -2.997 -23.644  1.00  0.00    -0.165 SA
BRANCH   8   9
HETATM    9  C12 UNL     1       2.215  -2.408 -24.844  1.00  0.00     0.039 C 
HETATM   10  C13 UNL     1       2.882  -1.915 -26.110  1.00  0.00     0.021 C 
HETATM   11  C14 UNL     1       1.429  -1.262 -24.246  1.00  0.00     0.021 C 
ENDBRANCH   8   9
ENDBRANCH   7   8
ENDBRANCH   6   7
ENDBRANCH   5   6
BRANCH   5  12
HETATM   12  N4  UNL     1       6.048   0.870 -24.459  1.00  0.00    -0.346 N 
HETATM   13  C15 UNL     1       6.430   1.022 -25.800  1.00  0.00     0.254 C 
HETATM   14  O5  UNL     1       5.693   0.653 -26.739  1.00  0.00    -0.271 OA
ATOM     15  H4  UNL     1       6.705   1.196 -23.750  1.00  0.00     0.163 HD
BRANCH  13  16
HETATM   16  C16 UNL     1       7.741   1.635 -26.148  1.00  0.00     0.346 C 
HETATM   17  C17 UNL     1       7.603   3.085 -26.533  1.00  0.00     0.265 C 
HETATM   18  C18 UNL     1       8.141   3.368 -27.899  1.00  0.00     0.038 C 
HETATM   19  N6  UNL     1       8.149   3.981 -25.537  1.00  0.00     0.098 N 
HETATM   20  C19 UNL     1       9.558   3.780 -27.974  1.00  0.00     0.004 C 
HETATM   21  C20 UNL     1      10.162   4.334 -26.727  1.00  0.00     0.038 C 
HETATM   22  C21 UNL     1       9.569   3.705 -25.457  1.00  0.00     0.251 C 
HETATM   23  C22 UNL     1       9.897   2.235 -25.512  1.00  0.00     0.308 C 
HETATM   24  N5  UNL     1       8.746   1.391 -25.148  1.00  0.00     0.102 N 
HETATM   25  C23 UNL     1       9.199   0.015 -25.262  1.00  0.00     0.311 C 
HETATM   26  C24 UNL     1       7.483   3.914 -24.276  1.00  0.00     0.311 C 
ENDBRANCH  13  16
ENDBRANCH   5  12
ENDBRANCH   3   5
BRANCH   1  27
HETATM   27  C7  UNL     1       2.867   2.026 -21.053  1.00  0.00     0.088 C 
HETATM   28  C6  UNL     1       1.688   1.417 -20.508  1.00  0.00     0.166 C 
BRANCH  28  29
HETATM   29  N2  UNL     1       0.666   1.746 -19.629  1.00  0.00    -0.357 N 
HETATM   30  C5  UNL     1      -0.093   0.611 -18.953  1.00  0.00     0.145 C 
HETATM   31  C4  UNL     1      -1.546   0.738 -19.329  1.00  0.00     0.148 C 
HETATM   32  N1  UNL     1      -2.045   2.098 -19.277  1.00  0.00    -0.325 N 
HETATM   33  C3  UNL     1      -3.284   2.438 -18.692  1.00  0.00     0.362 C 
HETATM   34  C30 UNL     1      -1.229   3.154 -19.842  1.00  0.00     0.148 C 
HETATM   35  O2  UNL     1      -3.670   3.619 -18.682  1.00  0.00    -0.238 OA
HETATM   36  C29 UNL     1       0.158   3.013 -19.189  1.00  0.00     0.145 C 
BRANCH  33  37
HETATM   37  O1  UNL     1      -4.068   1.453 -18.131  1.00  0.00    -0.304 OA
BRANCH  37  38
HETATM   38  C2  UNL     1      -5.446   1.710 -17.833  1.00  0.00     0.176 C 
HETATM   39  C1  UNL     1      -5.660   1.981 -16.377  1.00  0.00     0.034 C 
ENDBRANCH  37  38
ENDBRANCH  33  37
ENDBRANCH  28  29
BRANCH  28  40
HETATM   40  O3  UNL     1       1.524   0.169 -20.981  1.00  0.00    -0.344 OA
ATOM     41  H3  UNL     1       1.295  -0.428 -20.279  1.00  0.00     0.219 HD
ENDBRANCH  28  40
BRANCH  27  42
HETATM   42  C25 UNL     1       3.700   2.995 -20.328  1.00  0.00    -0.053 C 
HETATM   43  C26 UNL     1       4.098   2.678 -18.930  1.00  0.00     0.046 C 
BRANCH  42  44
HETATM   44  C27 UNL     1       3.538   4.437 -20.698  1.00  0.00     0.031 C 
HETATM   45  C28 UNL     1       4.724   4.888 -21.544  1.00  0.00     0.010 C 
ENDBRANCH  42  44
ENDBRANCH  27  42
ENDBRANCH   1  27
TORSDOF 14
ENDMDL
