MODEL 1
REMARK VINA RESULT: -6.267088357      0.000      0.000
REMARK  8 active torsions:
REMARK  status: ('A' for Active; 'I' for Inactive)
REMARK    1  A    between atoms: C2_2  and  O2_4 
REMARK    2  A    between atoms: O2_4  and  C3_5 
REMARK    3  A    between atoms: C4_6  and  C5_7 
REMARK    4  A    between atoms: C13_16  and  O3_17 
REMARK    5  A    between atoms: C14_19  and  C15_20 
REMARK    6  A    between atoms: C16_23  and  O4_24 
REMARK    7  A    between atoms: C17_26  and  C18_27 
REMARK    8  A    between atoms: C18_27  and  C19_28 
ROOT
HETATM    1  C3  UNL     1     -23.428  33.612   3.557  1.00  0.00     0.101 A 
HETATM    2  C4  UNL     1     -23.815  32.518   2.773  1.00  0.00     0.033 A 
HETATM    3  C13 UNL     1     -24.672  31.600   3.335  1.00  0.00     0.090 A 
HETATM    4  C14 UNL     1     -25.156  31.733   4.643  1.00  0.00     0.042 A 
HETATM    5  C16 UNL     1     -24.758  32.809   5.368  1.00  0.00     0.086 A 
HETATM    6  C17 UNL     1     -23.875  33.782   4.835  1.00  0.00     0.014 A 
ENDROOT
BRANCH   2   7
HETATM    7  C5  UNL     1     -23.365  32.395   1.391  1.00  0.00     0.027 C 
HETATM    8  C6  UNL     1     -24.001  32.766   0.314  1.00  0.00    -0.024 C 
HETATM    9  C7  UNL     1     -23.254  32.503  -0.931  1.00  0.00     0.006 C 
HETATM   10  C12 UNL     1     -25.355  33.345   0.332  1.00  0.00     0.203 C 
HETATM   11  C8  UNL     1     -23.702  32.382  -2.172  1.00  0.00    -0.026 C 
HETATM   12  C9  UNL     1     -25.154  32.498  -2.570  1.00  0.00     0.027 C 
HETATM   13  C10 UNL     1     -25.904  31.706  -1.524  1.00  0.00     0.007 C 
HETATM   14  C11 UNL     1     -26.392  32.500  -0.377  1.00  0.00     0.042 C 
HETATM   15  F1  UNL     1     -25.390  34.584  -0.327  1.00  0.00    -0.244 F 
ENDBRANCH   2   7
BRANCH   1  16
HETATM   16  O2  UNL     1     -22.565  34.542   3.012  1.00  0.00    -0.278 OA
BRANCH  16  17
HETATM   17  C2  UNL     1     -23.100  35.538   2.211  1.00  0.00     0.260 C 
HETATM   18  C1  UNL     1     -22.383  36.098   1.039  1.00  0.00     0.126 C 
HETATM   19  O1  UNL     1     -24.240  36.023   2.450  1.00  0.00    -0.265 OA
ENDBRANCH  16  17
ENDBRANCH   1  16
BRANCH   3  20
HETATM   20  O3  UNL     1     -25.089  30.496   2.607  1.00  0.00    -0.359 OA
ATOM     21  H3  UNL     1     -26.002  30.233   2.616  1.00  0.00     0.217 HD
ENDBRANCH   3  20
BRANCH   6  22
HETATM   22  C18 UNL     1     -23.470  34.927   5.642  1.00  0.00     0.072 C 
BRANCH  22  23
HETATM   23  C19 UNL     1     -22.279  34.818   6.460  1.00  0.00    -0.020 C 
HETATM   24  C20 UNL     1     -21.241  35.622   6.277  1.00  0.00    -0.091 C 
HETATM   25  C21 UNL     1     -21.155  36.694   5.259  1.00  0.00     0.042 C 
HETATM   26  C22 UNL     1     -20.019  35.469   7.163  1.00  0.00     0.042 C 
ENDBRANCH  22  23
ENDBRANCH   6  22
BRANCH   4  27
HETATM   27  C15 UNL     1     -26.077  30.701   5.181  1.00  0.00     0.216 C 
HETATM   28 CL1  UNL     1     -27.435  30.443   4.058  1.00  0.00    -0.103 Cl
HETATM   29 CL2  UNL     1     -25.102  29.188   5.265  1.00  0.00    -0.103 Cl
ENDBRANCH   4  27
BRANCH   5  30
HETATM   30  O4  UNL     1     -25.189  33.007   6.652  1.00  0.00    -0.359 OA
ATOM     31  H4  UNL     1     -24.643  33.437   7.299  1.00  0.00     0.217 HD
ENDBRANCH   5  30
TORSDOF 8
ENDMDL
MODEL 2
REMARK VINA RESULT: -6.085219432      3.123      5.994
REMARK  8 active torsions:
REMARK  status: ('A' for Active; 'I' for Inactive)
REMARK    1  A    between atoms: C2_2  and  O2_4 
REMARK    2  A    between atoms: O2_4  and  C3_5 
REMARK    3  A    between atoms: C4_6  and  C5_7 
REMARK    4  A    between atoms: C13_16  and  O3_17 
REMARK    5  A    between atoms: C14_19  and  C15_20 
REMARK    6  A    between atoms: C16_23  and  O4_24 
REMARK    7  A    between atoms: C17_26  and  C18_27 
REMARK    8  A    between atoms: C18_27  and  C19_28 
ROOT
HETATM    1  C3  UNL     1     -22.675  33.742   1.585  1.00  0.00     0.101 A 
HETATM    2  C4  UNL     1     -22.313  35.088   1.728  1.00  0.00     0.033 A 
HETATM    3  C13 UNL     1     -22.485  35.670   2.963  1.00  0.00     0.090 A 
HETATM    4  C14 UNL     1     -23.002  34.961   4.056  1.00  0.00     0.042 A 
HETATM    5  C16 UNL     1     -23.338  33.659   3.875  1.00  0.00     0.086 A 
HETATM    6  C17 UNL     1     -23.181  33.014   2.623  1.00  0.00     0.014 A 
ENDROOT
BRANCH   2   7
HETATM    7  C5  UNL     1     -21.721  35.822   0.615  1.00  0.00     0.027 C 
HETATM    8  C6  UNL     1     -20.456  36.054   0.401  1.00  0.00    -0.024 C 
HETATM    9  C7  UNL     1     -20.197  36.826  -0.830  1.00  0.00     0.006 C 
HETATM   10  C12 UNL     1     -19.387  35.632   1.324  1.00  0.00     0.203 C 
HETATM   11  C8  UNL     1     -19.142  37.553  -1.161  1.00  0.00    -0.026 C 
HETATM   12  C9  UNL     1     -17.926  37.741  -0.285  1.00  0.00     0.027 C 
HETATM   13  C10 UNL     1     -18.483  37.990   1.098  1.00  0.00     0.007 C 
HETATM   14  C11 UNL     1     -18.618  36.782   1.938  1.00  0.00     0.042 C 
HETATM   15  F1  UNL     1     -18.417  34.862   0.664  1.00  0.00    -0.244 F 
ENDBRANCH   2   7
BRANCH   1  16
HETATM   16  O2  UNL     1     -22.513  33.142   0.352  1.00  0.00    -0.278 OA
BRANCH  16  17
HETATM   17  C2  UNL     1     -23.594  33.131  -0.515  1.00  0.00     0.260 C 
HETATM   18  C1  UNL     1     -23.765  32.104  -1.573  1.00  0.00     0.126 C 
HETATM   19  O1  UNL     1     -24.496  34.010  -0.442  1.00  0.00    -0.265 OA
ENDBRANCH  16  17
ENDBRANCH   1  16
BRANCH   3  20
HETATM   20  O3  UNL     1     -22.146  36.998   3.164  1.00  0.00    -0.359 OA
ATOM     21  H3  UNL     1     -22.568  37.502   3.849  1.00  0.00     0.217 HD
ENDBRANCH   3  20
BRANCH   6  22
HETATM   22  C18 UNL     1     -23.551  31.613   2.465  1.00  0.00     0.072 C 
BRANCH  22  23
HETATM   23  C19 UNL     1     -24.940  31.280   2.222  1.00  0.00    -0.020 C 
HETATM   24  C20 UNL     1     -25.609  30.477   3.037  1.00  0.00    -0.091 C 
HETATM   25  C21 UNL     1     -25.058  29.837   4.254  1.00  0.00     0.042 C 
HETATM   26  C22 UNL     1     -27.063  30.162   2.739  1.00  0.00     0.042 C 
ENDBRANCH  22  23
ENDBRANCH   6  22
BRANCH   4  27
HETATM   27  C15 UNL     1     -23.160  35.657   5.357  1.00  0.00     0.216 C 
HETATM   28 CL1  UNL     1     -24.817  35.441   5.973  1.00  0.00    -0.103 Cl
HETATM   29 CL2  UNL     1     -22.015  34.835   6.481  1.00  0.00    -0.103 Cl
ENDBRANCH   4  27
BRANCH   5  30
HETATM   30  O4  UNL     1     -23.848  32.904   4.897  1.00  0.00    -0.359 OA
ATOM     31  H4  UNL     1     -23.286  32.530   5.566  1.00  0.00     0.217 HD
ENDBRANCH   5  30
TORSDOF 8
ENDMDL
MODEL 3
REMARK VINA RESULT: -5.856902550      3.049      5.608
REMARK  8 active torsions:
REMARK  status: ('A' for Active; 'I' for Inactive)
REMARK    1  A    between atoms: C2_2  and  O2_4 
REMARK    2  A    between atoms: O2_4  and  C3_5 
REMARK    3  A    between atoms: C4_6  and  C5_7 
REMARK    4  A    between atoms: C13_16  and  O3_17 
REMARK    5  A    between atoms: C14_19  and  C15_20 
REMARK    6  A    between atoms: C16_23  and  O4_24 
REMARK    7  A    between atoms: C17_26  and  C18_27 
REMARK    8  A    between atoms: C18_27  and  C19_28 
ROOT
HETATM    1  C3  UNL     1     -23.393  33.432   1.211  1.00  0.00     0.101 A 
HETATM    2  C4  UNL     1     -24.256  32.336   1.084  1.00  0.00     0.033 A 
HETATM    3  C13 UNL     1     -24.959  32.208  -0.092  1.00  0.00     0.090 A 
HETATM    4  C14 UNL     1     -24.833  33.128  -1.141  1.00  0.00     0.042 A 
HETATM    5  C16 UNL     1     -23.984  34.174  -0.978  1.00  0.00     0.086 A 
HETATM    6  C17 UNL     1     -23.238  34.352   0.214  1.00  0.00     0.014 A 
ENDROOT
BRANCH   2   7
HETATM    7  C5  UNL     1     -24.356  31.340   2.145  1.00  0.00     0.027 C 
HETATM    8  C6  UNL     1     -25.317  31.202   3.015  1.00  0.00    -0.024 C 
HETATM    9  C7  UNL     1     -25.109  30.081   3.952  1.00  0.00     0.006 C 
HETATM   10  C12 UNL     1     -26.478  32.107   3.091  1.00  0.00     0.203 C 
HETATM   11  C8  UNL     1     -25.634  29.877   5.151  1.00  0.00    -0.026 C 
HETATM   12  C9  UNL     1     -26.606  30.813   5.827  1.00  0.00     0.027 C 
HETATM   13  C10 UNL     1     -26.041  32.194   5.587  1.00  0.00     0.007 C 
HETATM   14  C11 UNL     1     -26.567  32.880   4.389  1.00  0.00     0.042 C 
HETATM   15  F1  UNL     1     -27.686  31.397   3.011  1.00  0.00    -0.244 F 
ENDBRANCH   2   7
BRANCH   1  16
HETATM   16  O2  UNL     1     -22.682  33.580   2.385  1.00  0.00    -0.278 OA
BRANCH  16  17
HETATM   17  C2  UNL     1     -23.289  34.250   3.436  1.00  0.00     0.260 C 
HETATM   18  C1  UNL     1     -22.980  33.961   4.858  1.00  0.00     0.126 C 
HETATM   19  O1  UNL     1     -24.148  35.150   3.225  1.00  0.00    -0.265 OA
ENDBRANCH  16  17
ENDBRANCH   1  16
BRANCH   3  20
HETATM   20  O3  UNL     1     -25.829  31.144  -0.274  1.00  0.00    -0.359 OA
ATOM     21  H3  UNL     1     -25.756  30.592  -1.043  1.00  0.00     0.217 HD
ENDBRANCH   3  20
BRANCH   6  22
HETATM   22  C18 UNL     1     -22.334  35.487   0.354  1.00  0.00     0.072 C 
BRANCH  22  23
HETATM   23  C19 UNL     1     -20.939  35.315   0.003  1.00  0.00    -0.020 C 
HETATM   24  C20 UNL     1     -19.973  35.582   0.871  1.00  0.00    -0.091 C 
HETATM   25  C21 UNL     1     -20.172  36.069   2.255  1.00  0.00     0.042 C 
HETATM   26  C22 UNL     1     -18.527  35.383   0.454  1.00  0.00     0.042 C 
ENDBRANCH  22  23
ENDBRANCH   6  22
BRANCH   4  27
HETATM   27  C15 UNL     1     -25.625  32.923  -2.379  1.00  0.00     0.216 C 
HETATM   28 CL1  UNL     1     -26.869  34.189  -2.530  1.00  0.00    -0.103 Cl
HETATM   29 CL2  UNL     1     -24.450  33.105  -3.734  1.00  0.00    -0.103 Cl
ENDBRANCH   4  27
BRANCH   5  30
HETATM   30  O4  UNL     1     -23.808  35.112  -1.960  1.00  0.00    -0.359 OA
ATOM     31  H4  UNL     1     -24.426  35.823  -2.083  1.00  0.00     0.217 HD
ENDBRANCH   5  30
TORSDOF 8
ENDMDL
MODEL 4
REMARK VINA RESULT: -5.762610462      2.815      4.623
REMARK  8 active torsions:
REMARK  status: ('A' for Active; 'I' for Inactive)
REMARK    1  A    between atoms: C2_2  and  O2_4 
REMARK    2  A    between atoms: O2_4  and  C3_5 
REMARK    3  A    between atoms: C4_6  and  C5_7 
REMARK    4  A    between atoms: C13_16  and  O3_17 
REMARK    5  A    between atoms: C14_19  and  C15_20 
REMARK    6  A    between atoms: C16_23  and  O4_24 
REMARK    7  A    between atoms: C17_26  and  C18_27 
REMARK    8  A    between atoms: C18_27  and  C19_28 
ROOT
HETATM    1  C3  UNL     1     -23.438  32.766   2.584  1.00  0.00     0.101 A 
HETATM    2  C4  UNL     1     -22.973  33.612   1.569  1.00  0.00     0.033 A 
HETATM    3  C13 UNL     1     -22.444  34.827   1.941  1.00  0.00     0.090 A 
HETATM    4  C14 UNL     1     -22.360  35.225   3.282  1.00  0.00     0.042 A 
HETATM    5  C16 UNL     1     -22.820  34.374   4.234  1.00  0.00     0.086 A 
HETATM    6  C17 UNL     1     -23.375  33.113   3.903  1.00  0.00     0.014 A 
ENDROOT
BRANCH   2   7
HETATM    7  C5  UNL     1     -23.002  33.188   0.174  1.00  0.00     0.027 C 
HETATM    8  C6  UNL     1     -23.817  33.590  -0.760  1.00  0.00    -0.024 C 
HETATM    9  C7  UNL     1     -23.567  32.963  -2.072  1.00  0.00     0.006 C 
HETATM   10  C12 UNL     1     -24.916  34.543  -0.522  1.00  0.00     0.203 C 
HETATM   11  C8  UNL     1     -24.381  32.824  -3.108  1.00  0.00    -0.026 C 
HETATM   12  C9  UNL     1     -25.808  33.315  -3.143  1.00  0.00     0.027 C 
HETATM   13  C10 UNL     1     -26.384  32.919  -1.802  1.00  0.00     0.007 C 
HETATM   14  C11 UNL     1     -26.293  33.961  -0.758  1.00  0.00     0.042 C 
HETATM   15  F1  UNL     1     -24.837  35.643  -1.391  1.00  0.00    -0.244 F 
ENDBRANCH   2   7
BRANCH   1  16
HETATM   16  O2  UNL     1     -23.977  31.544   2.231  1.00  0.00    -0.278 OA
BRANCH  16  17
HETATM   17  C2  UNL     1     -25.295  31.511   1.805  1.00  0.00     0.260 C 
HETATM   18  C1  UNL     1     -25.820  30.460   0.898  1.00  0.00     0.126 C 
HETATM   19  O1  UNL     1     -26.121  32.390   2.176  1.00  0.00    -0.265 OA
ENDBRANCH  16  17
ENDBRANCH   1  16
BRANCH   3  20
HETATM   20  O3  UNL     1     -21.970  35.706   0.981  1.00  0.00    -0.359 OA
ATOM     21  H3  UNL     1     -21.702  36.584   1.226  1.00  0.00     0.217 HD
ENDBRANCH   3  20
BRANCH   6  22
HETATM   22  C18 UNL     1     -23.857  32.223   4.952  1.00  0.00     0.072 C 
BRANCH  22  23
HETATM   23  C19 UNL     1     -25.252  32.292   5.341  1.00  0.00    -0.020 C 
HETATM   24  C20 UNL     1     -25.998  31.200   5.425  1.00  0.00    -0.091 C 
HETATM   25  C21 UNL     1     -25.535  29.820   5.149  1.00  0.00     0.042 C 
HETATM   26  C22 UNL     1     -27.452  31.326   5.840  1.00  0.00     0.042 C 
ENDBRANCH  22  23
ENDBRANCH   6  22
BRANCH   4  27
HETATM   27  C15 UNL     1     -21.778  36.551   3.606  1.00  0.00     0.216 C 
HETATM   28 CL1  UNL     1     -22.903  37.487   4.620  1.00  0.00    -0.103 Cl
HETATM   29 CL2  UNL     1     -20.293  36.199   4.565  1.00  0.00    -0.103 Cl
ENDBRANCH   4  27
BRANCH   5  30
HETATM   30  O4  UNL     1     -22.770  34.695   5.564  1.00  0.00    -0.359 OA
ATOM     31  H4  UNL     1     -22.357  35.495   5.867  1.00  0.00     0.217 HD
ENDBRANCH   5  30
TORSDOF 8
ENDMDL
MODEL 5
REMARK VINA RESULT: -5.738052610      3.634      6.858
REMARK  8 active torsions:
REMARK  status: ('A' for Active; 'I' for Inactive)
REMARK    1  A    between atoms: C2_2  and  O2_4 
REMARK    2  A    between atoms: O2_4  and  C3_5 
REMARK    3  A    between atoms: C4_6  and  C5_7 
REMARK    4  A    between atoms: C13_16  and  O3_17 
REMARK    5  A    between atoms: C14_19  and  C15_20 
REMARK    6  A    between atoms: C16_23  and  O4_24 
REMARK    7  A    between atoms: C17_26  and  C18_27 
REMARK    8  A    between atoms: C18_27  and  C19_28 
ROOT
HETATM    1  C3  UNL     1     -23.474  33.825   1.384  1.00  0.00     0.101 A 
HETATM    2  C4  UNL     1     -23.257  34.216   2.711  1.00  0.00     0.033 A 
HETATM    3  C13 UNL     1     -22.187  35.042   2.968  1.00  0.00     0.090 A 
HETATM    4  C14 UNL     1     -21.330  35.491   1.954  1.00  0.00     0.042 A 
HETATM    5  C16 UNL     1     -21.578  35.090   0.681  1.00  0.00     0.086 A 
HETATM    6  C17 UNL     1     -22.666  34.239   0.364  1.00  0.00     0.014 A 
ENDROOT
BRANCH   2   7
HETATM    7  C5  UNL     1     -24.173  33.802   3.769  1.00  0.00     0.027 C 
HETATM    8  C6  UNL     1     -24.287  32.617   4.300  1.00  0.00    -0.024 C 
HETATM    9  C7  UNL     1     -25.312  32.541   5.359  1.00  0.00     0.006 C 
HETATM   10  C12 UNL     1     -23.505  31.450   3.853  1.00  0.00     0.203 C 
HETATM   11  C8  UNL     1     -25.958  31.486   5.831  1.00  0.00    -0.026 C 
HETATM   12  C9  UNL     1     -25.754  30.072   5.343  1.00  0.00     0.027 C 
HETATM   13  C10 UNL     1     -25.704  30.188   3.837  1.00  0.00     0.007 C 
HETATM   14  C11 UNL     1     -24.347  30.335   3.271  1.00  0.00     0.042 C 
HETATM   15  F1  UNL     1     -22.814  30.858   4.923  1.00  0.00    -0.244 F 
ENDBRANCH   2   7
BRANCH   1  16
HETATM   16  O2  UNL     1     -24.541  32.992   1.106  1.00  0.00    -0.278 OA
BRANCH  16  17
HETATM   17  C2  UNL     1     -25.814  33.539   1.116  1.00  0.00     0.260 C 
HETATM   18  C1  UNL     1     -27.019  32.761   1.497  1.00  0.00     0.126 C 
HETATM   19  O1  UNL     1     -26.008  34.743   0.793  1.00  0.00    -0.265 OA
ENDBRANCH  16  17
ENDBRANCH   1  16
BRANCH   3  20
HETATM   20  O3  UNL     1     -21.921  35.460   4.262  1.00  0.00    -0.359 OA
ATOM     21  H3  UNL     1     -22.623  35.520   4.899  1.00  0.00     0.217 HD
ENDBRANCH   3  20
BRANCH   6  22
HETATM   22  C18 UNL     1     -22.904  33.830  -1.014  1.00  0.00     0.072 C 
BRANCH  22  23
HETATM   23  C19 UNL     1     -23.795  34.625  -1.835  1.00  0.00    -0.020 C 
HETATM   24  C20 UNL     1     -24.818  34.075  -2.473  1.00  0.00    -0.091 C 
HETATM   25  C21 UNL     1     -25.180  32.639  -2.438  1.00  0.00     0.042 C 
HETATM   26  C22 UNL     1     -25.723  34.953  -3.317  1.00  0.00     0.042 C 
ENDBRANCH  22  23
ENDBRANCH   6  22
BRANCH   4  27
HETATM   27  C15 UNL     1     -20.196  36.379   2.308  1.00  0.00     0.216 C 
HETATM   28 CL1  UNL     1     -18.661  35.670   1.749  1.00  0.00    -0.103 Cl
HETATM   29 CL2  UNL     1     -20.488  37.911   1.404  1.00  0.00    -0.103 Cl
ENDBRANCH   4  27
BRANCH   5  30
HETATM   30  O4  UNL     1     -20.785  35.489  -0.361  1.00  0.00    -0.359 OA
ATOM     31  H4  UNL     1     -19.967  35.048  -0.560  1.00  0.00     0.217 HD
ENDBRANCH   5  30
TORSDOF 8
ENDMDL
