MODEL 1
REMARK VINA RESULT: -5.917460238      0.000      0.000
REMARK  8 active torsions:
REMARK  status: ('A' for Active; 'I' for Inactive)
REMARK    1  A    between atoms: C3_4  and  C4_5 
REMARK    2  A    between atoms: C4_5  and  O1_6 
REMARK    3  A    between atoms: C4_5  and  N1_8 
REMARK    4  A    between atoms: N1_8  and  O2_10 
REMARK    5  A    between atoms: C6_13  and  O3_14 
REMARK    6  A    between atoms: O3_14  and  C7_15 
REMARK    7  A    between atoms: C7_15  and  C8_16 
REMARK    8  A    between atoms: C13_21  and  C14_22 
ROOT
HETATM    1  C8  UNL     1     -24.964  33.677  -0.371  1.00  0.00     0.018 C 
HETATM    2  C9  UNL     1     -25.275  33.979  -1.878  1.00  0.00     0.007 C 
HETATM    3  C10 UNL     1     -24.198  33.234  -2.637  1.00  0.00     0.001 C 
HETATM    4  C11 UNL     1     -23.944  31.879  -1.996  1.00  0.00     0.001 C 
HETATM    5  C12 UNL     1     -25.171  31.407  -1.248  1.00  0.00     0.010 C 
HETATM    6  C13 UNL     1     -25.550  32.361  -0.105  1.00  0.00     0.028 C 
ENDROOT
BRANCH   1   7
HETATM    7  C7  UNL     1     -25.682  34.819   0.335  1.00  0.00     0.181 C 
BRANCH   7   8
HETATM    8  O3  UNL     1     -24.867  35.955   0.393  1.00  0.00    -0.350 OA
BRANCH   8   9
HETATM    9  C6  UNL     1     -23.530  35.894   0.882  1.00  0.00     0.083 A 
HETATM   10  C2  UNL     1     -23.319  35.813   2.237  1.00  0.00     0.013 A 
HETATM   11  C1  UNL     1     -24.367  35.783   3.321  1.00  0.00     0.059 C 
HETATM   12  S1  UNL     1     -21.622  35.763   2.361  1.00  0.00    -0.088 SA
HETATM   13  C3  UNL     1     -21.221  35.844   0.714  1.00  0.00     0.060 A 
HETATM   14  C5  UNL     1     -22.442  35.909   0.094  1.00  0.00     0.061 A 
BRANCH  13  15
HETATM   15  C4  UNL     1     -19.906  35.855   0.037  1.00  0.00     0.177 C 
BRANCH  15  16
HETATM   16  O1  UNL     1     -19.557  36.847  -0.845  1.00  0.00    -0.344 OA
ATOM     17  H1  UNL     1     -19.225  37.687  -0.548  1.00  0.00     0.219 HD
ENDBRANCH  15  16
BRANCH  15  18
HETATM   18  N1  UNL     1     -19.097  34.896   0.305  1.00  0.00    -0.246 N 
ATOM     19  H1  UNL     1     -19.254  34.000  -0.154  1.00  0.00     0.196 HD
BRANCH  18  20
HETATM   20  O2  UNL     1     -18.052  34.993   1.153  1.00  0.00    -0.288 OA
ATOM     21  H2  UNL     1     -17.522  34.258   1.440  1.00  0.00     0.244 HD
ENDBRANCH  18  20
ENDBRANCH  15  18
ENDBRANCH  13  15
ENDBRANCH   8   9
ENDBRANCH   7   8
ENDBRANCH   1   7
BRANCH   6  22
HETATM   22  C14 UNL     1     -25.406  31.707   1.179  1.00  0.00    -0.010 A 
HETATM   23  C15 UNL     1     -26.547  31.058   1.717  1.00  0.00     0.044 A 
HETATM   24 CL1  UNL     1     -28.024  31.138   0.790  1.00  0.00    -0.084 Cl
HETATM   25  C16 UNL     1     -26.518  30.390   2.912  1.00  0.00     0.048 A 
HETATM   26  C17 UNL     1     -25.375  30.316   3.650  1.00  0.00     0.037 A 
HETATM   27 CL2  UNL     1     -25.297  29.470   5.192  1.00  0.00    -0.084 Cl
HETATM   28  C18 UNL     1     -24.262  30.927   3.163  1.00  0.00     0.048 A 
HETATM   29  C19 UNL     1     -24.296  31.605   1.946  1.00  0.00     0.044 A 
HETATM   30 CL3  UNL     1     -22.769  32.271   1.440  1.00  0.00    -0.084 Cl
ENDBRANCH   6  22
TORSDOF 8
ENDMDL
MODEL 2
REMARK VINA RESULT: -5.796082776      2.183      2.945
REMARK  8 active torsions:
REMARK  status: ('A' for Active; 'I' for Inactive)
REMARK    1  A    between atoms: C3_4  and  C4_5 
REMARK    2  A    between atoms: C4_5  and  O1_6 
REMARK    3  A    between atoms: C4_5  and  N1_8 
REMARK    4  A    between atoms: N1_8  and  O2_10 
REMARK    5  A    between atoms: C6_13  and  O3_14 
REMARK    6  A    between atoms: O3_14  and  C7_15 
REMARK    7  A    between atoms: C7_15  and  C8_16 
REMARK    8  A    between atoms: C13_21  and  C14_22 
ROOT
HETATM    1  C8  UNL     1     -25.104  33.674  -0.438  1.00  0.00     0.018 C 
HETATM    2  C9  UNL     1     -25.386  33.946  -1.956  1.00  0.00     0.007 C 
HETATM    3  C10 UNL     1     -24.228  33.286  -2.675  1.00  0.00     0.001 C 
HETATM    4  C11 UNL     1     -23.891  31.957  -2.017  1.00  0.00     0.001 C 
HETATM    5  C12 UNL     1     -25.102  31.392  -1.309  1.00  0.00     0.010 C 
HETATM    6  C13 UNL     1     -25.594  32.317  -0.185  1.00  0.00     0.028 C 
ENDROOT
BRANCH   1   7
HETATM    7  C7  UNL     1     -25.933  34.758   0.236  1.00  0.00     0.181 C 
BRANCH   7   8
HETATM    8  O3  UNL     1     -25.129  35.847   0.591  1.00  0.00    -0.350 OA
BRANCH   8   9
HETATM    9  C6  UNL     1     -24.007  35.699   1.457  1.00  0.00     0.083 A 
HETATM   10  C2  UNL     1     -22.750  35.955   0.969  1.00  0.00     0.013 A 
HETATM   11  C1  UNL     1     -22.387  36.389  -0.429  1.00  0.00     0.059 C 
HETATM   12  S1  UNL     1     -21.746  35.657   2.312  1.00  0.00    -0.088 SA
HETATM   13  C3  UNL     1     -22.927  35.221   3.450  1.00  0.00     0.060 A 
HETATM   14  C5  UNL     1     -24.098  35.319   2.743  1.00  0.00     0.061 A 
BRANCH  13  15
HETATM   15  C4  UNL     1     -22.804  34.815   4.866  1.00  0.00     0.177 C 
BRANCH  15  16
HETATM   16  O1  UNL     1     -22.290  35.662   5.818  1.00  0.00    -0.344 OA
ATOM     17  H1  UNL     1     -21.802  35.336   6.565  1.00  0.00     0.219 HD
ENDBRANCH  15  16
BRANCH  15  18
HETATM   18  N1  UNL     1     -23.196  33.634   5.177  1.00  0.00    -0.246 N 
ATOM     19  H1  UNL     1     -22.551  32.861   5.014  1.00  0.00     0.196 HD
BRANCH  18  20
HETATM   20  O2  UNL     1     -24.403  33.345   5.706  1.00  0.00    -0.288 OA
ATOM     21  H2  UNL     1     -24.540  32.777   6.456  1.00  0.00     0.244 HD
ENDBRANCH  18  20
ENDBRANCH  15  18
ENDBRANCH  13  15
ENDBRANCH   8   9
ENDBRANCH   7   8
ENDBRANCH   1   7
BRANCH   6  22
HETATM   22  C14 UNL     1     -25.443  31.680   1.107  1.00  0.00    -0.010 A 
HETATM   23  C15 UNL     1     -26.582  31.041   1.661  1.00  0.00     0.044 A 
HETATM   24 CL1  UNL     1     -28.065  31.113   0.742  1.00  0.00    -0.084 Cl
HETATM   25  C16 UNL     1     -26.547  30.390   2.865  1.00  0.00     0.048 A 
HETATM   26  C17 UNL     1     -25.400  30.323   3.596  1.00  0.00     0.037 A 
HETATM   27 CL2  UNL     1     -25.315  29.497   5.150  1.00  0.00    -0.084 Cl
HETATM   28  C18 UNL     1     -24.288  30.924   3.094  1.00  0.00     0.048 A 
HETATM   29  C19 UNL     1     -24.328  31.586   1.868  1.00  0.00     0.044 A 
HETATM   30 CL3  UNL     1     -22.803  32.241   1.344  1.00  0.00    -0.084 Cl
ENDBRANCH   6  22
TORSDOF 8
ENDMDL
MODEL 3
REMARK VINA RESULT: -5.744122171      3.023      4.307
REMARK  8 active torsions:
REMARK  status: ('A' for Active; 'I' for Inactive)
REMARK    1  A    between atoms: C3_4  and  C4_5 
REMARK    2  A    between atoms: C4_5  and  O1_6 
REMARK    3  A    between atoms: C4_5  and  N1_8 
REMARK    4  A    between atoms: N1_8  and  O2_10 
REMARK    5  A    between atoms: C6_13  and  O3_14 
REMARK    6  A    between atoms: O3_14  and  C7_15 
REMARK    7  A    between atoms: C7_15  and  C8_16 
REMARK    8  A    between atoms: C13_21  and  C14_22 
ROOT
HETATM    1  C8  UNL     1     -25.140  33.650  -0.260  1.00  0.00     0.018 C 
HETATM    2  C9  UNL     1     -25.436  33.955  -1.770  1.00  0.00     0.007 C 
HETATM    3  C10 UNL     1     -24.279  33.320  -2.512  1.00  0.00     0.001 C 
HETATM    4  C11 UNL     1     -23.927  31.978  -1.887  1.00  0.00     0.001 C 
HETATM    5  C12 UNL     1     -25.129  31.389  -1.183  1.00  0.00     0.010 C 
HETATM    6  C13 UNL     1     -25.618  32.285  -0.034  1.00  0.00     0.028 C 
ENDROOT
BRANCH   1   7
HETATM    7  C7  UNL     1     -25.972  34.713   0.444  1.00  0.00     0.181 C 
BRANCH   7   8
HETATM    8  O3  UNL     1     -25.195  35.417   1.371  1.00  0.00    -0.350 OA
BRANCH   8   9
HETATM    9  C6  UNL     1     -24.952  34.912   2.682  1.00  0.00     0.083 A 
HETATM   10  C2  UNL     1     -23.686  35.000   3.206  1.00  0.00     0.013 A 
HETATM   11  C1  UNL     1     -22.464  35.585   2.543  1.00  0.00     0.059 C 
HETATM   12  S1  UNL     1     -23.856  34.293   4.746  1.00  0.00    -0.088 SA
HETATM   13  C3  UNL     1     -25.508  33.908   4.693  1.00  0.00     0.060 A 
HETATM   14  C5  UNL     1     -25.895  34.346   3.453  1.00  0.00     0.061 A 
BRANCH  13  15
HETATM   15  C4  UNL     1     -26.381  33.253   5.691  1.00  0.00     0.177 C 
BRANCH  15  16
HETATM   16  O1  UNL     1     -27.712  33.022   5.444  1.00  0.00    -0.344 OA
ATOM     17  H1  UNL     1     -28.268  32.579   6.075  1.00  0.00     0.219 HD
ENDBRANCH  15  16
BRANCH  15  18
HETATM   18  N1  UNL     1     -25.848  32.907   6.805  1.00  0.00    -0.246 N 
ATOM     19  H1  UNL     1     -25.094  33.489   7.172  1.00  0.00     0.196 HD
BRANCH  18  20
HETATM   20  O2  UNL     1     -26.215  31.827   7.525  1.00  0.00    -0.288 OA
ATOM     21  H2  UNL     1     -26.863  31.838   8.220  1.00  0.00     0.244 HD
ENDBRANCH  18  20
ENDBRANCH  15  18
ENDBRANCH  13  15
ENDBRANCH   8   9
ENDBRANCH   7   8
ENDBRANCH   1   7
BRANCH   6  22
HETATM   22  C14 UNL     1     -25.453  31.620   1.242  1.00  0.00    -0.010 A 
HETATM   23  C15 UNL     1     -26.596  31.006   1.816  1.00  0.00     0.044 A 
HETATM   24 CL1  UNL     1     -28.100  31.139   0.938  1.00  0.00    -0.084 Cl
HETATM   25  C16 UNL     1     -26.549  30.332   3.006  1.00  0.00     0.048 A 
HETATM   26  C17 UNL     1     -25.386  30.217   3.705  1.00  0.00     0.037 A 
HETATM   27 CL2  UNL     1     -25.285  29.361   5.241  1.00  0.00    -0.084 Cl
HETATM   28  C18 UNL     1     -24.270  30.794   3.184  1.00  0.00     0.048 A 
HETATM   29  C19 UNL     1     -24.322  31.479   1.971  1.00  0.00     0.044 A 
HETATM   30 CL3  UNL     1     -22.792  32.097   1.417  1.00  0.00    -0.084 Cl
ENDBRANCH   6  22
TORSDOF 8
ENDMDL
MODEL 4
REMARK VINA RESULT: -5.697334648      3.003      4.673
REMARK  8 active torsions:
REMARK  status: ('A' for Active; 'I' for Inactive)
REMARK    1  A    between atoms: C3_4  and  C4_5 
REMARK    2  A    between atoms: C4_5  and  O1_6 
REMARK    3  A    between atoms: C4_5  and  N1_8 
REMARK    4  A    between atoms: N1_8  and  O2_10 
REMARK    5  A    between atoms: C6_13  and  O3_14 
REMARK    6  A    between atoms: O3_14  and  C7_15 
REMARK    7  A    between atoms: C7_15  and  C8_16 
REMARK    8  A    between atoms: C13_21  and  C14_22 
ROOT
HETATM    1  C8  UNL     1     -21.501  35.350   0.062  1.00  0.00     0.018 C 
HETATM    2  C9  UNL     1     -21.462  36.824  -0.471  1.00  0.00     0.007 C 
HETATM    3  C10 UNL     1     -22.672  36.926  -1.375  1.00  0.00     0.001 C 
HETATM    4  C11 UNL     1     -23.853  36.194  -0.756  1.00  0.00     0.001 C 
HETATM    5  C12 UNL     1     -23.710  36.132   0.748  1.00  0.00     0.010 C 
HETATM    6  C13 UNL     1     -22.453  35.360   1.175  1.00  0.00     0.028 C 
ENDROOT
BRANCH   1   7
HETATM    7  C7  UNL     1     -20.057  35.132   0.495  1.00  0.00     0.181 C 
BRANCH   7   8
HETATM    8  O3  UNL     1     -19.510  36.316   1.002  1.00  0.00    -0.350 OA
BRANCH   8   9
HETATM    9  C6  UNL     1     -19.075  36.420   2.356  1.00  0.00     0.083 A 
HETATM   10  C2  UNL     1     -19.582  37.424   3.144  1.00  0.00     0.013 A 
HETATM   11  C1  UNL     1     -20.582  38.480   2.742  1.00  0.00     0.059 C 
HETATM   12  S1  UNL     1     -18.806  37.172   4.638  1.00  0.00    -0.088 SA
HETATM   13  C3  UNL     1     -17.868  35.816   4.238  1.00  0.00     0.060 A 
HETATM   14  C5  UNL     1     -18.187  35.587   2.924  1.00  0.00     0.061 A 
BRANCH  13  15
HETATM   15  C4  UNL     1     -16.913  35.027   5.045  1.00  0.00     0.177 C 
BRANCH  15  16
HETATM   16  O1  UNL     1     -16.977  35.001   6.417  1.00  0.00    -0.344 OA
ATOM     17  H1  UNL     1     -16.438  35.570   6.953  1.00  0.00     0.219 HD
ENDBRANCH  15  16
BRANCH  15  18
HETATM   18  N1  UNL     1     -16.015  34.363   4.415  1.00  0.00    -0.246 N 
ATOM     19  H1  UNL     1     -15.148  34.844   4.177  1.00  0.00     0.196 HD
BRANCH  18  20
HETATM   20  O2  UNL     1     -16.140  33.071   4.044  1.00  0.00    -0.288 OA
ATOM     21  H2  UNL     1     -15.584  32.639   3.406  1.00  0.00     0.244 HD
ENDBRANCH  18  20
ENDBRANCH  15  18
ENDBRANCH  13  15
ENDBRANCH   8   9
ENDBRANCH   7   8
ENDBRANCH   1   7
BRANCH   6  22
HETATM   22  C14 UNL     1     -22.809  34.149   1.885  1.00  0.00    -0.010 A 
HETATM   23  C15 UNL     1     -22.998  34.242   3.288  1.00  0.00     0.044 A 
HETATM   24 CL1  UNL     1     -22.751  35.805   4.026  1.00  0.00    -0.084 Cl
HETATM   25  C16 UNL     1     -23.358  33.166   4.054  1.00  0.00     0.048 A 
HETATM   26  C17 UNL     1     -23.556  31.939   3.497  1.00  0.00     0.037 A 
HETATM   27 CL2  UNL     1     -24.017  30.530   4.447  1.00  0.00    -0.084 Cl
HETATM   28  C18 UNL     1     -23.384  31.815   2.153  1.00  0.00     0.048 A 
HETATM   29  C19 UNL     1     -23.018  32.913   1.377  1.00  0.00     0.044 A 
HETATM   30 CL3  UNL     1     -22.906  32.593  -0.331  1.00  0.00    -0.084 Cl
ENDBRANCH   6  22
TORSDOF 8
ENDMDL
MODEL 5
REMARK VINA RESULT: -5.694783562      3.014      5.004
REMARK  8 active torsions:
REMARK  status: ('A' for Active; 'I' for Inactive)
REMARK    1  A    between atoms: C3_4  and  C4_5 
REMARK    2  A    between atoms: C4_5  and  O1_6 
REMARK    3  A    between atoms: C4_5  and  N1_8 
REMARK    4  A    between atoms: N1_8  and  O2_10 
REMARK    5  A    between atoms: C6_13  and  O3_14 
REMARK    6  A    between atoms: O3_14  and  C7_15 
REMARK    7  A    between atoms: C7_15  and  C8_16 
REMARK    8  A    between atoms: C13_21  and  C14_22 
ROOT
HETATM    1  C8  UNL     1     -21.449  35.277   0.257  1.00  0.00     0.018 C 
HETATM    2  C9  UNL     1     -21.391  36.749  -0.280  1.00  0.00     0.007 C 
HETATM    3  C10 UNL     1     -22.532  36.828  -1.273  1.00  0.00     0.001 C 
HETATM    4  C11 UNL     1     -23.745  36.081  -0.740  1.00  0.00     0.001 C 
HETATM    5  C12 UNL     1     -23.714  36.029   0.771  1.00  0.00     0.010 C 
HETATM    6  C13 UNL     1     -22.481  35.279   1.296  1.00  0.00     0.028 C 
ENDROOT
BRANCH   1   7
HETATM    7  C7  UNL     1     -20.038  35.084   0.798  1.00  0.00     0.181 C 
BRANCH   7   8
HETATM    8  O3  UNL     1     -19.178  36.068   0.298  1.00  0.00    -0.350 OA
BRANCH   8   9
HETATM    9  C6  UNL     1     -17.902  36.315   0.883  1.00  0.00     0.083 A 
HETATM   10  C2  UNL     1     -17.288  37.523   0.659  1.00  0.00     0.013 A 
HETATM   11  C1  UNL     1     -17.813  38.671  -0.167  1.00  0.00     0.059 C 
HETATM   12  S1  UNL     1     -15.829  37.382   1.525  1.00  0.00    -0.088 SA
HETATM   13  C3  UNL     1     -16.027  35.815   2.146  1.00  0.00     0.060 A 
HETATM   14  C5  UNL     1     -17.247  35.431   1.654  1.00  0.00     0.061 A 
BRANCH  13  15
HETATM   15  C4  UNL     1     -15.143  34.995   3.003  1.00  0.00     0.177 C 
BRANCH  15  16
HETATM   16  O1  UNL     1     -13.801  34.866   2.743  1.00  0.00    -0.344 OA
ATOM     17  H1  UNL     1     -13.257  34.247   3.216  1.00  0.00     0.219 HD
ENDBRANCH  15  16
BRANCH  15  18
HETATM   18  N1  UNL     1     -15.680  34.402   4.007  1.00  0.00    -0.246 N 
ATOM     19  H1  UNL     1     -15.836  34.948   4.853  1.00  0.00     0.196 HD
BRANCH  18  20
HETATM   20  O2  UNL     1     -16.051  33.105   4.018  1.00  0.00    -0.288 OA
ATOM     21  H2  UNL     1     -16.944  32.802   4.140  1.00  0.00     0.244 HD
ENDBRANCH  18  20
ENDBRANCH  15  18
ENDBRANCH  13  15
ENDBRANCH   8   9
ENDBRANCH   7   8
ENDBRANCH   1   7
BRANCH   6  22
HETATM   22  C14 UNL     1     -22.872  34.066   1.985  1.00  0.00    -0.010 A 
HETATM   23  C15 UNL     1     -23.078  34.144   3.387  1.00  0.00     0.044 A 
HETATM   24 CL1  UNL     1     -22.809  35.691   4.149  1.00  0.00    -0.084 Cl
HETATM   25  C16 UNL     1     -23.470  33.065   4.133  1.00  0.00     0.048 A 
HETATM   26  C17 UNL     1     -23.685  31.850   3.557  1.00  0.00     0.037 A 
HETATM   27 CL2  UNL     1     -24.188  30.439   4.482  1.00  0.00    -0.084 Cl
HETATM   28  C18 UNL     1     -23.498  31.740   2.214  1.00  0.00     0.048 A 
HETATM   29  C19 UNL     1     -23.099  32.841   1.458  1.00  0.00     0.044 A 
HETATM   30 CL3  UNL     1     -22.971  32.542  -0.253  1.00  0.00    -0.084 Cl
ENDBRANCH   6  22
TORSDOF 8
ENDMDL
