MODEL 1
REMARK VINA RESULT: -6.228599202      0.000      0.000
REMARK  7 active torsions:
REMARK  status: ('A' for Active; 'I' for Inactive)
REMARK    1  A    between atoms: C2_2  and  O1_3 
REMARK    2  A    between atoms: O1_3  and  C3_4 
REMARK    3  A    between atoms: C5_7  and  O2_8 
REMARK    4  A    between atoms: C7_12  and  C8_13 
REMARK    5  A    between atoms: C8_13  and  N1_15 
REMARK    6  A    between atoms: N1_15  and  C10_17 
REMARK    7  A    between atoms: C13_22  and  C14_23 
ROOT
HETATM    1  C8  UNL     1     -26.174  30.224   4.253  1.00  0.00     0.117 C 
HETATM    2  C9  UNL     1     -25.258  29.481   5.182  1.00  0.00     0.037 C 
ENDROOT
BRANCH   1   3
HETATM    3  C7  UNL     1     -25.615  30.705   3.021  1.00  0.00     0.013 A 
HETATM    4  C6  UNL     1     -26.405  30.696   1.827  1.00  0.00     0.079 A 
HETATM    5  C5  UNL     1     -25.992  31.249   0.650  1.00  0.00     0.112 A 
HETATM    6 CL2  UNL     1     -27.936  29.907   1.895  1.00  0.00    -0.081 Cl
HETATM    7  C4  UNL     1     -24.788  31.863   0.543  1.00  0.00     0.103 A 
HETATM    8  C3  UNL     1     -23.994  31.916   1.644  1.00  0.00     0.115 A 
HETATM    9 CL1  UNL     1     -24.314  32.512  -1.045  1.00  0.00    -0.078 Cl
HETATM   10  C19 UNL     1     -24.419  31.333   2.868  1.00  0.00     0.079 A 
HETATM   11 CL3  UNL     1     -23.241  31.491   4.155  1.00  0.00    -0.081 Cl
BRANCH   5  12
HETATM   12  O2  UNL     1     -26.813  31.180  -0.471  1.00  0.00    -0.357 OA
ATOM     13  H2  UNL     1     -26.897  30.351  -0.929  1.00  0.00     0.217 HD
ENDBRANCH   5  12
BRANCH   8  14
HETATM   14  O1  UNL     1     -22.744  32.553   1.581  1.00  0.00    -0.348 OA
BRANCH  14  15
HETATM   15  C2  UNL     1     -22.653  33.967   1.668  1.00  0.00     0.171 C 
HETATM   16  C1  UNL     1     -21.623  34.460   0.699  1.00  0.00     0.034 C 
ENDBRANCH  14  15
ENDBRANCH   8  14
ENDBRANCH   1   3
BRANCH   1  17
HETATM   17  N1  UNL     1     -26.686  31.338   4.994  1.00  0.00    -0.347 N 
ATOM     18  H1  UNL     1     -27.440  31.808   4.493  1.00  0.00     0.163 HD
BRANCH  17  19
HETATM   19  C10 UNL     1     -26.452  31.889   6.101  1.00  0.00     0.225 A 
HETATM   20  N2  UNL     1     -25.752  32.931   6.516  1.00  0.00    -0.323 N 
HETATM   21  C11 UNL     1     -25.857  33.076   7.881  1.00  0.00     0.043 A 
ATOM     22  H2  UNL     1     -25.208  33.543   5.907  1.00  0.00     0.169 HD
HETATM   23  C12 UNL     1     -25.238  34.210   8.624  1.00  0.00     0.071 C 
HETATM   24  C13 UNL     1     -26.654  32.072   8.283  1.00  0.00     0.114 A 
HETATM   25  O4  UNL     1     -27.000  31.382   7.231  1.00  0.00    -0.277 OA
BRANCH  24  26
HETATM   26  C14 UNL     1     -27.136  31.723   9.630  1.00  0.00     0.031 A 
HETATM   27  C15 UNL     1     -28.536  31.774   9.945  1.00  0.00     0.041 A 
HETATM   28  C16 UNL     1     -28.673  31.296  11.240  1.00  0.00     0.143 A 
HETATM   29  O3  UNL     1     -27.487  30.986  11.676  1.00  0.00    -0.327 OA
HETATM   30  C17 UNL     1     -26.554  31.224  10.741  1.00  0.00     0.061 A 
HETATM   31  C18 UNL     1     -25.121  30.931  10.992  1.00  0.00     0.077 C 
ENDBRANCH  24  26
ENDBRANCH  17  19
ENDBRANCH   1  17
TORSDOF 7
ENDMDL
MODEL 2
REMARK VINA RESULT: -6.152254407      1.077      1.814
REMARK  7 active torsions:
REMARK  status: ('A' for Active; 'I' for Inactive)
REMARK    1  A    between atoms: C2_2  and  O1_3 
REMARK    2  A    between atoms: O1_3  and  C3_4 
REMARK    3  A    between atoms: C5_7  and  O2_8 
REMARK    4  A    between atoms: C7_12  and  C8_13 
REMARK    5  A    between atoms: C8_13  and  N1_15 
REMARK    6  A    between atoms: N1_15  and  C10_17 
REMARK    7  A    between atoms: C13_22  and  C14_23 
ROOT
HETATM    1  C8  UNL     1     -26.105  30.288   4.256  1.00  0.00     0.117 C 
HETATM    2  C9  UNL     1     -25.241  29.393   5.095  1.00  0.00     0.037 C 
ENDROOT
BRANCH   1   3
HETATM    3  C7  UNL     1     -25.561  30.751   3.010  1.00  0.00     0.013 A 
HETATM    4  C6  UNL     1     -26.368  30.737   1.828  1.00  0.00     0.079 A 
HETATM    5  C5  UNL     1     -25.968  31.275   0.640  1.00  0.00     0.112 A 
HETATM    6 CL2  UNL     1     -27.905  29.962   1.926  1.00  0.00    -0.081 Cl
HETATM    7  C4  UNL     1     -24.760  31.877   0.509  1.00  0.00     0.103 A 
HETATM    8  C3  UNL     1     -23.950  31.935   1.597  1.00  0.00     0.115 A 
HETATM    9 CL1  UNL     1     -24.305  32.506  -1.093  1.00  0.00    -0.078 Cl
HETATM   10  C19 UNL     1     -24.362  31.367   2.833  1.00  0.00     0.079 A 
HETATM   11 CL3  UNL     1     -23.163  31.528   4.102  1.00  0.00    -0.081 Cl
BRANCH   5  12
HETATM   12  O2  UNL     1     -26.806  31.201  -0.468  1.00  0.00    -0.357 OA
ATOM     13  H2  UNL     1     -27.743  31.124  -0.331  1.00  0.00     0.217 HD
ENDBRANCH   5  12
BRANCH   8  14
HETATM   14  O1  UNL     1     -22.696  32.561   1.510  1.00  0.00    -0.348 OA
BRANCH  14  15
HETATM   15  C2  UNL     1     -22.592  33.975   1.573  1.00  0.00     0.171 C 
HETATM   16  C1  UNL     1     -21.612  34.448   0.545  1.00  0.00     0.034 C 
ENDBRANCH  14  15
ENDBRANCH   8  14
ENDBRANCH   1   3
BRANCH   1  17
HETATM   17  N1  UNL     1     -26.427  31.421   5.070  1.00  0.00    -0.347 N 
ATOM     18  H1  UNL     1     -26.294  32.297   4.564  1.00  0.00     0.163 HD
BRANCH  17  19
HETATM   19  C10 UNL     1     -26.831  31.621   6.245  1.00  0.00     0.225 A 
HETATM   20  N2  UNL     1     -27.960  31.436   6.907  1.00  0.00    -0.323 N 
HETATM   21  C11 UNL     1     -27.831  31.849   8.215  1.00  0.00     0.043 A 
ATOM     22  H2  UNL     1     -28.810  31.041   6.504  1.00  0.00     0.169 HD
HETATM   23  C12 UNL     1     -28.916  31.691   9.224  1.00  0.00     0.071 C 
HETATM   24  C13 UNL     1     -26.569  32.297   8.321  1.00  0.00     0.114 A 
HETATM   25  O4  UNL     1     -25.990  32.158   7.160  1.00  0.00    -0.277 OA
BRANCH  24  26
HETATM   26  C14 UNL     1     -25.852  32.848   9.482  1.00  0.00     0.031 A 
HETATM   27  C15 UNL     1     -25.532  34.245   9.554  1.00  0.00     0.041 A 
HETATM   28  C16 UNL     1     -24.958  34.463  10.798  1.00  0.00     0.143 A 
HETATM   29  O3  UNL     1     -24.926  33.323  11.425  1.00  0.00    -0.327 OA
HETATM   30  C17 UNL     1     -25.454  32.345  10.671  1.00  0.00     0.061 A 
HETATM   31  C18 UNL     1     -25.550  30.953  11.175  1.00  0.00     0.077 C 
ENDBRANCH  24  26
ENDBRANCH  17  19
ENDBRANCH   1  17
TORSDOF 7
ENDMDL
MODEL 3
REMARK VINA RESULT: -5.779778544      4.644      9.213
REMARK  7 active torsions:
REMARK  status: ('A' for Active; 'I' for Inactive)
REMARK    1  A    between atoms: C2_2  and  O1_3 
REMARK    2  A    between atoms: O1_3  and  C3_4 
REMARK    3  A    between atoms: C5_7  and  O2_8 
REMARK    4  A    between atoms: C7_12  and  C8_13 
REMARK    5  A    between atoms: C8_13  and  N1_15 
REMARK    6  A    between atoms: N1_15  and  C10_17 
REMARK    7  A    between atoms: C13_22  and  C14_23 
ROOT
HETATM    1  C8  UNL     1     -22.101  34.914  -0.477  1.00  0.00     0.117 C 
HETATM    2  C9  UNL     1     -22.378  36.379  -0.305  1.00  0.00     0.037 C 
ENDROOT
BRANCH   1   3
HETATM    3  C7  UNL     1     -23.064  33.993   0.057  1.00  0.00     0.013 A 
HETATM    4  C6  UNL     1     -23.776  33.114  -0.820  1.00  0.00     0.079 A 
HETATM    5  C5  UNL     1     -24.611  32.130  -0.381  1.00  0.00     0.112 A 
HETATM    6 CL2  UNL     1     -23.581  33.358  -2.517  1.00  0.00    -0.081 Cl
HETATM    7  C4  UNL     1     -24.811  31.912   0.942  1.00  0.00     0.103 A 
HETATM    8  C3  UNL     1     -24.156  32.705   1.830  1.00  0.00     0.115 A 
HETATM    9 CL1  UNL     1     -25.956  30.636   1.420  1.00  0.00    -0.078 Cl
HETATM   10  C19 UNL     1     -23.293  33.737   1.372  1.00  0.00     0.079 A 
HETATM   11 CL3  UNL     1     -22.564  34.656   2.675  1.00  0.00    -0.081 Cl
BRANCH   5  12
HETATM   12  O2  UNL     1     -25.282  31.331  -1.302  1.00  0.00    -0.357 OA
ATOM     13  H2  UNL     1     -24.849  30.554  -1.638  1.00  0.00     0.217 HD
ENDBRANCH   5  12
BRANCH   8  14
HETATM   14  O1  UNL     1     -24.324  32.507   3.209  1.00  0.00    -0.348 OA
BRANCH  14  15
HETATM   15  C2  UNL     1     -23.517  31.569   3.905  1.00  0.00     0.171 C 
HETATM   16  C1  UNL     1     -24.395  30.567   4.588  1.00  0.00     0.034 C 
ENDBRANCH  14  15
ENDBRANCH   8  14
ENDBRANCH   1   3
BRANCH   1  17
HETATM   17  N1  UNL     1     -20.832  34.666   0.140  1.00  0.00    -0.347 N 
ATOM     18  H1  UNL     1     -20.751  33.700   0.457  1.00  0.00     0.163 HD
BRANCH  17  19
HETATM   19  C10 UNL     1     -19.791  35.326   0.394  1.00  0.00     0.225 A 
HETATM   20  N2  UNL     1     -19.267  36.470  -0.011  1.00  0.00    -0.323 N 
HETATM   21  C11 UNL     1     -18.069  36.709   0.625  1.00  0.00     0.043 A 
ATOM     22  H2  UNL     1     -19.692  37.089  -0.701  1.00  0.00     0.169 HD
HETATM   23  C12 UNL     1     -17.285  37.961   0.428  1.00  0.00     0.071 C 
HETATM   24  C13 UNL     1     -17.884  35.656   1.439  1.00  0.00     0.114 A 
HETATM   25  O4  UNL     1     -18.901  34.851   1.298  1.00  0.00    -0.277 OA
BRANCH  24  26
HETATM   26  C14 UNL     1     -16.789  35.362   2.378  1.00  0.00     0.031 A 
HETATM   27  C15 UNL     1     -17.065  34.877   3.700  1.00  0.00     0.041 A 
HETATM   28  C16 UNL     1     -15.840  34.603   4.292  1.00  0.00     0.143 A 
HETATM   29  O3  UNL     1     -14.911  34.889   3.427  1.00  0.00    -0.327 OA
HETATM   30  C17 UNL     1     -15.443  35.338   2.279  1.00  0.00     0.061 A 
HETATM   31  C18 UNL     1     -14.584  35.711   1.127  1.00  0.00     0.077 C 
ENDBRANCH  24  26
ENDBRANCH  17  19
ENDBRANCH   1  17
TORSDOF 7
ENDMDL
MODEL 4
REMARK VINA RESULT: -5.777558266      9.897     13.167
REMARK  7 active torsions:
REMARK  status: ('A' for Active; 'I' for Inactive)
REMARK    1  A    between atoms: C2_2  and  O1_3 
REMARK    2  A    between atoms: O1_3  and  C3_4 
REMARK    3  A    between atoms: C5_7  and  O2_8 
REMARK    4  A    between atoms: C7_12  and  C8_13 
REMARK    5  A    between atoms: C8_13  and  N1_15 
REMARK    6  A    between atoms: N1_15  and  C10_17 
REMARK    7  A    between atoms: C13_22  and  C14_23 
ROOT
HETATM    1  C8  UNL     1     -14.845  35.169   3.103  1.00  0.00     0.117 C 
HETATM    2  C9  UNL     1     -13.780  36.226   3.093  1.00  0.00     0.037 C 
ENDROOT
BRANCH   1   3
HETATM    3  C7  UNL     1     -16.122  35.524   3.655  1.00  0.00     0.013 A 
HETATM    4  C6  UNL     1     -17.261  35.651   2.797  1.00  0.00     0.079 A 
HETATM    5  C5  UNL     1     -18.528  35.861   3.257  1.00  0.00     0.112 A 
HETATM    6 CL2  UNL     1     -16.987  35.568   1.096  1.00  0.00    -0.081 Cl
HETATM    7  C4  UNL     1     -18.790  35.952   4.585  1.00  0.00     0.103 A 
HETATM    8  C3  UNL     1     -17.754  35.829   5.454  1.00  0.00     0.115 A 
HETATM    9 CL1  UNL     1     -20.466  36.276   5.089  1.00  0.00    -0.078 Cl
HETATM   10  C19 UNL     1     -16.432  35.620   4.975  1.00  0.00     0.079 A 
HETATM   11 CL3  UNL     1     -15.241  35.511   6.256  1.00  0.00    -0.081 Cl
BRANCH   5  12
HETATM   12  O2  UNL     1     -19.578  35.993   2.354  1.00  0.00    -0.357 OA
ATOM     13  H2  UNL     1     -19.960  35.209   1.976  1.00  0.00     0.217 HD
ENDBRANCH   5  12
BRANCH   8  14
HETATM   14  O1  UNL     1     -17.982  35.905   6.837  1.00  0.00    -0.348 OA
BRANCH  14  15
HETATM   15  C2  UNL     1     -18.484  34.782   7.546  1.00  0.00     0.171 C 
HETATM   16  C1  UNL     1     -17.884  34.751   8.917  1.00  0.00     0.034 C 
ENDBRANCH  14  15
ENDBRANCH   8  14
ENDBRANCH   1   3
BRANCH   1  17
HETATM   17  N1  UNL     1     -14.313  34.065   3.843  1.00  0.00    -0.347 N 
ATOM     18  H1  UNL     1     -15.053  33.506   4.269  1.00  0.00     0.163 HD
BRANCH  17  19
HETATM   19  C10 UNL     1     -13.172  33.600   4.106  1.00  0.00     0.225 A 
HETATM   20  N2  UNL     1     -12.343  32.738   3.543  1.00  0.00    -0.323 N 
HETATM   21  C11 UNL     1     -11.194  32.609   4.291  1.00  0.00     0.043 A 
ATOM     22  H2  UNL     1     -12.530  32.238   2.674  1.00  0.00     0.169 HD
HETATM   23  C12 UNL     1     -10.042  31.765   3.865  1.00  0.00     0.071 C 
HETATM   24  C13 UNL     1     -11.360  33.432   5.340  1.00  0.00     0.114 A 
HETATM   25  O4  UNL     1     -12.524  34.011   5.221  1.00  0.00    -0.277 OA
BRANCH  24  26
HETATM   26  C14 UNL     1     -10.461  33.727   6.467  1.00  0.00     0.031 A 
HETATM   27  C15 UNL     1      -9.308  34.563   6.288  1.00  0.00     0.041 A 
HETATM   28  C16 UNL     1      -8.734  34.730   7.540  1.00  0.00     0.143 A 
HETATM   29  O3  UNL     1      -9.455  34.068   8.398  1.00  0.00    -0.327 OA
HETATM   30  C17 UNL     1     -10.490  33.465   7.792  1.00  0.00     0.061 A 
HETATM   31  C18 UNL     1     -11.473  32.664   8.563  1.00  0.00     0.077 C 
ENDBRANCH  24  26
ENDBRANCH  17  19
ENDBRANCH   1  17
TORSDOF 7
ENDMDL
MODEL 5
REMARK VINA RESULT: -5.771451598      5.284      8.561
REMARK  7 active torsions:
REMARK  status: ('A' for Active; 'I' for Inactive)
REMARK    1  A    between atoms: C2_2  and  O1_3 
REMARK    2  A    between atoms: O1_3  and  C3_4 
REMARK    3  A    between atoms: C5_7  and  O2_8 
REMARK    4  A    between atoms: C7_12  and  C8_13 
REMARK    5  A    between atoms: C8_13  and  N1_15 
REMARK    6  A    between atoms: N1_15  and  C10_17 
REMARK    7  A    between atoms: C13_22  and  C14_23 
ROOT
HETATM    1  C8  UNL     1     -21.175  35.773   1.163  1.00  0.00     0.117 C 
HETATM    2  C9  UNL     1     -21.255  36.566  -0.108  1.00  0.00     0.037 C 
ENDROOT
BRANCH   1   3
HETATM    3  C7  UNL     1     -19.975  35.895   1.943  1.00  0.00     0.013 A 
HETATM    4  C6  UNL     1     -20.056  36.243   3.329  1.00  0.00     0.079 A 
HETATM    5  C5  UNL     1     -18.978  36.256   4.164  1.00  0.00     0.112 A 
HETATM    6 CL2  UNL     1     -21.601  36.703   3.943  1.00  0.00    -0.081 Cl
HETATM    7  C4  UNL     1     -17.740  35.921   3.723  1.00  0.00     0.103 A 
HETATM    8  C3  UNL     1     -17.596  35.570   2.419  1.00  0.00     0.115 A 
HETATM    9 CL1  UNL     1     -16.385  36.014   4.873  1.00  0.00    -0.078 Cl
HETATM   10  C19 UNL     1     -18.718  35.565   1.547  1.00  0.00     0.079 A 
HETATM   11 CL3  UNL     1     -18.314  35.104  -0.096  1.00  0.00    -0.081 Cl
BRANCH   5  12
HETATM   12  O2  UNL     1     -19.139  36.626   5.496  1.00  0.00    -0.357 OA
ATOM     13  H2  UNL     1     -20.008  36.594   5.879  1.00  0.00     0.217 HD
ENDBRANCH   5  12
BRANCH   8  14
HETATM   14  O1  UNL     1     -16.335  35.204   1.923  1.00  0.00    -0.348 OA
BRANCH  14  15
HETATM   15  C2  UNL     1     -15.409  36.198   1.512  1.00  0.00     0.171 C 
HETATM   16  C1  UNL     1     -14.115  35.546   1.134  1.00  0.00     0.034 C 
ENDBRANCH  14  15
ENDBRANCH   8  14
ENDBRANCH   1   3
BRANCH   1  17
HETATM   17  N1  UNL     1     -21.350  34.400   0.796  1.00  0.00    -0.347 N 
ATOM     18  H1  UNL     1     -20.468  33.887   0.828  1.00  0.00     0.163 HD
BRANCH  17  19
HETATM   19  C10 UNL     1     -22.304  33.659   0.444  1.00  0.00     0.225 A 
HETATM   20  N2  UNL     1     -22.794  33.218  -0.702  1.00  0.00    -0.323 N 
HETATM   21  C11 UNL     1     -23.885  32.407  -0.486  1.00  0.00     0.043 A 
ATOM     22  H2  UNL     1     -22.414  33.448  -1.621  1.00  0.00     0.169 HD
HETATM   23  C12 UNL     1     -24.600  31.701  -1.587  1.00  0.00     0.071 C 
HETATM   24  C13 UNL     1     -24.042  32.373   0.848  1.00  0.00     0.114 A 
HETATM   25  O4  UNL     1     -23.108  33.110   1.385  1.00  0.00    -0.277 OA
BRANCH  24  26
HETATM   26  C14 UNL     1     -25.032  31.658   1.670  1.00  0.00     0.031 A 
HETATM   27  C15 UNL     1     -24.615  30.810   2.751  1.00  0.00     0.041 A 
HETATM   28  C16 UNL     1     -25.769  30.371   3.385  1.00  0.00     0.143 A 
HETATM   29  O3  UNL     1     -26.785  30.892   2.762  1.00  0.00    -0.327 OA
HETATM   30  C17 UNL     1     -26.380  31.665   1.742  1.00  0.00     0.061 A 
HETATM   31  C18 UNL     1     -27.357  32.388   0.889  1.00  0.00     0.077 C 
ENDBRANCH  24  26
ENDBRANCH  17  19
ENDBRANCH   1  17
TORSDOF 7
ENDMDL
