MODEL 1
REMARK VINA RESULT: -6.029141876      0.000      0.000
REMARK  6 active torsions:
REMARK  status: ('A' for Active; 'I' for Inactive)
REMARK    1  A    between atoms: C2_2  and  C3_3 
REMARK    2  A    between atoms: C3_3  and  C4_4 
REMARK    3  A    between atoms: C4_4  and  C5_6 
REMARK    4  A    between atoms: C6_7  and  C7_8 
REMARK    5  A    between atoms: C14_15  and  O2_16 
REMARK    6  A    between atoms: N1_20  and  C17_21 
ROOT
HETATM    1  C5  UNL     1     -24.055  35.277  -1.088  1.00  0.00     0.065 A 
HETATM    2  C6  UNL     1     -24.140  34.151  -0.337  1.00  0.00     0.017 A 
HETATM    3  C15 UNL     1     -23.029  34.073   0.484  1.00  0.00     0.027 A 
HETATM    4  C16 UNL     1     -22.662  33.023   1.488  1.00  0.00     0.070 C 
HETATM    5  N1  UNL     1     -22.255  35.138   0.251  1.00  0.00    -0.301 N 
HETATM    6  C23 UNL     1     -22.843  35.886  -0.691  1.00  0.00     0.138 A 
HETATM    7  N2  UNL     1     -22.293  37.105  -1.188  1.00  0.00    -0.081 NA
ENDROOT
BRANCH   2   8
HETATM    8  C7  UNL     1     -25.186  33.157  -0.319  1.00  0.00     0.016 A 
HETATM    9  C8  UNL     1     -24.991  32.037  -1.107  1.00  0.00    -0.048 A 
HETATM   10  C9  UNL     1     -23.772  31.814  -1.927  1.00  0.00     0.049 C 
HETATM   11  C10 UNL     1     -25.999  31.096  -1.109  1.00  0.00     0.014 A 
HETATM   12  C11 UNL     1     -27.154  31.256  -0.362  1.00  0.00    -0.059 A 
HETATM   13  C12 UNL     1     -28.235  30.237  -0.370  1.00  0.00     0.048 C 
HETATM   14  C13 UNL     1     -27.289  32.397   0.404  1.00  0.00     0.044 A 
HETATM   15  C14 UNL     1     -26.314  33.369   0.444  1.00  0.00     0.077 A 
BRANCH  15  16
HETATM   16  O2  UNL     1     -26.479  34.506   1.225  1.00  0.00    -0.360 OA
ATOM     17  H2  UNL     1     -26.415  34.485   2.173  1.00  0.00     0.217 HD
ENDBRANCH  15  16
ENDBRANCH   2   8
BRANCH   1  18
HETATM   18  C4  UNL     1     -24.894  35.890  -2.112  1.00  0.00     0.163 C 
HETATM   19  O1  UNL     1     -25.994  36.447  -1.830  1.00  0.00    -0.292 OA
BRANCH  18  20
HETATM   20  C3  UNL     1     -24.534  35.910  -3.535  1.00  0.00     0.084 C 
BRANCH  20  21
HETATM   21  C2  UNL     1     -24.419  34.489  -4.086  1.00  0.00     0.003 C 
HETATM   22  C1  UNL     1     -25.782  33.870  -4.280  1.00  0.00     0.005 C 
ENDBRANCH  20  21
ENDBRANCH  18  20
ENDBRANCH   1  18
BRANCH   5  23
HETATM   23  C17 UNL     1     -21.012  35.430   0.896  1.00  0.00     0.065 A 
HETATM   24  C18 UNL     1     -19.791  35.100   0.394  1.00  0.00     0.075 A 
HETATM   25  C19 UNL     1     -18.603  35.396   1.042  1.00  0.00     0.140 A 
HETATM   26  F1  UNL     1     -17.437  35.030   0.470  1.00  0.00    -0.204 F 
HETATM   27  C20 UNL     1     -18.661  36.047   2.238  1.00  0.00     0.074 A 
HETATM   28 CL1  UNL     1     -17.144  36.419   3.055  1.00  0.00    -0.081 Cl
HETATM   29  C21 UNL     1     -19.870  36.406   2.794  1.00  0.00     0.053 A 
HETATM   30  C22 UNL     1     -21.035  36.098   2.125  1.00  0.00     0.063 A 
HETATM   31 CL2  UNL     1     -22.546  36.557   2.842  1.00  0.00    -0.082 Cl
ENDBRANCH   5  23
TORSDOF 6
ENDMDL
MODEL 2
REMARK VINA RESULT: -5.835114629      6.702     10.566
REMARK  6 active torsions:
REMARK  status: ('A' for Active; 'I' for Inactive)
REMARK    1  A    between atoms: C2_2  and  C3_3 
REMARK    2  A    between atoms: C3_3  and  C4_4 
REMARK    3  A    between atoms: C4_4  and  C5_6 
REMARK    4  A    between atoms: C6_7  and  C7_8 
REMARK    5  A    between atoms: C14_15  and  O2_16 
REMARK    6  A    between atoms: N1_20  and  C17_21 
ROOT
HETATM    1  C5  UNL     1     -16.848  36.323   4.347  1.00  0.00     0.065 A 
HETATM    2  C6  UNL     1     -15.729  35.938   3.684  1.00  0.00     0.017 A 
HETATM    3  C15 UNL     1     -15.856  36.285   2.351  1.00  0.00     0.027 A 
HETATM    4  C16 UNL     1     -14.897  36.075   1.219  1.00  0.00     0.070 C 
HETATM    5  N1  UNL     1     -17.041  36.881   2.179  1.00  0.00    -0.301 N 
HETATM    6  C23 UNL     1     -17.665  36.921   3.363  1.00  0.00     0.138 A 
HETATM    7  N2  UNL     1     -18.959  37.491   3.553  1.00  0.00    -0.081 NA
ENDROOT
BRANCH   2   8
HETATM    8  C7  UNL     1     -14.551  35.289   4.206  1.00  0.00     0.016 A 
HETATM    9  C8  UNL     1     -13.509  36.113   4.592  1.00  0.00    -0.048 A 
HETATM   10  C9  UNL     1     -13.565  37.596   4.515  1.00  0.00     0.049 C 
HETATM   11  C10 UNL     1     -12.373  35.495   5.071  1.00  0.00     0.014 A 
HETATM   12  C11 UNL     1     -12.271  34.116   5.162  1.00  0.00    -0.059 A 
HETATM   13  C12 UNL     1     -11.044  33.458   5.679  1.00  0.00     0.048 C 
HETATM   14  C13 UNL     1     -13.347  33.348   4.760  1.00  0.00     0.044 A 
HETATM   15  C14 UNL     1     -14.505  33.913   4.275  1.00  0.00     0.077 A 
BRANCH  15  16
HETATM   16  O2  UNL     1     -15.571  33.114   3.878  1.00  0.00    -0.360 OA
ATOM     17  H2  UNL     1     -15.445  32.252   3.499  1.00  0.00     0.217 HD
ENDBRANCH  15  16
ENDBRANCH   2   8
BRANCH   1  18
HETATM   18  C4  UNL     1     -17.299  36.232   5.733  1.00  0.00     0.163 C 
HETATM   19  O1  UNL     1     -18.336  35.585   6.057  1.00  0.00    -0.292 OA
BRANCH  18  20
HETATM   20  C3  UNL     1     -16.593  36.875   6.847  1.00  0.00     0.084 C 
BRANCH  20  21
HETATM   21  C2  UNL     1     -16.269  35.860   7.943  1.00  0.00     0.003 C 
HETATM   22  C1  UNL     1     -14.795  35.536   7.965  1.00  0.00     0.005 C 
ENDBRANCH  20  21
ENDBRANCH  18  20
ENDBRANCH   1  18
BRANCH   5  23
HETATM   23  C17 UNL     1     -17.555  37.388   0.944  1.00  0.00     0.065 A 
HETATM   24  C18 UNL     1     -17.258  38.615   0.436  1.00  0.00     0.075 A 
HETATM   25  C19 UNL     1     -17.770  39.079  -0.764  1.00  0.00     0.140 A 
HETATM   26  F1  UNL     1     -17.422  40.311  -1.193  1.00  0.00    -0.204 F 
HETATM   27  C20 UNL     1     -18.612  38.269  -1.467  1.00  0.00     0.074 A 
HETATM   28 CL1  UNL     1     -19.259  38.869  -2.994  1.00  0.00    -0.081 Cl
HETATM   29  C21 UNL     1     -18.947  37.016  -1.001  1.00  0.00     0.053 A 
HETATM   30  C22 UNL     1     -18.421  36.583   0.196  1.00  0.00     0.063 A 
HETATM   31 CL2  UNL     1     -18.856  35.004   0.767  1.00  0.00    -0.082 Cl
ENDBRANCH   5  23
TORSDOF 6
ENDMDL
MODEL 3
REMARK VINA RESULT: -5.743252730      0.979      1.564
REMARK  6 active torsions:
REMARK  status: ('A' for Active; 'I' for Inactive)
REMARK    1  A    between atoms: C2_2  and  C3_3 
REMARK    2  A    between atoms: C3_3  and  C4_4 
REMARK    3  A    between atoms: C4_4  and  C5_6 
REMARK    4  A    between atoms: C6_7  and  C7_8 
REMARK    5  A    between atoms: C14_15  and  O2_16 
REMARK    6  A    between atoms: N1_20  and  C17_21 
ROOT
HETATM    1  C5  UNL     1     -23.837  35.279  -1.176  1.00  0.00     0.065 A 
HETATM    2  C6  UNL     1     -23.938  34.151  -0.430  1.00  0.00     0.017 A 
HETATM    3  C15 UNL     1     -22.854  34.082   0.427  1.00  0.00     0.027 A 
HETATM    4  C16 UNL     1     -22.511  33.035   1.443  1.00  0.00     0.070 C 
HETATM    5  N1  UNL     1     -22.082  35.155   0.221  1.00  0.00    -0.301 N 
HETATM    6  C23 UNL     1     -22.645  35.898  -0.739  1.00  0.00     0.138 A 
HETATM    7  N2  UNL     1     -22.090  37.123  -1.216  1.00  0.00    -0.081 NA
ENDROOT
BRANCH   2   8
HETATM    8  C7  UNL     1     -24.975  33.148  -0.448  1.00  0.00     0.016 A 
HETATM    9  C8  UNL     1     -26.116  33.423   0.284  1.00  0.00    -0.048 A 
HETATM   10  C9  UNL     1     -26.317  34.683   1.046  1.00  0.00     0.049 C 
HETATM   11  C10 UNL     1     -27.100  32.457   0.288  1.00  0.00     0.014 A 
HETATM   12  C11 UNL     1     -26.961  31.266  -0.405  1.00  0.00    -0.059 A 
HETATM   13  C12 UNL     1     -28.025  30.230  -0.397  1.00  0.00     0.048 C 
HETATM   14  C13 UNL     1     -25.797  31.051  -1.118  1.00  0.00     0.044 A 
HETATM   15  C14 UNL     1     -24.782  31.981  -1.156  1.00  0.00     0.077 A 
BRANCH  15  16
HETATM   16  O2  UNL     1     -23.623  31.736  -1.882  1.00  0.00    -0.360 OA
ATOM     17  H2  UNL     1     -22.813  31.465  -1.467  1.00  0.00     0.217 HD
ENDBRANCH  15  16
ENDBRANCH   2   8
BRANCH   1  18
HETATM   18  C4  UNL     1     -24.647  35.886  -2.228  1.00  0.00     0.163 C 
HETATM   19  O1  UNL     1     -25.678  36.571  -1.967  1.00  0.00    -0.292 OA
BRANCH  18  20
HETATM   20  C3  UNL     1     -24.335  35.752  -3.656  1.00  0.00     0.084 C 
BRANCH  20  21
HETATM   21  C2  UNL     1     -24.334  34.281  -4.076  1.00  0.00     0.003 C 
HETATM   22  C1  UNL     1     -25.742  33.749  -4.191  1.00  0.00     0.005 C 
ENDBRANCH  20  21
ENDBRANCH  18  20
ENDBRANCH   1  18
BRANCH   5  23
HETATM   23  C17 UNL     1     -20.864  35.457   0.908  1.00  0.00     0.065 A 
HETATM   24  C18 UNL     1     -19.625  35.130   0.451  1.00  0.00     0.075 A 
HETATM   25  C19 UNL     1     -18.462  35.437   1.139  1.00  0.00     0.140 A 
HETATM   26  F1  UNL     1     -17.274  35.074   0.610  1.00  0.00    -0.204 F 
HETATM   27  C20 UNL     1     -18.565  36.094   2.328  1.00  0.00     0.074 A 
HETATM   28 CL1  UNL     1     -17.080  36.479   3.195  1.00  0.00    -0.081 Cl
HETATM   29  C21 UNL     1     -19.795  36.450   2.839  1.00  0.00     0.053 A 
HETATM   30  C22 UNL     1     -20.933  36.132   2.132  1.00  0.00     0.063 A 
HETATM   31 CL2  UNL     1     -22.471  36.588   2.792  1.00  0.00    -0.082 Cl
ENDBRANCH   5  23
TORSDOF 6
ENDMDL
MODEL 4
REMARK VINA RESULT: -5.651992898      3.066      4.625
REMARK  6 active torsions:
REMARK  status: ('A' for Active; 'I' for Inactive)
REMARK    1  A    between atoms: C2_2  and  C3_3 
REMARK    2  A    between atoms: C3_3  and  C4_4 
REMARK    3  A    between atoms: C4_4  and  C5_6 
REMARK    4  A    between atoms: C6_7  and  C7_8 
REMARK    5  A    between atoms: C14_15  and  O2_16 
REMARK    6  A    between atoms: N1_20  and  C17_21 
ROOT
HETATM    1  C5  UNL     1     -24.555  32.774   1.204  1.00  0.00     0.065 A 
HETATM    2  C6  UNL     1     -24.361  33.368   2.408  1.00  0.00     0.017 A 
HETATM    3  C15 UNL     1     -23.336  34.291   2.293  1.00  0.00     0.027 A 
HETATM    4  C16 UNL     1     -22.751  35.195   3.335  1.00  0.00     0.070 C 
HETATM    5  N1  UNL     1     -22.892  34.276   1.031  1.00  0.00    -0.301 N 
HETATM    6  C23 UNL     1     -23.605  33.373   0.347  1.00  0.00     0.138 A 
HETATM    7  N2  UNL     1     -23.401  33.092  -1.037  1.00  0.00    -0.081 NA
ENDROOT
BRANCH   2   8
HETATM    8  C7  UNL     1     -25.070  33.150   3.645  1.00  0.00     0.016 A 
HETATM    9  C8  UNL     1     -24.548  32.194   4.498  1.00  0.00    -0.048 A 
HETATM   10  C9  UNL     1     -23.310  31.425   4.209  1.00  0.00     0.049 C 
HETATM   11  C10 UNL     1     -25.236  31.967   5.672  1.00  0.00     0.014 A 
HETATM   12  C11 UNL     1     -26.394  32.657   5.988  1.00  0.00    -0.059 A 
HETATM   13  C12 UNL     1     -27.129  32.407   7.254  1.00  0.00     0.048 C 
HETATM   14  C13 UNL     1     -26.865  33.599   5.094  1.00  0.00     0.044 A 
HETATM   15  C14 UNL     1     -26.218  33.866   3.908  1.00  0.00     0.077 A 
BRANCH  15  16
HETATM   16  O2  UNL     1     -26.716  34.819   3.028  1.00  0.00    -0.360 OA
ATOM     17  H2  UNL     1     -27.504  34.676   2.518  1.00  0.00     0.217 HD
ENDBRANCH  15  16
ENDBRANCH   2   8
BRANCH   1  18
HETATM   18  C4  UNL     1     -25.462  31.745   0.704  1.00  0.00     0.163 C 
HETATM   19  O1  UNL     1     -25.993  31.821  -0.440  1.00  0.00    -0.292 OA
BRANCH  18  20
HETATM   20  C3  UNL     1     -25.824  30.554   1.481  1.00  0.00     0.084 C 
BRANCH  20  21
HETATM   21  C2  UNL     1     -27.293  30.607   1.903  1.00  0.00     0.003 C 
HETATM   22  C1  UNL     1     -27.459  30.191   3.345  1.00  0.00     0.005 C 
ENDBRANCH  20  21
ENDBRANCH  18  20
ENDBRANCH   1  18
BRANCH   5  23
HETATM   23  C17 UNL     1     -21.837  35.085   0.503  1.00  0.00     0.065 A 
HETATM   24  C18 UNL     1     -20.523  34.730   0.507  1.00  0.00     0.075 A 
HETATM   25  C19 UNL     1     -19.523  35.536  -0.013  1.00  0.00     0.140 A 
HETATM   26  F1  UNL     1     -18.245  35.104   0.033  1.00  0.00    -0.204 F 
HETATM   27  C20 UNL     1     -19.872  36.739  -0.550  1.00  0.00     0.074 A 
HETATM   28 CL1  UNL     1     -18.591  37.756  -1.209  1.00  0.00    -0.081 Cl
HETATM   29  C21 UNL     1     -21.187  37.149  -0.581  1.00  0.00     0.053 A 
HETATM   30  C22 UNL     1     -22.160  36.326  -0.057  1.00  0.00     0.063 A 
HETATM   31 CL2  UNL     1     -23.808  36.861  -0.104  1.00  0.00    -0.082 Cl
ENDBRANCH   5  23
TORSDOF 6
ENDMDL
MODEL 5
REMARK VINA RESULT: -5.634062731      6.345      9.809
REMARK  6 active torsions:
REMARK  status: ('A' for Active; 'I' for Inactive)
REMARK    1  A    between atoms: C2_2  and  C3_3 
REMARK    2  A    between atoms: C3_3  and  C4_4 
REMARK    3  A    between atoms: C4_4  and  C5_6 
REMARK    4  A    between atoms: C6_7  and  C7_8 
REMARK    5  A    between atoms: C14_15  and  O2_16 
REMARK    6  A    between atoms: N1_20  and  C17_21 
ROOT
HETATM    1  C5  UNL     1     -15.271  37.388   3.806  1.00  0.00     0.065 A 
HETATM    2  C6  UNL     1     -15.878  36.217   3.490  1.00  0.00     0.017 A 
HETATM    3  C15 UNL     1     -15.228  35.185   4.143  1.00  0.00     0.027 A 
HETATM    4  C16 UNL     1     -15.515  33.714   4.117  1.00  0.00     0.070 C 
HETATM    5  N1  UNL     1     -14.225  35.702   4.861  1.00  0.00    -0.301 N 
HETATM    6  C23 UNL     1     -14.222  37.029   4.681  1.00  0.00     0.138 A 
HETATM    7  N2  UNL     1     -13.283  37.907   5.299  1.00  0.00    -0.081 NA
ENDROOT
BRANCH   2   8
HETATM    8  C7  UNL     1     -17.023  35.995   2.641  1.00  0.00     0.016 A 
HETATM    9  C8  UNL     1     -18.266  36.194   3.213  1.00  0.00    -0.048 A 
HETATM   10  C9  UNL     1     -18.461  36.636   4.619  1.00  0.00     0.049 C 
HETATM   11  C10 UNL     1     -19.364  35.962   2.411  1.00  0.00     0.014 A 
HETATM   12  C11 UNL     1     -19.237  35.549   1.095  1.00  0.00    -0.059 A 
HETATM   13  C12 UNL     1     -20.424  35.301   0.238  1.00  0.00     0.048 C 
HETATM   14  C13 UNL     1     -17.967  35.368   0.582  1.00  0.00     0.044 A 
HETATM   15  C14 UNL     1     -16.837  35.586   1.338  1.00  0.00     0.077 A 
BRANCH  15  16
HETATM   16  O2  UNL     1     -15.573  35.395   0.794  1.00  0.00    -0.360 OA
ATOM     17  H2  UNL     1     -15.428  34.862   0.021  1.00  0.00     0.217 HD
ENDBRANCH  15  16
ENDBRANCH   2   8
BRANCH   1  18
HETATM   18  C4  UNL     1     -15.487  38.784   3.438  1.00  0.00     0.163 C 
HETATM   19  O1  UNL     1     -16.376  39.492   3.993  1.00  0.00    -0.292 OA
BRANCH  18  20
HETATM   20  C3  UNL     1     -14.700  39.471   2.408  1.00  0.00     0.084 C 
BRANCH  20  21
HETATM   21  C2  UNL     1     -14.886  38.802   1.046  1.00  0.00     0.003 C 
HETATM   22  C1  UNL     1     -16.253  39.100   0.478  1.00  0.00     0.005 C 
ENDBRANCH  20  21
ENDBRANCH  18  20
ENDBRANCH   1  18
BRANCH   5  23
HETATM   23  C17 UNL     1     -13.312  34.966   5.679  1.00  0.00     0.065 A 
HETATM   24  C18 UNL     1     -12.182  34.364   5.218  1.00  0.00     0.075 A 
HETATM   25  C19 UNL     1     -11.316  33.658   6.036  1.00  0.00     0.140 A 
HETATM   26  F1  UNL     1     -10.218  33.091   5.493  1.00  0.00    -0.204 F 
HETATM   27  C20 UNL     1     -11.610  33.561   7.364  1.00  0.00     0.074 A 
HETATM   28 CL1  UNL     1     -10.501  32.660   8.396  1.00  0.00    -0.081 Cl
HETATM   29  C21 UNL     1     -12.740  34.152   7.886  1.00  0.00     0.053 A 
HETATM   30  C22 UNL     1     -13.583  34.848   7.047  1.00  0.00     0.063 A 
HETATM   31 CL2  UNL     1     -15.000  35.583   7.724  1.00  0.00    -0.082 Cl
ENDBRANCH   5  23
TORSDOF 6
ENDMDL
