MODEL 1
REMARK VINA RESULT: -6.807820045      0.000      0.000
REMARK  7 active torsions:
REMARK  status: ('A' for Active; 'I' for Inactive)
REMARK    1  A    between atoms: O1_2  and  C2_3 
REMARK    2  A    between atoms: C2_3  and  C3_4 
REMARK    3  A    between atoms: C2_3  and  C17_25 
REMARK    4  A    between atoms: C3_4  and  O2_5 
REMARK    5  A    between atoms: O2_5  and  C4_6 
REMARK    6  A    between atoms: C7_9  and  O3_10 
REMARK    7  A    between atoms: C11_15  and  O4_16 
ROOT
HETATM    1  C4  UNL     1     -23.980  32.431  -0.284  1.00  0.00     0.084 A 
HETATM    2  C5  UNL     1     -25.049  32.198  -1.107  1.00  0.00     0.006 A 
HETATM    3  C6  UNL     1     -25.043  32.604  -2.550  1.00  0.00     0.054 C 
HETATM    4  C7  UNL     1     -26.138  31.569  -0.540  1.00  0.00     0.086 A 
HETATM    5  C8  UNL     1     -26.188  31.179   0.778  1.00  0.00     0.019 A 
HETATM    6  C9  UNL     1     -27.298  30.545   1.312  1.00  0.00    -0.013 A 
HETATM    7  C10 UNL     1     -28.471  30.277   0.456  1.00  0.00     0.052 C 
HETATM    8  C11 UNL     1     -27.302  30.162   2.662  1.00  0.00     0.096 A 
HETATM    9  C12 UNL     1     -26.232  30.404   3.453  1.00  0.00     0.090 A 
HETATM   10 CL1  UNL     1     -26.268  29.913   5.134  1.00  0.00    -0.080 Cl
HETATM   11  C13 UNL     1     -25.117  31.042   2.909  1.00  0.00     0.070 A 
HETATM   12 CL2  UNL     1     -23.786  31.302   3.991  1.00  0.00    -0.081 Cl
HETATM   13  C14 UNL     1     -25.061  31.437   1.600  1.00  0.00     0.010 A 
HETATM   14  C15 UNL     1     -23.942  32.070   1.072  1.00  0.00    -0.015 A 
HETATM   15  C16 UNL     1     -22.793  32.353   1.921  1.00  0.00     0.052 C 
ENDROOT
BRANCH   1  16
HETATM   16  O2  UNL     1     -22.866  33.054  -0.796  1.00  0.00    -0.347 OA
BRANCH  16  17
HETATM   17  C3  UNL     1     -22.872  34.403  -1.072  1.00  0.00     0.212 C 
BRANCH  17  18
HETATM   18  C2  UNL     1     -22.498  35.299   0.072  1.00  0.00     0.178 C 
BRANCH  18  19
HETATM   19  O1  UNL     1     -23.365  36.332   0.280  1.00  0.00    -0.384 OA
HETATM   20  C1  UNL     1     -24.610  36.199  -0.289  1.00  0.00     0.202 C 
ENDBRANCH  18  19
BRANCH  18  21
HETATM   21  C17 UNL     1     -21.070  35.703   0.065  1.00  0.00    -0.024 A 
HETATM   22  C18 UNL     1     -20.563  36.668  -0.789  1.00  0.00     0.016 A 
HETATM   23  C19 UNL     1     -19.238  37.035  -0.787  1.00  0.00    -0.059 A 
HETATM   24  C20 UNL     1     -18.748  38.069  -1.717  1.00  0.00     0.048 C 
HETATM   25  C21 UNL     1     -18.341  36.451   0.077  1.00  0.00     0.049 A 
HETATM   26  C22 UNL     1     -18.819  35.487   0.939  1.00  0.00     0.117 A 
HETATM   27  F1  UNL     1     -17.917  34.920   1.786  1.00  0.00    -0.206 F 
HETATM   28  C23 UNL     1     -20.140  35.139   0.918  1.00  0.00     0.052 A 
ENDBRANCH  18  21
ENDBRANCH  17  18
ENDBRANCH  16  17
ENDBRANCH   1  16
BRANCH   4  29
HETATM   29  O3  UNL     1     -27.213  31.332  -1.356  1.00  0.00    -0.359 OA
ATOM     30  H3  UNL     1     -27.768  30.593  -1.135  1.00  0.00     0.217 HD
ENDBRANCH   4  29
BRANCH   8  31
HETATM   31  O4  UNL     1     -28.436  29.532   3.149  1.00  0.00    -0.358 OA
ATOM     32  H4  UNL     1     -28.357  28.623   3.410  1.00  0.00     0.217 HD
ENDBRANCH   8  31
TORSDOF 7
ENDMDL
MODEL 2
REMARK VINA RESULT: -6.651738825      4.570      8.083
REMARK  7 active torsions:
REMARK  status: ('A' for Active; 'I' for Inactive)
REMARK    1  A    between atoms: O1_2  and  C2_3 
REMARK    2  A    between atoms: C2_3  and  C3_4 
REMARK    3  A    between atoms: C2_3  and  C17_25 
REMARK    4  A    between atoms: C3_4  and  O2_5 
REMARK    5  A    between atoms: O2_5  and  C4_6 
REMARK    6  A    between atoms: C7_9  and  O3_10 
REMARK    7  A    between atoms: C11_15  and  O4_16 
ROOT
HETATM    1  C4  UNL     1     -25.877  31.053   3.959  1.00  0.00     0.084 A 
HETATM    2  C5  UNL     1     -27.066  30.601   3.452  1.00  0.00     0.006 A 
HETATM    3  C6  UNL     1     -28.127  30.007   4.329  1.00  0.00     0.054 C 
HETATM    4  C7  UNL     1     -27.240  30.717   2.089  1.00  0.00     0.086 A 
HETATM    5  C8  UNL     1     -26.294  31.255   1.246  1.00  0.00     0.019 A 
HETATM    6  C9  UNL     1     -26.506  31.360  -0.118  1.00  0.00    -0.013 A 
HETATM    7  C10 UNL     1     -27.775  30.883  -0.702  1.00  0.00     0.052 C 
HETATM    8  C11 UNL     1     -25.514  31.919  -0.938  1.00  0.00     0.096 A 
HETATM    9  C12 UNL     1     -24.348  32.359  -0.412  1.00  0.00     0.090 A 
HETATM   10 CL1  UNL     1     -23.130  33.053  -1.462  1.00  0.00    -0.080 Cl
HETATM   11  C13 UNL     1     -24.142  32.251   0.963  1.00  0.00     0.070 A 
HETATM   12 CL2  UNL     1     -22.624  32.850   1.554  1.00  0.00    -0.081 Cl
HETATM   13  C14 UNL     1     -25.075  31.713   1.808  1.00  0.00     0.010 A 
HETATM   14  C15 UNL     1     -24.855  31.614   3.176  1.00  0.00    -0.015 A 
HETATM   15  C16 UNL     1     -23.595  32.066   3.749  1.00  0.00     0.052 C 
ENDROOT
BRANCH   1  16
HETATM   16  O2  UNL     1     -25.649  30.962   5.312  1.00  0.00    -0.347 OA
BRANCH  16  17
HETATM   17  C3  UNL     1     -25.875  32.035   6.144  1.00  0.00     0.212 C 
BRANCH  17  18
HETATM   18  C2  UNL     1     -26.794  31.775   7.301  1.00  0.00     0.178 C 
BRANCH  18  19
HETATM   19  O1  UNL     1     -28.077  32.193   7.102  1.00  0.00    -0.384 OA
HETATM   20  C1  UNL     1     -28.243  33.226   6.210  1.00  0.00     0.202 C 
ENDBRANCH  18  19
BRANCH  18  21
HETATM   21  C17 UNL     1     -26.226  32.178   8.611  1.00  0.00    -0.024 A 
HETATM   22  C18 UNL     1     -26.166  31.325   9.702  1.00  0.00     0.016 A 
HETATM   23  C19 UNL     1     -25.638  31.709  10.912  1.00  0.00    -0.059 A 
HETATM   24  C20 UNL     1     -25.597  30.763  12.042  1.00  0.00     0.048 C 
HETATM   25  C21 UNL     1     -25.137  32.976  11.098  1.00  0.00     0.049 A 
HETATM   26  C22 UNL     1     -25.183  33.845  10.029  1.00  0.00     0.117 A 
HETATM   27  F1  UNL     1     -24.683  35.095  10.232  1.00  0.00    -0.206 F 
HETATM   28  C23 UNL     1     -25.714  33.442   8.836  1.00  0.00     0.052 A 
ENDBRANCH  18  21
ENDBRANCH  17  18
ENDBRANCH  16  17
ENDBRANCH   1  16
BRANCH   4  29
HETATM   29  O3  UNL     1     -28.427  30.267   1.573  1.00  0.00    -0.359 OA
ATOM     30  H3  UNL     1     -28.664  29.366   1.758  1.00  0.00     0.217 HD
ENDBRANCH   4  29
BRANCH   8  31
HETATM   31  O4  UNL     1     -25.773  32.003  -2.297  1.00  0.00    -0.358 OA
ATOM     32  H4  UNL     1     -25.117  31.660  -2.892  1.00  0.00     0.217 HD
ENDBRANCH   8  31
TORSDOF 7
ENDMDL
MODEL 3
REMARK VINA RESULT: -6.515825036      1.059      1.552
REMARK  7 active torsions:
REMARK  status: ('A' for Active; 'I' for Inactive)
REMARK    1  A    between atoms: O1_2  and  C2_3 
REMARK    2  A    between atoms: C2_3  and  C3_4 
REMARK    3  A    between atoms: C2_3  and  C17_25 
REMARK    4  A    between atoms: C3_4  and  O2_5 
REMARK    5  A    between atoms: O2_5  and  C4_6 
REMARK    6  A    between atoms: C7_9  and  O3_10 
REMARK    7  A    between atoms: C11_15  and  O4_16 
ROOT
HETATM    1  C4  UNL     1     -23.937  32.427  -0.251  1.00  0.00     0.084 A 
HETATM    2  C5  UNL     1     -24.974  32.197  -1.115  1.00  0.00     0.006 A 
HETATM    3  C6  UNL     1     -24.908  32.596  -2.559  1.00  0.00     0.054 C 
HETATM    4  C7  UNL     1     -26.089  31.578  -0.590  1.00  0.00     0.086 A 
HETATM    5  C8  UNL     1     -26.194  31.194   0.728  1.00  0.00     0.019 A 
HETATM    6  C9  UNL     1     -27.329  30.570   1.219  1.00  0.00    -0.013 A 
HETATM    7  C10 UNL     1     -28.468  30.306   0.319  1.00  0.00     0.052 C 
HETATM    8  C11 UNL     1     -27.389  30.194   2.570  1.00  0.00     0.096 A 
HETATM    9  C12 UNL     1     -26.349  30.433   3.403  1.00  0.00     0.090 A 
HETATM   10 CL1  UNL     1     -26.456  29.950   5.083  1.00  0.00    -0.080 Cl
HETATM   11  C13 UNL     1     -25.210  31.060   2.900  1.00  0.00     0.070 A 
HETATM   12 CL2  UNL     1     -23.921  31.317   4.033  1.00  0.00    -0.081 Cl
HETATM   13  C14 UNL     1     -25.099  31.449   1.592  1.00  0.00     0.010 A 
HETATM   14  C15 UNL     1     -23.956  32.072   1.107  1.00  0.00    -0.015 A 
HETATM   15  C16 UNL     1     -22.840  32.352   2.000  1.00  0.00     0.052 C 
ENDROOT
BRANCH   1  16
HETATM   16  O2  UNL     1     -22.800  33.041  -0.721  1.00  0.00    -0.347 OA
BRANCH  16  17
HETATM   17  C3  UNL     1     -22.809  34.368  -1.086  1.00  0.00     0.212 C 
BRANCH  17  18
HETATM   18  C2  UNL     1     -22.843  35.350   0.048  1.00  0.00     0.178 C 
BRANCH  18  19
HETATM   19  O1  UNL     1     -23.464  36.528  -0.250  1.00  0.00    -0.384 OA
HETATM   20  C1  UNL     1     -23.185  37.061  -1.487  1.00  0.00     0.202 C 
ENDBRANCH  18  19
BRANCH  18  21
HETATM   21  C17 UNL     1     -21.535  35.514   0.730  1.00  0.00    -0.024 A 
HETATM   22  C18 UNL     1     -21.410  36.034   2.008  1.00  0.00     0.016 A 
HETATM   23  C19 UNL     1     -20.193  36.182   2.630  1.00  0.00    -0.059 A 
HETATM   24  C20 UNL     1     -20.114  36.741   3.992  1.00  0.00     0.048 C 
HETATM   25  C21 UNL     1     -19.026  35.815   2.002  1.00  0.00     0.049 A 
HETATM   26  C22 UNL     1     -19.121  35.294   0.730  1.00  0.00     0.117 A 
HETATM   27  F1  UNL     1     -17.955  34.937   0.125  1.00  0.00    -0.206 F 
HETATM   28  C23 UNL     1     -20.341  35.157   0.131  1.00  0.00     0.052 A 
ENDBRANCH  18  21
ENDBRANCH  17  18
ENDBRANCH  16  17
ENDBRANCH   1  16
BRANCH   4  29
HETATM   29  O3  UNL     1     -27.132  31.343  -1.447  1.00  0.00    -0.359 OA
ATOM     30  H3  UNL     1     -27.863  31.949  -1.412  1.00  0.00     0.217 HD
ENDBRANCH   4  29
BRANCH   8  31
HETATM   31  O4  UNL     1     -28.545  29.573   3.015  1.00  0.00    -0.358 OA
ATOM     32  H4  UNL     1     -29.377  29.940   2.740  1.00  0.00     0.217 HD
ENDBRANCH   8  31
TORSDOF 7
ENDMDL
MODEL 4
REMARK VINA RESULT: -6.430258747      4.656      8.259
REMARK  7 active torsions:
REMARK  status: ('A' for Active; 'I' for Inactive)
REMARK    1  A    between atoms: O1_2  and  C2_3 
REMARK    2  A    between atoms: C2_3  and  C3_4 
REMARK    3  A    between atoms: C2_3  and  C17_25 
REMARK    4  A    between atoms: C3_4  and  O2_5 
REMARK    5  A    between atoms: O2_5  and  C4_6 
REMARK    6  A    between atoms: C7_9  and  O3_10 
REMARK    7  A    between atoms: C11_15  and  O4_16 
ROOT
HETATM    1  C4  UNL     1     -24.957  31.963   4.022  1.00  0.00     0.084 A 
HETATM    2  C5  UNL     1     -25.664  31.138   3.189  1.00  0.00     0.006 A 
HETATM    3  C6  UNL     1     -26.604  30.095   3.714  1.00  0.00     0.054 C 
HETATM    4  C7  UNL     1     -25.468  31.314   1.835  1.00  0.00     0.086 A 
HETATM    5  C8  UNL     1     -24.616  32.258   1.308  1.00  0.00     0.019 A 
HETATM    6  C9  UNL     1     -24.448  32.409  -0.058  1.00  0.00    -0.013 A 
HETATM    7  C10 UNL     1     -25.192  31.538  -0.990  1.00  0.00     0.052 C 
HETATM    8  C11 UNL     1     -23.570  33.388  -0.550  1.00  0.00     0.096 A 
HETATM    9  C12 UNL     1     -22.884  34.190   0.296  1.00  0.00     0.090 A 
HETATM   10 CL1  UNL     1     -21.797  35.403  -0.350  1.00  0.00    -0.080 Cl
HETATM   11  C13 UNL     1     -23.059  34.033   1.670  1.00  0.00     0.070 A 
HETATM   12 CL2  UNL     1     -22.150  35.111   2.681  1.00  0.00    -0.081 Cl
HETATM   13  C14 UNL     1     -23.901  33.094   2.203  1.00  0.00     0.010 A 
HETATM   14  C15 UNL     1     -24.066  32.951   3.576  1.00  0.00    -0.015 A 
HETATM   15  C16 UNL     1     -23.317  33.796   4.494  1.00  0.00     0.052 C 
ENDROOT
BRANCH   1  16
HETATM   16  O2  UNL     1     -25.115  31.832   5.382  1.00  0.00    -0.347 OA
BRANCH  16  17
HETATM   17  C3  UNL     1     -26.129  32.484   6.046  1.00  0.00     0.212 C 
BRANCH  17  18
HETATM   18  C2  UNL     1     -26.732  31.739   7.200  1.00  0.00     0.178 C 
BRANCH  18  19
HETATM   19  O1  UNL     1     -28.091  31.639   7.153  1.00  0.00    -0.384 OA
HETATM   20  C1  UNL     1     -28.702  32.224   6.069  1.00  0.00     0.202 C 
ENDBRANCH  18  19
BRANCH  18  21
HETATM   21  C17 UNL     1     -26.204  32.165   8.520  1.00  0.00    -0.024 A 
HETATM   22  C18 UNL     1     -26.158  31.324   9.620  1.00  0.00     0.016 A 
HETATM   23  C19 UNL     1     -25.667  31.728  10.840  1.00  0.00    -0.059 A 
HETATM   24  C20 UNL     1     -25.639  30.794  11.980  1.00  0.00     0.048 C 
HETATM   25  C21 UNL     1     -25.193  33.006  11.026  1.00  0.00     0.049 A 
HETATM   26  C22 UNL     1     -25.227  33.864   9.947  1.00  0.00     0.117 A 
HETATM   27  F1  UNL     1     -24.754  35.124  10.150  1.00  0.00    -0.206 F 
HETATM   28  C23 UNL     1     -25.720  33.439   8.745  1.00  0.00     0.052 A 
ENDBRANCH  18  21
ENDBRANCH  17  18
ENDBRANCH  16  17
ENDBRANCH   1  16
BRANCH   4  29
HETATM   29  O3  UNL     1     -26.171  30.493   0.992  1.00  0.00    -0.359 OA
ATOM     30  H3  UNL     1     -25.991  29.562   1.048  1.00  0.00     0.217 HD
ENDBRANCH   4  29
BRANCH   8  31
HETATM   31  O4  UNL     1     -23.435  33.500  -1.924  1.00  0.00    -0.358 OA
ATOM     32  H4  UNL     1     -22.817  32.922  -2.356  1.00  0.00     0.217 HD
ENDBRANCH   8  31
TORSDOF 7
ENDMDL
MODEL 5
REMARK VINA RESULT: -6.425879371      4.788      8.628
REMARK  7 active torsions:
REMARK  status: ('A' for Active; 'I' for Inactive)
REMARK    1  A    between atoms: O1_2  and  C2_3 
REMARK    2  A    between atoms: C2_3  and  C3_4 
REMARK    3  A    between atoms: C2_3  and  C17_25 
REMARK    4  A    between atoms: C3_4  and  O2_5 
REMARK    5  A    between atoms: O2_5  and  C4_6 
REMARK    6  A    between atoms: C7_9  and  O3_10 
REMARK    7  A    between atoms: C11_15  and  O4_16 
ROOT
HETATM    1  C4  UNL     1     -24.832  32.396   4.543  1.00  0.00     0.084 A 
HETATM    2  C5  UNL     1     -23.909  33.404   4.613  1.00  0.00     0.006 A 
HETATM    3  C6  UNL     1     -23.471  33.990   5.922  1.00  0.00     0.054 C 
HETATM    4  C7  UNL     1     -23.400  33.858   3.414  1.00  0.00     0.086 A 
HETATM    5  C8  UNL     1     -23.772  33.351   2.190  1.00  0.00     0.019 A 
HETATM    6  C9  UNL     1     -23.235  33.829   1.007  1.00  0.00    -0.013 A 
HETATM    7  C10 UNL     1     -22.238  34.916   1.041  1.00  0.00     0.052 C 
HETATM    8  C11 UNL     1     -23.643  33.278  -0.218  1.00  0.00     0.096 A 
HETATM    9  C12 UNL     1     -24.557  32.281  -0.259  1.00  0.00     0.090 A 
HETATM   10 CL1  UNL     1     -25.044  31.614  -1.803  1.00  0.00    -0.080 Cl
HETATM   11  C13 UNL     1     -25.092  31.804   0.937  1.00  0.00     0.070 A 
HETATM   12 CL2  UNL     1     -26.248  30.518   0.794  1.00  0.00    -0.081 Cl
HETATM   13  C14 UNL     1     -24.731  32.306   2.159  1.00  0.00     0.010 A 
HETATM   14  C15 UNL     1     -25.273  31.819   3.342  1.00  0.00    -0.015 A 
HETATM   15  C16 UNL     1     -26.272  30.760   3.307  1.00  0.00     0.052 C 
ENDROOT
BRANCH   1  16
HETATM   16  O2  UNL     1     -25.373  31.904   5.708  1.00  0.00    -0.347 OA
BRANCH  16  17
HETATM   17  C3  UNL     1     -26.543  32.419   6.220  1.00  0.00     0.212 C 
BRANCH  17  18
HETATM   18  C2  UNL     1     -27.068  31.734   7.447  1.00  0.00     0.178 C 
BRANCH  18  19
HETATM   19  O1  UNL     1     -28.428  31.726   7.545  1.00  0.00    -0.384 OA
HETATM   20  C1  UNL     1     -29.118  31.660   6.357  1.00  0.00     0.202 C 
ENDBRANCH  18  19
BRANCH  18  21
HETATM   21  C17 UNL     1     -26.377  32.144   8.696  1.00  0.00    -0.024 A 
HETATM   22  C18 UNL     1     -26.250  31.311   9.795  1.00  0.00     0.016 A 
HETATM   23  C19 UNL     1     -25.608  31.701  10.948  1.00  0.00    -0.059 A 
HETATM   24  C20 UNL     1     -25.499  30.776  12.090  1.00  0.00     0.048 C 
HETATM   25  C21 UNL     1     -25.056  32.955  11.062  1.00  0.00     0.049 A 
HETATM   26  C22 UNL     1     -25.167  33.805   9.983  1.00  0.00     0.117 A 
HETATM   27  F1  UNL     1     -24.614  35.041  10.115  1.00  0.00    -0.206 F 
HETATM   28  C23 UNL     1     -25.810  33.395   8.848  1.00  0.00     0.052 A 
ENDBRANCH  18  21
ENDBRANCH  17  18
ENDBRANCH  16  17
ENDBRANCH   1  16
BRANCH   4  29
HETATM   29  O3  UNL     1     -22.475  34.868   3.474  1.00  0.00    -0.359 OA
ATOM     30  H3  UNL     1     -21.573  34.618   3.640  1.00  0.00     0.217 HD
ENDBRANCH   4  29
BRANCH   8  31
HETATM   31  O4  UNL     1     -23.078  33.790  -1.375  1.00  0.00    -0.358 OA
ATOM     32  H4  UNL     1     -22.434  34.482  -1.282  1.00  0.00     0.217 HD
ENDBRANCH   8  31
TORSDOF 7
ENDMDL
