MODEL 1
REMARK VINA RESULT: -5.509067729      0.000      0.000
REMARK  10 active torsions:
REMARK  status: ('A' for Active; 'I' for Inactive)
REMARK    1  A    between atoms: N1_1  and  C1_5 
REMARK    2  A    between atoms: C1_5  and  N2_6 
REMARK    3  A    between atoms: C1_5  and  C2_10 
REMARK    4  A    between atoms: C2_10  and  C3_11 
REMARK    5  A    between atoms: C3_11  and  N3_12 
REMARK    6  A    between atoms: N3_12  and  C4_15 
REMARK    7  A    between atoms: C4_15  and  C5_16 
REMARK    8  A    between atoms: C4_15  and  C11_24 
REMARK    9  A    between atoms: C5_16  and  C6_17 
REMARK   10  A    between atoms: C6_17  and  C7_19 
ROOT
HETATM    1  N3  UNL     1     -19.999  -7.928 -13.870  1.00  0.00    -0.061 N 
ATOM      2  H31 UNL     1     -19.737  -8.827 -13.466  1.00  0.00     0.278 HD
ATOM      3  H32 UNL     1     -20.959  -8.138 -14.142  1.00  0.00     0.278 HD
ENDROOT
BRANCH   1   4
HETATM    4  C3  UNL     1     -19.204  -7.638 -15.010  1.00  0.00     0.237 C 
BRANCH   4   5
HETATM    5  C2  UNL     1     -17.938  -6.907 -14.697  1.00  0.00     0.089 C 
BRANCH   5   6
HETATM    6  C1  UNL     1     -16.790  -7.898 -14.916  1.00  0.00     0.379 C 
BRANCH   6   7
HETATM    7  N1  UNL     1     -17.235  -9.022 -15.711  1.00  0.00    -0.050 N 
ATOM      8  H13 UNL     1     -16.492  -9.370 -16.317  1.00  0.00     0.276 HD
ATOM      9  H12 UNL     1     -17.372  -9.856 -15.139  1.00  0.00     0.276 HD
ATOM     10  H11 UNL     1     -18.074  -8.788 -16.241  1.00  0.00     0.276 HD
ENDBRANCH   6   7
BRANCH   6  11
HETATM   11  N2  UNL     1     -16.305  -8.336 -13.615  1.00  0.00    -0.050 N 
ATOM     12  H23 UNL     1     -17.071  -8.621 -13.004  1.00  0.00     0.276 HD
ATOM     13  H22 UNL     1     -15.816  -9.228 -13.677  1.00  0.00     0.276 HD
ATOM     14  H21 UNL     1     -15.725  -7.618 -13.179  1.00  0.00     0.276 HD
ENDBRANCH   6  11
ENDBRANCH   5   6
ENDBRANCH   4   5
ENDBRANCH   1   4
BRANCH   1  15
HETATM   15  C4  UNL     1     -19.966  -6.862 -12.841  1.00  0.00     0.293 C 
BRANCH  15  16
HETATM   16  C5  UNL     1     -21.344  -6.263 -12.842  1.00  0.00     0.128 C 
BRANCH  16  17
HETATM   17  C6  UNL     1     -21.449  -4.851 -13.226  1.00  0.00     0.168 C 
HETATM   18  O1  UNL     1     -22.144  -4.024 -12.611  1.00  0.00    -0.292 OA
BRANCH  17  19
HETATM   19  C7  UNL     1     -20.689  -4.365 -14.416  1.00  0.00     0.050 A 
HETATM   20  C8  UNL     1     -21.009  -4.564 -15.731  1.00  0.00     0.023 A 
HETATM   21  C9  UNL     1     -20.182  -4.043 -16.649  1.00  0.00     0.009 A 
HETATM   22  C10 UNL     1     -19.089  -3.358 -16.189  1.00  0.00     0.050 A 
HETATM   23  S1  UNL     1     -19.252  -3.463 -14.496  1.00  0.00    -0.098 SA
ENDBRANCH  17  19
ENDBRANCH  16  17
ENDBRANCH  15  16
BRANCH  15  24
HETATM   24  C11 UNL     1     -19.691  -7.488 -11.536  1.00  0.00     0.205 C 
HETATM   25  O2  UNL     1     -20.195  -8.609 -11.282  1.00  0.00    -0.646 OA
HETATM   26  O3  UNL     1     -18.913  -6.905 -10.593  1.00  0.00    -0.646 OA
ENDBRANCH  15  24
ENDBRANCH   1  15
TORSDOF 10
ENDMDL
MODEL 2
REMARK VINA RESULT: -5.403498455      2.903      4.459
REMARK  10 active torsions:
REMARK  status: ('A' for Active; 'I' for Inactive)
REMARK    1  A    between atoms: N1_1  and  C1_5 
REMARK    2  A    between atoms: C1_5  and  N2_6 
REMARK    3  A    between atoms: C1_5  and  C2_10 
REMARK    4  A    between atoms: C2_10  and  C3_11 
REMARK    5  A    between atoms: C3_11  and  N3_12 
REMARK    6  A    between atoms: N3_12  and  C4_15 
REMARK    7  A    between atoms: C4_15  and  C5_16 
REMARK    8  A    between atoms: C4_15  and  C11_24 
REMARK    9  A    between atoms: C5_16  and  C6_17 
REMARK   10  A    between atoms: C6_17  and  C7_19 
ROOT
HETATM    1  N3  UNL     1     -19.412  -5.720 -14.759  1.00  0.00    -0.061 N 
ATOM      2  H31 UNL     1     -18.590  -6.307 -14.617  1.00  0.00     0.278 HD
ATOM      3  H32 UNL     1     -19.000  -4.989 -15.338  1.00  0.00     0.278 HD
ENDROOT
BRANCH   1   4
HETATM    4  C3  UNL     1     -19.867  -5.186 -13.524  1.00  0.00     0.237 C 
BRANCH   4   5
HETATM    5  C2  UNL     1     -21.347  -4.981 -13.462  1.00  0.00     0.089 C 
BRANCH   5   6
HETATM    6  C1  UNL     1     -21.818  -5.572 -12.129  1.00  0.00     0.379 C 
BRANCH   6   7
HETATM    7  N1  UNL     1     -21.829  -7.017 -12.190  1.00  0.00    -0.050 N 
ATOM      8  H13 UNL     1     -22.146  -7.428 -11.312  1.00  0.00     0.276 HD
ATOM      9  H12 UNL     1     -22.572  -7.362 -12.799  1.00  0.00     0.276 HD
ATOM     10  H11 UNL     1     -20.918  -7.380 -12.467  1.00  0.00     0.276 HD
ENDBRANCH   6   7
BRANCH   6  11
HETATM   11  N2  UNL     1     -23.146  -5.050 -11.836  1.00  0.00    -0.050 N 
ATOM     12  H23 UNL     1     -23.235  -4.072 -12.114  1.00  0.00     0.276 HD
ATOM     13  H22 UNL     1     -23.852  -5.450 -12.454  1.00  0.00     0.276 HD
ATOM     14  H21 UNL     1     -23.386  -5.185 -10.854  1.00  0.00     0.276 HD
ENDBRANCH   6  11
ENDBRANCH   5   6
ENDBRANCH   4   5
ENDBRANCH   1   4
BRANCH   1  15
HETATM   15  C4  UNL     1     -20.459  -6.455 -15.506  1.00  0.00     0.293 C 
BRANCH  15  16
HETATM   16  C5  UNL     1     -20.307  -6.024 -16.937  1.00  0.00     0.128 C 
BRANCH  16  17
HETATM   17  C6  UNL     1     -19.503  -4.822 -17.183  1.00  0.00     0.168 C 
HETATM   18  O1  UNL     1     -18.261  -4.832 -17.253  1.00  0.00    -0.292 OA
BRANCH  17  19
HETATM   19  C7  UNL     1     -20.193  -3.510 -17.358  1.00  0.00     0.050 A 
HETATM   20  C8  UNL     1     -20.819  -3.056 -18.486  1.00  0.00     0.023 A 
HETATM   21  C9  UNL     1     -21.376  -1.837 -18.431  1.00  0.00     0.009 A 
HETATM   22  C10 UNL     1     -21.268  -1.154 -17.249  1.00  0.00     0.050 A 
HETATM   23  S1  UNL     1     -20.398  -2.232 -16.257  1.00  0.00    -0.098 SA
ENDBRANCH  17  19
ENDBRANCH  16  17
ENDBRANCH  15  16
BRANCH  15  24
HETATM   24  C11 UNL     1     -20.186  -7.898 -15.385  1.00  0.00     0.205 C 
HETATM   25  O2  UNL     1     -19.279  -8.406 -16.087  1.00  0.00    -0.646 OA
HETATM   26  O3  UNL     1     -20.874  -8.706 -14.542  1.00  0.00    -0.646 OA
ENDBRANCH  15  24
ENDBRANCH   1  15
TORSDOF 10
ENDMDL
MODEL 3
REMARK VINA RESULT: -5.385347995      2.264      3.133
REMARK  10 active torsions:
REMARK  status: ('A' for Active; 'I' for Inactive)
REMARK    1  A    between atoms: N1_1  and  C1_5 
REMARK    2  A    between atoms: C1_5  and  N2_6 
REMARK    3  A    between atoms: C1_5  and  C2_10 
REMARK    4  A    between atoms: C2_10  and  C3_11 
REMARK    5  A    between atoms: C3_11  and  N3_12 
REMARK    6  A    between atoms: N3_12  and  C4_15 
REMARK    7  A    between atoms: C4_15  and  C5_16 
REMARK    8  A    between atoms: C4_15  and  C11_24 
REMARK    9  A    between atoms: C5_16  and  C6_17 
REMARK   10  A    between atoms: C6_17  and  C7_19 
ROOT
HETATM    1  N3  UNL     1     -19.958  -6.414 -14.015  1.00  0.00    -0.061 N 
ATOM      2  H31 UNL     1     -20.533  -7.245 -14.156  1.00  0.00     0.278 HD
ATOM      3  H32 UNL     1     -19.909  -6.077 -14.976  1.00  0.00     0.278 HD
ENDROOT
BRANCH   1   4
HETATM    4  C3  UNL     1     -18.668  -6.771 -13.541  1.00  0.00     0.237 C 
BRANCH   4   5
HETATM    5  C2  UNL     1     -18.309  -6.146 -12.231  1.00  0.00     0.089 C 
BRANCH   5   6
HETATM    6  C1  UNL     1     -18.011  -7.294 -11.261  1.00  0.00     0.379 C 
BRANCH   6   7
HETATM    7  N1  UNL     1     -19.117  -8.225 -11.222  1.00  0.00    -0.050 N 
ATOM      8  H13 UNL     1     -19.615  -8.181 -10.333  1.00  0.00     0.276 HD
ATOM      9  H12 UNL     1     -19.876  -7.934 -11.838  1.00  0.00     0.276 HD
ATOM     10  H11 UNL     1     -18.806  -9.174 -11.431  1.00  0.00     0.276 HD
ENDBRANCH   6   7
BRANCH   6  11
HETATM   11  N2  UNL     1     -17.754  -6.730  -9.943  1.00  0.00    -0.050 N 
ATOM     12  H23 UNL     1     -17.390  -5.779 -10.006  1.00  0.00     0.276 HD
ATOM     13  H22 UNL     1     -18.621  -6.532  -9.444  1.00  0.00     0.276 HD
ATOM     14  H21 UNL     1     -17.136  -7.334  -9.400  1.00  0.00     0.276 HD
ENDBRANCH   6  11
ENDBRANCH   5   6
ENDBRANCH   4   5
ENDBRANCH   1   4
BRANCH   1  15
HETATM   15  C4  UNL     1     -20.654  -5.435 -13.149  1.00  0.00     0.293 C 
BRANCH  15  16
HETATM   16  C5  UNL     1     -21.139  -4.355 -14.076  1.00  0.00     0.128 C 
BRANCH  16  17
HETATM   17  C6  UNL     1     -20.121  -3.670 -14.880  1.00  0.00     0.168 C 
HETATM   18  O1  UNL     1     -18.985  -3.394 -14.457  1.00  0.00    -0.292 OA
BRANCH  17  19
HETATM   19  C7  UNL     1     -20.449  -3.277 -16.282  1.00  0.00     0.050 A 
HETATM   20  C8  UNL     1     -20.816  -2.035 -16.723  1.00  0.00     0.023 A 
HETATM   21  C9  UNL     1     -21.074  -1.900 -18.032  1.00  0.00     0.009 A 
HETATM   22  C10 UNL     1     -20.948  -3.017 -18.813  1.00  0.00     0.050 A 
HETATM   23  S1  UNL     1     -20.474  -4.216 -17.699  1.00  0.00    -0.098 SA
ENDBRANCH  17  19
ENDBRANCH  16  17
ENDBRANCH  15  16
BRANCH  15  24
HETATM   24  C11 UNL     1     -21.804  -6.109 -12.521  1.00  0.00     0.205 C 
HETATM   25  O2  UNL     1     -22.775  -5.417 -12.130  1.00  0.00    -0.646 OA
HETATM   26  O3  UNL     1     -21.861  -7.452 -12.348  1.00  0.00    -0.646 OA
ENDBRANCH  15  24
ENDBRANCH   1  15
TORSDOF 10
ENDMDL
MODEL 4
REMARK VINA RESULT: -5.304514444      2.626      3.816
REMARK  10 active torsions:
REMARK  status: ('A' for Active; 'I' for Inactive)
REMARK    1  A    between atoms: N1_1  and  C1_5 
REMARK    2  A    between atoms: C1_5  and  N2_6 
REMARK    3  A    between atoms: C1_5  and  C2_10 
REMARK    4  A    between atoms: C2_10  and  C3_11 
REMARK    5  A    between atoms: C3_11  and  N3_12 
REMARK    6  A    between atoms: N3_12  and  C4_15 
REMARK    7  A    between atoms: C4_15  and  C5_16 
REMARK    8  A    between atoms: C4_15  and  C11_24 
REMARK    9  A    between atoms: C5_16  and  C6_17 
REMARK   10  A    between atoms: C6_17  and  C7_19 
ROOT
HETATM    1  N3  UNL     1     -21.156  -6.860 -13.120  1.00  0.00    -0.061 N 
ATOM      2  H31 UNL     1     -22.160  -7.038 -13.090  1.00  0.00     0.278 HD
ATOM      3  H32 UNL     1     -20.954  -7.192 -14.063  1.00  0.00     0.278 HD
ENDROOT
BRANCH   1   4
HETATM    4  C3  UNL     1     -20.476  -7.648 -12.155  1.00  0.00     0.237 C 
BRANCH   4   5
HETATM    5  C2  UNL     1     -19.778  -6.847 -11.102  1.00  0.00     0.089 C 
BRANCH   5   6
HETATM    6  C1  UNL     1     -18.389  -7.469 -10.924  1.00  0.00     0.379 C 
BRANCH   6   7
HETATM    7  N1  UNL     1     -17.620  -6.723  -9.951  1.00  0.00    -0.050 N 
ATOM      8  H13 UNL     1     -16.937  -7.315  -9.479  1.00  0.00     0.276 HD
ATOM      9  H12 UNL     1     -16.977  -6.072 -10.400  1.00  0.00     0.276 HD
ATOM     10  H11 UNL     1     -18.231  -6.249  -9.286  1.00  0.00     0.276 HD
ENDBRANCH   6   7
BRANCH   6  11
HETATM   11  N2  UNL     1     -17.721  -7.486 -12.218  1.00  0.00    -0.050 N 
ATOM     12  H23 UNL     1     -17.913  -6.638 -12.751  1.00  0.00     0.276 HD
ATOM     13  H22 UNL     1     -16.711  -7.383 -12.121  1.00  0.00     0.276 HD
ATOM     14  H21 UNL     1     -17.965  -8.324 -12.745  1.00  0.00     0.276 HD
ENDBRANCH   6  11
ENDBRANCH   5   6
ENDBRANCH   4   5
ENDBRANCH   1   4
BRANCH   1  15
HETATM   15  C4  UNL     1     -20.877  -5.411 -13.003  1.00  0.00     0.293 C 
BRANCH  15  16
HETATM   16  C5  UNL     1     -20.601  -4.941 -14.403  1.00  0.00     0.128 C 
BRANCH  16  17
HETATM   17  C6  UNL     1     -19.616  -5.706 -15.174  1.00  0.00     0.168 C 
HETATM   18  O1  UNL     1     -18.517  -6.065 -14.716  1.00  0.00    -0.292 OA
BRANCH  17  19
HETATM   19  C7  UNL     1     -19.931  -6.082 -16.584  1.00  0.00     0.050 A 
HETATM   20  C8  UNL     1     -21.000  -5.660 -17.327  1.00  0.00     0.023 A 
HETATM   21  C9  UNL     1     -21.098  -6.127 -18.580  1.00  0.00     0.009 A 
HETATM   22  C10 UNL     1     -20.121  -6.986 -19.006  1.00  0.00     0.050 A 
HETATM   23  S1  UNL     1     -19.099  -7.112 -17.648  1.00  0.00    -0.098 SA
ENDBRANCH  17  19
ENDBRANCH  16  17
ENDBRANCH  15  16
BRANCH  15  24
HETATM   24  C11 UNL     1     -22.085  -4.748 -12.480  1.00  0.00     0.205 C 
HETATM   25  O2  UNL     1     -22.026  -4.162 -11.373  1.00  0.00    -0.646 OA
HETATM   26  O3  UNL     1     -23.264  -4.743 -13.148  1.00  0.00    -0.646 OA
ENDBRANCH  15  24
ENDBRANCH   1  15
TORSDOF 10
ENDMDL
MODEL 5
REMARK VINA RESULT: -5.244716444      3.013      4.547
REMARK  10 active torsions:
REMARK  status: ('A' for Active; 'I' for Inactive)
REMARK    1  A    between atoms: N1_1  and  C1_5 
REMARK    2  A    between atoms: C1_5  and  N2_6 
REMARK    3  A    between atoms: C1_5  and  C2_10 
REMARK    4  A    between atoms: C2_10  and  C3_11 
REMARK    5  A    between atoms: C3_11  and  N3_12 
REMARK    6  A    between atoms: N3_12  and  C4_15 
REMARK    7  A    between atoms: C4_15  and  C5_16 
REMARK    8  A    between atoms: C4_15  and  C11_24 
REMARK    9  A    between atoms: C5_16  and  C6_17 
REMARK   10  A    between atoms: C6_17  and  C7_19 
ROOT
HETATM    1  N3  UNL     1     -19.143  -6.049 -14.424  1.00  0.00    -0.061 N 
ATOM      2  H31 UNL     1     -18.459  -6.799 -14.318  1.00  0.00     0.278 HD
ATOM      3  H32 UNL     1     -18.539  -5.323 -14.809  1.00  0.00     0.278 HD
ENDROOT
BRANCH   1   4
HETATM    4  C3  UNL     1     -19.659  -5.657 -13.161  1.00  0.00     0.237 C 
BRANCH   4   5
HETATM    5  C2  UNL     1     -21.055  -5.124 -13.216  1.00  0.00     0.089 C 
BRANCH   5   6
HETATM    6  C1  UNL     1     -21.794  -5.697 -12.003  1.00  0.00     0.379 C 
BRANCH   6   7
HETATM    7  N1  UNL     1     -21.888  -7.138 -12.099  1.00  0.00    -0.050 N 
ATOM      8  H13 UNL     1     -22.621  -7.424 -12.748  1.00  0.00     0.276 HD
ATOM      9  H12 UNL     1     -21.085  -7.535 -12.587  1.00  0.00     0.276 HD
ATOM     10  H11 UNL     1     -22.014  -7.560 -11.179  1.00  0.00     0.276 HD
ENDBRANCH   6   7
BRANCH   6  11
HETATM   11  N2  UNL     1     -23.116  -5.090 -11.938  1.00  0.00    -0.050 N 
ATOM     12  H23 UNL     1     -23.632  -5.399 -11.115  1.00  0.00     0.276 HD
ATOM     13  H22 UNL     1     -23.062  -4.094 -11.722  1.00  0.00     0.276 HD
ATOM     14  H21 UNL     1     -23.641  -5.260 -12.796  1.00  0.00     0.276 HD
ENDBRANCH   6  11
ENDBRANCH   5   6
ENDBRANCH   4   5
ENDBRANCH   1   4
BRANCH   1  15
HETATM   15  C4  UNL     1     -20.191  -6.431 -15.398  1.00  0.00     0.293 C 
BRANCH  15  16
HETATM   16  C5  UNL     1     -19.743  -5.861 -16.714  1.00  0.00     0.128 C 
BRANCH  16  17
HETATM   17  C6  UNL     1     -19.620  -4.401 -16.793  1.00  0.00     0.168 C 
HETATM   18  O1  UNL     1     -18.937  -3.728 -16.003  1.00  0.00    -0.292 OA
BRANCH  17  19
HETATM   19  C7  UNL     1     -20.348  -3.671 -17.873  1.00  0.00     0.050 A 
HETATM   20  C8  UNL     1     -20.918  -2.430 -17.784  1.00  0.00     0.023 A 
HETATM   21  C9  UNL     1     -21.532  -1.958 -18.879  1.00  0.00     0.009 A 
HETATM   22  C10 UNL     1     -21.536  -2.760 -19.989  1.00  0.00     0.050 A 
HETATM   23  S1  UNL     1     -20.683  -4.141 -19.471  1.00  0.00    -0.098 SA
ENDBRANCH  17  19
ENDBRANCH  16  17
ENDBRANCH  15  16
BRANCH  15  24
HETATM   24  C11 UNL     1     -20.235  -7.902 -15.477  1.00  0.00     0.205 C 
HETATM   25  O2  UNL     1     -19.678  -8.475 -16.444  1.00  0.00    -0.646 OA
HETATM   26  O3  UNL     1     -20.852  -8.668 -14.545  1.00  0.00    -0.646 OA
ENDBRANCH  15  24
ENDBRANCH   1  15
TORSDOF 10
ENDMDL
