MODEL 1
REMARK VINA RESULT: -4.730500603      0.000      0.000
REMARK  9 active torsions:
REMARK  status: ('A' for Active; 'I' for Inactive)
REMARK    1  A    between atoms: S1_2  and  C2_3 
REMARK    2  A    between atoms: C2_3  and  C3_4 
REMARK    3  A    between atoms: C3_4  and  N1_5 
REMARK    4  A    between atoms: C3_4  and  C4_9 
REMARK       I    between atoms: C4_9  and  N2_11 
REMARK    5  A    between atoms: N2_11  and  C5_13 
REMARK    6  A    between atoms: C5_13  and  C6_14 
REMARK    7  A    between atoms: C5_13  and  C10_22 
REMARK    8  A    between atoms: C6_14  and  C7_15 
REMARK    9  A    between atoms: C10_22  and  O2_24 
ROOT
HETATM    1  C5  UNL     1     -18.638  -6.978 -12.624  1.00  0.00     0.118 C 
ENDROOT
BRANCH   1   2
HETATM    2  N2  UNL     1     -17.692  -7.148 -13.699  1.00  0.00    -0.352 N 
HETATM    3  C4  UNL     1     -17.434  -6.089 -14.657  1.00  0.00     0.249 C 
HETATM    4  O1  UNL     1     -18.091  -5.038 -14.470  1.00  0.00    -0.271 OA
ATOM      5  H2  UNL     1     -17.194  -8.034 -13.788  1.00  0.00     0.163 HD
BRANCH   3   6
HETATM    6  C3  UNL     1     -16.459  -6.298 -15.744  1.00  0.00     0.283 C 
BRANCH   6   7
HETATM    7  C2  UNL     1     -17.016  -6.485 -17.111  1.00  0.00     0.116 C 
BRANCH   7   8
HETATM    8  S1  UNL     1     -18.293  -7.694 -17.261  1.00  0.00    -0.171 SA
HETATM    9  C1  UNL     1     -19.969  -7.159 -17.007  1.00  0.00     0.089 C 
ENDBRANCH   7   8
ENDBRANCH   6   7
BRANCH   6  10
HETATM   10  N1  UNL     1     -15.670  -7.520 -15.467  1.00  0.00    -0.066 N 
ATOM     11  H13 UNL     1     -15.847  -8.279 -16.124  1.00  0.00     0.275 HD
ATOM     12  H12 UNL     1     -14.675  -7.418 -15.667  1.00  0.00     0.275 HD
ATOM     13  H11 UNL     1     -15.871  -7.761 -14.496  1.00  0.00     0.275 HD
ENDBRANCH   6  10
ENDBRANCH   3   6
ENDBRANCH   1   2
BRANCH   1  14
HETATM   14  C6  UNL     1     -20.041  -7.268 -12.985  1.00  0.00     0.086 C 
BRANCH  14  15
HETATM   15  C7  UNL     1     -21.014  -6.189 -12.784  1.00  0.00     0.027 A 
HETATM   16  C8  UNL     1     -21.995  -6.245 -11.820  1.00  0.00     0.114 A 
HETATM   17  N3  UNL     1     -22.708  -5.141 -11.884  1.00  0.00    -0.360 N 
HETATM   18  C9  UNL     1     -22.203  -4.385 -12.867  1.00  0.00     0.180 A 
ATOM     19  H3  UNL     1     -23.504  -4.904 -11.291  1.00  0.00     0.166 HD
HETATM   20  N4  UNL     1     -21.168  -5.025 -13.417  1.00  0.00    -0.355 N 
ATOM     21  H4  UNL     1     -20.594  -4.683 -14.187  1.00  0.00     0.166 HD
ENDBRANCH  14  15
ENDBRANCH   1  14
BRANCH   1  22
HETATM   22  C10 UNL     1     -18.153  -7.725 -11.396  1.00  0.00     0.137 C 
HETATM   23  C11 UNL     1     -17.905  -6.675 -10.328  1.00  0.00     0.041 C 
BRANCH  22  24
HETATM   24  O2  UNL     1     -19.201  -8.522 -10.929  1.00  0.00    -0.394 OA
ATOM     25  H2  UNL     1     -18.988  -8.805 -10.048  1.00  0.00     0.210 HD
ENDBRANCH  22  24
ENDBRANCH   1  22
TORSDOF 9
ENDMDL
MODEL 2
REMARK VINA RESULT: -4.672613401      1.380      1.571
REMARK  9 active torsions:
REMARK  status: ('A' for Active; 'I' for Inactive)
REMARK    1  A    between atoms: S1_2  and  C2_3 
REMARK    2  A    between atoms: C2_3  and  C3_4 
REMARK    3  A    between atoms: C3_4  and  N1_5 
REMARK    4  A    between atoms: C3_4  and  C4_9 
REMARK       I    between atoms: C4_9  and  N2_11 
REMARK    5  A    between atoms: N2_11  and  C5_13 
REMARK    6  A    between atoms: C5_13  and  C6_14 
REMARK    7  A    between atoms: C5_13  and  C10_22 
REMARK    8  A    between atoms: C6_14  and  C7_15 
REMARK    9  A    between atoms: C10_22  and  O2_24 
ROOT
HETATM    1  C5  UNL     1     -18.596  -6.928 -12.646  1.00  0.00     0.118 C 
ENDROOT
BRANCH   1   2
HETATM    2  N2  UNL     1     -17.626  -7.048 -13.706  1.00  0.00    -0.352 N 
HETATM    3  C4  UNL     1     -17.376  -5.959 -14.631  1.00  0.00     0.249 C 
HETATM    4  O1  UNL     1     -18.062  -4.929 -14.432  1.00  0.00    -0.271 OA
ATOM      5  H2  UNL     1     -17.103  -7.918 -13.807  1.00  0.00     0.163 HD
BRANCH   3   6
HETATM    6  C3  UNL     1     -16.375  -6.116 -15.704  1.00  0.00     0.283 C 
BRANCH   6   7
HETATM    7  C2  UNL     1     -15.259  -7.064 -15.440  1.00  0.00     0.116 C 
BRANCH   7   8
HETATM    8  S1  UNL     1     -15.256  -8.536 -16.415  1.00  0.00    -0.171 SA
HETATM    9  C1  UNL     1     -16.487  -9.765 -16.056  1.00  0.00     0.089 C 
ENDBRANCH   7   8
ENDBRANCH   6   7
BRANCH   6  10
HETATM   10  N1  UNL     1     -15.731  -4.810 -15.969  1.00  0.00    -0.066 N 
ATOM     11  H13 UNL     1     -16.273  -4.204 -16.585  1.00  0.00     0.275 HD
ATOM     12  H12 UNL     1     -15.725  -4.186 -15.162  1.00  0.00     0.275 HD
ATOM     13  H11 UNL     1     -14.801  -5.030 -16.325  1.00  0.00     0.275 HD
ENDBRANCH   6  10
ENDBRANCH   3   6
ENDBRANCH   1   2
BRANCH   1  14
HETATM   14  C6  UNL     1     -19.987  -7.228 -13.046  1.00  0.00     0.086 C 
BRANCH  14  15
HETATM   15  C7  UNL     1     -20.983  -6.176 -12.815  1.00  0.00     0.027 A 
HETATM   16  C8  UNL     1     -22.009  -6.315 -11.908  1.00  0.00     0.114 A 
HETATM   17  N3  UNL     1     -22.735  -5.217 -11.925  1.00  0.00    -0.360 N 
HETATM   18  C9  UNL     1     -22.193  -4.384 -12.823  1.00  0.00     0.180 A 
ATOM     19  H3  UNL     1     -23.562  -5.033 -11.356  1.00  0.00     0.166 HD
HETATM   20  N4  UNL     1     -21.123  -4.970 -13.367  1.00  0.00    -0.355 N 
ATOM     21  H4  UNL     1     -20.517  -4.565 -14.080  1.00  0.00     0.166 HD
ENDBRANCH  14  15
ENDBRANCH   1  14
BRANCH   1  22
HETATM   22  C10 UNL     1     -18.125  -7.709 -11.434  1.00  0.00     0.137 C 
HETATM   23  C11 UNL     1     -17.865  -6.688 -10.343  1.00  0.00     0.041 C 
BRANCH  22  24
HETATM   24  O2  UNL     1     -19.185  -8.501 -10.988  1.00  0.00    -0.394 OA
ATOM     25  H2  UNL     1     -18.850  -9.106 -10.337  1.00  0.00     0.210 HD
ENDBRANCH  22  24
ENDBRANCH   1  22
TORSDOF 9
ENDMDL
MODEL 3
REMARK VINA RESULT: -4.633659939      2.568      5.886
REMARK  9 active torsions:
REMARK  status: ('A' for Active; 'I' for Inactive)
REMARK    1  A    between atoms: S1_2  and  C2_3 
REMARK    2  A    between atoms: C2_3  and  C3_4 
REMARK    3  A    between atoms: C3_4  and  N1_5 
REMARK    4  A    between atoms: C3_4  and  C4_9 
REMARK       I    between atoms: C4_9  and  N2_11 
REMARK    5  A    between atoms: N2_11  and  C5_13 
REMARK    6  A    between atoms: C5_13  and  C6_14 
REMARK    7  A    between atoms: C5_13  and  C10_22 
REMARK    8  A    between atoms: C6_14  and  C7_15 
REMARK    9  A    between atoms: C10_22  and  O2_24 
ROOT
HETATM    1  C5  UNL     1     -20.102  -4.435 -15.662  1.00  0.00     0.118 C 
ENDROOT
BRANCH   1   2
HETATM    2  N2  UNL     1     -21.000  -4.875 -14.624  1.00  0.00    -0.352 N 
HETATM    3  C4  UNL     1     -20.661  -4.741 -13.220  1.00  0.00     0.249 C 
HETATM    4  O1  UNL     1     -19.543  -4.219 -12.996  1.00  0.00    -0.271 OA
ATOM      5  H2  UNL     1     -21.895  -5.291 -14.883  1.00  0.00     0.163 HD
BRANCH   3   6
HETATM    6  C3  UNL     1     -21.605  -5.202 -12.184  1.00  0.00     0.283 C 
BRANCH   6   7
HETATM    7  C2  UNL     1     -21.649  -6.667 -11.930  1.00  0.00     0.116 C 
BRANCH   7   8
HETATM    8  S1  UNL     1     -20.135  -7.537 -12.186  1.00  0.00    -0.171 SA
HETATM    9  C1  UNL     1     -18.794  -7.204 -11.070  1.00  0.00     0.089 C 
ENDBRANCH   7   8
ENDBRANCH   6   7
BRANCH   6  10
HETATM   10  N1  UNL     1     -22.982  -4.824 -12.572  1.00  0.00    -0.066 N 
ATOM     11  H13 UNL     1     -23.058  -4.484 -13.531  1.00  0.00     0.275 HD
ATOM     12  H12 UNL     1     -23.611  -5.621 -12.677  1.00  0.00     0.275 HD
ATOM     13  H11 UNL     1     -23.288  -4.148 -11.872  1.00  0.00     0.275 HD
ENDBRANCH   6  10
ENDBRANCH   3   6
ENDBRANCH   1   2
BRANCH   1  14
HETATM   14  C6  UNL     1     -19.477  -5.524 -16.441  1.00  0.00     0.086 C 
BRANCH  14  15
HETATM   15  C7  UNL     1     -18.561  -6.414 -15.719  1.00  0.00     0.027 A 
HETATM   16  C8  UNL     1     -18.527  -7.773 -15.933  1.00  0.00     0.114 A 
HETATM   17  N3  UNL     1     -17.613  -8.298 -15.144  1.00  0.00    -0.360 N 
HETATM   18  C9  UNL     1     -17.066  -7.303 -14.434  1.00  0.00     0.180 A 
ATOM     19  H3  UNL     1     -17.366  -9.286 -15.085  1.00  0.00     0.166 HD
HETATM   20  N4  UNL     1     -17.646  -6.152 -14.785  1.00  0.00    -0.355 N 
ATOM     21  H4  UNL     1     -17.426  -5.231 -14.405  1.00  0.00     0.166 HD
ENDBRANCH  14  15
ENDBRANCH   1  14
BRANCH   1  22
HETATM   22  C10 UNL     1     -20.787  -3.385 -16.517  1.00  0.00     0.137 C 
HETATM   23  C11 UNL     1     -20.386  -2.039 -15.943  1.00  0.00     0.041 C 
BRANCH  22  24
HETATM   24  O2  UNL     1     -20.241  -3.446 -17.801  1.00  0.00    -0.394 OA
ATOM     25  H2  UNL     1     -20.646  -2.767 -18.327  1.00  0.00     0.210 HD
ENDBRANCH  22  24
ENDBRANCH   1  22
TORSDOF 9
ENDMDL
MODEL 4
REMARK VINA RESULT: -4.590615455      2.474      5.773
REMARK  9 active torsions:
REMARK  status: ('A' for Active; 'I' for Inactive)
REMARK    1  A    between atoms: S1_2  and  C2_3 
REMARK    2  A    between atoms: C2_3  and  C3_4 
REMARK    3  A    between atoms: C3_4  and  N1_5 
REMARK    4  A    between atoms: C3_4  and  C4_9 
REMARK       I    between atoms: C4_9  and  N2_11 
REMARK    5  A    between atoms: N2_11  and  C5_13 
REMARK    6  A    between atoms: C5_13  and  C6_14 
REMARK    7  A    between atoms: C5_13  and  C10_22 
REMARK    8  A    between atoms: C6_14  and  C7_15 
REMARK    9  A    between atoms: C10_22  and  O2_24 
ROOT
HETATM    1  C5  UNL     1     -18.055  -6.286 -15.139  1.00  0.00     0.118 C 
ENDROOT
BRANCH   1   2
HETATM    2  N2  UNL     1     -18.446  -7.081 -14.002  1.00  0.00    -0.352 N 
HETATM    3  C4  UNL     1     -18.655  -6.487 -12.696  1.00  0.00     0.249 C 
HETATM    4  O1  UNL     1     -18.469  -5.248 -12.644  1.00  0.00    -0.271 OA
ATOM      5  H2  UNL     1     -18.580  -8.086 -14.119  1.00  0.00     0.163 HD
BRANCH   3   6
HETATM    6  C3  UNL     1     -19.055  -7.332 -11.554  1.00  0.00     0.283 C 
BRANCH   6   7
HETATM    7  C2  UNL     1     -20.468  -7.217 -11.105  1.00  0.00     0.116 C 
BRANCH   7   8
HETATM    8  S1  UNL     1     -21.635  -6.760 -12.349  1.00  0.00    -0.171 SA
HETATM    9  C1  UNL     1     -22.255  -5.095 -12.325  1.00  0.00     0.089 C 
ENDBRANCH   7   8
ENDBRANCH   6   7
BRANCH   6  10
HETATM   10  N1  UNL     1     -18.233  -6.982 -10.373  1.00  0.00    -0.066 N 
ATOM     11  H13 UNL     1     -17.261  -6.773 -10.599  1.00  0.00     0.275 HD
ATOM     12  H12 UNL     1     -18.461  -6.073  -9.971  1.00  0.00     0.275 HD
ATOM     13  H11 UNL     1     -18.345  -7.759  -9.722  1.00  0.00     0.275 HD
ENDBRANCH   6  10
ENDBRANCH   3   6
ENDBRANCH   1   2
BRANCH   1  14
HETATM   14  C6  UNL     1     -16.855  -6.773 -15.849  1.00  0.00     0.086 C 
BRANCH  14  15
HETATM   15  C7  UNL     1     -16.298  -8.055 -15.407  1.00  0.00     0.027 A 
HETATM   16  C8  UNL     1     -16.684  -9.258 -15.952  1.00  0.00     0.114 A 
HETATM   17  N3  UNL     1     -16.016 -10.223 -15.354  1.00  0.00    -0.360 N 
HETATM   18  C9  UNL     1     -15.215  -9.659 -14.441  1.00  0.00     0.180 A 
ATOM     19  H3  UNL     1     -16.095 -11.221 -15.552  1.00  0.00     0.166 HD
HETATM   20  N4  UNL     1     -15.387  -8.335 -14.474  1.00  0.00    -0.355 N 
ATOM     21  H4  UNL     1     -14.904  -7.655 -13.886  1.00  0.00     0.166 HD
ENDBRANCH  14  15
ENDBRANCH   1  14
BRANCH   1  22
HETATM   22  C10 UNL     1     -19.254  -6.063 -16.041  1.00  0.00     0.137 C 
HETATM   23  C11 UNL     1     -20.023  -7.371 -16.061  1.00  0.00     0.041 C 
BRANCH  22  24
HETATM   24  O2  UNL     1     -20.089  -5.124 -15.432  1.00  0.00    -0.394 OA
ATOM     25  H2  UNL     1     -20.499  -4.606 -16.114  1.00  0.00     0.210 HD
ENDBRANCH  22  24
ENDBRANCH   1  22
TORSDOF 9
ENDMDL
MODEL 5
REMARK VINA RESULT: -4.579800941      0.867      1.016
REMARK  9 active torsions:
REMARK  status: ('A' for Active; 'I' for Inactive)
REMARK    1  A    between atoms: S1_2  and  C2_3 
REMARK    2  A    between atoms: C2_3  and  C3_4 
REMARK    3  A    between atoms: C3_4  and  N1_5 
REMARK    4  A    between atoms: C3_4  and  C4_9 
REMARK       I    between atoms: C4_9  and  N2_11 
REMARK    5  A    between atoms: N2_11  and  C5_13 
REMARK    6  A    between atoms: C5_13  and  C6_14 
REMARK    7  A    between atoms: C5_13  and  C10_22 
REMARK    8  A    between atoms: C6_14  and  C7_15 
REMARK    9  A    between atoms: C10_22  and  O2_24 
ROOT
HETATM    1  C5  UNL     1     -18.649  -6.968 -12.664  1.00  0.00     0.118 C 
ENDROOT
BRANCH   1   2
HETATM    2  N2  UNL     1     -17.696  -7.124 -13.736  1.00  0.00    -0.352 N 
HETATM    3  C4  UNL     1     -17.429  -6.051 -14.675  1.00  0.00     0.249 C 
HETATM    4  O1  UNL     1     -18.085  -5.001 -14.477  1.00  0.00    -0.271 OA
ATOM      5  H2  UNL     1     -17.199  -8.009 -13.835  1.00  0.00     0.163 HD
BRANCH   3   6
HETATM    6  C3  UNL     1     -16.447  -6.246 -15.759  1.00  0.00     0.283 C 
BRANCH   6   7
HETATM    7  C2  UNL     1     -16.939  -6.925 -16.988  1.00  0.00     0.116 C 
BRANCH   7   8
HETATM    8  S1  UNL     1     -17.991  -5.964 -18.029  1.00  0.00    -0.171 SA
HETATM    9  C1  UNL     1     -17.825  -4.196 -17.961  1.00  0.00     0.089 C 
ENDBRANCH   7   8
ENDBRANCH   6   7
BRANCH   6  10
HETATM   10  N1  UNL     1     -15.329  -7.079 -15.264  1.00  0.00    -0.066 N 
ATOM     11  H13 UNL     1     -15.223  -7.062 -14.250  1.00  0.00     0.275 HD
ATOM     12  H12 UNL     1     -15.497  -8.082 -15.350  1.00  0.00     0.275 HD
ATOM     13  H11 UNL     1     -14.503  -6.756 -15.768  1.00  0.00     0.275 HD
ENDBRANCH   6  10
ENDBRANCH   3   6
ENDBRANCH   1   2
BRANCH   1  14
HETATM   14  C6  UNL     1     -20.051  -7.241 -13.041  1.00  0.00     0.086 C 
BRANCH  14  15
HETATM   15  C7  UNL     1     -21.021  -6.165 -12.809  1.00  0.00     0.027 A 
HETATM   16  C8  UNL     1     -21.943  -6.206 -11.789  1.00  0.00     0.114 A 
HETATM   17  N3  UNL     1     -22.670  -5.109 -11.836  1.00  0.00    -0.360 N 
HETATM   18  C9  UNL     1     -22.229  -4.372 -12.864  1.00  0.00     0.180 A 
ATOM     19  H3  UNL     1     -23.431  -4.865 -11.203  1.00  0.00     0.166 HD
HETATM   20  N4  UNL     1     -21.222  -5.017 -13.458  1.00  0.00    -0.355 N 
ATOM     21  H4  UNL     1     -20.697  -4.688 -14.269  1.00  0.00     0.166 HD
ENDBRANCH  14  15
ENDBRANCH   1  14
BRANCH   1  22
HETATM   22  C10 UNL     1     -18.179  -7.743 -11.448  1.00  0.00     0.137 C 
HETATM   23  C11 UNL     1     -17.878  -6.714 -10.375  1.00  0.00     0.041 C 
BRANCH  22  24
HETATM   24  O2  UNL     1     -19.251  -8.504 -10.976  1.00  0.00    -0.394 OA
ATOM     25  H2  UNL     1     -18.915  -9.129 -10.344  1.00  0.00     0.210 HD
ENDBRANCH  22  24
ENDBRANCH   1  22
TORSDOF 9
ENDMDL
