MODEL 1
REMARK VINA RESULT: -5.480966514      0.000      0.000
REMARK  9 active torsions:
REMARK  status: ('A' for Active; 'I' for Inactive)
REMARK    1  A    between atoms: N1_1  and  C1_5 
REMARK    2  A    between atoms: C1_5  and  C2_6 
REMARK    3  A    between atoms: C1_5  and  C12_26 
REMARK    4  A    between atoms: C2_6  and  C3_7 
REMARK    5  A    between atoms: C3_7  and  C4_8 
REMARK    6  A    between atoms: C4_8  and  N2_9 
REMARK    7  A    between atoms: C4_8  and  C9_20 
REMARK    8  A    between atoms: N2_9  and  C5_12 
REMARK    9  A    between atoms: C5_12  and  C6_13 
ROOT
HETATM    1  C4  UNL     1     -57.600  -1.726   2.070  1.00  0.00     0.244 C 
ENDROOT
BRANCH   1   2
HETATM    2  C3  UNL     1     -56.542  -2.685   2.537  1.00  0.00     0.042 C 
BRANCH   2   3
HETATM    3  C2  UNL     1     -56.440  -2.658   4.051  1.00  0.00     0.046 C 
BRANCH   3   4
HETATM    4  C1  UNL     1     -56.529  -4.060   4.613  1.00  0.00     0.283 C 
BRANCH   4   5
HETATM    5  N1  UNL     1     -56.356  -4.101   6.032  1.00  0.00    -0.065 N 
ATOM      6  H13 UNL     1     -56.304  -3.159   6.421  1.00  0.00     0.275 HD
ATOM      7  H12 UNL     1     -57.206  -4.424   6.495  1.00  0.00     0.275 HD
ATOM      8  H11 UNL     1     -55.551  -4.659   6.317  1.00  0.00     0.275 HD
ENDBRANCH   4   5
BRANCH   4   9
HETATM    9  C12 UNL     1     -57.804  -4.716   4.249  1.00  0.00     0.204 C 
HETATM   10  O2  UNL     1     -58.881  -4.211   4.656  1.00  0.00    -0.646 OA
HETATM   11  O3  UNL     1     -57.823  -5.881   3.462  1.00  0.00    -0.646 OA
ENDBRANCH   4   9
ENDBRANCH   3   4
ENDBRANCH   2   3
ENDBRANCH   1   2
BRANCH   1  12
HETATM   12  N2  UNL     1     -57.065  -0.490   1.581  1.00  0.00    -0.060 N 
ATOM     13  H22 UNL     1     -56.070  -0.584   1.375  1.00  0.00     0.278 HD
ATOM     14  H21 UNL     1     -57.415  -0.291   0.644  1.00  0.00     0.278 HD
BRANCH  12  15
HETATM   15  C5  UNL     1     -57.296   0.623   2.453  1.00  0.00     0.291 C 
BRANCH  15  16
HETATM   16  C6  UNL     1     -58.461   1.425   1.996  1.00  0.00     0.051 A 
HETATM   17  C7  UNL     1     -58.959   2.561   2.595  1.00  0.00     0.115 A 
HETATM   18  N3  UNL     1     -60.031   3.009   1.886  1.00  0.00    -0.360 N 
HETATM   19  C8  UNL     1     -60.177   2.146   0.864  1.00  0.00     0.180 A 
ATOM     20  H3  UNL     1     -60.604   3.828   2.087  1.00  0.00     0.166 HD
HETATM   21  N4  UNL     1     -59.234   1.187   0.921  1.00  0.00    -0.353 N 
ATOM     22  H4  UNL     1     -59.125   0.414   0.264  1.00  0.00     0.166 HD
ENDBRANCH  15  16
ENDBRANCH  12  15
ENDBRANCH   1  12
BRANCH   1  23
HETATM   23  C9  UNL     1     -58.405  -2.395   1.021  1.00  0.00     0.100 A 
HETATM   24  C10 UNL     1     -58.466  -3.730   0.666  1.00  0.00     0.124 A 
HETATM   25  N5  UNL     1     -59.349  -3.836  -0.348  1.00  0.00    -0.354 N 
HETATM   26  C11 UNL     1     -59.817  -2.612  -0.612  1.00  0.00     0.233 A 
ATOM     27  H5  UNL     1     -59.612  -4.697  -0.828  1.00  0.00     0.166 HD
HETATM   28  O1  UNL     1     -59.246  -1.784   0.208  1.00  0.00    -0.307 OA
ENDBRANCH   1  23
TORSDOF 9
ENDMDL
MODEL 2
REMARK VINA RESULT: -5.416892267      1.469      3.885
REMARK  9 active torsions:
REMARK  status: ('A' for Active; 'I' for Inactive)
REMARK    1  A    between atoms: N1_1  and  C1_5 
REMARK    2  A    between atoms: C1_5  and  C2_6 
REMARK    3  A    between atoms: C1_5  and  C12_26 
REMARK    4  A    between atoms: C2_6  and  C3_7 
REMARK    5  A    between atoms: C3_7  and  C4_8 
REMARK    6  A    between atoms: C4_8  and  N2_9 
REMARK    7  A    between atoms: C4_8  and  C9_20 
REMARK    8  A    between atoms: N2_9  and  C5_12 
REMARK    9  A    between atoms: C5_12  and  C6_13 
ROOT
HETATM    1  C4  UNL     1     -57.427  -2.385   1.153  1.00  0.00     0.244 C 
ENDROOT
BRANCH   1   2
HETATM    2  C3  UNL     1     -56.405  -2.877   2.139  1.00  0.00     0.042 C 
BRANCH   2   3
HETATM    3  C2  UNL     1     -56.982  -2.861   3.543  1.00  0.00     0.046 C 
BRANCH   3   4
HETATM    4  C1  UNL     1     -56.867  -4.229   4.178  1.00  0.00     0.283 C 
BRANCH   4   5
HETATM    5  N1  UNL     1     -56.785  -4.173   5.606  1.00  0.00    -0.065 N 
ATOM      6  H13 UNL     1     -56.978  -3.231   5.945  1.00  0.00     0.275 HD
ATOM      7  H12 UNL     1     -57.566  -4.668   6.036  1.00  0.00     0.275 HD
ATOM      8  H11 UNL     1     -55.893  -4.515   5.964  1.00  0.00     0.275 HD
ENDBRANCH   4   5
BRANCH   4   9
HETATM    9  C12 UNL     1     -57.982  -5.114   3.779  1.00  0.00     0.204 C 
HETATM   10  O2  UNL     1     -59.064  -5.049   4.418  1.00  0.00    -0.646 OA
HETATM   11  O3  UNL     1     -57.848  -6.015   2.708  1.00  0.00    -0.646 OA
ENDBRANCH   4   9
ENDBRANCH   3   4
ENDBRANCH   2   3
ENDBRANCH   1   2
BRANCH   1  12
HETATM   12  N2  UNL     1     -58.577  -3.236   1.061  1.00  0.00    -0.060 N 
ATOM     13  H22 UNL     1     -58.493  -4.026   1.700  1.00  0.00     0.278 HD
ATOM     14  H21 UNL     1     -59.396  -2.778   1.462  1.00  0.00     0.278 HD
BRANCH  12  15
HETATM   15  C5  UNL     1     -58.853  -3.690  -0.270  1.00  0.00     0.291 C 
BRANCH  15  16
HETATM   16  C6  UNL     1     -60.141  -3.137  -0.765  1.00  0.00     0.051 A 
HETATM   17  C7  UNL     1     -60.891  -3.621  -1.813  1.00  0.00     0.115 A 
HETATM   18  N3  UNL     1     -62.003  -2.850  -1.964  1.00  0.00    -0.360 N 
HETATM   19  C8  UNL     1     -61.921  -1.905  -1.009  1.00  0.00     0.180 A 
ATOM     20  H3  UNL     1     -62.743  -2.964  -2.657  1.00  0.00     0.166 HD
HETATM   21  N4  UNL     1     -60.802  -2.070  -0.280  1.00  0.00    -0.353 N 
ATOM     22  H4  UNL     1     -60.506  -1.488   0.504  1.00  0.00     0.166 HD
ENDBRANCH  15  16
ENDBRANCH  12  15
ENDBRANCH   1  12
BRANCH   1  23
HETATM   23  C9  UNL     1     -57.826  -1.012   1.540  1.00  0.00     0.100 A 
HETATM   24  C10 UNL     1     -57.059   0.132   1.668  1.00  0.00     0.124 A 
HETATM   25  N5  UNL     1     -57.885   1.130   2.044  1.00  0.00    -0.354 N 
HETATM   26  C11 UNL     1     -59.118   0.622   2.145  1.00  0.00     0.233 A 
ATOM     27  H5  UNL     1     -57.617   2.098   2.219  1.00  0.00     0.166 HD
HETATM   28  O1  UNL     1     -59.055  -0.638   1.843  1.00  0.00    -0.307 OA
ENDBRANCH   1  23
TORSDOF 9
ENDMDL
MODEL 3
REMARK VINA RESULT: -5.339256220      1.497      2.058
REMARK  9 active torsions:
REMARK  status: ('A' for Active; 'I' for Inactive)
REMARK    1  A    between atoms: N1_1  and  C1_5 
REMARK    2  A    between atoms: C1_5  and  C2_6 
REMARK    3  A    between atoms: C1_5  and  C12_26 
REMARK    4  A    between atoms: C2_6  and  C3_7 
REMARK    5  A    between atoms: C3_7  and  C4_8 
REMARK    6  A    between atoms: C4_8  and  N2_9 
REMARK    7  A    between atoms: C4_8  and  C9_20 
REMARK    8  A    between atoms: N2_9  and  C5_12 
REMARK    9  A    between atoms: C5_12  and  C6_13 
ROOT
HETATM    1  C4  UNL     1     -57.685  -1.893   2.080  1.00  0.00     0.244 C 
ENDROOT
BRANCH   1   2
HETATM    2  C3  UNL     1     -56.544  -2.761   2.529  1.00  0.00     0.042 C 
BRANCH   2   3
HETATM    3  C2  UNL     1     -56.385  -2.680   4.036  1.00  0.00     0.046 C 
BRANCH   3   4
HETATM    4  C1  UNL     1     -56.488  -4.058   4.653  1.00  0.00     0.283 C 
BRANCH   4   5
HETATM    5  N1  UNL     1     -56.328  -4.041   6.075  1.00  0.00    -0.065 N 
ATOM      6  H13 UNL     1     -55.740  -4.815   6.385  1.00  0.00     0.275 HD
ATOM      7  H12 UNL     1     -55.741  -3.260   6.367  1.00  0.00     0.275 HD
ATOM      8  H11 UNL     1     -57.218  -4.036   6.573  1.00  0.00     0.275 HD
ENDBRANCH   4   5
BRANCH   4   9
HETATM    9  C12 UNL     1     -57.764  -4.720   4.305  1.00  0.00     0.204 C 
HETATM   10  O2  UNL     1     -57.728  -5.830   3.717  1.00  0.00    -0.646 OA
HETATM   11  O3  UNL     1     -59.000  -4.128   4.622  1.00  0.00    -0.646 OA
ENDBRANCH   4   9
ENDBRANCH   3   4
ENDBRANCH   2   3
ENDBRANCH   1   2
BRANCH   1  12
HETATM   12  N2  UNL     1     -57.267  -0.593   1.642  1.00  0.00    -0.060 N 
ATOM     13  H22 UNL     1     -56.265  -0.468   1.791  1.00  0.00     0.278 HD
ATOM     14  H21 UNL     1     -57.297  -0.528   0.625  1.00  0.00     0.278 HD
BRANCH  12  15
HETATM   15  C5  UNL     1     -58.004   0.481   2.239  1.00  0.00     0.291 C 
BRANCH  15  16
HETATM   16  C6  UNL     1     -57.096   1.573   2.676  1.00  0.00     0.051 A 
HETATM   17  C7  UNL     1     -56.214   2.270   1.881  1.00  0.00     0.115 A 
HETATM   18  N3  UNL     1     -55.557   3.191   2.641  1.00  0.00    -0.360 N 
HETATM   19  C8  UNL     1     -56.044   3.047   3.887  1.00  0.00     0.180 A 
ATOM     20  H3  UNL     1     -54.845   3.852   2.330  1.00  0.00     0.166 HD
HETATM   21  N4  UNL     1     -56.973   2.073   3.919  1.00  0.00    -0.353 N 
ATOM     22  H4  UNL     1     -57.493   1.768   4.741  1.00  0.00     0.166 HD
ENDBRANCH  15  16
ENDBRANCH  12  15
ENDBRANCH   1  12
BRANCH   1  23
HETATM   23  C9  UNL     1     -58.408  -2.597   0.995  1.00  0.00     0.100 A 
HETATM   24  C10 UNL     1     -58.487  -3.949   0.714  1.00  0.00     0.124 A 
HETATM   25  N5  UNL     1     -59.269  -4.088  -0.377  1.00  0.00    -0.354 N 
HETATM   26  C11 UNL     1     -59.660  -2.867  -0.756  1.00  0.00     0.233 A 
ATOM     27  H5  UNL     1     -59.517  -4.967  -0.830  1.00  0.00     0.166 HD
HETATM   28  O1  UNL     1     -59.140  -2.010   0.067  1.00  0.00    -0.307 OA
ENDBRANCH   1  23
TORSDOF 9
ENDMDL
MODEL 4
REMARK VINA RESULT: -5.313057766      1.269      1.669
REMARK  9 active torsions:
REMARK  status: ('A' for Active; 'I' for Inactive)
REMARK    1  A    between atoms: N1_1  and  C1_5 
REMARK    2  A    between atoms: C1_5  and  C2_6 
REMARK    3  A    between atoms: C1_5  and  C12_26 
REMARK    4  A    between atoms: C2_6  and  C3_7 
REMARK    5  A    between atoms: C3_7  and  C4_8 
REMARK    6  A    between atoms: C4_8  and  N2_9 
REMARK    7  A    between atoms: C4_8  and  C9_20 
REMARK    8  A    between atoms: N2_9  and  C5_12 
REMARK    9  A    between atoms: C5_12  and  C6_13 
ROOT
HETATM    1  C4  UNL     1     -58.035  -1.730   2.040  1.00  0.00     0.244 C 
ENDROOT
BRANCH   1   2
HETATM    2  C3  UNL     1     -56.793  -2.449   2.486  1.00  0.00     0.042 C 
BRANCH   2   3
HETATM    3  C2  UNL     1     -56.735  -2.502   4.001  1.00  0.00     0.046 C 
BRANCH   3   4
HETATM    4  C1  UNL     1     -56.626  -3.934   4.477  1.00  0.00     0.283 C 
BRANCH   4   5
HETATM    5  N1  UNL     1     -56.313  -4.034   5.869  1.00  0.00    -0.065 N 
ATOM      6  H13 UNL     1     -55.451  -3.534   6.086  1.00  0.00     0.275 HD
ATOM      7  H12 UNL     1     -56.967  -3.490   6.431  1.00  0.00     0.275 HD
ATOM      8  H11 UNL     1     -56.267  -5.000   6.195  1.00  0.00     0.275 HD
ENDBRANCH   4   5
BRANCH   4   9
HETATM    9  C12 UNL     1     -57.858  -4.701   4.189  1.00  0.00     0.204 C 
HETATM   10  O2  UNL     1     -58.957  -4.261   4.612  1.00  0.00    -0.646 OA
HETATM   11  O3  UNL     1     -57.812  -5.901   3.456  1.00  0.00    -0.646 OA
ENDBRANCH   4   9
ENDBRANCH   3   4
ENDBRANCH   2   3
ENDBRANCH   1   2
BRANCH   1  12
HETATM   12  N2  UNL     1     -57.788  -0.380   1.626  1.00  0.00    -0.060 N 
ATOM     13  H22 UNL     1     -56.833  -0.102   1.854  1.00  0.00     0.278 HD
ATOM     14  H21 UNL     1     -57.745  -0.317   0.609  1.00  0.00     0.278 HD
BRANCH  12  15
HETATM   15  C5  UNL     1     -58.728   0.565   2.151  1.00  0.00     0.291 C 
BRANCH  15  16
HETATM   16  C6  UNL     1     -58.062   1.524   3.070  1.00  0.00     0.051 A 
HETATM   17  C7  UNL     1     -58.653   2.592   3.708  1.00  0.00     0.115 A 
HETATM   18  N3  UNL     1     -57.721   3.236   4.464  1.00  0.00    -0.360 N 
HETATM   19  C8  UNL     1     -56.574   2.556   4.281  1.00  0.00     0.180 A 
ATOM     20  H3  UNL     1     -57.863   4.060   5.047  1.00  0.00     0.166 HD
HETATM   21  N4  UNL     1     -56.769   1.522   3.442  1.00  0.00    -0.353 N 
ATOM     22  H4  UNL     1     -56.061   0.853   3.141  1.00  0.00     0.166 HD
ENDBRANCH  15  16
ENDBRANCH  12  15
ENDBRANCH   1  12
BRANCH   1  23
HETATM   23  C9  UNL     1     -58.652  -2.506   0.938  1.00  0.00     0.100 A 
HETATM   24  C10 UNL     1     -58.546  -3.851   0.632  1.00  0.00     0.124 A 
HETATM   25  N5  UNL     1     -59.298  -4.073  -0.466  1.00  0.00    -0.354 N 
HETATM   26  C11 UNL     1     -59.849  -2.910  -0.826  1.00  0.00     0.233 A 
ATOM     27  H5  UNL     1     -59.423  -4.969  -0.936  1.00  0.00     0.166 HD
HETATM   28  O1  UNL     1     -59.454  -2.006   0.016  1.00  0.00    -0.307 OA
ENDBRANCH   1  23
TORSDOF 9
ENDMDL
MODEL 5
REMARK VINA RESULT: -5.285304927      1.972      3.912
REMARK  9 active torsions:
REMARK  status: ('A' for Active; 'I' for Inactive)
REMARK    1  A    between atoms: N1_1  and  C1_5 
REMARK    2  A    between atoms: C1_5  and  C2_6 
REMARK    3  A    between atoms: C1_5  and  C12_26 
REMARK    4  A    between atoms: C2_6  and  C3_7 
REMARK    5  A    between atoms: C3_7  and  C4_8 
REMARK    6  A    between atoms: C4_8  and  N2_9 
REMARK    7  A    between atoms: C4_8  and  C9_20 
REMARK    8  A    between atoms: N2_9  and  C5_12 
REMARK    9  A    between atoms: C5_12  and  C6_13 
ROOT
HETATM    1  C4  UNL     1     -57.384  -1.890   1.620  1.00  0.00     0.244 C 
ENDROOT
BRANCH   1   2
HETATM    2  C3  UNL     1     -56.359  -2.687   2.376  1.00  0.00     0.042 C 
BRANCH   2   3
HETATM    3  C2  UNL     1     -56.653  -2.641   3.864  1.00  0.00     0.046 C 
BRANCH   3   4
HETATM    4  C1  UNL     1     -56.638  -4.036   4.450  1.00  0.00     0.283 C 
BRANCH   4   5
HETATM    5  N1  UNL     1     -56.430  -4.041   5.865  1.00  0.00    -0.065 N 
ATOM      6  H13 UNL     1     -56.033  -3.156   6.179  1.00  0.00     0.275 HD
ATOM      7  H12 UNL     1     -57.319  -4.011   6.365  1.00  0.00     0.275 HD
ATOM      8  H11 UNL     1     -55.861  -4.828   6.178  1.00  0.00     0.275 HD
ENDBRANCH   4   5
BRANCH   4   9
HETATM    9  C12 UNL     1     -57.875  -4.779   4.127  1.00  0.00     0.204 C 
HETATM   10  O2  UNL     1     -58.980  -4.300   4.491  1.00  0.00    -0.646 OA
HETATM   11  O3  UNL     1     -57.830  -5.997   3.426  1.00  0.00    -0.646 OA
ENDBRANCH   4   9
ENDBRANCH   3   4
ENDBRANCH   2   3
ENDBRANCH   1   2
BRANCH   1  12
HETATM   12  N2  UNL     1     -58.717  -2.069   2.116  1.00  0.00    -0.060 N 
ATOM     13  H22 UNL     1     -58.894  -3.052   2.326  1.00  0.00     0.278 HD
ATOM     14  H21 UNL     1     -58.808  -1.677   3.053  1.00  0.00     0.278 HD
BRANCH  12  15
HETATM   15  C5  UNL     1     -59.731  -1.547   1.249  1.00  0.00     0.291 C 
BRANCH  15  16
HETATM   16  C6  UNL     1     -59.724  -2.249  -0.061  1.00  0.00     0.051 A 
HETATM   17  C7  UNL     1     -59.646  -1.661  -1.304  1.00  0.00     0.115 A 
HETATM   18  N3  UNL     1     -59.668  -2.630  -2.261  1.00  0.00    -0.360 N 
HETATM   19  C8  UNL     1     -59.759  -3.796  -1.594  1.00  0.00     0.180 A 
ATOM     20  H3  UNL     1     -59.625  -2.500  -3.271  1.00  0.00     0.166 HD
HETATM   21  N4  UNL     1     -59.793  -3.577  -0.267  1.00  0.00    -0.353 N 
ATOM     22  H4  UNL     1     -59.859  -4.292   0.457  1.00  0.00     0.166 HD
ENDBRANCH  15  16
ENDBRANCH  12  15
ENDBRANCH   1  12
BRANCH   1  23
HETATM   23  C9  UNL     1     -56.998  -0.460   1.677  1.00  0.00     0.100 A 
HETATM   24  C10 UNL     1     -56.471   0.356   0.692  1.00  0.00     0.124 A 
HETATM   25  N5  UNL     1     -56.292   1.577   1.237  1.00  0.00    -0.354 N 
HETATM   26  C11 UNL     1     -56.692   1.519   2.511  1.00  0.00     0.233 A 
ATOM     27  H5  UNL     1     -55.917   2.398   0.761  1.00  0.00     0.166 HD
HETATM   28  O1  UNL     1     -57.103   0.311   2.743  1.00  0.00    -0.307 OA
ENDBRANCH   1  23
TORSDOF 9
ENDMDL
