MODEL 1
REMARK VINA RESULT: -5.545090817      0.000      0.000
REMARK  11 active torsions:
REMARK  status: ('A' for Active; 'I' for Inactive)
REMARK    1  A    between atoms: C2_2  and  C4_4 
REMARK    2  A    between atoms: C4_4  and  C5_5 
REMARK    3  A    between atoms: C5_5  and  O1_6 
REMARK    4  A    between atoms: C5_5  and  C6_8 
REMARK    5  A    between atoms: C6_8  and  N1_9 
REMARK    6  A    between atoms: C6_8  and  C8_12 
REMARK    7  A    between atoms: N1_9  and  C7_10 
REMARK    8  A    between atoms: C8_12  and  O3_13 
REMARK    9  A    between atoms: C8_12  and  C9_15 
REMARK   10  A    between atoms: C9_15  and  O4_16 
REMARK   11  A    between atoms: C9_15  and  C10_18 
ROOT
HETATM    1  C8  UNL     1     -59.210  -2.138   3.351  1.00  0.00     0.191 C 
ENDROOT
BRANCH   1   2
HETATM    2  C6  UNL     1     -58.173  -3.185   3.227  1.00  0.00     0.226 C 
BRANCH   2   3
HETATM    3  C5  UNL     1     -58.730  -4.639   3.298  1.00  0.00     0.157 C 
BRANCH   3   4
HETATM    4  C4  UNL     1     -57.852  -5.714   2.887  1.00  0.00     0.039 C 
BRANCH   4   5
HETATM    5  C2  UNL     1     -58.346  -6.290   1.542  1.00  0.00    -0.020 C 
HETATM    6  C1  UNL     1     -57.474  -7.370   1.026  1.00  0.00     0.009 C 
HETATM    7  C3  UNL     1     -58.475  -5.173   0.529  1.00  0.00     0.009 C 
ENDBRANCH   4   5
ENDBRANCH   3   4
BRANCH   3   8
HETATM    8  O1  UNL     1     -59.026  -4.748   4.679  1.00  0.00    -0.392 OA
ATOM      9  H1  UNL     1     -59.880  -4.375   4.863  1.00  0.00     0.210 HD
ENDBRANCH   3   8
ENDBRANCH   2   3
BRANCH   2  10
HETATM   10  N1  UNL     1     -57.112  -3.126   3.987  1.00  0.00    -0.412 NA
BRANCH  10  11
HETATM   11  C7  UNL     1     -55.960  -3.062   4.810  1.00  0.00     0.435 C 
HETATM   12  O2  UNL     1     -55.149  -3.936   5.066  1.00  0.00    -0.269 OA
ENDBRANCH  10  11
ENDBRANCH   2  10
ENDBRANCH   1   2
BRANCH   1  13
HETATM   13  O3  UNL     1     -60.510  -2.690   3.105  1.00  0.00    -0.389 OA
ATOM     14  H3  UNL     1     -61.020  -2.105   2.558  1.00  0.00     0.210 HD
ENDBRANCH   1  13
BRANCH   1  15
HETATM   15  C9  UNL     1     -59.038  -1.082   2.254  1.00  0.00     0.201 C 
BRANCH  15  16
HETATM   16  O4  UNL     1     -57.665  -0.655   2.353  1.00  0.00    -0.387 OA
ATOM     17  H4  UNL     1     -57.587  -0.268   3.217  1.00  0.00     0.210 HD
ENDBRANCH  15  16
BRANCH  15  18
HETATM   18  C10 UNL     1     -59.179  -1.568   0.880  1.00  0.00     0.056 A 
HETATM   19  C11 UNL     1     -58.068  -1.500   0.049  1.00  0.00     0.115 A 
HETATM   20  N2  UNL     1     -58.239  -1.895  -1.222  1.00  0.00    -0.372 N 
HETATM   21  C12 UNL     1     -59.405  -2.339  -1.698  1.00  0.00     0.104 A 
ATOM     22  H2  UNL     1     -57.440  -1.854  -1.855  1.00  0.00     0.164 HD
HETATM   23  C13 UNL     1     -60.511  -2.404  -0.859  1.00  0.00     0.105 A 
HETATM   24  N3  UNL     1     -60.341  -2.012   0.401  1.00  0.00    -0.365 N 
ATOM     25  H3  UNL     1     -61.141  -2.054   1.033  1.00  0.00     0.165 HD
ENDBRANCH  15  18
ENDBRANCH   1  15
TORSDOF 11
ENDMDL
MODEL 2
REMARK VINA RESULT: -5.412400873      1.941      2.575
REMARK  11 active torsions:
REMARK  status: ('A' for Active; 'I' for Inactive)
REMARK    1  A    between atoms: C2_2  and  C4_4 
REMARK    2  A    between atoms: C4_4  and  C5_5 
REMARK    3  A    between atoms: C5_5  and  O1_6 
REMARK    4  A    between atoms: C5_5  and  C6_8 
REMARK    5  A    between atoms: C6_8  and  N1_9 
REMARK    6  A    between atoms: C6_8  and  C8_12 
REMARK    7  A    between atoms: N1_9  and  C7_10 
REMARK    8  A    between atoms: C8_12  and  O3_13 
REMARK    9  A    between atoms: C8_12  and  C9_15 
REMARK   10  A    between atoms: C9_15  and  O4_16 
REMARK   11  A    between atoms: C9_15  and  C10_18 
ROOT
HETATM    1  C8  UNL     1     -59.211  -2.146   3.173  1.00  0.00     0.191 C 
ENDROOT
BRANCH   1   2
HETATM    2  C6  UNL     1     -58.190  -3.216   3.187  1.00  0.00     0.226 C 
BRANCH   2   3
HETATM    3  C5  UNL     1     -58.779  -4.650   3.353  1.00  0.00     0.157 C 
BRANCH   3   4
HETATM    4  C4  UNL     1     -57.949  -5.766   2.950  1.00  0.00     0.039 C 
BRANCH   4   5
HETATM    5  C2  UNL     1     -58.373  -6.233   1.541  1.00  0.00    -0.020 C 
HETATM    6  C1  UNL     1     -57.487  -7.288   0.996  1.00  0.00     0.009 C 
HETATM    7  C3  UNL     1     -58.429  -5.044   0.607  1.00  0.00     0.009 C 
ENDBRANCH   4   5
ENDBRANCH   3   4
BRANCH   3   8
HETATM    8  O1  UNL     1     -59.007  -4.687   4.751  1.00  0.00    -0.392 OA
ATOM      9  H1  UNL     1     -58.671  -3.899   5.161  1.00  0.00     0.210 HD
ENDBRANCH   3   8
ENDBRANCH   2   3
BRANCH   2  10
HETATM   10  N1  UNL     1     -57.164  -3.109   3.988  1.00  0.00    -0.412 NA
BRANCH  10  11
HETATM   11  C7  UNL     1     -56.050  -2.994   4.856  1.00  0.00     0.435 C 
HETATM   12  O2  UNL     1     -55.167  -3.803   5.086  1.00  0.00    -0.269 OA
ENDBRANCH  10  11
ENDBRANCH   2  10
ENDBRANCH   1   2
BRANCH   1  13
HETATM   13  O3  UNL     1     -60.517  -2.698   3.391  1.00  0.00    -0.389 OA
ATOM     14  H3  UNL     1     -61.088  -2.050   3.785  1.00  0.00     0.210 HD
ENDBRANCH   1  13
BRANCH   1  15
HETATM   15  C9  UNL     1     -59.301  -1.510   1.781  1.00  0.00     0.201 C 
BRANCH  15  16
HETATM   16  O4  UNL     1     -60.496  -2.060   1.192  1.00  0.00    -0.387 OA
ATOM     17  H4  UNL     1     -60.327  -2.075   0.257  1.00  0.00     0.210 HD
ENDBRANCH  15  16
BRANCH  15  18
HETATM   18  C10 UNL     1     -59.508  -0.061   1.761  1.00  0.00     0.056 A 
HETATM   19  C11 UNL     1     -60.458   0.447   0.884  1.00  0.00     0.115 A 
HETATM   20  N2  UNL     1     -60.587   1.783   0.840  1.00  0.00    -0.372 N 
HETATM   21  C12 UNL     1     -59.856   2.612   1.589  1.00  0.00     0.104 A 
ATOM     22  H2  UNL     1     -61.276   2.184   0.203  1.00  0.00     0.164 HD
HETATM   23  C13 UNL     1     -58.908   2.094   2.464  1.00  0.00     0.105 A 
HETATM   24  N3  UNL     1     -58.781   0.770   2.507  1.00  0.00    -0.365 N 
ATOM     25  H3  UNL     1     -58.091   0.370   3.145  1.00  0.00     0.165 HD
ENDBRANCH  15  18
ENDBRANCH   1  15
TORSDOF 11
ENDMDL
MODEL 3
REMARK VINA RESULT: -5.401786144      0.909      1.337
REMARK  11 active torsions:
REMARK  status: ('A' for Active; 'I' for Inactive)
REMARK    1  A    between atoms: C2_2  and  C4_4 
REMARK    2  A    between atoms: C4_4  and  C5_5 
REMARK    3  A    between atoms: C5_5  and  O1_6 
REMARK    4  A    between atoms: C5_5  and  C6_8 
REMARK    5  A    between atoms: C6_8  and  N1_9 
REMARK    6  A    between atoms: C6_8  and  C8_12 
REMARK    7  A    between atoms: N1_9  and  C7_10 
REMARK    8  A    between atoms: C8_12  and  O3_13 
REMARK    9  A    between atoms: C8_12  and  C9_15 
REMARK   10  A    between atoms: C9_15  and  O4_16 
REMARK   11  A    between atoms: C9_15  and  C10_18 
ROOT
HETATM    1  C8  UNL     1     -59.162  -2.107   3.298  1.00  0.00     0.191 C 
ENDROOT
BRANCH   1   2
HETATM    2  C6  UNL     1     -58.157  -3.190   3.228  1.00  0.00     0.226 C 
BRANCH   2   3
HETATM    3  C5  UNL     1     -58.762  -4.622   3.336  1.00  0.00     0.157 C 
BRANCH   3   4
HETATM    4  C4  UNL     1     -57.924  -5.735   2.940  1.00  0.00     0.039 C 
BRANCH   4   5
HETATM    5  C2  UNL     1     -58.359  -6.228   1.543  1.00  0.00    -0.020 C 
HETATM    6  C1  UNL     1     -57.481  -7.297   1.014  1.00  0.00     0.009 C 
HETATM    7  C3  UNL     1     -58.415  -5.057   0.586  1.00  0.00     0.009 C 
ENDBRANCH   4   5
ENDBRANCH   3   4
BRANCH   3   8
HETATM    8  O1  UNL     1     -59.047  -4.691   4.722  1.00  0.00    -0.392 OA
ATOM      9  H1  UNL     1     -59.964  -4.896   4.860  1.00  0.00     0.210 HD
ENDBRANCH   3   8
ENDBRANCH   2   3
BRANCH   2  10
HETATM   10  N1  UNL     1     -57.108  -3.138   4.005  1.00  0.00    -0.412 NA
BRANCH  10  11
HETATM   11  C7  UNL     1     -55.970  -3.082   4.847  1.00  0.00     0.435 C 
HETATM   12  O2  UNL     1     -55.154  -3.953   5.097  1.00  0.00    -0.269 OA
ENDBRANCH  10  11
ENDBRANCH   2  10
ENDBRANCH   1   2
BRANCH   1  13
HETATM   13  O3  UNL     1     -60.466  -2.613   2.982  1.00  0.00    -0.389 OA
ATOM     14  H3  UNL     1     -60.597  -3.464   3.382  1.00  0.00     0.210 HD
ENDBRANCH   1  13
BRANCH   1  15
HETATM   15  C9  UNL     1     -58.895  -1.057   2.213  1.00  0.00     0.201 C 
BRANCH  15  16
HETATM   16  O4  UNL     1     -57.637  -1.439   1.621  1.00  0.00    -0.387 OA
ATOM     17  H4  UNL     1     -57.083  -1.683   2.353  1.00  0.00     0.210 HD
ENDBRANCH  15  16
BRANCH  15  18
HETATM   18  C10 UNL     1     -59.844  -1.044   1.099  1.00  0.00     0.056 A 
HETATM   19  C11 UNL     1     -60.606   0.101   0.909  1.00  0.00     0.115 A 
HETATM   20  N2  UNL     1     -61.512   0.067  -0.082  1.00  0.00    -0.372 N 
HETATM   21  C12 UNL     1     -61.697  -0.999  -0.865  1.00  0.00     0.104 A 
ATOM     22  H2  UNL     1     -62.087   0.894  -0.243  1.00  0.00     0.164 HD
HETATM   23  C13 UNL     1     -60.929  -2.140  -0.667  1.00  0.00     0.105 A 
HETATM   24  N3  UNL     1     -60.031  -2.105   0.315  1.00  0.00    -0.365 N 
ATOM     25  H3  UNL     1     -59.457  -2.933   0.475  1.00  0.00     0.165 HD
ENDBRANCH  15  18
ENDBRANCH   1  15
TORSDOF 11
ENDMDL
MODEL 4
REMARK VINA RESULT: -5.262406374      1.580      2.203
REMARK  11 active torsions:
REMARK  status: ('A' for Active; 'I' for Inactive)
REMARK    1  A    between atoms: C2_2  and  C4_4 
REMARK    2  A    between atoms: C4_4  and  C5_5 
REMARK    3  A    between atoms: C5_5  and  O1_6 
REMARK    4  A    between atoms: C5_5  and  C6_8 
REMARK    5  A    between atoms: C6_8  and  N1_9 
REMARK    6  A    between atoms: C6_8  and  C8_12 
REMARK    7  A    between atoms: N1_9  and  C7_10 
REMARK    8  A    between atoms: C8_12  and  O3_13 
REMARK    9  A    between atoms: C8_12  and  C9_15 
REMARK   10  A    between atoms: C9_15  and  O4_16 
REMARK   11  A    between atoms: C9_15  and  C10_18 
ROOT
HETATM    1  C8  UNL     1     -59.180  -2.245   3.195  1.00  0.00     0.191 C 
ENDROOT
BRANCH   1   2
HETATM    2  C6  UNL     1     -58.158  -3.314   3.228  1.00  0.00     0.226 C 
BRANCH   2   3
HETATM    3  C5  UNL     1     -58.750  -4.751   3.343  1.00  0.00     0.157 C 
BRANCH   3   4
HETATM    4  C4  UNL     1     -57.917  -5.856   2.915  1.00  0.00     0.039 C 
BRANCH   4   5
HETATM    5  C2  UNL     1     -58.345  -6.298   1.499  1.00  0.00    -0.020 C 
HETATM    6  C1  UNL     1     -57.456  -7.336   0.929  1.00  0.00     0.009 C 
HETATM    7  C3  UNL     1     -58.415  -5.091   0.589  1.00  0.00     0.009 C 
ENDBRANCH   4   5
ENDBRANCH   3   4
BRANCH   3   8
HETATM    8  O1  UNL     1     -58.995  -4.832   4.737  1.00  0.00    -0.392 OA
ATOM      9  H1  UNL     1     -58.382  -5.432   5.144  1.00  0.00     0.210 HD
ENDBRANCH   3   8
ENDBRANCH   2   3
BRANCH   2  10
HETATM   10  N1  UNL     1     -57.165  -3.222   4.071  1.00  0.00    -0.412 NA
BRANCH  10  11
HETATM   11  C7  UNL     1     -56.088  -3.122   4.986  1.00  0.00     0.435 C 
HETATM   12  O2  UNL     1     -55.169  -3.900   5.181  1.00  0.00    -0.269 OA
ENDBRANCH  10  11
ENDBRANCH   2  10
ENDBRANCH   1   2
BRANCH   1  13
HETATM   13  O3  UNL     1     -60.484  -2.791   3.435  1.00  0.00    -0.389 OA
ATOM     14  H3  UNL     1     -61.045  -2.143   3.842  1.00  0.00     0.210 HD
ENDBRANCH   1  13
BRANCH   1  15
HETATM   15  C9  UNL     1     -59.279  -1.643   1.788  1.00  0.00     0.201 C 
BRANCH  15  16
HETATM   16  O4  UNL     1     -60.453  -0.808   1.818  1.00  0.00    -0.387 OA
ATOM     17  H4  UNL     1     -60.582  -0.530   0.919  1.00  0.00     0.210 HD
ENDBRANCH  15  16
BRANCH  15  18
HETATM   18  C10 UNL     1     -58.189  -0.743   1.408  1.00  0.00     0.056 A 
HETATM   19  C11 UNL     1     -57.745   0.173   2.353  1.00  0.00     0.115 A 
HETATM   20  N2  UNL     1     -56.786   1.029   1.962  1.00  0.00    -0.372 N 
HETATM   21  C12 UNL     1     -56.263   1.026   0.733  1.00  0.00     0.104 A 
ATOM     22  H2  UNL     1     -56.442   1.714   2.635  1.00  0.00     0.164 HD
HETATM   23  C13 UNL     1     -56.715   0.106  -0.205  1.00  0.00     0.105 A 
HETATM   24  N3  UNL     1     -57.664  -0.742   0.183  1.00  0.00    -0.365 N 
ATOM     25  H3  UNL     1     -58.008  -1.427  -0.491  1.00  0.00     0.165 HD
ENDBRANCH  15  18
ENDBRANCH   1  15
TORSDOF 11
ENDMDL
MODEL 5
REMARK VINA RESULT: -4.885034233      2.450      4.043
REMARK  11 active torsions:
REMARK  status: ('A' for Active; 'I' for Inactive)
REMARK    1  A    between atoms: C2_2  and  C4_4 
REMARK    2  A    between atoms: C4_4  and  C5_5 
REMARK    3  A    between atoms: C5_5  and  O1_6 
REMARK    4  A    between atoms: C5_5  and  C6_8 
REMARK    5  A    between atoms: C6_8  and  N1_9 
REMARK    6  A    between atoms: C6_8  and  C8_12 
REMARK    7  A    between atoms: N1_9  and  C7_10 
REMARK    8  A    between atoms: C8_12  and  O3_13 
REMARK    9  A    between atoms: C8_12  and  C9_15 
REMARK   10  A    between atoms: C9_15  and  O4_16 
REMARK   11  A    between atoms: C9_15  and  C10_18 
ROOT
HETATM    1  C8  UNL     1     -58.417  -2.719  -0.220  1.00  0.00     0.191 C 
ENDROOT
BRANCH   1   2
HETATM    2  C6  UNL     1     -58.187  -3.323   1.110  1.00  0.00     0.226 C 
BRANCH   2   3
HETATM    3  C5  UNL     1     -56.904  -2.806   1.827  1.00  0.00     0.157 C 
BRANCH   3   4
HETATM    4  C4  UNL     1     -57.026  -2.408   3.215  1.00  0.00     0.039 C 
BRANCH   4   5
HETATM    5  C2  UNL     1     -56.842  -3.645   4.118  1.00  0.00    -0.020 C 
HETATM    6  C1  UNL     1     -58.121  -4.148   4.670  1.00  0.00     0.009 C 
HETATM    7  C3  UNL     1     -55.868  -3.322   5.230  1.00  0.00     0.009 C 
ENDBRANCH   4   5
ENDBRANCH   3   4
BRANCH   3   8
HETATM    8  O1  UNL     1     -56.056  -3.934   1.713  1.00  0.00    -0.392 OA
ATOM      9  H1  UNL     1     -56.467  -4.601   1.176  1.00  0.00     0.210 HD
ENDBRANCH   3   8
ENDBRANCH   2   3
BRANCH   2  10
HETATM   10  N1  UNL     1     -58.218  -4.623   1.235  1.00  0.00    -0.412 NA
BRANCH  10  11
HETATM   11  C7  UNL     1     -58.252  -6.033   1.370  1.00  0.00     0.435 C 
HETATM   12  O2  UNL     1     -57.324  -6.819   1.470  1.00  0.00    -0.269 OA
ENDBRANCH  10  11
ENDBRANCH   2  10
ENDBRANCH   1   2
BRANCH   1  13
HETATM   13  O3  UNL     1     -57.291  -1.921  -0.608  1.00  0.00    -0.389 OA
ATOM     14  H3  UNL     1     -57.575  -1.172  -1.118  1.00  0.00     0.210 HD
ENDBRANCH   1  13
BRANCH   1  15
HETATM   15  C9  UNL     1     -59.580  -1.722  -0.161  1.00  0.00     0.201 C 
BRANCH  15  16
HETATM   16  O4  UNL     1     -60.465  -2.234   0.855  1.00  0.00    -0.387 OA
ATOM     17  H4  UNL     1     -61.321  -2.266   0.445  1.00  0.00     0.210 HD
ENDBRANCH  15  16
BRANCH  15  18
HETATM   18  C10 UNL     1     -59.234  -0.373   0.291  1.00  0.00     0.056 A 
HETATM   19  C11 UNL     1     -59.559  -0.022   1.595  1.00  0.00     0.115 A 
HETATM   20  N2  UNL     1     -59.287   1.239   1.967  1.00  0.00    -0.372 N 
HETATM   21  C12 UNL     1     -58.730   2.137   1.150  1.00  0.00     0.104 A 
ATOM     22  H2  UNL     1     -59.517   1.525   2.919  1.00  0.00     0.164 HD
HETATM   23  C13 UNL     1     -58.409   1.776  -0.152  1.00  0.00     0.105 A 
HETATM   24  N3  UNL     1     -58.679   0.526  -0.521  1.00  0.00    -0.365 N 
ATOM     25  H3  UNL     1     -58.448   0.242  -1.473  1.00  0.00     0.165 HD
ENDBRANCH  15  18
ENDBRANCH   1  15
TORSDOF 11
ENDMDL
