MODEL 1
REMARK VINA RESULT: -5.629085709      0.000      0.000
REMARK  9 active torsions:
REMARK  status: ('A' for Active; 'I' for Inactive)
REMARK       I    between atoms: C2_3  and  N2_5 
REMARK    1  A    between atoms: N2_5  and  N3_7 
REMARK    2  A    between atoms: N3_7  and  C3_9 
REMARK    3  A    between atoms: C3_9  and  C4_10 
REMARK    4  A    between atoms: C7_13  and  O2_14 
REMARK    5  A    between atoms: O2_14  and  C8_15 
REMARK    6  A    between atoms: C8_15  and  C9_16 
REMARK    7  A    between atoms: C9_16  and  C10_18 
REMARK    8  A    between atoms: C10_18  and  C11_19 
REMARK    9  A    between atoms: C11_19  and  N4_20 
ROOT
HETATM    1  N1  UNL     1     -54.746   4.484   6.297  1.00  0.00    -0.186 NA
HETATM    2  C1  UNL     1     -55.274   4.220   5.278  1.00  0.00     0.163 C 
HETATM    3  C2  UNL     1     -55.908   3.918   4.022  1.00  0.00     0.340 C 
HETATM    4  O1  UNL     1     -56.158   4.863   3.251  1.00  0.00    -0.254 OA
HETATM    5  N2  UNL     1     -56.221   2.604   3.701  1.00  0.00    -0.262 N 
ATOM      6  H2  UNL     1     -55.983   1.887   4.386  1.00  0.00     0.190 HD
ENDROOT
BRANCH   5   7
HETATM    7  N3  UNL     1     -56.816   2.196   2.550  1.00  0.00    -0.329 N 
ATOM      8  H3  UNL     1     -56.279   2.164   1.683  1.00  0.00     0.180 HD
BRANCH   7   9
HETATM    9  C3  UNL     1     -58.178   1.815   2.551  1.00  0.00     0.178 C 
BRANCH   9  10
HETATM   10  C4  UNL     1     -58.238   0.356   2.251  1.00  0.00    -0.039 A 
HETATM   11  C5  UNL     1     -59.434  -0.289   2.180  1.00  0.00     0.011 A 
HETATM   12  C6  UNL     1     -59.470  -1.662   1.887  1.00  0.00     0.037 A 
HETATM   13  C7  UNL     1     -58.309  -2.358   1.673  1.00  0.00     0.069 A 
HETATM   14  C12 UNL     1     -57.094  -1.695   1.747  1.00  0.00     0.037 A 
HETATM   15  C13 UNL     1     -57.085  -0.356   2.033  1.00  0.00     0.011 A 
BRANCH  13  16
HETATM   16  O2  UNL     1     -58.330  -3.691   1.388  1.00  0.00    -0.344 OA
BRANCH  16  17
HETATM   17  C8  UNL     1     -57.717  -4.649   2.217  1.00  0.00     0.253 C 
BRANCH  17  18
HETATM   18  C9  UNL     1     -58.495  -4.837   3.474  1.00  0.00     0.152 C 
HETATM   19  O3  UNL     1     -59.418  -5.613   3.499  1.00  0.00    -0.296 OA
BRANCH  18  20
HETATM   20  C10 UNL     1     -58.138  -4.078   4.688  1.00  0.00     0.108 C 
BRANCH  20  21
HETATM   21  C11 UNL     1     -56.627  -3.800   4.706  1.00  0.00     0.237 C 
BRANCH  21  22
HETATM   22  N4  UNL     1     -56.169  -4.042   6.035  1.00  0.00    -0.079 N 
ATOM     23  H43 UNL     1     -55.894  -3.190   6.524  1.00  0.00     0.274 HD
ATOM     24  H42 UNL     1     -56.916  -4.323   6.670  1.00  0.00     0.274 HD
ATOM     25  H41 UNL     1     -55.416  -4.729   5.975  1.00  0.00     0.274 HD
ENDBRANCH  21  22
ENDBRANCH  20  21
ENDBRANCH  18  20
ENDBRANCH  17  18
ENDBRANCH  16  17
ENDBRANCH  13  16
ENDBRANCH   9  10
ENDBRANCH   7   9
ENDBRANCH   5   7
TORSDOF 9
ENDMDL
MODEL 2
REMARK VINA RESULT: -5.549018923      1.317      1.678
REMARK  9 active torsions:
REMARK  status: ('A' for Active; 'I' for Inactive)
REMARK       I    between atoms: C2_3  and  N2_5 
REMARK    1  A    between atoms: N2_5  and  N3_7 
REMARK    2  A    between atoms: N3_7  and  C3_9 
REMARK    3  A    between atoms: C3_9  and  C4_10 
REMARK    4  A    between atoms: C7_13  and  O2_14 
REMARK    5  A    between atoms: O2_14  and  C8_15 
REMARK    6  A    between atoms: C8_15  and  C9_16 
REMARK    7  A    between atoms: C9_16  and  C10_18 
REMARK    8  A    between atoms: C10_18  and  C11_19 
REMARK    9  A    between atoms: C11_19  and  N4_20 
ROOT
HETATM    1  N1  UNL     1     -55.106   4.869   5.569  1.00  0.00    -0.186 NA
HETATM    2  C1  UNL     1     -55.898   4.068   5.227  1.00  0.00     0.163 C 
HETATM    3  C2  UNL     1     -56.862   3.076   4.832  1.00  0.00     0.340 C 
HETATM    4  O1  UNL     1     -56.705   1.911   5.242  1.00  0.00    -0.254 OA
HETATM    5  N2  UNL     1     -57.928   3.431   4.016  1.00  0.00    -0.262 N 
ATOM      6  H2  UNL     1     -57.987   4.406   3.722  1.00  0.00     0.190 HD
ENDROOT
BRANCH   5   7
HETATM    7  N3  UNL     1     -58.899   2.587   3.579  1.00  0.00    -0.329 N 
ATOM      8  H3  UNL     1     -59.565   2.190   4.242  1.00  0.00     0.180 HD
BRANCH   7   9
HETATM    9  C3  UNL     1     -58.988   2.258   2.206  1.00  0.00     0.178 C 
BRANCH   9  10
HETATM   10  C4  UNL     1     -58.644   0.815   2.065  1.00  0.00    -0.039 A 
HETATM   11  C5  UNL     1     -57.351   0.398   2.157  1.00  0.00     0.011 A 
HETATM   12  C6  UNL     1     -57.048  -0.967   2.029  1.00  0.00     0.037 A 
HETATM   13  C7  UNL     1     -58.043  -1.883   1.812  1.00  0.00     0.069 A 
HETATM   14  C12 UNL     1     -59.358  -1.453   1.719  1.00  0.00     0.037 A 
HETATM   15  C13 UNL     1     -59.628  -0.116   1.847  1.00  0.00     0.011 A 
BRANCH  13  16
HETATM   16  O2  UNL     1     -57.763  -3.212   1.687  1.00  0.00    -0.344 OA
BRANCH  16  17
HETATM   17  C8  UNL     1     -58.570  -4.210   2.264  1.00  0.00     0.253 C 
BRANCH  17  18
HETATM   18  C9  UNL     1     -57.992  -4.678   3.556  1.00  0.00     0.152 C 
HETATM   19  O3  UNL     1     -57.629  -5.822   3.672  1.00  0.00    -0.296 OA
BRANCH  18  20
HETATM   20  C10 UNL     1     -57.863  -3.745   4.691  1.00  0.00     0.108 C 
BRANCH  20  21
HETATM   21  C11 UNL     1     -56.384  -3.389   4.910  1.00  0.00     0.237 C 
BRANCH  21  22
HETATM   22  N4  UNL     1     -55.807  -4.437   5.687  1.00  0.00    -0.079 N 
ATOM     23  H43 UNL     1     -56.493  -4.940   6.251  1.00  0.00     0.274 HD
ATOM     24  H42 UNL     1     -55.497  -5.228   5.122  1.00  0.00     0.274 HD
ATOM     25  H41 UNL     1     -55.058  -4.024   6.242  1.00  0.00     0.274 HD
ENDBRANCH  21  22
ENDBRANCH  20  21
ENDBRANCH  18  20
ENDBRANCH  17  18
ENDBRANCH  16  17
ENDBRANCH  13  16
ENDBRANCH   9  10
ENDBRANCH   7   9
ENDBRANCH   5   7
TORSDOF 9
ENDMDL
MODEL 3
REMARK VINA RESULT: -5.390016230      3.500      4.669
REMARK  9 active torsions:
REMARK  status: ('A' for Active; 'I' for Inactive)
REMARK       I    between atoms: C2_3  and  N2_5 
REMARK    1  A    between atoms: N2_5  and  N3_7 
REMARK    2  A    between atoms: N3_7  and  C3_9 
REMARK    3  A    between atoms: C3_9  and  C4_10 
REMARK    4  A    between atoms: C7_13  and  O2_14 
REMARK    5  A    between atoms: O2_14  and  C8_15 
REMARK    6  A    between atoms: C8_15  and  C9_16 
REMARK    7  A    between atoms: C9_16  and  C10_18 
REMARK    8  A    between atoms: C10_18  and  C11_19 
REMARK    9  A    between atoms: C11_19  and  N4_20 
ROOT
HETATM    1  N1  UNL     1     -65.116   3.098   0.955  1.00  0.00    -0.186 NA
HETATM    2  C1  UNL     1     -64.076   2.557   0.846  1.00  0.00     0.163 C 
HETATM    3  C2  UNL     1     -62.815   1.879   0.696  1.00  0.00     0.340 C 
HETATM    4  O1  UNL     1     -62.833   0.660   0.448  1.00  0.00    -0.254 OA
HETATM    5  N2  UNL     1     -61.627   2.586   0.828  1.00  0.00    -0.262 N 
ATOM      6  H2  UNL     1     -61.697   3.583   1.032  1.00  0.00     0.190 HD
ENDROOT
BRANCH   5   7
HETATM    7  N3  UNL     1     -60.381   2.059   0.708  1.00  0.00    -0.329 N 
ATOM      8  H3  UNL     1     -60.034   1.778  -0.209  1.00  0.00     0.180 HD
BRANCH   7   9
HETATM    9  C3  UNL     1     -59.564   1.900   1.852  1.00  0.00     0.178 C 
BRANCH   9  10
HETATM   10  C4  UNL     1     -59.029   0.509   1.833  1.00  0.00    -0.039 A 
HETATM   11  C5  UNL     1     -59.861  -0.551   1.642  1.00  0.00     0.011 A 
HETATM   12  C6  UNL     1     -59.337  -1.854   1.620  1.00  0.00     0.037 A 
HETATM   13  C7  UNL     1     -57.993  -2.066   1.790  1.00  0.00     0.069 A 
HETATM   14  C12 UNL     1     -57.152  -0.982   1.984  1.00  0.00     0.037 A 
HETATM   15  C13 UNL     1     -57.687   0.278   2.001  1.00  0.00     0.011 A 
BRANCH  13  16
HETATM   16  O2  UNL     1     -57.471  -3.326   1.770  1.00  0.00    -0.344 OA
BRANCH  16  17
HETATM   17  C8  UNL     1     -58.209  -4.454   2.175  1.00  0.00     0.253 C 
BRANCH  17  18
HETATM   18  C9  UNL     1     -57.878  -4.828   3.579  1.00  0.00     0.152 C 
HETATM   19  O3  UNL     1     -57.579  -5.966   3.843  1.00  0.00    -0.296 OA
BRANCH  18  20
HETATM   20  C10 UNL     1     -57.914  -3.809   4.646  1.00  0.00     0.108 C 
BRANCH  20  21
HETATM   21  C11 UNL     1     -56.485  -3.358   4.987  1.00  0.00     0.237 C 
BRANCH  21  22
HETATM   22  N4  UNL     1     -55.866  -4.425   5.704  1.00  0.00    -0.079 N 
ATOM     23  H43 UNL     1     -55.069  -4.120   6.263  1.00  0.00     0.274 HD
ATOM     24  H42 UNL     1     -56.439  -4.775   6.472  1.00  0.00     0.274 HD
ATOM     25  H41 UNL     1     -55.625  -5.146   5.024  1.00  0.00     0.274 HD
ENDBRANCH  21  22
ENDBRANCH  20  21
ENDBRANCH  18  20
ENDBRANCH  17  18
ENDBRANCH  16  17
ENDBRANCH  13  16
ENDBRANCH   9  10
ENDBRANCH   7   9
ENDBRANCH   5   7
TORSDOF 9
ENDMDL
MODEL 4
REMARK VINA RESULT: -5.299911781      2.587      3.117
REMARK  9 active torsions:
REMARK  status: ('A' for Active; 'I' for Inactive)
REMARK       I    between atoms: C2_3  and  N2_5 
REMARK    1  A    between atoms: N2_5  and  N3_7 
REMARK    2  A    between atoms: N3_7  and  C3_9 
REMARK    3  A    between atoms: C3_9  and  C4_10 
REMARK    4  A    between atoms: C7_13  and  O2_14 
REMARK    5  A    between atoms: O2_14  and  C8_15 
REMARK    6  A    between atoms: C8_15  and  C9_16 
REMARK    7  A    between atoms: C9_16  and  C10_18 
REMARK    8  A    between atoms: C10_18  and  C11_19 
REMARK    9  A    between atoms: C11_19  and  N4_20 
ROOT
HETATM    1  N1  UNL     1     -59.371   3.314   3.059  1.00  0.00    -0.186 NA
HETATM    2  C1  UNL     1     -58.585   2.583   2.574  1.00  0.00     0.163 C 
HETATM    3  C2  UNL     1     -57.629   1.673   2.001  1.00  0.00     0.340 C 
HETATM    4  O1  UNL     1     -56.972   0.951   2.774  1.00  0.00    -0.254 OA
HETATM    5  N2  UNL     1     -57.461   1.620   0.624  1.00  0.00    -0.262 N 
ATOM      6  H2  UNL     1     -58.036   2.244   0.059  1.00  0.00     0.190 HD
ENDROOT
BRANCH   5   7
HETATM    7  N3  UNL     1     -56.594   0.805  -0.032  1.00  0.00    -0.329 N 
ATOM      8  H3  UNL     1     -55.590   0.899   0.125  1.00  0.00     0.180 HD
BRANCH   7   9
HETATM    9  C3  UNL     1     -57.080  -0.173  -0.930  1.00  0.00     0.178 C 
BRANCH   9  10
HETATM   10  C4  UNL     1     -57.122  -1.473  -0.202  1.00  0.00    -0.039 A 
HETATM   11  C5  UNL     1     -56.050  -1.898   0.520  1.00  0.00     0.011 A 
HETATM   12  C6  UNL     1     -56.112  -3.122   1.206  1.00  0.00     0.037 A 
HETATM   13  C7  UNL     1     -57.245  -3.892   1.153  1.00  0.00     0.069 A 
HETATM   14  C12 UNL     1     -58.333  -3.454   0.415  1.00  0.00     0.037 A 
HETATM   15  C13 UNL     1     -58.248  -2.257  -0.244  1.00  0.00     0.011 A 
BRANCH  13  16
HETATM   16  O2  UNL     1     -57.319  -5.083   1.815  1.00  0.00    -0.344 OA
BRANCH  16  17
HETATM   17  C8  UNL     1     -58.330  -5.361   2.753  1.00  0.00     0.253 C 
BRANCH  17  18
HETATM   18  C9  UNL     1     -58.109  -4.598   4.013  1.00  0.00     0.152 C 
HETATM   19  O3  UNL     1     -59.027  -4.006   4.525  1.00  0.00    -0.296 OA
BRANCH  18  20
HETATM   20  C10 UNL     1     -56.772  -4.566   4.637  1.00  0.00     0.108 C 
BRANCH  20  21
HETATM   21  C11 UNL     1     -56.374  -3.115   4.946  1.00  0.00     0.237 C 
BRANCH  21  22
HETATM   22  N4  UNL     1     -55.974  -3.070   6.315  1.00  0.00    -0.079 N 
ATOM     23  H43 UNL     1     -56.761  -2.977   6.958  1.00  0.00     0.274 HD
ATOM     24  H42 UNL     1     -55.628  -3.965   6.660  1.00  0.00     0.274 HD
ATOM     25  H41 UNL     1     -55.292  -2.316   6.406  1.00  0.00     0.274 HD
ENDBRANCH  21  22
ENDBRANCH  20  21
ENDBRANCH  18  20
ENDBRANCH  17  18
ENDBRANCH  16  17
ENDBRANCH  13  16
ENDBRANCH   9  10
ENDBRANCH   7   9
ENDBRANCH   5   7
TORSDOF 9
ENDMDL
MODEL 5
REMARK VINA RESULT: -5.275316245      2.301      6.681
REMARK  9 active torsions:
REMARK  status: ('A' for Active; 'I' for Inactive)
REMARK       I    between atoms: C2_3  and  N2_5 
REMARK    1  A    between atoms: N2_5  and  N3_7 
REMARK    2  A    between atoms: N3_7  and  C3_9 
REMARK    3  A    between atoms: C3_9  and  C4_10 
REMARK    4  A    between atoms: C7_13  and  O2_14 
REMARK    5  A    between atoms: O2_14  and  C8_15 
REMARK    6  A    between atoms: C8_15  and  C9_16 
REMARK    7  A    between atoms: C9_16  and  C10_18 
REMARK    8  A    between atoms: C10_18  and  C11_19 
REMARK    9  A    between atoms: C11_19  and  N4_20 
ROOT
HETATM    1  N1  UNL     1     -55.342  -4.114   5.306  1.00  0.00    -0.186 NA
HETATM    2  C1  UNL     1     -56.327  -4.135   4.662  1.00  0.00     0.163 C 
HETATM    3  C2  UNL     1     -57.543  -4.144   3.892  1.00  0.00     0.340 C 
HETATM    4  O1  UNL     1     -58.618  -3.966   4.494  1.00  0.00    -0.254 OA
HETATM    5  N2  UNL     1     -57.494  -4.347   2.520  1.00  0.00    -0.262 N 
ATOM      6  H2  UNL     1     -56.574  -4.486   2.101  1.00  0.00     0.190 HD
ENDROOT
BRANCH   5   7
HETATM    7  N3  UNL     1     -58.568  -4.376   1.690  1.00  0.00    -0.329 N 
ATOM      8  H3  UNL     1     -59.331  -5.030   1.866  1.00  0.00     0.180 HD
BRANCH   7   9
HETATM    9  C3  UNL     1     -58.633  -3.500   0.581  1.00  0.00     0.178 C 
BRANCH   9  10
HETATM   10  C4  UNL     1     -58.460  -2.111   1.093  1.00  0.00    -0.039 A 
HETATM   11  C5  UNL     1     -59.474  -1.480   1.744  1.00  0.00     0.011 A 
HETATM   12  C6  UNL     1     -59.289  -0.174   2.227  1.00  0.00     0.037 A 
HETATM   13  C7  UNL     1     -58.093   0.471   2.045  1.00  0.00     0.069 A 
HETATM   14  C12 UNL     1     -57.063  -0.177   1.380  1.00  0.00     0.037 A 
HETATM   15  C13 UNL     1     -57.269  -1.450   0.920  1.00  0.00     0.011 A 
BRANCH  13  16
HETATM   16  O2  UNL     1     -57.899   1.739   2.509  1.00  0.00    -0.344 OA
BRANCH  16  17
HETATM   17  C8  UNL     1     -56.753   2.107   3.239  1.00  0.00     0.253 C 
BRANCH  17  18
HETATM   18  C9  UNL     1     -57.130   2.708   4.549  1.00  0.00     0.152 C 
HETATM   19  O3  UNL     1     -56.271   3.028   5.333  1.00  0.00    -0.296 OA
BRANCH  18  20
HETATM   20  C10 UNL     1     -58.551   2.914   4.890  1.00  0.00     0.108 C 
BRANCH  20  21
HETATM   21  C11 UNL     1     -58.952   4.369   4.603  1.00  0.00     0.237 C 
BRANCH  21  22
HETATM   22  N4  UNL     1     -59.429   4.419   3.259  1.00  0.00    -0.079 N 
ATOM     23  H43 UNL     1     -59.004   5.168   2.712  1.00  0.00     0.274 HD
ATOM     24  H42 UNL     1     -59.101   3.638   2.690  1.00  0.00     0.274 HD
ATOM     25  H41 UNL     1     -60.446   4.483   3.302  1.00  0.00     0.274 HD
ENDBRANCH  21  22
ENDBRANCH  20  21
ENDBRANCH  18  20
ENDBRANCH  17  18
ENDBRANCH  16  17
ENDBRANCH  13  16
ENDBRANCH   9  10
ENDBRANCH   7   9
ENDBRANCH   5   7
TORSDOF 9
ENDMDL
