MODEL 1
REMARK VINA RESULT: -5.439027575      0.000      0.000
REMARK  11 active torsions:
REMARK  status: ('A' for Active; 'I' for Inactive)
REMARK    1  A    between atoms: C2_2  and  C3_3 
REMARK    2  A    between atoms: C3_3  and  O1_4 
REMARK    3  A    between atoms: C3_3  and  C4_6 
REMARK    4  A    between atoms: C4_6  and  O2_7 
REMARK    5  A    between atoms: C4_6  and  C5_9 
REMARK    6  A    between atoms: C5_9  and  N1_10 
REMARK    7  A    between atoms: C6_11  and  C7_12 
REMARK    8  A    between atoms: C8_13  and  N2_14 
REMARK    9  A    between atoms: C13_19  and  C14_20 
REMARK   10  A    between atoms: C14_20  and  N3_21 
REMARK   11  A    between atoms: C14_20  and  O3_25 
ROOT
HETATM    1  N1  UNL     1     -58.506  -2.477   1.656  1.00  0.00    -0.344 N 
HETATM    2  C6  UNL     1     -59.292  -1.463   1.172  1.00  0.00     0.036 A 
HETATM    3  C11 UNL     1     -59.682  -1.814  -0.095  1.00  0.00     0.032 A 
HETATM    4  C12 UNL     1     -59.114  -3.052  -0.348  1.00  0.00     0.032 A 
HETATM    5  C13 UNL     1     -58.392  -3.441   0.747  1.00  0.00     0.068 A 
ENDROOT
BRANCH   1   6
HETATM    6  C5  UNL     1     -57.899  -2.473   2.934  1.00  0.00     0.164 C 
BRANCH   6   7
HETATM    7  C4  UNL     1     -58.705  -3.266   3.968  1.00  0.00     0.168 C 
BRANCH   7   8
HETATM    8  C3  UNL     1     -57.791  -4.222   4.702  1.00  0.00     0.170 C 
BRANCH   8   9
HETATM    9  C2  UNL     1     -56.408  -3.754   4.773  1.00  0.00    -0.003 C 
HETATM   10  C1  UNL     1     -55.976  -3.139   5.853  1.00  0.00     0.009 C 
ENDBRANCH   8   9
BRANCH   8  11
HETATM   11  O1  UNL     1     -57.932  -5.514   4.185  1.00  0.00    -0.389 OA
ATOM     12  H1  UNL     1     -57.886  -5.562   3.237  1.00  0.00     0.210 HD
ENDBRANCH   8  11
ENDBRANCH   7   8
BRANCH   7  13
HETATM   13  O2  UNL     1     -59.726  -3.991   3.379  1.00  0.00    -0.391 OA
ATOM     14  H2  UNL     1     -60.048  -3.510   2.626  1.00  0.00     0.210 HD
ENDBRANCH   7  13
ENDBRANCH   6   7
ENDBRANCH   1   6
BRANCH   2  15
HETATM   15  C7  UNL     1     -59.666  -0.248   1.857  1.00  0.00     0.046 C 
HETATM   16  C8  UNL     1     -58.995   0.786   2.157  1.00  0.00     0.088 C 
BRANCH  16  17
HETATM   17  N2  UNL     1     -57.668   1.146   1.951  1.00  0.00    -0.387 N 
HETATM   18  C9  UNL     1     -56.427   1.865   2.387  1.00  0.00     0.142 A 
HETATM   19  C10 UNL     1     -56.425   1.158   1.116  1.00  0.00     0.142 A 
ENDBRANCH  16  17
ENDBRANCH   2  15
BRANCH   5  20
HETATM   20  C14 UNL     1     -57.672  -4.732   0.742  1.00  0.00     0.367 C 
BRANCH  20  21
HETATM   21  N3  UNL     1     -58.597  -5.727   1.314  1.00  0.00    -0.047 N 
ATOM     22  H33 UNL     1     -58.231  -6.191   2.145  1.00  0.00     0.277 HD
ATOM     23  H32 UNL     1     -59.418  -5.310   1.754  1.00  0.00     0.277 HD
ATOM     24  H31 UNL     1     -58.828  -6.373   0.559  1.00  0.00     0.277 HD
ENDBRANCH  20  21
BRANCH  20  25
HETATM   25  O3  UNL     1     -56.520  -4.814   1.438  1.00  0.00    -0.365 OA
ATOM     26  H3  UNL     1     -56.264  -5.665   1.775  1.00  0.00     0.212 HD
ENDBRANCH  20  25
ENDBRANCH   5  20
TORSDOF 11
ENDMDL
MODEL 2
REMARK VINA RESULT: -5.190340775      1.425      1.631
REMARK  11 active torsions:
REMARK  status: ('A' for Active; 'I' for Inactive)
REMARK    1  A    between atoms: C2_2  and  C3_3 
REMARK    2  A    between atoms: C3_3  and  O1_4 
REMARK    3  A    between atoms: C3_3  and  C4_6 
REMARK    4  A    between atoms: C4_6  and  O2_7 
REMARK    5  A    between atoms: C4_6  and  C5_9 
REMARK    6  A    between atoms: C5_9  and  N1_10 
REMARK    7  A    between atoms: C6_11  and  C7_12 
REMARK    8  A    between atoms: C8_13  and  N2_14 
REMARK    9  A    between atoms: C13_19  and  C14_20 
REMARK   10  A    between atoms: C14_20  and  N3_21 
REMARK   11  A    between atoms: C14_20  and  O3_25 
ROOT
HETATM    1  N1  UNL     1     -58.186  -2.087   1.441  1.00  0.00    -0.344 N 
HETATM    2  C6  UNL     1     -58.254  -0.732   1.643  1.00  0.00     0.036 A 
HETATM    3  C11 UNL     1     -58.949  -0.193   0.590  1.00  0.00     0.032 A 
HETATM    4  C12 UNL     1     -59.290  -1.254  -0.234  1.00  0.00     0.032 A 
HETATM    5  C13 UNL     1     -58.807  -2.412   0.311  1.00  0.00     0.068 A 
ENDROOT
BRANCH   1   6
HETATM    6  C5  UNL     1     -57.530  -2.989   2.311  1.00  0.00     0.164 C 
BRANCH   6   7
HETATM    7  C4  UNL     1     -58.397  -3.381   3.511  1.00  0.00     0.168 C 
BRANCH   7   8
HETATM    8  C3  UNL     1     -57.581  -4.204   4.483  1.00  0.00     0.170 C 
BRANCH   8   9
HETATM    9  C2  UNL     1     -56.230  -3.685   4.682  1.00  0.00    -0.003 C 
HETATM   10  C1  UNL     1     -55.953  -2.961   5.744  1.00  0.00     0.009 C 
ENDBRANCH   8   9
BRANCH   8  11
HETATM   11  O1  UNL     1     -57.628  -5.556   4.125  1.00  0.00    -0.389 OA
ATOM     12  H1  UNL     1     -57.658  -5.709   3.187  1.00  0.00     0.210 HD
ENDBRANCH   8  11
ENDBRANCH   7   8
BRANCH   7  13
HETATM   13  O2  UNL     1     -59.507  -4.115   3.128  1.00  0.00    -0.391 OA
ATOM     14  H2  UNL     1     -59.987  -4.371   3.907  1.00  0.00     0.210 HD
ENDBRANCH   7  13
ENDBRANCH   6   7
ENDBRANCH   1   6
BRANCH   2  15
HETATM   15  C7  UNL     1     -57.715   0.010   2.759  1.00  0.00     0.046 C 
HETATM   16  C8  UNL     1     -56.916   0.995   2.803  1.00  0.00     0.088 C 
BRANCH  16  17
HETATM   17  N2  UNL     1     -56.261   1.727   1.819  1.00  0.00    -0.387 N 
HETATM   18  C9  UNL     1     -55.542   2.965   1.374  1.00  0.00     0.142 A 
HETATM   19  C10 UNL     1     -55.789   1.904   0.409  1.00  0.00     0.142 A 
ENDBRANCH  16  17
ENDBRANCH   2  15
BRANCH   5  20
HETATM   20  C14 UNL     1     -59.026  -3.704  -0.374  1.00  0.00     0.367 C 
BRANCH  20  21
HETATM   21  N3  UNL     1     -60.324  -3.594  -1.064  1.00  0.00    -0.047 N 
ATOM     22  H33 UNL     1     -61.118  -3.848  -0.477  1.00  0.00     0.277 HD
ATOM     23  H32 UNL     1     -60.605  -2.631  -1.247  1.00  0.00     0.277 HD
ATOM     24  H31 UNL     1     -60.250  -4.160  -1.909  1.00  0.00     0.277 HD
ENDBRANCH  20  21
BRANCH  20  25
HETATM   25  O3  UNL     1     -59.071  -4.819   0.382  1.00  0.00    -0.365 OA
ATOM     26  H3  UNL     1     -58.755  -5.629  -0.001  1.00  0.00     0.212 HD
ENDBRANCH  20  25
ENDBRANCH   5  20
TORSDOF 11
ENDMDL
MODEL 3
REMARK VINA RESULT: -5.163499024      2.108      4.135
REMARK  11 active torsions:
REMARK  status: ('A' for Active; 'I' for Inactive)
REMARK    1  A    between atoms: C2_2  and  C3_3 
REMARK    2  A    between atoms: C3_3  and  O1_4 
REMARK    3  A    between atoms: C3_3  and  C4_6 
REMARK    4  A    between atoms: C4_6  and  O2_7 
REMARK    5  A    between atoms: C4_6  and  C5_9 
REMARK    6  A    between atoms: C5_9  and  N1_10 
REMARK    7  A    between atoms: C6_11  and  C7_12 
REMARK    8  A    between atoms: C8_13  and  N2_14 
REMARK    9  A    between atoms: C13_19  and  C14_20 
REMARK   10  A    between atoms: C14_20  and  N3_21 
REMARK   11  A    between atoms: C14_20  and  O3_25 
ROOT
HETATM    1  N1  UNL     1     -57.220  -2.306   2.577  1.00  0.00    -0.344 N 
HETATM    2  C6  UNL     1     -56.344  -2.272   1.523  1.00  0.00     0.036 A 
HETATM    3  C11 UNL     1     -55.329  -3.152   1.802  1.00  0.00     0.032 A 
HETATM    4  C12 UNL     1     -55.624  -3.705   3.038  1.00  0.00     0.032 A 
HETATM    5  C13 UNL     1     -56.795  -3.168   3.497  1.00  0.00     0.068 A 
ENDROOT
BRANCH   1   6
HETATM    6  C5  UNL     1     -58.392  -1.518   2.664  1.00  0.00     0.164 C 
BRANCH   6   7
HETATM    7  C4  UNL     1     -59.608  -2.208   2.037  1.00  0.00     0.168 C 
BRANCH   7   8
HETATM    8  C3  UNL     1     -60.129  -1.376   0.886  1.00  0.00     0.170 C 
BRANCH   8   9
HETATM    9  C2  UNL     1     -60.295   0.035   1.227  1.00  0.00    -0.003 C 
HETATM   10  C1  UNL     1     -60.004   0.965   0.343  1.00  0.00     0.009 C 
ENDBRANCH   8   9
BRANCH   8  11
HETATM   11  O1  UNL     1     -61.272  -1.972   0.341  1.00  0.00    -0.389 OA
ATOM     12  H1  UNL     1     -61.250  -2.922   0.336  1.00  0.00     0.210 HD
ENDBRANCH   8  11
ENDBRANCH   7   8
BRANCH   7  13
HETATM   13  O2  UNL     1     -60.629  -2.386   2.955  1.00  0.00    -0.391 OA
ATOM     14  H2  UNL     1     -60.251  -2.653   3.785  1.00  0.00     0.210 HD
ENDBRANCH   7  13
ENDBRANCH   6   7
ENDBRANCH   1   6
BRANCH   2  15
HETATM   15  C7  UNL     1     -56.455  -1.476   0.323  1.00  0.00     0.046 C 
HETATM   16  C8  UNL     1     -56.446  -0.219   0.146  1.00  0.00     0.088 C 
BRANCH  16  17
HETATM   17  N2  UNL     1     -56.328   0.858   1.016  1.00  0.00    -0.387 N 
HETATM   18  C9  UNL     1     -56.594   1.498   2.347  1.00  0.00     0.142 A 
HETATM   19  C10 UNL     1     -55.897   2.259   1.322  1.00  0.00     0.142 A 
ENDBRANCH  16  17
ENDBRANCH   2  15
BRANCH   5  20
HETATM   20  C14 UNL     1     -57.341  -3.583   4.807  1.00  0.00     0.367 C 
BRANCH  20  21
HETATM   21  N3  UNL     1     -56.226  -4.205   5.543  1.00  0.00    -0.047 N 
ATOM     22  H33 UNL     1     -56.530  -4.763   6.341  1.00  0.00     0.277 HD
ATOM     23  H32 UNL     1     -55.772  -4.960   5.028  1.00  0.00     0.277 HD
ATOM     24  H31 UNL     1     -55.590  -3.449   5.797  1.00  0.00     0.277 HD
ENDBRANCH  20  21
BRANCH  20  25
HETATM   25  O3  UNL     1     -58.363  -4.462   4.814  1.00  0.00    -0.365 OA
ATOM     26  H3  UNL     1     -58.162  -5.379   4.668  1.00  0.00     0.212 HD
ENDBRANCH  20  25
ENDBRANCH   5  20
TORSDOF 11
ENDMDL
MODEL 4
REMARK VINA RESULT: -5.129513213      2.114      4.241
REMARK  11 active torsions:
REMARK  status: ('A' for Active; 'I' for Inactive)
REMARK    1  A    between atoms: C2_2  and  C3_3 
REMARK    2  A    between atoms: C3_3  and  O1_4 
REMARK    3  A    between atoms: C3_3  and  C4_6 
REMARK    4  A    between atoms: C4_6  and  O2_7 
REMARK    5  A    between atoms: C4_6  and  C5_9 
REMARK    6  A    between atoms: C5_9  and  N1_10 
REMARK    7  A    between atoms: C6_11  and  C7_12 
REMARK    8  A    between atoms: C8_13  and  N2_14 
REMARK    9  A    between atoms: C13_19  and  C14_20 
REMARK   10  A    between atoms: C14_20  and  N3_21 
REMARK   11  A    between atoms: C14_20  and  O3_25 
ROOT
HETATM    1  N1  UNL     1     -58.041  -2.072   2.099  1.00  0.00    -0.344 N 
HETATM    2  C6  UNL     1     -56.904  -1.771   1.394  1.00  0.00     0.036 A 
HETATM    3  C11 UNL     1     -55.981  -2.750   1.664  1.00  0.00     0.032 A 
HETATM    4  C12 UNL     1     -56.595  -3.632   2.538  1.00  0.00     0.032 A 
HETATM    5  C13 UNL     1     -57.865  -3.193   2.793  1.00  0.00     0.068 A 
ENDROOT
BRANCH   1   6
HETATM    6  C5  UNL     1     -59.215  -1.282   2.091  1.00  0.00     0.164 C 
BRANCH   6   7
HETATM    7  C4  UNL     1     -59.886  -1.246   0.714  1.00  0.00     0.168 C 
BRANCH   7   8
HETATM    8  C3  UNL     1     -60.503   0.116   0.484  1.00  0.00     0.170 C 
BRANCH   8   9
HETATM    9  C2  UNL     1     -60.060   1.117   1.452  1.00  0.00    -0.003 C 
HETATM   10  C1  UNL     1     -59.902   2.368   1.078  1.00  0.00     0.009 C 
ENDBRANCH   8   9
BRANCH   8  11
HETATM   11  O1  UNL     1     -61.893   0.000   0.374  1.00  0.00    -0.389 OA
ATOM     12  H1  UNL     1     -62.280  -0.631   0.970  1.00  0.00     0.210 HD
ENDBRANCH   8  11
ENDBRANCH   7   8
BRANCH   7  13
HETATM   13  O2  UNL     1     -60.874  -2.208   0.597  1.00  0.00    -0.391 OA
ATOM     14  H2  UNL     1     -60.481  -3.013   0.282  1.00  0.00     0.210 HD
ENDBRANCH   7  13
ENDBRANCH   6   7
ENDBRANCH   1   6
BRANCH   2  15
HETATM   15  C7  UNL     1     -56.697  -0.646   0.513  1.00  0.00     0.046 C 
HETATM   16  C8  UNL     1     -56.527   0.588   0.754  1.00  0.00     0.088 C 
BRANCH  16  17
HETATM   17  N2  UNL     1     -56.474   1.323   1.932  1.00  0.00    -0.387 N 
HETATM   18  C9  UNL     1     -56.845   1.511   3.373  1.00  0.00     0.142 A 
HETATM   19  C10 UNL     1     -56.059   2.536   2.706  1.00  0.00     0.142 A 
ENDBRANCH  16  17
ENDBRANCH   2  15
BRANCH   5  20
HETATM   20  C14 UNL     1     -58.745  -3.952   3.707  1.00  0.00     0.367 C 
BRANCH  20  21
HETATM   21  N3  UNL     1     -57.898  -4.391   4.831  1.00  0.00    -0.047 N 
ATOM     22  H33 UNL     1     -57.071  -4.909   4.536  1.00  0.00     0.277 HD
ATOM     23  H32 UNL     1     -57.409  -3.624   5.293  1.00  0.00     0.277 HD
ATOM     24  H31 UNL     1     -58.504  -4.920   5.459  1.00  0.00     0.277 HD
ENDBRANCH  20  21
BRANCH  20  25
HETATM   25  O3  UNL     1     -59.363  -5.048   3.223  1.00  0.00    -0.365 OA
ATOM     26  H3  UNL     1     -59.144  -5.888   3.608  1.00  0.00     0.212 HD
ENDBRANCH  20  25
ENDBRANCH   5  20
TORSDOF 11
ENDMDL
MODEL 5
REMARK VINA RESULT: -5.127464252      1.516      2.213
REMARK  11 active torsions:
REMARK  status: ('A' for Active; 'I' for Inactive)
REMARK    1  A    between atoms: C2_2  and  C3_3 
REMARK    2  A    between atoms: C3_3  and  O1_4 
REMARK    3  A    between atoms: C3_3  and  C4_6 
REMARK    4  A    between atoms: C4_6  and  O2_7 
REMARK    5  A    between atoms: C4_6  and  C5_9 
REMARK    6  A    between atoms: C5_9  and  N1_10 
REMARK    7  A    between atoms: C6_11  and  C7_12 
REMARK    8  A    between atoms: C8_13  and  N2_14 
REMARK    9  A    between atoms: C13_19  and  C14_20 
REMARK   10  A    between atoms: C14_20  and  N3_21 
REMARK   11  A    between atoms: C14_20  and  O3_25 
ROOT
HETATM    1  N1  UNL     1     -58.186  -3.029   1.314  1.00  0.00    -0.344 N 
HETATM    2  C6  UNL     1     -58.617  -1.981   0.542  1.00  0.00     0.036 A 
HETATM    3  C11 UNL     1     -59.140  -2.507  -0.612  1.00  0.00     0.032 A 
HETATM    4  C12 UNL     1     -59.011  -3.882  -0.506  1.00  0.00     0.032 A 
HETATM    5  C13 UNL     1     -58.419  -4.181   0.690  1.00  0.00     0.068 A 
ENDROOT
BRANCH   1   6
HETATM    6  C5  UNL     1     -57.570  -2.886   2.579  1.00  0.00     0.164 C 
BRANCH   6   7
HETATM    7  C4  UNL     1     -58.574  -2.975   3.732  1.00  0.00     0.168 C 
BRANCH   7   8
HETATM    8  C3  UNL     1     -58.093  -3.985   4.751  1.00  0.00     0.170 C 
BRANCH   8   9
HETATM    9  C2  UNL     1     -56.636  -4.038   4.862  1.00  0.00    -0.003 C 
HETATM   10  C1  UNL     1     -56.003  -3.179   5.630  1.00  0.00     0.009 C 
ENDBRANCH   8   9
BRANCH   8  11
HETATM   11  O1  UNL     1     -58.696  -5.226   4.519  1.00  0.00    -0.389 OA
ATOM     12  H1  UNL     1     -58.275  -5.952   4.964  1.00  0.00     0.210 HD
ENDBRANCH   8  11
ENDBRANCH   7   8
BRANCH   7  13
HETATM   13  O2  UNL     1     -59.832  -3.351   3.293  1.00  0.00    -0.391 OA
ATOM     14  H2  UNL     1     -59.977  -2.982   2.430  1.00  0.00     0.210 HD
ENDBRANCH   7  13
ENDBRANCH   6   7
ENDBRANCH   1   6
BRANCH   2  15
HETATM   15  C7  UNL     1     -58.555  -0.576   0.870  1.00  0.00     0.046 C 
HETATM   16  C8  UNL     1     -59.417   0.349   0.760  1.00  0.00     0.088 C 
BRANCH  16  17
HETATM   17  N2  UNL     1     -60.725   0.373   0.292  1.00  0.00    -0.387 N 
HETATM   18  C9  UNL     1     -62.140   0.859   0.393  1.00  0.00     0.142 A 
HETATM   19  C10 UNL     1     -61.793  -0.096  -0.647  1.00  0.00     0.142 A 
ENDBRANCH  16  17
ENDBRANCH   2  15
BRANCH   5  20
HETATM   20  C14 UNL     1     -58.156  -5.589   1.058  1.00  0.00     0.367 C 
BRANCH  20  21
HETATM   21  N3  UNL     1     -59.286  -6.017   1.901  1.00  0.00    -0.047 N 
ATOM     22  H33 UNL     1     -59.925  -5.258   2.138  1.00  0.00     0.277 HD
ATOM     23  H32 UNL     1     -59.962  -6.600   1.407  1.00  0.00     0.277 HD
ATOM     24  H31 UNL     1     -58.880  -6.473   2.718  1.00  0.00     0.277 HD
ENDBRANCH  20  21
BRANCH  20  25
HETATM   25  O3  UNL     1     -57.025  -5.862   1.740  1.00  0.00    -0.365 OA
ATOM     26  H3  UNL     1     -57.096  -6.016   2.674  1.00  0.00     0.212 HD
ENDBRANCH  20  25
ENDBRANCH   5  20
TORSDOF 11
ENDMDL
