MODEL 1
REMARK VINA RESULT: -5.648275720      0.000      0.000
REMARK  8 active torsions:
REMARK  status: ('A' for Active; 'I' for Inactive)
REMARK    1  A    between atoms: C3_7  and  C4_8 
REMARK    2  A    between atoms: C4_8  and  C7_11 
REMARK    3  A    between atoms: C7_11  and  N3_12 
REMARK    4  A    between atoms: N3_12  and  C8_15 
REMARK    5  A    between atoms: C8_15  and  C9_16 
REMARK    6  A    between atoms: C8_15  and  C10_21 
REMARK    7  A    between atoms: C9_16  and  S1_17 
REMARK    8  A    between atoms: S1_17  and  N4_18 
ROOT
HETATM    1  C7  UNL     1     -57.272  -1.906   2.751  1.00  0.00     0.250 C 
ENDROOT
BRANCH   1   2
HETATM    2  C4  UNL     1     -57.097  -1.514   1.273  1.00  0.00     0.036 C 
HETATM    3  C5  UNL     1     -55.954  -2.267   0.636  1.00  0.00     0.025 C 
HETATM    4  C6  UNL     1     -56.836  -0.049   1.089  1.00  0.00     0.025 C 
BRANCH   2   5
HETATM    5  C3  UNL     1     -58.372  -1.926   0.628  1.00  0.00     0.107 A 
HETATM    6  N2  UNL     1     -59.627  -1.628   0.978  1.00  0.00    -0.287 N 
HETATM    7  N1  UNL     1     -60.426  -2.262   0.112  1.00  0.00    -0.288 N 
ATOM      8  H2  UNL     1     -59.918  -1.033   1.754  1.00  0.00     0.188 HD
HETATM    9  C2  UNL     1     -59.696  -2.949  -0.769  1.00  0.00     0.093 A 
ATOM     10  H1  UNL     1     -61.445  -2.225   0.123  1.00  0.00     0.188 HD
HETATM   11  C1  UNL     1     -60.106  -3.810  -1.917  1.00  0.00     0.090 C 
HETATM   12  N6  UNL     1     -58.425  -2.730  -0.432  1.00  0.00    -0.333 N 
ATOM     13  H6  UNL     1     -57.615  -3.119  -0.914  1.00  0.00     0.168 HD
ENDBRANCH   2   5
ENDBRANCH   1   2
BRANCH   1  14
HETATM   14  N3  UNL     1     -57.231  -3.330   2.863  1.00  0.00    -0.061 N 
ATOM     15  H32 UNL     1     -57.920  -3.766   2.251  1.00  0.00     0.278 HD
ATOM     16  H31 UNL     1     -56.379  -3.707   2.447  1.00  0.00     0.278 HD
BRANCH  14  17
HETATM   17  C8  UNL     1     -57.389  -3.787   4.244  1.00  0.00     0.285 C 
BRANCH  17  18
HETATM   18  C9  UNL     1     -57.886  -5.232   4.021  1.00  0.00     0.139 C 
BRANCH  18  19
HETATM   19  S1  UNL     1     -58.170  -5.337   2.228  1.00  0.00    -0.060 SA
BRANCH  19  20
HETATM   20  N4  UNL     1     -57.820  -6.907   1.568  1.00  0.00    -0.374 N 
ATOM     21  H42 UNL     1     -57.635  -7.056   0.576  1.00  0.00     0.164 HD
ATOM     22  H41 UNL     1     -57.820  -7.648   2.269  1.00  0.00     0.164 HD
ENDBRANCH  19  20
ENDBRANCH  18  19
ENDBRANCH  17  18
BRANCH  17  23
HETATM   23  C10 UNL     1     -56.164  -3.715   5.015  1.00  0.00     0.262 C 
HETATM   24  N5  UNL     1     -55.987  -2.624   5.940  1.00  0.00    -0.060 NA
HETATM   25  O1  UNL     1     -55.210  -4.537   4.953  1.00  0.00    -0.275 OA
ENDBRANCH  17  23
ENDBRANCH  14  17
ENDBRANCH   1  14
TORSDOF 8
ENDMDL
MODEL 2
REMARK VINA RESULT: -5.613324971      2.071      2.979
REMARK  8 active torsions:
REMARK  status: ('A' for Active; 'I' for Inactive)
REMARK    1  A    between atoms: C3_7  and  C4_8 
REMARK    2  A    between atoms: C4_8  and  C7_11 
REMARK    3  A    between atoms: C7_11  and  N3_12 
REMARK    4  A    between atoms: N3_12  and  C8_15 
REMARK    5  A    between atoms: C8_15  and  C9_16 
REMARK    6  A    between atoms: C8_15  and  C10_21 
REMARK    7  A    between atoms: C9_16  and  S1_17 
REMARK    8  A    between atoms: S1_17  and  N4_18 
ROOT
HETATM    1  C7  UNL     1     -58.060  -2.392   0.743  1.00  0.00     0.250 C 
ENDROOT
BRANCH   1   2
HETATM    2  C4  UNL     1     -59.151  -1.464   0.180  1.00  0.00     0.036 C 
HETATM    3  C5  UNL     1     -58.552  -0.348  -0.641  1.00  0.00     0.025 C 
HETATM    4  C6  UNL     1     -59.992  -0.841   1.252  1.00  0.00     0.025 C 
BRANCH   2   5
HETATM    5  C3  UNL     1     -59.960  -2.342  -0.708  1.00  0.00     0.107 A 
HETATM    6  N2  UNL     1     -61.266  -2.619  -0.653  1.00  0.00    -0.287 N 
HETATM    7  N1  UNL     1     -61.516  -3.485  -1.643  1.00  0.00    -0.288 N 
ATOM      8  H2  UNL     1     -61.941  -2.245   0.015  1.00  0.00     0.188 HD
HETATM    9  C2  UNL     1     -60.393  -3.752  -2.313  1.00  0.00     0.093 A 
ATOM     10  H1  UNL     1     -62.430  -3.882  -1.855  1.00  0.00     0.188 HD
HETATM   11  C1  UNL     1     -60.142  -4.643  -3.483  1.00  0.00     0.090 C 
HETATM   12  N6  UNL     1     -59.439  -3.035  -1.718  1.00  0.00    -0.333 N 
ATOM     13  H6  UNL     1     -58.458  -3.021  -1.994  1.00  0.00     0.168 HD
ENDBRANCH   2   5
ENDBRANCH   1   2
BRANCH   1  14
HETATM   14  N3  UNL     1     -58.661  -3.326   1.643  1.00  0.00    -0.061 N 
ATOM     15  H32 UNL     1     -59.410  -2.889   2.178  1.00  0.00     0.278 HD
ATOM     16  H31 UNL     1     -59.205  -4.025   1.137  1.00  0.00     0.278 HD
BRANCH  14  17
HETATM   17  C8  UNL     1     -57.683  -3.959   2.527  1.00  0.00     0.285 C 
BRANCH  17  18
HETATM   18  C9  UNL     1     -57.497  -2.860   3.597  1.00  0.00     0.139 C 
BRANCH  18  19
HETATM   19  S1  UNL     1     -55.984  -3.347   4.480  1.00  0.00    -0.060 SA
BRANCH  19  20
HETATM   20  N4  UNL     1     -56.297  -4.080   6.026  1.00  0.00    -0.374 N 
ATOM     21  H42 UNL     1     -56.473  -5.079   6.134  1.00  0.00     0.164 HD
ATOM     22  H41 UNL     1     -56.286  -3.413   6.797  1.00  0.00     0.164 HD
ENDBRANCH  19  20
ENDBRANCH  18  19
ENDBRANCH  17  18
BRANCH  17  23
HETATM   23  C10 UNL     1     -58.138  -5.221   3.075  1.00  0.00     0.262 C 
HETATM   24  N5  UNL     1     -58.973  -5.209   4.250  1.00  0.00    -0.060 NA
HETATM   25  O1  UNL     1     -57.866  -6.361   2.612  1.00  0.00    -0.275 OA
ENDBRANCH  17  23
ENDBRANCH  14  17
ENDBRANCH   1  14
TORSDOF 8
ENDMDL
MODEL 3
REMARK VINA RESULT: -5.572919714      2.706      4.461
REMARK  8 active torsions:
REMARK  status: ('A' for Active; 'I' for Inactive)
REMARK    1  A    between atoms: C3_7  and  C4_8 
REMARK    2  A    between atoms: C4_8  and  C7_11 
REMARK    3  A    between atoms: C7_11  and  N3_12 
REMARK    4  A    between atoms: N3_12  and  C8_15 
REMARK    5  A    between atoms: C8_15  and  C9_16 
REMARK    6  A    between atoms: C8_15  and  C10_21 
REMARK    7  A    between atoms: C9_16  and  S1_17 
REMARK    8  A    between atoms: S1_17  and  N4_18 
ROOT
HETATM    1  C7  UNL     1     -58.079  -1.800   1.801  1.00  0.00     0.250 C 
ENDROOT
BRANCH   1   2
HETATM    2  C4  UNL     1     -57.413  -0.980   0.681  1.00  0.00     0.036 C 
HETATM    3  C5  UNL     1     -58.406  -0.614  -0.395  1.00  0.00     0.025 C 
HETATM    4  C6  UNL     1     -56.279  -1.707   0.026  1.00  0.00     0.025 C 
BRANCH   2   5
HETATM    5  C3  UNL     1     -56.949   0.261   1.358  1.00  0.00     0.107 A 
HETATM    6  N2  UNL     1     -56.214   1.263   0.865  1.00  0.00    -0.287 N 
HETATM    7  N1  UNL     1     -56.029   2.130   1.868  1.00  0.00    -0.288 N 
ATOM      8  H2  UNL     1     -55.864   1.350  -0.090  1.00  0.00     0.188 HD
HETATM    9  C2  UNL     1     -56.631   1.688   2.974  1.00  0.00     0.093 A 
ATOM     10  H1  UNL     1     -55.504   3.001   1.797  1.00  0.00     0.188 HD
HETATM   11  C1  UNL     1     -56.716   2.279   4.342  1.00  0.00     0.090 C 
HETATM   12  N6  UNL     1     -57.194   0.528   2.639  1.00  0.00    -0.333 N 
ATOM     13  H6  UNL     1     -57.732  -0.067   3.269  1.00  0.00     0.168 HD
ENDBRANCH   2   5
ENDBRANCH   1   2
BRANCH   1  14
HETATM   14  N3  UNL     1     -57.997  -3.188   1.475  1.00  0.00    -0.061 N 
ATOM     15  H32 UNL     1     -58.909  -3.556   1.207  1.00  0.00     0.278 HD
ATOM     16  H31 UNL     1     -57.498  -3.330   0.596  1.00  0.00     0.278 HD
BRANCH  14  17
HETATM   17  C8  UNL     1     -57.403  -3.982   2.550  1.00  0.00     0.285 C 
BRANCH  17  18
HETATM   18  C9  UNL     1     -57.365  -2.946   3.695  1.00  0.00     0.139 C 
BRANCH  18  19
HETATM   19  S1  UNL     1     -55.898  -3.406   4.666  1.00  0.00    -0.060 SA
BRANCH  19  20
HETATM   20  N4  UNL     1     -56.283  -3.978   6.262  1.00  0.00    -0.374 N 
ATOM     21  H42 UNL     1     -57.179  -3.789   6.712  1.00  0.00     0.164 HD
ATOM     22  H41 UNL     1     -55.528  -4.512   6.691  1.00  0.00     0.164 HD
ENDBRANCH  19  20
ENDBRANCH  18  19
ENDBRANCH  17  18
BRANCH  17  23
HETATM   23  C10 UNL     1     -58.168  -5.169   2.876  1.00  0.00     0.262 C 
HETATM   24  N5  UNL     1     -57.902  -6.388   2.154  1.00  0.00    -0.060 NA
HETATM   25  O1  UNL     1     -59.071  -5.241   3.752  1.00  0.00    -0.275 OA
ENDBRANCH  17  23
ENDBRANCH  14  17
ENDBRANCH   1  14
TORSDOF 8
ENDMDL
MODEL 4
REMARK VINA RESULT: -5.476300256      2.231      3.447
REMARK  8 active torsions:
REMARK  status: ('A' for Active; 'I' for Inactive)
REMARK    1  A    between atoms: C3_7  and  C4_8 
REMARK    2  A    between atoms: C4_8  and  C7_11 
REMARK    3  A    between atoms: C7_11  and  N3_12 
REMARK    4  A    between atoms: N3_12  and  C8_15 
REMARK    5  A    between atoms: C8_15  and  C9_16 
REMARK    6  A    between atoms: C8_15  and  C10_21 
REMARK    7  A    between atoms: C9_16  and  S1_17 
REMARK    8  A    between atoms: S1_17  and  N4_18 
ROOT
HETATM    1  C7  UNL     1     -56.935  -3.275   0.810  1.00  0.00     0.250 C 
ENDROOT
BRANCH   1   2
HETATM    2  C4  UNL     1     -57.998  -2.710  -0.150  1.00  0.00     0.036 C 
HETATM    3  C5  UNL     1     -58.942  -3.789  -0.621  1.00  0.00     0.025 C 
HETATM    4  C6  UNL     1     -57.399  -2.067  -1.364  1.00  0.00     0.025 C 
BRANCH   2   5
HETATM    5  C3  UNL     1     -58.752  -1.727   0.672  1.00  0.00     0.107 A 
HETATM    6  N2  UNL     1     -60.032  -1.760   1.058  1.00  0.00    -0.287 N 
HETATM    7  N1  UNL     1     -60.251  -0.635   1.751  1.00  0.00    -0.288 N 
ATOM      8  H2  UNL     1     -60.709  -2.498   0.863  1.00  0.00     0.188 HD
HETATM    9  C2  UNL     1     -59.136   0.097   1.803  1.00  0.00     0.093 A 
ATOM     10  H1  UNL     1     -61.140  -0.375   2.176  1.00  0.00     0.188 HD
HETATM   11  C1  UNL     1     -58.863   1.416   2.444  1.00  0.00     0.090 C 
HETATM   12  N6  UNL     1     -58.219  -0.595   1.127  1.00  0.00    -0.333 N 
ATOM     13  H6  UNL     1     -57.253  -0.302   0.981  1.00  0.00     0.168 HD
ENDBRANCH   2   5
ENDBRANCH   1   2
BRANCH   1  14
HETATM   14  N3  UNL     1     -57.474  -4.413   1.484  1.00  0.00    -0.061 N 
ATOM     15  H32 UNL     1     -58.442  -4.578   1.209  1.00  0.00     0.278 HD
ATOM     16  H31 UNL     1     -57.055  -5.277   1.138  1.00  0.00     0.278 HD
BRANCH  14  17
HETATM   17  C8  UNL     1     -57.350  -4.313   2.938  1.00  0.00     0.285 C 
BRANCH  17  18
HETATM   18  C9  UNL     1     -56.452  -3.064   3.072  1.00  0.00     0.139 C 
BRANCH  18  19
HETATM   19  S1  UNL     1     -56.115  -2.944   4.855  1.00  0.00    -0.060 SA
BRANCH  19  20
HETATM   20  N4  UNL     1     -55.895  -4.491   5.618  1.00  0.00    -0.374 N 
ATOM     21  H42 UNL     1     -55.022  -4.760   6.072  1.00  0.00     0.164 HD
ATOM     22  H41 UNL     1     -56.720  -5.088   5.562  1.00  0.00     0.164 HD
ENDBRANCH  19  20
ENDBRANCH  18  19
ENDBRANCH  17  18
BRANCH  17  23
HETATM   23  C10 UNL     1     -58.624  -4.179   3.615  1.00  0.00     0.262 C 
HETATM   24  N5  UNL     1     -59.064  -5.239   4.487  1.00  0.00    -0.060 NA
HETATM   25  O1  UNL     1     -59.409  -3.199   3.511  1.00  0.00    -0.275 OA
ENDBRANCH  17  23
ENDBRANCH  14  17
ENDBRANCH   1  14
TORSDOF 8
ENDMDL
MODEL 5
REMARK VINA RESULT: -5.443265750      2.584      4.253
REMARK  8 active torsions:
REMARK  status: ('A' for Active; 'I' for Inactive)
REMARK    1  A    between atoms: C3_7  and  C4_8 
REMARK    2  A    between atoms: C4_8  and  C7_11 
REMARK    3  A    between atoms: C7_11  and  N3_12 
REMARK    4  A    between atoms: N3_12  and  C8_15 
REMARK    5  A    between atoms: C8_15  and  C9_16 
REMARK    6  A    between atoms: C8_15  and  C10_21 
REMARK    7  A    between atoms: C9_16  and  S1_17 
REMARK    8  A    between atoms: S1_17  and  N4_18 
ROOT
HETATM    1  C7  UNL     1     -59.056  -2.012   2.045  1.00  0.00     0.250 C 
ENDROOT
BRANCH   1   2
HETATM    2  C4  UNL     1     -59.071  -1.001   0.885  1.00  0.00     0.036 C 
HETATM    3  C5  UNL     1     -60.403  -0.298   0.786  1.00  0.00     0.025 C 
HETATM    4  C6  UNL     1     -58.792  -1.637  -0.443  1.00  0.00     0.025 C 
BRANCH   2   5
HETATM    5  C3  UNL     1     -58.023  -0.009   1.246  1.00  0.00     0.107 A 
HETATM    6  N2  UNL     1     -56.987   0.422   0.519  1.00  0.00    -0.287 N 
HETATM    7  N1  UNL     1     -56.312   1.283   1.290  1.00  0.00    -0.288 N 
ATOM      8  H2  UNL     1     -56.756   0.147  -0.436  1.00  0.00     0.188 HD
HETATM    9  C2  UNL     1     -56.905   1.397   2.480  1.00  0.00     0.093 A 
ATOM     10  H1  UNL     1     -55.467   1.780   1.009  1.00  0.00     0.188 HD
HETATM   11  C1  UNL     1     -56.548   2.217   3.675  1.00  0.00     0.090 C 
HETATM   12  N6  UNL     1     -57.963   0.587   2.434  1.00  0.00    -0.333 N 
ATOM     13  H6  UNL     1     -58.626   0.446   3.195  1.00  0.00     0.168 HD
ENDBRANCH   2   5
ENDBRANCH   1   2
BRANCH   1  14
HETATM   14  N3  UNL     1     -58.639  -3.285   1.548  1.00  0.00    -0.061 N 
ATOM     15  H32 UNL     1     -59.441  -3.888   1.366  1.00  0.00     0.278 HD
ATOM     16  H31 UNL     1     -58.273  -3.207   0.599  1.00  0.00     0.278 HD
BRANCH  14  17
HETATM   17  C8  UNL     1     -57.676  -3.942   2.432  1.00  0.00     0.285 C 
BRANCH  17  18
HETATM   18  C9  UNL     1     -57.482  -2.859   3.515  1.00  0.00     0.139 C 
BRANCH  18  19
HETATM   19  S1  UNL     1     -55.987  -3.381   4.408  1.00  0.00    -0.060 SA
BRANCH  19  20
HETATM   20  N4  UNL     1     -56.327  -4.095   5.957  1.00  0.00    -0.374 N 
ATOM     21  H42 UNL     1     -57.263  -4.393   6.230  1.00  0.00     0.164 HD
ATOM     22  H41 UNL     1     -55.502  -4.181   6.550  1.00  0.00     0.164 HD
ENDBRANCH  19  20
ENDBRANCH  18  19
ENDBRANCH  17  18
BRANCH  17  23
HETATM   23  C10 UNL     1     -58.152  -5.204   2.961  1.00  0.00     0.262 C 
HETATM   24  N5  UNL     1     -59.015  -5.193   4.116  1.00  0.00    -0.060 NA
HETATM   25  O1  UNL     1     -57.876  -6.344   2.499  1.00  0.00    -0.275 OA
ENDBRANCH  17  23
ENDBRANCH  14  17
ENDBRANCH   1  14
TORSDOF 8
ENDMDL
