MODEL 1
REMARK VINA RESULT: -6.068986567      0.000      0.000
REMARK  9 active torsions:
REMARK  status: ('A' for Active; 'I' for Inactive)
REMARK    1  A    between atoms: C1_4  and  C2_5 
REMARK    2  A    between atoms: C2_5  and  N2_6 
REMARK    3  A    between atoms: C2_5  and  C3_9 
REMARK    4  A    between atoms: N2_6  and  O1_7 
REMARK       I    between atoms: C3_9  and  N3_11 
REMARK    5  A    between atoms: N3_11  and  C4_13 
REMARK    6  A    between atoms: C4_13  and  C5_14 
REMARK    7  A    between atoms: C4_13  and  C12_21 
REMARK    8  A    between atoms: C5_14  and  C6_15 
REMARK    9  A    between atoms: C12_21  and  N4_22 
ROOT
HETATM    1  C3  UNL     1      -9.633 -57.328  -6.838  1.00  0.00     0.244 C 
HETATM    2  O2  UNL     1      -9.856 -56.243  -7.429  1.00  0.00    -0.271 OA
HETATM    3  N3  UNL     1      -8.867 -58.349  -7.458  1.00  0.00    -0.353 N 
ATOM      4  H3  UNL     1      -8.693 -59.227  -6.970  1.00  0.00     0.163 HD
ENDROOT
BRANCH   3   5
HETATM    5  C4  UNL     1      -8.335 -58.139  -8.785  1.00  0.00     0.112 C 
BRANCH   5   6
HETATM    6  C5  UNL     1      -8.261 -59.400  -9.593  1.00  0.00     0.065 C 
BRANCH   6   7
HETATM    7  C6  UNL     1      -9.490 -59.643 -10.384  1.00  0.00    -0.056 A 
HETATM    8  C7  UNL     1      -9.485 -59.445 -11.759  1.00  0.00     0.007 A 
HETATM    9  C8  UNL     1     -10.609 -59.663 -12.532  1.00  0.00     0.001 A 
HETATM   10  C9  UNL     1     -11.787 -60.091 -11.956  1.00  0.00     0.000 A 
HETATM   11  C10 UNL     1     -11.811 -60.293 -10.594  1.00  0.00     0.001 A 
HETATM   12  C11 UNL     1     -10.673 -60.071  -9.821  1.00  0.00     0.007 A 
ENDBRANCH   6   7
ENDBRANCH   5   6
BRANCH   5  13
HETATM   13  C12 UNL     1      -6.936 -57.548  -8.581  1.00  0.00     0.226 C 
BRANCH  13  14
HETATM   14  N4  UNL     1      -6.332 -58.218  -7.458  1.00  0.00    -0.154 N 
HETATM   15  O3  UNL     1      -5.858 -59.367  -7.564  1.00  0.00    -0.536 OA
HETATM   16  O4  UNL     1      -6.279 -57.573  -6.247  1.00  0.00    -0.536 OA
ENDBRANCH  13  14
ENDBRANCH   5  13
ENDBRANCH   3   5
BRANCH   1  17
HETATM   17  C2  UNL     1     -10.193 -57.506  -5.477  1.00  0.00     0.235 C 
BRANCH  17  18
HETATM   18  C1  UNL     1     -11.623 -57.083  -5.512  1.00  0.00     0.086 C 
HETATM   19  N1  UNL     1     -11.918 -55.844  -5.517  1.00  0.00    -0.409 N 
ATOM     20  H12 UNL     1     -11.167 -55.155  -5.496  1.00  0.00     0.155 HD
ATOM     21  H11 UNL     1     -12.896 -55.556  -5.542  1.00  0.00     0.155 HD
ENDBRANCH  17  18
BRANCH  17  22
HETATM   22  N2  UNL     1      -9.526 -56.641  -4.537  1.00  0.00    -0.084 NA
BRANCH  22  23
HETATM   23  O1  UNL     1      -8.313 -56.266  -4.986  1.00  0.00    -0.295 OA
ATOM     24  H1  UNL     1      -7.742 -57.015  -5.112  1.00  0.00     0.238 HD
ENDBRANCH  22  23
ENDBRANCH  17  22
ENDBRANCH   1  17
TORSDOF 9
ENDMDL
MODEL 2
REMARK VINA RESULT: -6.053701887      0.043      1.277
REMARK  9 active torsions:
REMARK  status: ('A' for Active; 'I' for Inactive)
REMARK    1  A    between atoms: C1_4  and  C2_5 
REMARK    2  A    between atoms: C2_5  and  N2_6 
REMARK    3  A    between atoms: C2_5  and  C3_9 
REMARK    4  A    between atoms: N2_6  and  O1_7 
REMARK       I    between atoms: C3_9  and  N3_11 
REMARK    5  A    between atoms: N3_11  and  C4_13 
REMARK    6  A    between atoms: C4_13  and  C5_14 
REMARK    7  A    between atoms: C4_13  and  C12_21 
REMARK    8  A    between atoms: C5_14  and  C6_15 
REMARK    9  A    between atoms: C12_21  and  N4_22 
ROOT
HETATM    1  C3  UNL     1      -9.639 -57.335  -6.842  1.00  0.00     0.244 C 
HETATM    2  O2  UNL     1      -9.854 -56.251  -7.436  1.00  0.00    -0.271 OA
HETATM    3  N3  UNL     1      -8.883 -58.364  -7.462  1.00  0.00    -0.353 N 
ATOM      4  H3  UNL     1      -8.715 -59.243  -6.972  1.00  0.00     0.163 HD
ENDROOT
BRANCH   3   5
HETATM    5  C4  UNL     1      -8.352 -58.162  -8.790  1.00  0.00     0.112 C 
BRANCH   5   6
HETATM    6  C5  UNL     1      -8.275 -59.429  -9.589  1.00  0.00     0.065 C 
BRANCH   6   7
HETATM    7  C6  UNL     1      -9.481 -59.653 -10.421  1.00  0.00    -0.056 A 
HETATM    8  C7  UNL     1     -10.665 -60.079  -9.833  1.00  0.00     0.007 A 
HETATM    9  C8  UNL     1     -11.811 -60.297 -10.573  1.00  0.00     0.001 A 
HETATM   10  C9  UNL     1     -11.815 -60.095 -11.937  1.00  0.00     0.000 A 
HETATM   11  C10 UNL     1     -10.651 -59.671 -12.539  1.00  0.00     0.001 A 
HETATM   12  C11 UNL     1      -9.500 -59.454 -11.785  1.00  0.00     0.007 A 
ENDBRANCH   6   7
ENDBRANCH   5   6
BRANCH   5  13
HETATM   13  C12 UNL     1      -6.954 -57.566  -8.592  1.00  0.00     0.226 C 
BRANCH  13  14
HETATM   14  N4  UNL     1      -6.360 -58.204  -7.445  1.00  0.00    -0.154 N 
HETATM   15  O3  UNL     1      -6.281 -57.622  -6.345  1.00  0.00    -0.536 OA
HETATM   16  O4  UNL     1      -5.872 -59.481  -7.573  1.00  0.00    -0.536 OA
ENDBRANCH  13  14
ENDBRANCH   5  13
ENDBRANCH   3   5
BRANCH   1  17
HETATM   17  C2  UNL     1     -10.197 -57.505  -5.480  1.00  0.00     0.235 C 
BRANCH  17  18
HETATM   18  C1  UNL     1     -11.627 -57.082  -5.515  1.00  0.00     0.086 C 
HETATM   19  N1  UNL     1     -11.921 -55.843  -5.521  1.00  0.00    -0.409 N 
ATOM     20  H12 UNL     1     -11.169 -55.154  -5.501  1.00  0.00     0.155 HD
ATOM     21  H11 UNL     1     -12.899 -55.554  -5.546  1.00  0.00     0.155 HD
ENDBRANCH  17  18
BRANCH  17  22
HETATM   22  N2  UNL     1      -9.529 -56.635  -4.546  1.00  0.00    -0.084 NA
BRANCH  22  23
HETATM   23  O1  UNL     1      -8.317 -56.263  -4.999  1.00  0.00    -0.295 OA
ATOM     24  H1  UNL     1      -8.329 -55.376  -5.340  1.00  0.00     0.238 HD
ENDBRANCH  22  23
ENDBRANCH  17  22
ENDBRANCH   1  17
TORSDOF 9
ENDMDL
MODEL 3
REMARK VINA RESULT: -6.007790829      1.709      2.341
REMARK  9 active torsions:
REMARK  status: ('A' for Active; 'I' for Inactive)
REMARK    1  A    between atoms: C1_4  and  C2_5 
REMARK    2  A    between atoms: C2_5  and  N2_6 
REMARK    3  A    between atoms: C2_5  and  C3_9 
REMARK    4  A    between atoms: N2_6  and  O1_7 
REMARK       I    between atoms: C3_9  and  N3_11 
REMARK    5  A    between atoms: N3_11  and  C4_13 
REMARK    6  A    between atoms: C4_13  and  C5_14 
REMARK    7  A    between atoms: C4_13  and  C12_21 
REMARK    8  A    between atoms: C5_14  and  C6_15 
REMARK    9  A    between atoms: C12_21  and  N4_22 
ROOT
HETATM    1  C3  UNL     1      -8.516 -57.198  -6.167  1.00  0.00     0.244 C 
HETATM    2  O2  UNL     1      -8.749 -56.384  -7.093  1.00  0.00    -0.271 OA
HETATM    3  N3  UNL     1      -8.204 -58.553  -6.453  1.00  0.00    -0.353 N 
ATOM      4  H3  UNL     1      -8.017 -59.207  -5.692  1.00  0.00     0.163 HD
ENDROOT
BRANCH   3   5
HETATM    5  C4  UNL     1      -8.151 -59.002  -7.825  1.00  0.00     0.112 C 
BRANCH   5   6
HETATM    6  C5  UNL     1      -9.225 -59.993  -8.158  1.00  0.00     0.065 C 
BRANCH   6   7
HETATM    7  C6  UNL     1      -9.690 -59.880  -9.560  1.00  0.00    -0.056 A 
HETATM    8  C7  UNL     1     -10.980 -60.265  -9.901  1.00  0.00     0.007 A 
HETATM    9  C8  UNL     1     -11.453 -60.173 -11.196  1.00  0.00     0.001 A 
HETATM   10  C9  UNL     1     -10.647 -59.688 -12.205  1.00  0.00     0.000 A 
HETATM   11  C10 UNL     1      -9.364 -59.301 -11.887  1.00  0.00     0.001 A 
HETATM   12  C11 UNL     1      -8.896 -59.397 -10.579  1.00  0.00     0.007 A 
ENDBRANCH   6   7
ENDBRANCH   5   6
BRANCH   5  13
HETATM   13  C12 UNL     1      -6.765 -59.631  -8.002  1.00  0.00     0.226 C 
BRANCH  13  14
HETATM   14  N4  UNL     1      -5.792 -58.569  -7.991  1.00  0.00    -0.154 N 
HETATM   15  O3  UNL     1      -5.571 -57.879  -9.007  1.00  0.00    -0.536 OA
HETATM   16  O4  UNL     1      -5.097 -58.315  -6.835  1.00  0.00    -0.536 OA
ENDBRANCH  13  14
ENDBRANCH   5  13
ENDBRANCH   3   5
BRANCH   1  17
HETATM   17  C2  UNL     1      -8.576 -56.700  -4.772  1.00  0.00     0.235 C 
BRANCH  17  18
HETATM   18  C1  UNL     1      -7.180 -56.432  -4.321  1.00  0.00     0.086 C 
HETATM   19  N1  UNL     1      -6.757 -55.233  -4.247  1.00  0.00    -0.409 N 
ATOM     20  H12 UNL     1      -7.384 -54.469  -4.498  1.00  0.00     0.155 HD
ATOM     21  H11 UNL     1      -5.802 -55.050  -3.938  1.00  0.00     0.155 HD
ENDBRANCH  17  18
BRANCH  17  22
HETATM   22  N2  UNL     1      -9.110 -57.711  -3.896  1.00  0.00    -0.084 NA
BRANCH  22  23
HETATM   23  O1  UNL     1     -10.346 -58.088  -4.274  1.00  0.00    -0.295 OA
ATOM     24  H1  UNL     1     -10.324 -58.613  -5.066  1.00  0.00     0.238 HD
ENDBRANCH  22  23
ENDBRANCH  17  22
ENDBRANCH   1  17
TORSDOF 9
ENDMDL
MODEL 4
REMARK VINA RESULT: -5.999797740      1.340      1.752
REMARK  9 active torsions:
REMARK  status: ('A' for Active; 'I' for Inactive)
REMARK    1  A    between atoms: C1_4  and  C2_5 
REMARK    2  A    between atoms: C2_5  and  N2_6 
REMARK    3  A    between atoms: C2_5  and  C3_9 
REMARK    4  A    between atoms: N2_6  and  O1_7 
REMARK       I    between atoms: C3_9  and  N3_11 
REMARK    5  A    between atoms: N3_11  and  C4_13 
REMARK    6  A    between atoms: C4_13  and  C5_14 
REMARK    7  A    between atoms: C4_13  and  C12_21 
REMARK    8  A    between atoms: C5_14  and  C6_15 
REMARK    9  A    between atoms: C12_21  and  N4_22 
ROOT
HETATM    1  C3  UNL     1      -9.689 -58.537  -6.126  1.00  0.00     0.244 C 
HETATM    2  O2  UNL     1      -9.362 -59.722  -5.873  1.00  0.00    -0.271 OA
HETATM    3  N3  UNL     1      -9.491 -57.990  -7.421  1.00  0.00    -0.353 N 
ATOM      4  H3  UNL     1      -9.759 -57.025  -7.616  1.00  0.00     0.163 HD
ENDROOT
BRANCH   3   5
HETATM    5  C4  UNL     1      -8.911 -58.806  -8.462  1.00  0.00     0.112 C 
BRANCH   5   6
HETATM    6  C5  UNL     1      -9.685 -60.063  -8.722  1.00  0.00     0.065 C 
BRANCH   6   7
HETATM    7  C6  UNL     1     -10.373 -60.049 -10.034  1.00  0.00    -0.056 A 
HETATM    8  C7  UNL     1     -11.715 -60.394 -10.122  1.00  0.00     0.007 A 
HETATM    9  C8  UNL     1     -12.393 -60.391 -11.325  1.00  0.00     0.001 A 
HETATM   10  C9  UNL     1     -11.750 -60.039 -12.493  1.00  0.00     0.000 A 
HETATM   11  C10 UNL     1     -10.418 -59.694 -12.427  1.00  0.00     0.001 A 
HETATM   12  C11 UNL     1      -9.742 -59.700 -11.209  1.00  0.00     0.007 A 
ENDBRANCH   6   7
ENDBRANCH   5   6
BRANCH   5  13
HETATM   13  C12 UNL     1      -7.492 -59.137  -7.986  1.00  0.00     0.226 C 
BRANCH  13  14
HETATM   14  N4  UNL     1      -6.813 -57.894  -7.722  1.00  0.00    -0.154 N 
HETATM   15  O3  UNL     1      -6.543 -57.092  -8.639  1.00  0.00    -0.536 OA
HETATM   16  O4  UNL     1      -6.458 -57.591  -6.431  1.00  0.00    -0.536 OA
ENDBRANCH  13  14
ENDBRANCH   5  13
ENDBRANCH   3   5
BRANCH   1  17
HETATM   17  C2  UNL     1     -10.284 -57.731  -5.034  1.00  0.00     0.235 C 
BRANCH  17  18
HETATM   18  C1  UNL     1     -11.112 -56.658  -5.656  1.00  0.00     0.086 C 
HETATM   19  N1  UNL     1     -12.374 -56.651  -5.486  1.00  0.00    -0.409 N 
ATOM     20  H12 UNL     1     -12.803 -57.386  -4.922  1.00  0.00     0.155 HD
ATOM     21  H11 UNL     1     -12.940 -55.917  -5.911  1.00  0.00     0.155 HD
ENDBRANCH  17  18
BRANCH  17  22
HETATM   22  N2  UNL     1      -9.255 -57.074  -4.270  1.00  0.00    -0.084 NA
BRANCH  22  23
HETATM   23  O1  UNL     1      -8.294 -57.938  -3.891  1.00  0.00    -0.295 OA
ATOM     24  H1  UNL     1      -8.238 -58.003  -2.945  1.00  0.00     0.238 HD
ENDBRANCH  22  23
ENDBRANCH  17  22
ENDBRANCH   1  17
TORSDOF 9
ENDMDL
MODEL 5
REMARK VINA RESULT: -5.929944362      1.488      1.919
REMARK  9 active torsions:
REMARK  status: ('A' for Active; 'I' for Inactive)
REMARK    1  A    between atoms: C1_4  and  C2_5 
REMARK    2  A    between atoms: C2_5  and  N2_6 
REMARK    3  A    between atoms: C2_5  and  C3_9 
REMARK    4  A    between atoms: N2_6  and  O1_7 
REMARK       I    between atoms: C3_9  and  N3_11 
REMARK    5  A    between atoms: N3_11  and  C4_13 
REMARK    6  A    between atoms: C4_13  and  C5_14 
REMARK    7  A    between atoms: C4_13  and  C12_21 
REMARK    8  A    between atoms: C5_14  and  C6_15 
REMARK    9  A    between atoms: C12_21  and  N4_22 
ROOT
HETATM    1  C3  UNL     1      -9.014 -57.108  -6.222  1.00  0.00     0.244 C 
HETATM    2  O2  UNL     1      -9.789 -56.400  -6.909  1.00  0.00    -0.271 OA
HETATM    3  N3  UNL     1      -8.328 -58.207  -6.802  1.00  0.00    -0.353 N 
ATOM      4  H3  UNL     1      -7.701 -58.777  -6.234  1.00  0.00     0.163 HD
ENDROOT
BRANCH   3   5
HETATM    5  C4  UNL     1      -8.520 -58.514  -8.200  1.00  0.00     0.112 C 
BRANCH   5   6
HETATM    6  C5  UNL     1      -9.295 -59.778  -8.421  1.00  0.00     0.065 C 
BRANCH   6   7
HETATM    7  C6  UNL     1      -9.963 -59.813  -9.743  1.00  0.00    -0.056 A 
HETATM    8  C7  UNL     1      -9.250 -59.503 -10.894  1.00  0.00     0.007 A 
HETATM    9  C8  UNL     1      -9.836 -59.527 -12.145  1.00  0.00     0.001 A 
HETATM   10  C9  UNL     1     -11.165 -59.865 -12.293  1.00  0.00     0.000 A 
HETATM   11  C10 UNL     1     -11.889 -60.177 -11.163  1.00  0.00     0.001 A 
HETATM   12  C11 UNL     1     -11.290 -60.150  -9.905  1.00  0.00     0.007 A 
ENDBRANCH   6   7
ENDBRANCH   5   6
BRANCH   5  13
HETATM   13  C12 UNL     1      -7.112 -58.635  -8.794  1.00  0.00     0.226 C 
BRANCH  13  14
HETATM   14  N4  UNL     1      -6.242 -59.154  -7.770  1.00  0.00    -0.154 N 
HETATM   15  O3  UNL     1      -6.158 -60.378  -7.547  1.00  0.00    -0.536 OA
HETATM   16  O4  UNL     1      -5.493 -58.276  -7.026  1.00  0.00    -0.536 OA
ENDBRANCH  13  14
ENDBRANCH   5  13
ENDBRANCH   3   5
BRANCH   1  17
HETATM   17  C2  UNL     1      -8.841 -56.761  -4.791  1.00  0.00     0.235 C 
BRANCH  17  18
HETATM   18  C1  UNL     1      -7.379 -56.618  -4.530  1.00  0.00     0.086 C 
HETATM   19  N1  UNL     1      -6.881 -55.463  -4.330  1.00  0.00    -0.409 N 
ATOM     20  H12 UNL     1      -7.493 -54.647  -4.351  1.00  0.00     0.155 HD
ATOM     21  H11 UNL     1      -5.881 -55.366  -4.150  1.00  0.00     0.155 HD
ENDBRANCH  17  18
BRANCH  17  22
HETATM   22  N2  UNL     1      -9.312 -57.830  -3.949  1.00  0.00    -0.084 NA
BRANCH  22  23
HETATM   23  O1  UNL     1     -10.482 -58.328  -4.392  1.00  0.00    -0.295 OA
ATOM     24  H1  UNL     1     -10.810 -59.011  -3.819  1.00  0.00     0.238 HD
ENDBRANCH  22  23
ENDBRANCH  17  22
ENDBRANCH   1  17
TORSDOF 9
ENDMDL
