MODEL 1
REMARK VINA RESULT: -6.287590999      0.000      0.000
REMARK  7 active torsions:
REMARK  status: ('A' for Active; 'I' for Inactive)
REMARK    1  A    between atoms: C2_2  and  C3_3 
REMARK    2  A    between atoms: C6_6  and  N1_7 
REMARK       I    between atoms: N1_7  and  C7_9 
REMARK       I    between atoms: C7_9  and  N2_11 
REMARK    3  A    between atoms: N2_11  and  C8_13 
REMARK       I    between atoms: N3_25  and  C20_26 
REMARK    4  A    between atoms: C20_26  and  C21_28 
REMARK    5  A    between atoms: C21_28  and  C22_29 
REMARK    6  A    between atoms: C22_29  and  C23_30 
REMARK    7  A    between atoms: C23_30  and  C24_31 
ROOT
HETATM    1  C3  UNL     1      29.000  -2.606  -2.477  1.00  0.00     0.115 C 
HETATM    2  C4  UNL     1      28.767  -1.172  -2.715  1.00  0.00     0.031 C 
HETATM    3  C5  UNL     1      29.505  -0.307  -1.707  1.00  0.00     0.014 C 
HETATM    4  C6  UNL     1      29.063  -0.744  -4.130  1.00  0.00     0.093 C 
HETATM    5  C18 UNL     1      30.502  -1.208  -4.400  1.00  0.00     0.045 C 
HETATM    6  C19 UNL     1      30.398  -2.695  -4.606  1.00  0.00     0.128 C 
HETATM    7  N3  UNL     1      29.879  -3.288  -3.391  1.00  0.00    -0.344 N 
HETATM    8  C20 UNL     1      30.255  -4.610  -3.091  1.00  0.00     0.220 C 
HETATM    9  O2  UNL     1      29.833  -5.168  -2.062  1.00  0.00    -0.273 OA
ENDROOT
BRANCH   4  10
HETATM   10  N1  UNL     1      28.880   0.636  -4.389  1.00  0.00    -0.338 N 
HETATM   11  C7  UNL     1      28.443   1.074  -5.662  1.00  0.00     0.317 C 
HETATM   12  O1  UNL     1      28.215   0.242  -6.562  1.00  0.00    -0.247 OA
HETATM   13  N2  UNL     1      28.264   2.451  -5.907  1.00  0.00    -0.334 N 
ATOM     14  H2  UNL     1      28.446   3.121  -5.160  1.00  0.00     0.165 HD
ATOM     15  H1  UNL     1      29.064   1.319  -3.654  1.00  0.00     0.164 HD
BRANCH  13  16
HETATM   16  C8  UNL     1      27.833   2.925  -7.187  1.00  0.00     0.035 C 
HETATM   17  C9  UNL     1      28.890   2.751  -8.219  1.00  0.00     0.035 C 
HETATM   18  C10 UNL     1      28.440   3.353  -9.559  1.00  0.00    -0.012 C 
HETATM   19  C11 UNL     1      27.196   2.604  -9.958  1.00  0.00     0.009 C 
HETATM   20  C15 UNL     1      28.223   4.814  -9.341  1.00  0.00     0.009 C 
HETATM   21  C12 UNL     1      26.131   2.868  -8.945  1.00  0.00    -0.012 C 
HETATM   22  C13 UNL     1      25.831   4.347  -8.791  1.00  0.00     0.009 C 
HETATM   23  C17 UNL     1      26.496   2.339  -7.591  1.00  0.00     0.035 C 
HETATM   24  C14 UNL     1      27.091   5.010  -8.329  1.00  0.00    -0.012 C 
HETATM   25  C16 UNL     1      27.565   4.434  -7.042  1.00  0.00     0.035 C 
ENDBRANCH  13  16
ENDBRANCH   4  10
BRANCH   1  26
HETATM   26  C2  UNL     1      29.514  -2.832  -1.096  1.00  0.00    -0.012 C 
HETATM   27  C1  UNL     1      28.755  -3.132  -0.075  1.00  0.00     0.009 C 
ENDBRANCH   1  26
BRANCH   8  28
HETATM   28  C21 UNL     1      31.155  -5.353  -3.993  1.00  0.00     0.103 C 
BRANCH  28  29
HETATM   29  C22 UNL     1      32.481  -5.670  -3.365  1.00  0.00     0.010 C 
BRANCH  29  30
HETATM   30  C23 UNL     1      33.389  -4.465  -3.603  1.00  0.00     0.004 C 
BRANCH  30  31
HETATM   31  C24 UNL     1      33.785  -3.823  -2.292  1.00  0.00    -0.023 C 
HETATM   32  C25 UNL     1      35.271  -3.882  -2.062  1.00  0.00     0.009 C 
HETATM   33  C26 UNL     1      33.242  -2.434  -2.241  1.00  0.00     0.009 C 
ENDBRANCH  30  31
ENDBRANCH  29  30
ENDBRANCH  28  29
ENDBRANCH   8  28
TORSDOF 7
ENDMDL
MODEL 2
REMARK VINA RESULT: -5.832998685      5.873      9.482
REMARK  7 active torsions:
REMARK  status: ('A' for Active; 'I' for Inactive)
REMARK    1  A    between atoms: C2_2  and  C3_3 
REMARK    2  A    between atoms: C6_6  and  N1_7 
REMARK       I    between atoms: N1_7  and  C7_9 
REMARK       I    between atoms: C7_9  and  N2_11 
REMARK    3  A    between atoms: N2_11  and  C8_13 
REMARK       I    between atoms: N3_25  and  C20_26 
REMARK    4  A    between atoms: C20_26  and  C21_28 
REMARK    5  A    between atoms: C21_28  and  C22_29 
REMARK    6  A    between atoms: C22_29  and  C23_30 
REMARK    7  A    between atoms: C23_30  and  C24_31 
ROOT
HETATM    1  C3  UNL     1      28.024  -3.578   0.602  1.00  0.00     0.115 C 
HETATM    2  C4  UNL     1      28.163  -2.961   1.932  1.00  0.00     0.031 C 
HETATM    3  C5  UNL     1      29.062  -3.782   2.841  1.00  0.00     0.014 C 
HETATM    4  C6  UNL     1      28.602  -1.519   1.879  1.00  0.00     0.093 C 
HETATM    5  C18 UNL     1      29.887  -1.518   1.039  1.00  0.00     0.045 C 
HETATM    6  C19 UNL     1      29.423  -1.688  -0.382  1.00  0.00     0.128 C 
HETATM    7  N3  UNL     1      28.734  -2.958  -0.487  1.00  0.00    -0.344 N 
HETATM    8  C20 UNL     1      28.758  -3.621  -1.727  1.00  0.00     0.220 C 
HETATM    9  O2  UNL     1      28.177  -4.712  -1.872  1.00  0.00    -0.273 OA
ENDROOT
BRANCH   4  10
HETATM   10  N1  UNL     1      28.777  -0.900   3.141  1.00  0.00    -0.338 N 
HETATM   11  C7  UNL     1      27.797  -0.014   3.646  1.00  0.00     0.317 C 
HETATM   12  O1  UNL     1      26.771   0.224   2.980  1.00  0.00    -0.247 OA
HETATM   13  N2  UNL     1      27.984   0.596   4.903  1.00  0.00    -0.334 N 
ATOM     14  H2  UNL     1      28.824   0.387   5.442  1.00  0.00     0.165 HD
ATOM     15  H1  UNL     1      29.616  -1.095   3.689  1.00  0.00     0.164 HD
BRANCH  13  16
HETATM   16  C8  UNL     1      27.014   1.505   5.437  1.00  0.00     0.035 C 
HETATM   17  C9  UNL     1      27.054   2.817   4.738  1.00  0.00     0.035 C 
HETATM   18  C10 UNL     1      26.073   3.804   5.389  1.00  0.00    -0.012 C 
HETATM   19  C11 UNL     1      24.706   3.186   5.257  1.00  0.00     0.009 C 
HETATM   20  C15 UNL     1      26.513   4.003   6.802  1.00  0.00     0.009 C 
HETATM   21  C12 UNL     1      24.677   1.914   6.039  1.00  0.00    -0.012 C 
HETATM   22  C13 UNL     1      25.024   2.122   7.500  1.00  0.00     0.009 C 
HETATM   23  C17 UNL     1      25.630   0.893   5.491  1.00  0.00     0.035 C 
HETATM   24  C14 UNL     1      26.415   2.673   7.552  1.00  0.00    -0.012 C 
HETATM   25  C16 UNL     1      27.387   1.748   6.910  1.00  0.00     0.035 C 
ENDBRANCH  13  16
ENDBRANCH   4  10
BRANCH   1  26
HETATM   26  C2  UNL     1      28.420  -5.014   0.646  1.00  0.00    -0.012 C 
HETATM   27  C1  UNL     1      27.616  -5.983   0.999  1.00  0.00     0.009 C 
ENDBRANCH   1  26
BRANCH   8  28
HETATM   28  C21 UNL     1      29.472  -3.030  -2.875  1.00  0.00     0.103 C 
BRANCH  28  29
HETATM   29  C22 UNL     1      30.569  -3.911  -3.397  1.00  0.00     0.010 C 
BRANCH  29  30
HETATM   30  C23 UNL     1      31.875  -3.415  -2.780  1.00  0.00     0.004 C 
BRANCH  30  31
HETATM   31  C24 UNL     1      33.038  -4.278  -3.214  1.00  0.00    -0.023 C 
HETATM   32  C25 UNL     1      34.236  -4.099  -2.321  1.00  0.00     0.009 C 
HETATM   33  C26 UNL     1      32.589  -5.697  -3.311  1.00  0.00     0.009 C 
ENDBRANCH  30  31
ENDBRANCH  29  30
ENDBRANCH  28  29
ENDBRANCH   8  28
TORSDOF 7
ENDMDL
MODEL 3
REMARK VINA RESULT: -5.660483227      2.304      3.977
REMARK  7 active torsions:
REMARK  status: ('A' for Active; 'I' for Inactive)
REMARK    1  A    between atoms: C2_2  and  C3_3 
REMARK    2  A    between atoms: C6_6  and  N1_7 
REMARK       I    between atoms: N1_7  and  C7_9 
REMARK       I    between atoms: C7_9  and  N2_11 
REMARK    3  A    between atoms: N2_11  and  C8_13 
REMARK       I    between atoms: N3_25  and  C20_26 
REMARK    4  A    between atoms: C20_26  and  C21_28 
REMARK    5  A    between atoms: C21_28  and  C22_29 
REMARK    6  A    between atoms: C22_29  and  C23_30 
REMARK    7  A    between atoms: C23_30  and  C24_31 
ROOT
HETATM    1  C3  UNL     1      31.239   0.095  -2.526  1.00  0.00     0.115 C 
HETATM    2  C4  UNL     1      31.531   0.631  -3.866  1.00  0.00     0.031 C 
HETATM    3  C5  UNL     1      32.755  -0.027  -4.480  1.00  0.00     0.014 C 
HETATM    4  C6  UNL     1      30.349   0.578  -4.800  1.00  0.00     0.093 C 
HETATM    5  C18 UNL     1      29.887  -0.886  -4.787  1.00  0.00     0.045 C 
HETATM    6  C19 UNL     1      29.173  -1.055  -3.474  1.00  0.00     0.128 C 
HETATM    7  N3  UNL     1      30.116  -0.798  -2.406  1.00  0.00    -0.344 N 
HETATM    8  C20 UNL     1      29.918  -1.457  -1.178  1.00  0.00     0.220 C 
HETATM    9  O2  UNL     1      30.697  -1.266  -0.227  1.00  0.00    -0.273 OA
ENDROOT
BRANCH   4  10
HETATM   10  N1  UNL     1      30.600   1.057  -6.109  1.00  0.00    -0.338 N 
HETATM   11  C7  UNL     1      29.586   1.729  -6.833  1.00  0.00     0.317 C 
HETATM   12  O1  UNL     1      28.466   1.905  -6.316  1.00  0.00    -0.247 OA
HETATM   13  N2  UNL     1      29.848   2.201  -8.135  1.00  0.00    -0.334 N 
ATOM     14  H2  UNL     1      30.772   2.058  -8.544  1.00  0.00     0.165 HD
ATOM     15  H1  UNL     1      31.516   0.916  -6.534  1.00  0.00     0.164 HD
BRANCH  13  16
HETATM   16  C8  UNL     1      28.840   2.876  -8.895  1.00  0.00     0.035 C 
HETATM   17  C9  UNL     1      27.582   2.084  -8.959  1.00  0.00     0.035 C 
HETATM   18  C10 UNL     1      26.550   2.784  -9.857  1.00  0.00    -0.012 C 
HETATM   19  C11 UNL     1      26.288   4.126  -9.228  1.00  0.00     0.009 C 
HETATM   20  C15 UNL     1      27.133   2.862 -11.229  1.00  0.00     0.009 C 
HETATM   21  C12 UNL     1      27.550   4.925  -9.256  1.00  0.00    -0.012 C 
HETATM   22  C13 UNL     1      28.096   5.097 -10.661  1.00  0.00     0.009 C 
HETATM   23  C17 UNL     1      28.632   4.301  -8.426  1.00  0.00     0.035 C 
HETATM   24  C14 UNL     1      28.394   3.729 -11.192  1.00  0.00    -0.012 C 
HETATM   25  C16 UNL     1      29.377   3.017 -10.331  1.00  0.00     0.035 C 
ENDBRANCH  13  16
ENDBRANCH   4  10
BRANCH   1  26
HETATM   26  C2  UNL     1      32.435  -0.599  -1.967  1.00  0.00    -0.012 C 
HETATM   27  C1  UNL     1      33.383   0.005  -1.299  1.00  0.00     0.009 C 
ENDBRANCH   1  26
BRANCH   8  28
HETATM   28  C21 UNL     1      28.784  -2.383  -1.003  1.00  0.00     0.103 C 
BRANCH  28  29
HETATM   29  C22 UNL     1      29.154  -3.815  -1.254  1.00  0.00     0.010 C 
BRANCH  29  30
HETATM   30  C23 UNL     1      28.019  -4.675  -0.702  1.00  0.00     0.004 C 
BRANCH  30  31
HETATM   31  C24 UNL     1      28.110  -4.785   0.804  1.00  0.00    -0.023 C 
HETATM   32  C25 UNL     1      27.047  -3.973   1.493  1.00  0.00     0.009 C 
HETATM   33  C26 UNL     1      28.089  -6.225   1.195  1.00  0.00     0.009 C 
ENDBRANCH  30  31
ENDBRANCH  29  30
ENDBRANCH  28  29
ENDBRANCH   8  28
TORSDOF 7
ENDMDL
MODEL 4
REMARK VINA RESULT: -5.554816875      1.523      1.970
REMARK  7 active torsions:
REMARK  status: ('A' for Active; 'I' for Inactive)
REMARK    1  A    between atoms: C2_2  and  C3_3 
REMARK    2  A    between atoms: C6_6  and  N1_7 
REMARK       I    between atoms: N1_7  and  C7_9 
REMARK       I    between atoms: C7_9  and  N2_11 
REMARK    3  A    between atoms: N2_11  and  C8_13 
REMARK       I    between atoms: N3_25  and  C20_26 
REMARK    4  A    between atoms: C20_26  and  C21_28 
REMARK    5  A    between atoms: C21_28  and  C22_29 
REMARK    6  A    between atoms: C22_29  and  C23_30 
REMARK    7  A    between atoms: C23_30  and  C24_31 
ROOT
HETATM    1  C3  UNL     1      29.021  -2.445  -2.559  1.00  0.00     0.115 C 
HETATM    2  C4  UNL     1      28.808  -0.998  -2.728  1.00  0.00     0.031 C 
HETATM    3  C5  UNL     1      29.550  -0.194  -1.674  1.00  0.00     0.014 C 
HETATM    4  C6  UNL     1      29.122  -0.506  -4.119  1.00  0.00     0.093 C 
HETATM    5  C18 UNL     1      30.557  -0.975  -4.400  1.00  0.00     0.045 C 
HETATM    6  C19 UNL     1      30.435  -2.449  -4.680  1.00  0.00     0.128 C 
HETATM    7  N3  UNL     1      29.898  -3.094  -3.499  1.00  0.00    -0.344 N 
HETATM    8  C20 UNL     1      30.255  -4.434  -3.261  1.00  0.00     0.220 C 
HETATM    9  O2  UNL     1      29.816  -5.036  -2.264  1.00  0.00    -0.273 OA
ENDROOT
BRANCH   4  10
HETATM   10  N1  UNL     1      28.959   0.888  -4.311  1.00  0.00    -0.338 N 
HETATM   11  C7  UNL     1      27.767   1.398  -4.877  1.00  0.00     0.317 C 
HETATM   12  O1  UNL     1      26.852   0.619  -5.208  1.00  0.00    -0.247 OA
HETATM   13  N2  UNL     1      27.617   2.787  -5.064  1.00  0.00    -0.334 N 
ATOM     14  H2  UNL     1      28.369   3.415  -4.782  1.00  0.00     0.165 HD
ATOM     15  H1  UNL     1      29.705   1.528  -4.040  1.00  0.00     0.164 HD
BRANCH  13  16
HETATM   16  C8  UNL     1      26.426   3.332  -5.643  1.00  0.00     0.035 C 
HETATM   17  C9  UNL     1      26.277   2.927  -7.067  1.00  0.00     0.035 C 
HETATM   18  C10 UNL     1      25.045   3.600  -7.692  1.00  0.00    -0.012 C 
HETATM   19  C11 UNL     1      23.859   3.132  -6.891  1.00  0.00     0.009 C 
HETATM   20  C15 UNL     1      25.268   5.075  -7.638  1.00  0.00     0.009 C 
HETATM   21  C12 UNL     1      24.001   3.627  -5.489  1.00  0.00    -0.012 C 
HETATM   22  C13 UNL     1      24.126   5.137  -5.417  1.00  0.00     0.009 C 
HETATM   23  C17 UNL     1      25.200   3.043  -4.803  1.00  0.00     0.035 C 
HETATM   24  C14 UNL     1      25.359   5.518  -6.175  1.00  0.00    -0.012 C 
HETATM   25  C16 UNL     1      26.568   4.865  -5.606  1.00  0.00     0.035 C 
ENDBRANCH  13  16
ENDBRANCH   4  10
BRANCH   1  26
HETATM   26  C2  UNL     1      29.520  -2.746  -1.187  1.00  0.00    -0.012 C 
HETATM   27  C1  UNL     1      28.753  -3.123  -0.198  1.00  0.00     0.009 C 
ENDBRANCH   1  26
BRANCH   8  28
HETATM   28  C21 UNL     1      31.152  -5.144  -4.192  1.00  0.00     0.103 C 
BRANCH  28  29
HETATM   29  C22 UNL     1      32.462  -5.522  -3.566  1.00  0.00     0.010 C 
BRANCH  29  30
HETATM   30  C23 UNL     1      33.387  -4.314  -3.698  1.00  0.00     0.004 C 
BRANCH  30  31
HETATM   31  C24 UNL     1      33.735  -3.751  -2.338  1.00  0.00    -0.023 C 
HETATM   32  C25 UNL     1      35.202  -3.883  -2.032  1.00  0.00     0.009 C 
HETATM   33  C26 UNL     1      33.245  -2.344  -2.247  1.00  0.00     0.009 C 
ENDBRANCH  30  31
ENDBRANCH  29  30
ENDBRANCH  28  29
ENDBRANCH   8  28
TORSDOF 7
ENDMDL
MODEL 5
REMARK VINA RESULT: -5.533698061      1.727      2.363
REMARK  7 active torsions:
REMARK  status: ('A' for Active; 'I' for Inactive)
REMARK    1  A    between atoms: C2_2  and  C3_3 
REMARK    2  A    between atoms: C6_6  and  N1_7 
REMARK       I    between atoms: N1_7  and  C7_9 
REMARK       I    between atoms: C7_9  and  N2_11 
REMARK    3  A    between atoms: N2_11  and  C8_13 
REMARK       I    between atoms: N3_25  and  C20_26 
REMARK    4  A    between atoms: C20_26  and  C21_28 
REMARK    5  A    between atoms: C21_28  and  C22_29 
REMARK    6  A    between atoms: C22_29  and  C23_30 
REMARK    7  A    between atoms: C23_30  and  C24_31 
ROOT
HETATM    1  C3  UNL     1      30.167  -3.574  -3.389  1.00  0.00     0.115 C 
HETATM    2  C4  UNL     1      29.368  -2.338  -3.416  1.00  0.00     0.031 C 
HETATM    3  C5  UNL     1      28.713  -2.062  -2.073  1.00  0.00     0.014 C 
HETATM    4  C6  UNL     1      30.137  -1.139  -3.911  1.00  0.00     0.093 C 
HETATM    5  C18 UNL     1      31.389  -1.068  -3.026  1.00  0.00     0.045 C 
HETATM    6  C19 UNL     1      32.286  -2.165  -3.532  1.00  0.00     0.128 C 
HETATM    7  N3  UNL     1      31.600  -3.429  -3.362  1.00  0.00    -0.344 N 
HETATM    8  C20 UNL     1      32.381  -4.581  -3.163  1.00  0.00     0.220 C 
HETATM    9  O2  UNL     1      31.841  -5.693  -3.017  1.00  0.00    -0.273 OA
ENDROOT
BRANCH   4  10
HETATM   10  N1  UNL     1      29.409   0.076  -3.922  1.00  0.00    -0.338 N 
HETATM   11  C7  UNL     1      28.868   0.576  -5.131  1.00  0.00     0.317 C 
HETATM   12  O1  UNL     1      29.029  -0.056  -6.193  1.00  0.00    -0.247 OA
HETATM   13  N2  UNL     1      28.146   1.787  -5.129  1.00  0.00    -0.334 N 
ATOM     14  H2  UNL     1      28.014   2.290  -4.251  1.00  0.00     0.165 HD
ATOM     15  H1  UNL     1      29.274   0.594  -3.054  1.00  0.00     0.164 HD
BRANCH  13  16
HETATM   16  C8  UNL     1      27.595   2.322  -6.337  1.00  0.00     0.035 C 
HETATM   17  C9  UNL     1      28.657   2.624  -7.334  1.00  0.00     0.035 C 
HETATM   18  C10 UNL     1      28.051   3.285  -8.582  1.00  0.00    -0.012 C 
HETATM   19  C11 UNL     1      27.073   2.292  -9.149  1.00  0.00     0.009 C 
HETATM   20  C15 UNL     1      27.428   4.570  -8.147  1.00  0.00     0.009 C 
HETATM   21  C12 UNL     1      25.977   2.077  -8.157  1.00  0.00    -0.012 C 
HETATM   22  C13 UNL     1      25.269   3.365  -7.786  1.00  0.00     0.009 C 
HETATM   23  C17 UNL     1      26.480   1.458  -6.887  1.00  0.00     0.035 C 
HETATM   24  C14 UNL     1      26.288   4.271  -7.170  1.00  0.00    -0.012 C 
HETATM   25  C16 UNL     1      26.908   3.650  -5.968  1.00  0.00     0.035 C 
ENDBRANCH  13  16
ENDBRANCH   4  10
BRANCH   1  26
HETATM   26  C2  UNL     1      29.774  -4.428  -2.232  1.00  0.00    -0.012 C 
HETATM   27  C1  UNL     1      28.697  -5.168  -2.204  1.00  0.00     0.009 C 
ENDBRANCH   1  26
BRANCH   8  28
HETATM   28  C21 UNL     1      33.853  -4.487  -3.126  1.00  0.00     0.103 C 
BRANCH  28  29
HETATM   29  C22 UNL     1      34.462  -4.299  -4.484  1.00  0.00     0.010 C 
BRANCH  29  30
HETATM   30  C23 UNL     1      33.849  -5.357  -5.400  1.00  0.00     0.004 C 
BRANCH  30  31
HETATM   31  C24 UNL     1      34.615  -5.452  -6.701  1.00  0.00    -0.023 C 
HETATM   32  C25 UNL     1      35.928  -4.721  -6.636  1.00  0.00     0.009 C 
HETATM   33  C26 UNL     1      34.763  -6.887  -7.082  1.00  0.00     0.009 C 
ENDBRANCH  30  31
ENDBRANCH  29  30
ENDBRANCH  28  29
ENDBRANCH   8  28
TORSDOF 7
ENDMDL
