MODEL 1
REMARK VINA RESULT: -6.312542996      0.000      0.000
REMARK  8 active torsions:
REMARK  status: ('A' for Active; 'I' for Inactive)
REMARK    1  A    between atoms: C2_2  and  C3_3 
REMARK    2  A    between atoms: C3_3  and  N1_4 
REMARK    3  A    between atoms: N1_4  and  C4_6 
REMARK    4  A    between atoms: C4_6  and  O1_7 
REMARK    5  A    between atoms: C4_6  and  C5_9 
REMARK    6  A    between atoms: C5_9  and  N2_21 
REMARK    7  A    between atoms: C6_10  and  C7_11 
REMARK       I    between atoms: N2_21  and  C17_23 
REMARK    8  A    between atoms: C17_23  and  C18_25 
ROOT
HETATM    1  C5  UNL     1      30.549  -2.069  -3.636  1.00  0.00     0.082 C 
HETATM    2  C6  UNL     1      31.552  -1.875  -2.615  1.00  0.00     0.017 C 
ENDROOT
BRANCH   1   3
HETATM    3  C4  UNL     1      30.012  -3.366  -3.992  1.00  0.00     0.163 C 
BRANCH   3   4
HETATM    4  N1  UNL     1      29.523  -4.412  -3.202  1.00  0.00    -0.366 N 
ATOM      5  H1  UNL     1      29.737  -5.373  -3.466  1.00  0.00     0.162 HD
BRANCH   4   6
HETATM    6  C3  UNL     1      28.708  -4.163  -1.998  1.00  0.00     0.148 C 
BRANCH   6   7
HETATM    7  C2  UNL     1      28.685  -5.339  -1.102  1.00  0.00    -0.018 C 
HETATM    8  C1  UNL     1      28.102  -5.347   0.082  1.00  0.00     0.008 C 
ENDBRANCH   6   7
ENDBRANCH   4   6
ENDBRANCH   3   4
BRANCH   3   9
HETATM    9  O1  UNL     1      29.964  -3.605  -5.284  1.00  0.00    -0.345 OA
ATOM     10  H1  UNL     1      30.017  -2.825  -5.823  1.00  0.00     0.219 HD
ENDBRANCH   3   9
ENDBRANCH   1   3
BRANCH   1  11
HETATM   11  N2  UNL     1      29.513  -1.059  -3.781  1.00  0.00    -0.323 N 
HETATM   12  C17 UNL     1      29.232  -0.330  -4.954  1.00  0.00     0.227 C 
HETATM   13  O2  UNL     1      29.930  -0.556  -5.988  1.00  0.00    -0.273 OA
ATOM     14  H2  UNL     1      28.939  -0.861  -2.962  1.00  0.00     0.169 HD
BRANCH  12  15
HETATM   15  C18 UNL     1      28.179   0.687  -5.065  1.00  0.00     0.086 C 
HETATM   16  C19 UNL     1      28.562   1.900  -4.245  1.00  0.00    -0.000 C 
HETATM   17  C20 UNL     1      29.704   2.659  -4.888  1.00  0.00     0.010 C 
HETATM   18  C24 UNL     1      27.343   2.790  -4.145  1.00  0.00     0.010 C 
HETATM   19  C21 UNL     1      29.281   3.162  -6.233  1.00  0.00    -0.013 C 
HETATM   20  C22 UNL     1      28.038   4.034  -6.120  1.00  0.00     0.009 C 
HETATM   21  C27 UNL     1      28.950   1.946  -7.101  1.00  0.00     0.010 C 
HETATM   22  C23 UNL     1      26.946   3.184  -5.550  1.00  0.00    -0.013 C 
HETATM   23  C25 UNL     1      26.623   1.981  -6.404  1.00  0.00     0.010 C 
HETATM   24  C26 UNL     1      27.878   1.101  -6.463  1.00  0.00    -0.000 C 
ENDBRANCH  12  15
ENDBRANCH   1  11
BRANCH   2  25
HETATM   25  C7  UNL     1      32.939  -2.384  -2.750  1.00  0.00    -0.019 C 
HETATM   26  C8  UNL     1      33.648  -1.804  -1.500  1.00  0.00     0.018 C 
HETATM   27  C9  UNL     1      35.104  -2.075  -1.468  1.00  0.00    -0.013 C 
HETATM   28  C10 UNL     1      35.325  -3.576  -1.464  1.00  0.00     0.009 C 
HETATM   29  C14 UNL     1      35.754  -1.403  -2.657  1.00  0.00     0.009 C 
HETATM   30  C11 UNL     1      34.719  -4.101  -2.723  1.00  0.00    -0.013 C 
HETATM   31  C12 UNL     1      35.376  -3.459  -3.903  1.00  0.00     0.009 C 
HETATM   32  C16 UNL     1      33.221  -3.819  -2.798  1.00  0.00     0.018 C 
HETATM   33  C13 UNL     1      35.098  -1.968  -3.889  1.00  0.00    -0.013 C 
HETATM   34  C15 UNL     1      33.640  -1.709  -3.938  1.00  0.00     0.018 C 
ENDBRANCH   2  25
TORSDOF 8
ENDMDL
MODEL 2
REMARK VINA RESULT: -6.181348640      2.559      5.004
REMARK  8 active torsions:
REMARK  status: ('A' for Active; 'I' for Inactive)
REMARK    1  A    between atoms: C2_2  and  C3_3 
REMARK    2  A    between atoms: C3_3  and  N1_4 
REMARK    3  A    between atoms: N1_4  and  C4_6 
REMARK    4  A    between atoms: C4_6  and  O1_7 
REMARK    5  A    between atoms: C4_6  and  C5_9 
REMARK    6  A    between atoms: C5_9  and  N2_21 
REMARK    7  A    between atoms: C6_10  and  C7_11 
REMARK       I    between atoms: N2_21  and  C17_23 
REMARK    8  A    between atoms: C17_23  and  C18_25 
ROOT
HETATM    1  C5  UNL     1      28.990   0.721  -4.894  1.00  0.00     0.082 C 
HETATM    2  C6  UNL     1      28.568  -0.473  -4.200  1.00  0.00     0.017 C 
ENDROOT
BRANCH   1   3
HETATM    3  C4  UNL     1      29.973   0.720  -5.959  1.00  0.00     0.163 C 
BRANCH   3   4
HETATM    4  N1  UNL     1      30.973   1.638  -6.293  1.00  0.00    -0.366 N 
ATOM      5  H1  UNL     1      30.709   2.528  -6.715  1.00  0.00     0.162 HD
BRANCH   4   6
HETATM    6  C3  UNL     1      32.401   1.356  -6.051  1.00  0.00     0.148 C 
BRANCH   6   7
HETATM    7  C2  UNL     1      32.646   0.945  -4.651  1.00  0.00    -0.018 C 
HETATM    8  C1  UNL     1      33.596   0.104  -4.290  1.00  0.00     0.008 C 
ENDBRANCH   6   7
ENDBRANCH   4   6
ENDBRANCH   3   4
BRANCH   3   9
HETATM    9  O1  UNL     1      29.926  -0.330  -6.748  1.00  0.00    -0.345 OA
ATOM     10  H1  UNL     1      29.069  -0.494  -7.122  1.00  0.00     0.219 HD
ENDBRANCH   3   9
ENDBRANCH   1   3
BRANCH   1  11
HETATM   11  N2  UNL     1      27.999   1.753  -5.151  1.00  0.00    -0.323 N 
HETATM   12  C17 UNL     1      27.045   1.739  -6.188  1.00  0.00     0.227 C 
HETATM   13  O2  UNL     1      27.029   0.750  -6.981  1.00  0.00    -0.273 OA
ATOM     14  H2  UNL     1      27.992   2.557  -4.524  1.00  0.00     0.169 HD
BRANCH  12  15
HETATM   15  C18 UNL     1      26.059   2.801  -6.421  1.00  0.00     0.086 C 
HETATM   16  C19 UNL     1      24.669   2.201  -6.444  1.00  0.00    -0.000 C 
HETATM   17  C20 UNL     1      24.237   1.764  -5.060  1.00  0.00     0.010 C 
HETATM   18  C24 UNL     1      23.721   3.256  -6.972  1.00  0.00     0.010 C 
HETATM   19  C21 UNL     1      24.179   2.953  -4.151  1.00  0.00    -0.013 C 
HETATM   20  C22 UNL     1      23.244   4.017  -4.708  1.00  0.00     0.009 C 
HETATM   21  C27 UNL     1      25.590   3.538  -4.062  1.00  0.00     0.010 C 
HETATM   22  C23 UNL     1      23.789   4.441  -6.035  1.00  0.00    -0.013 C 
HETATM   23  C25 UNL     1      25.183   5.015  -5.949  1.00  0.00     0.010 C 
HETATM   24  C26 UNL     1      26.110   3.908  -5.428  1.00  0.00    -0.000 C 
ENDBRANCH  12  15
ENDBRANCH   1  11
BRANCH   2  25
HETATM   25  C7  UNL     1      29.478  -1.253  -3.325  1.00  0.00    -0.019 C 
HETATM   26  C8  UNL     1      28.503  -2.123  -2.492  1.00  0.00     0.018 C 
HETATM   27  C9  UNL     1      29.174  -2.918  -1.439  1.00  0.00    -0.013 C 
HETATM   28  C10 UNL     1      30.177  -3.852  -2.091  1.00  0.00     0.009 C 
HETATM   29  C14 UNL     1      29.826  -1.975  -0.453  1.00  0.00     0.009 C 
HETATM   30  C11 UNL     1      31.162  -2.989  -2.806  1.00  0.00    -0.013 C 
HETATM   31  C12 UNL     1      31.828  -2.071  -1.831  1.00  0.00     0.009 C 
HETATM   32  C16 UNL     1      30.499  -2.138  -3.886  1.00  0.00     0.018 C 
HETATM   33  C13 UNL     1      30.798  -1.132  -1.234  1.00  0.00    -0.013 C 
HETATM   34  C15 UNL     1      30.146  -0.330  -2.294  1.00  0.00     0.018 C 
ENDBRANCH   2  25
TORSDOF 8
ENDMDL
MODEL 3
REMARK VINA RESULT: -6.153437773      2.908      4.996
REMARK  8 active torsions:
REMARK  status: ('A' for Active; 'I' for Inactive)
REMARK    1  A    between atoms: C2_2  and  C3_3 
REMARK    2  A    between atoms: C3_3  and  N1_4 
REMARK    3  A    between atoms: N1_4  and  C4_6 
REMARK    4  A    between atoms: C4_6  and  O1_7 
REMARK    5  A    between atoms: C4_6  and  C5_9 
REMARK    6  A    between atoms: C5_9  and  N2_21 
REMARK    7  A    between atoms: C6_10  and  C7_11 
REMARK       I    between atoms: N2_21  and  C17_23 
REMARK    8  A    between atoms: C17_23  and  C18_25 
ROOT
HETATM    1  C5  UNL     1      29.104   0.682  -5.295  1.00  0.00     0.082 C 
HETATM    2  C6  UNL     1      30.156  -0.250  -4.960  1.00  0.00     0.017 C 
ENDROOT
BRANCH   1   3
HETATM    3  C4  UNL     1      28.612   1.692  -4.381  1.00  0.00     0.163 C 
BRANCH   3   4
HETATM    4  N1  UNL     1      29.278   2.690  -3.662  1.00  0.00    -0.366 N 
ATOM      5  H1  UNL     1      29.208   3.657  -3.976  1.00  0.00     0.162 HD
BRANCH   4   6
HETATM    6  C3  UNL     1      30.078   2.382  -2.461  1.00  0.00     0.148 C 
BRANCH   6   7
HETATM    7  C2  UNL     1      29.234   1.878  -1.357  1.00  0.00    -0.018 C 
HETATM    8  C1  UNL     1      29.713   1.443  -0.207  1.00  0.00     0.008 C 
ENDBRANCH   6   7
ENDBRANCH   4   6
ENDBRANCH   3   4
BRANCH   3   9
HETATM    9  O1  UNL     1      27.310   1.680  -4.198  1.00  0.00    -0.345 OA
ATOM     10  H1  UNL     1      26.958   0.822  -3.989  1.00  0.00     0.219 HD
ENDBRANCH   3   9
ENDBRANCH   1   3
BRANCH   1  11
HETATM   11  N2  UNL     1      29.044   1.189  -6.656  1.00  0.00    -0.323 N 
HETATM   12  C17 UNL     1      27.914   1.161  -7.497  1.00  0.00     0.227 C 
HETATM   13  O2  UNL     1      26.841   0.654  -7.051  1.00  0.00    -0.273 OA
ATOM     14  H2  UNL     1      29.896   1.603  -7.036  1.00  0.00     0.169 HD
BRANCH  12  15
HETATM   15  C18 UNL     1      27.889   1.680  -8.870  1.00  0.00     0.086 C 
HETATM   16  C19 UNL     1      26.455   1.927  -9.288  1.00  0.00    -0.000 C 
HETATM   17  C20 UNL     1      25.870   3.121  -8.564  1.00  0.00     0.010 C 
HETATM   18  C24 UNL     1      26.448   2.174 -10.781  1.00  0.00     0.010 C 
HETATM   19  C21 UNL     1      26.643   4.354  -8.919  1.00  0.00    -0.013 C 
HETATM   20  C22 UNL     1      26.650   4.575 -10.425  1.00  0.00     0.009 C 
HETATM   21  C27 UNL     1      28.084   4.151  -8.445  1.00  0.00     0.010 C 
HETATM   22  C23 UNL     1      27.312   3.387 -11.048  1.00  0.00    -0.013 C 
HETATM   23  C25 UNL     1      28.733   3.184 -10.578  1.00  0.00     0.010 C 
HETATM   24  C26 UNL     1      28.689   2.919  -9.067  1.00  0.00    -0.000 C 
ENDBRANCH  12  15
ENDBRANCH   1  11
BRANCH   2  25
HETATM   25  C7  UNL     1      29.993  -1.302  -3.926  1.00  0.00    -0.019 C 
HETATM   26  C8  UNL     1      31.203  -1.062  -2.989  1.00  0.00     0.018 C 
HETATM   27  C9  UNL     1      31.335  -2.080  -1.922  1.00  0.00    -0.013 C 
HETATM   28  C10 UNL     1      30.082  -2.062  -1.066  1.00  0.00     0.009 C 
HETATM   29  C14 UNL     1      31.573  -3.430  -2.561  1.00  0.00     0.009 C 
HETATM   30  C11 UNL     1      28.941  -2.391  -1.971  1.00  0.00    -0.013 C 
HETATM   31  C12 UNL     1      29.160  -3.737  -2.585  1.00  0.00     0.009 C 
HETATM   32  C16 UNL     1      28.790  -1.371  -3.096  1.00  0.00     0.018 C 
HETATM   33  C13 UNL     1      30.397  -3.700  -3.462  1.00  0.00    -0.013 C 
HETATM   34  C15 UNL     1      30.247  -2.689  -4.534  1.00  0.00     0.018 C 
ENDBRANCH   2  25
TORSDOF 8
ENDMDL
MODEL 4
REMARK VINA RESULT: -6.138027395      2.730      4.963
REMARK  8 active torsions:
REMARK  status: ('A' for Active; 'I' for Inactive)
REMARK    1  A    between atoms: C2_2  and  C3_3 
REMARK    2  A    between atoms: C3_3  and  N1_4 
REMARK    3  A    between atoms: N1_4  and  C4_6 
REMARK    4  A    between atoms: C4_6  and  O1_7 
REMARK    5  A    between atoms: C4_6  and  C5_9 
REMARK    6  A    between atoms: C5_9  and  N2_21 
REMARK    7  A    between atoms: C6_10  and  C7_11 
REMARK       I    between atoms: N2_21  and  C17_23 
REMARK    8  A    between atoms: C17_23  and  C18_25 
ROOT
HETATM    1  C5  UNL     1      29.110   0.406  -4.887  1.00  0.00     0.082 C 
HETATM    2  C6  UNL     1      29.828  -0.840  -5.029  1.00  0.00     0.017 C 
ENDROOT
BRANCH   1   3
HETATM    3  C4  UNL     1      29.532   1.474  -4.005  1.00  0.00     0.163 C 
BRANCH   3   4
HETATM    4  N1  UNL     1      30.656   2.306  -4.032  1.00  0.00    -0.366 N 
ATOM      5  H1  UNL     1      31.372   2.195  -3.315  1.00  0.00     0.162 HD
BRANCH   4   6
HETATM    6  C3  UNL     1      30.834   3.339  -5.070  1.00  0.00     0.148 C 
BRANCH   6   7
HETATM    7  C2  UNL     1      31.553   2.810  -6.249  1.00  0.00    -0.018 C 
HETATM    8  C1  UNL     1      32.388   1.789  -6.201  1.00  0.00     0.008 C 
ENDBRANCH   6   7
ENDBRANCH   4   6
ENDBRANCH   3   4
BRANCH   3   9
HETATM    9  O1  UNL     1      28.713   1.715  -3.004  1.00  0.00    -0.345 OA
ATOM     10  H1  UNL     1      29.120   1.646  -2.148  1.00  0.00     0.219 HD
ENDBRANCH   3   9
ENDBRANCH   1   3
BRANCH   1  11
HETATM   11  N2  UNL     1      28.479   0.973  -6.067  1.00  0.00    -0.323 N 
HETATM   12  C17 UNL     1      27.164   1.473  -6.138  1.00  0.00     0.227 C 
HETATM   13  O2  UNL     1      26.447   1.438  -5.094  1.00  0.00    -0.273 OA
ATOM     14  H2  UNL     1      29.038   1.013  -6.920  1.00  0.00     0.169 HD
BRANCH  12  15
HETATM   15  C18 UNL     1      26.556   2.037  -7.349  1.00  0.00     0.086 C 
HETATM   16  C19 UNL     1      26.221   3.494  -7.113  1.00  0.00    -0.000 C 
HETATM   17  C20 UNL     1      27.474   4.343  -7.050  1.00  0.00     0.010 C 
HETATM   18  C24 UNL     1      25.342   3.956  -8.255  1.00  0.00     0.010 C 
HETATM   19  C21 UNL     1      28.197   4.272  -8.360  1.00  0.00    -0.013 C 
HETATM   20  C22 UNL     1      27.292   4.713  -9.503  1.00  0.00     0.009 C 
HETATM   21  C27 UNL     1      28.602   2.814  -8.589  1.00  0.00     0.010 C 
HETATM   22  C23 UNL     1      26.126   3.776  -9.536  1.00  0.00    -0.013 C 
HETATM   23  C25 UNL     1      26.525   2.337  -9.758  1.00  0.00     0.010 C 
HETATM   24  C26 UNL     1      27.397   1.908  -8.570  1.00  0.00    -0.000 C 
ENDBRANCH  12  15
ENDBRANCH   1  11
BRANCH   2  25
HETATM   25  C7  UNL     1      29.941  -1.828  -3.929  1.00  0.00    -0.019 C 
HETATM   26  C8  UNL     1      31.253  -1.412  -3.217  1.00  0.00     0.018 C 
HETATM   27  C9  UNL     1      31.657  -2.339  -2.135  1.00  0.00    -0.013 C 
HETATM   28  C10 UNL     1      30.562  -2.378  -1.087  1.00  0.00     0.009 C 
HETATM   29  C14 UNL     1      31.929  -3.701  -2.732  1.00  0.00     0.009 C 
HETATM   30  C11 UNL     1      29.332  -2.874  -1.772  1.00  0.00    -0.013 C 
HETATM   31  C12 UNL     1      29.587  -4.232  -2.342  1.00  0.00     0.009 C 
HETATM   32  C16 UNL     1      28.900  -1.952  -2.909  1.00  0.00     0.018 C 
HETATM   33  C13 UNL     1      30.659  -4.141  -3.411  1.00  0.00    -0.013 C 
HETATM   34  C15 UNL     1      30.237  -3.224  -4.496  1.00  0.00     0.018 C 
ENDBRANCH   2  25
TORSDOF 8
ENDMDL
MODEL 5
REMARK VINA RESULT: -6.048195947      2.618      5.365
REMARK  8 active torsions:
REMARK  status: ('A' for Active; 'I' for Inactive)
REMARK    1  A    between atoms: C2_2  and  C3_3 
REMARK    2  A    between atoms: C3_3  and  N1_4 
REMARK    3  A    between atoms: N1_4  and  C4_6 
REMARK    4  A    between atoms: C4_6  and  O1_7 
REMARK    5  A    between atoms: C4_6  and  C5_9 
REMARK    6  A    between atoms: C5_9  and  N2_21 
REMARK    7  A    between atoms: C6_10  and  C7_11 
REMARK       I    between atoms: N2_21  and  C17_23 
REMARK    8  A    between atoms: C17_23  and  C18_25 
ROOT
HETATM    1  C5  UNL     1      29.064   0.583  -4.916  1.00  0.00     0.082 C 
HETATM    2  C6  UNL     1      28.591  -0.583  -4.207  1.00  0.00     0.017 C 
ENDROOT
BRANCH   1   3
HETATM    3  C4  UNL     1      30.019   0.523  -6.003  1.00  0.00     0.163 C 
BRANCH   3   4
HETATM    4  N1  UNL     1      31.111   1.337  -6.320  1.00  0.00    -0.366 N 
ATOM      5  H1  UNL     1      32.054   0.987  -6.153  1.00  0.00     0.162 HD
BRANCH   4   6
HETATM    6  C3  UNL     1      30.938   2.687  -6.888  1.00  0.00     0.148 C 
BRANCH   6   7
HETATM    7  C2  UNL     1      30.358   2.636  -8.248  1.00  0.00    -0.018 C 
HETATM    8  C1  UNL     1      29.260   3.277  -8.601  1.00  0.00     0.008 C 
ENDBRANCH   6   7
ENDBRANCH   4   6
ENDBRANCH   3   4
BRANCH   3   9
HETATM    9  O1  UNL     1      29.837  -0.476  -6.839  1.00  0.00    -0.345 OA
ATOM     10  H1  UNL     1      28.939  -0.782  -6.886  1.00  0.00     0.219 HD
ENDBRANCH   3   9
ENDBRANCH   1   3
BRANCH   1  11
HETATM   11  N2  UNL     1      28.128   1.670  -5.152  1.00  0.00    -0.323 N 
HETATM   12  C17 UNL     1      27.127   1.694  -6.143  1.00  0.00     0.227 C 
HETATM   13  O2  UNL     1      27.011   0.690  -6.910  1.00  0.00    -0.273 OA
ATOM     14  H2  UNL     1      28.202   2.487  -4.547  1.00  0.00     0.169 HD
BRANCH  12  15
HETATM   15  C18 UNL     1      26.199   2.810  -6.358  1.00  0.00     0.086 C 
HETATM   16  C19 UNL     1      24.782   2.282  -6.424  1.00  0.00    -0.000 C 
HETATM   17  C20 UNL     1      24.303   1.823  -5.063  1.00  0.00     0.010 C 
HETATM   18  C24 UNL     1      23.898   3.400  -6.932  1.00  0.00     0.010 C 
HETATM   19  C21 UNL     1      24.288   2.984  -4.116  1.00  0.00    -0.013 C 
HETATM   20  C22 UNL     1      23.417   4.110  -4.653  1.00  0.00     0.009 C 
HETATM   21  C27 UNL     1      25.725   3.494  -3.984  1.00  0.00     0.010 C 
HETATM   22  C23 UNL     1      24.007   4.550  -5.956  1.00  0.00    -0.013 C 
HETATM   23  C25 UNL     1      25.426   5.050  -5.827  1.00  0.00     0.010 C 
HETATM   24  C26 UNL     1      26.287   3.881  -5.328  1.00  0.00    -0.000 C 
ENDBRANCH  12  15
ENDBRANCH   1  11
BRANCH   2  25
HETATM   25  C7  UNL     1      29.475  -1.412  -3.351  1.00  0.00    -0.019 C 
HETATM   26  C8  UNL     1      28.478  -2.121  -2.400  1.00  0.00     0.018 C 
HETATM   27  C9  UNL     1      29.137  -2.929  -1.349  1.00  0.00    -0.013 C 
HETATM   28  C10 UNL     1      29.980  -4.003  -2.010  1.00  0.00     0.009 C 
HETATM   29  C14 UNL     1      29.961  -2.014  -0.471  1.00  0.00     0.009 C 
HETATM   30  C11 UNL     1      30.996  -3.296  -2.845  1.00  0.00    -0.013 C 
HETATM   31  C12 UNL     1      31.830  -2.408  -1.977  1.00  0.00     0.009 C 
HETATM   32  C16 UNL     1      30.349  -2.435  -3.926  1.00  0.00     0.018 C 
HETATM   33  C13 UNL     1      30.956  -1.328  -1.368  1.00  0.00    -0.013 C 
HETATM   34  C15 UNL     1      30.315  -0.516  -2.428  1.00  0.00     0.018 C 
ENDBRANCH   2  25
TORSDOF 8
ENDMDL
