MODEL 1
REMARK VINA RESULT: -5.945473171      0.000      0.000
REMARK  11 active torsions:
REMARK  status: ('A' for Active; 'I' for Inactive)
REMARK    1  A    between atoms: C2_2  and  C3_3 
REMARK    2  A    between atoms: C3_3  and  C4_4 
REMARK    3  A    between atoms: C5_5  and  C6_6 
REMARK    4  A    between atoms: C6_6  and  N1_7 
REMARK    5  A    between atoms: C9_10  and  C10_11 
REMARK       I    between atoms: C10_11  and  N2_13 
REMARK    6  A    between atoms: N2_13  and  C11_15 
REMARK    7  A    between atoms: C16_20  and  C17_21 
REMARK    8  A    between atoms: C17_21  and  C18_22 
REMARK    9  A    between atoms: C18_22  and  C19_23 
REMARK   10  A    between atoms: C19_23  and  C20_24 
REMARK   11  A    between atoms: C20_24  and  O2_25 
ROOT
HETATM    1  N1  UNL     1      30.464   0.413  -4.213  1.00  0.00    -0.044 N 
HETATM    2  C7  UNL     1      29.459  -0.560  -4.540  1.00  0.00     0.241 C 
HETATM    3  C8  UNL     1      30.066  -1.920  -4.498  1.00  0.00     0.048 C 
HETATM    4  C9  UNL     1      30.449  -2.245  -3.063  1.00  0.00     0.052 C 
HETATM    5  C15 UNL     1      29.210  -2.837  -2.441  1.00  0.00     0.025 C 
HETATM    6  C16 UNL     1      29.264  -3.074  -0.982  1.00  0.00    -0.013 C 
HETATM    7  C21 UNL     1      29.571  -1.802  -0.255  1.00  0.00     0.005 C 
HETATM    8  C22 UNL     1      29.807  -0.663  -1.220  1.00  0.00     0.013 C 
HETATM    9  C23 UNL     1      30.861  -1.060  -2.268  1.00  0.00     0.007 C 
HETATM   10  C24 UNL     1      32.080  -1.383  -1.397  1.00  0.00     0.019 C 
HETATM   11  C25 UNL     1      31.198   0.177  -3.037  1.00  0.00     0.160 A 
HETATM   12  C26 UNL     1      32.652   0.631  -3.064  1.00  0.00     0.049 C 
HETATM   13  C27 UNL     1      30.227   1.326  -3.111  1.00  0.00     0.279 A 
ENDROOT
BRANCH   4  14
HETATM   14  C10 UNL     1      31.488  -3.314  -3.182  1.00  0.00     0.228 C 
HETATM   15  O1  UNL     1      31.198  -4.503  -2.935  1.00  0.00    -0.273 OA
HETATM   16  N2  UNL     1      32.832  -3.064  -3.574  1.00  0.00    -0.352 N 
ATOM     17  H2  UNL     1      33.125  -2.111  -3.789  1.00  0.00     0.163 HD
BRANCH  16  18
HETATM   18  C11 UNL     1      33.783  -4.135  -3.670  1.00  0.00     0.022 C 
HETATM   19  C12 UNL     1      33.303  -5.253  -4.574  1.00  0.00     0.037 C 
HETATM   20  C13 UNL     1      34.173  -4.615  -2.310  1.00  0.00     0.037 C 
HETATM   21  C14 UNL     1      35.030  -3.561  -4.328  1.00  0.00     0.037 C 
ENDBRANCH  16  18
ENDBRANCH   4  14
BRANCH   6  22
HETATM   22  C17 UNL     1      27.959  -3.688  -0.531  1.00  0.00     0.005 C 
BRANCH  22  23
HETATM   23  C18 UNL     1      27.670  -3.550   0.920  1.00  0.00     0.002 C 
BRANCH  23  24
HETATM   24  C19 UNL     1      28.093  -4.811   1.640  1.00  0.00     0.026 C 
BRANCH  24  25
HETATM   25  C20 UNL     1      27.839  -6.072   0.883  1.00  0.00     0.164 C 
BRANCH  25  26
HETATM   26  O2  UNL     1      29.105  -6.694   0.741  1.00  0.00    -0.401 OA
ATOM     27  H2  UNL     1      29.033  -7.249  -0.027  1.00  0.00     0.209 HD
ENDBRANCH  25  26
ENDBRANCH  24  25
ENDBRANCH  23  24
ENDBRANCH  22  23
ENDBRANCH   6  22
BRANCH   1  28
HETATM   28  C6  UNL     1      31.116   1.051  -5.355  1.00  0.00     0.332 C 
BRANCH  28  29
HETATM   29  C5  UNL     1      30.145   1.530  -6.338  1.00  0.00    -0.079 C 
HETATM   30  C4  UNL     1      29.337   1.940  -7.137  1.00  0.00    -0.105 C 
BRANCH  30  31
HETATM   31  C3  UNL     1      28.340   2.436  -8.085  1.00  0.00     0.093 C 
BRANCH  31  32
HETATM   32  C2  UNL     1      26.981   2.021  -7.562  1.00  0.00     0.007 C 
HETATM   33  C1  UNL     1      26.542   0.780  -8.346  1.00  0.00     0.006 C 
ENDBRANCH  31  32
ENDBRANCH  30  31
ENDBRANCH  28  29
ENDBRANCH   1  28
TORSDOF 11
ENDMDL
MODEL 2
REMARK VINA RESULT: -5.830542333      1.307      1.487
REMARK  11 active torsions:
REMARK  status: ('A' for Active; 'I' for Inactive)
REMARK    1  A    between atoms: C2_2  and  C3_3 
REMARK    2  A    between atoms: C3_3  and  C4_4 
REMARK    3  A    between atoms: C5_5  and  C6_6 
REMARK    4  A    between atoms: C6_6  and  N1_7 
REMARK    5  A    between atoms: C9_10  and  C10_11 
REMARK       I    between atoms: C10_11  and  N2_13 
REMARK    6  A    between atoms: N2_13  and  C11_15 
REMARK    7  A    between atoms: C16_20  and  C17_21 
REMARK    8  A    between atoms: C17_21  and  C18_22 
REMARK    9  A    between atoms: C18_22  and  C19_23 
REMARK   10  A    between atoms: C19_23  and  C20_24 
REMARK   11  A    between atoms: C20_24  and  O2_25 
ROOT
HETATM    1  N1  UNL     1      30.270   0.357  -4.203  1.00  0.00    -0.044 N 
HETATM    2  C7  UNL     1      29.257  -0.647  -4.375  1.00  0.00     0.241 C 
HETATM    3  C8  UNL     1      29.888  -1.994  -4.303  1.00  0.00     0.048 C 
HETATM    4  C9  UNL     1      30.404  -2.222  -2.891  1.00  0.00     0.052 C 
HETATM    5  C15 UNL     1      29.235  -2.787  -2.124  1.00  0.00     0.025 C 
HETATM    6  C16 UNL     1      29.424  -2.930  -0.664  1.00  0.00    -0.013 C 
HETATM    7  C21 UNL     1      29.773  -1.610  -0.049  1.00  0.00     0.005 C 
HETATM    8  C22 UNL     1      29.902  -0.533  -1.100  1.00  0.00     0.013 C 
HETATM    9  C23 UNL     1      30.865  -0.984  -2.213  1.00  0.00     0.007 C 
HETATM   10  C24 UNL     1      32.162  -1.237  -1.436  1.00  0.00     0.019 C 
HETATM   11  C25 UNL     1      31.110   0.205  -3.085  1.00  0.00     0.160 A 
HETATM   12  C26 UNL     1      32.548   0.673  -3.271  1.00  0.00     0.049 C 
HETATM   13  C27 UNL     1      30.117   1.336  -3.143  1.00  0.00     0.279 A 
ENDROOT
BRANCH   4  14
HETATM   14  C10 UNL     1      31.446  -3.285  -3.036  1.00  0.00     0.228 C 
HETATM   15  O1  UNL     1      31.167  -4.477  -2.790  1.00  0.00    -0.273 OA
HETATM   16  N2  UNL     1      32.780  -3.026  -3.452  1.00  0.00    -0.352 N 
ATOM     17  H2  UNL     1      33.064  -2.070  -3.668  1.00  0.00     0.163 HD
BRANCH  16  18
HETATM   18  C11 UNL     1      33.735  -4.091  -3.573  1.00  0.00     0.022 C 
HETATM   19  C12 UNL     1      33.243  -5.207  -4.472  1.00  0.00     0.037 C 
HETATM   20  C13 UNL     1      34.156  -4.575  -2.224  1.00  0.00     0.037 C 
HETATM   21  C14 UNL     1      34.965  -3.507  -4.254  1.00  0.00     0.037 C 
ENDBRANCH  16  18
ENDBRANCH   4  14
BRANCH   6  22
HETATM   22  C17 UNL     1      28.175  -3.528  -0.059  1.00  0.00     0.005 C 
BRANCH  22  23
HETATM   23  C18 UNL     1      28.235  -3.754   1.409  1.00  0.00     0.002 C 
BRANCH  23  24
HETATM   24  C19 UNL     1      26.931  -3.322   2.039  1.00  0.00     0.026 C 
BRANCH  24  25
HETATM   25  C20 UNL     1      27.078  -2.363   3.174  1.00  0.00     0.164 C 
BRANCH  25  26
HETATM   26  O2  UNL     1      25.829  -2.367   3.843  1.00  0.00    -0.401 OA
ATOM     27  H2  UNL     1      25.514  -3.262   3.792  1.00  0.00     0.209 HD
ENDBRANCH  25  26
ENDBRANCH  24  25
ENDBRANCH  23  24
ENDBRANCH  22  23
ENDBRANCH   6  22
BRANCH   1  28
HETATM   28  C6  UNL     1      30.807   0.928  -5.436  1.00  0.00     0.332 C 
BRANCH  28  29
HETATM   29  C5  UNL     1      29.745   1.418  -6.315  1.00  0.00    -0.079 C 
HETATM   30  C4  UNL     1      28.855   1.821  -7.025  1.00  0.00    -0.105 C 
BRANCH  30  31
HETATM   31  C3  UNL     1      27.762   2.290  -7.877  1.00  0.00     0.093 C 
BRANCH  31  32
HETATM   32  C2  UNL     1      26.874   1.097  -8.161  1.00  0.00     0.007 C 
HETATM   33  C1  UNL     1      25.707   1.143  -7.172  1.00  0.00     0.006 C 
ENDBRANCH  31  32
ENDBRANCH  30  31
ENDBRANCH  28  29
ENDBRANCH   1  28
TORSDOF 11
ENDMDL
MODEL 3
REMARK VINA RESULT: -5.806800146      1.205      1.583
REMARK  11 active torsions:
REMARK  status: ('A' for Active; 'I' for Inactive)
REMARK    1  A    between atoms: C2_2  and  C3_3 
REMARK    2  A    between atoms: C3_3  and  C4_4 
REMARK    3  A    between atoms: C5_5  and  C6_6 
REMARK    4  A    between atoms: C6_6  and  N1_7 
REMARK    5  A    between atoms: C9_10  and  C10_11 
REMARK       I    between atoms: C10_11  and  N2_13 
REMARK    6  A    between atoms: N2_13  and  C11_15 
REMARK    7  A    between atoms: C16_20  and  C17_21 
REMARK    8  A    between atoms: C17_21  and  C18_22 
REMARK    9  A    between atoms: C18_22  and  C19_23 
REMARK   10  A    between atoms: C19_23  and  C20_24 
REMARK   11  A    between atoms: C20_24  and  O2_25 
ROOT
HETATM    1  N1  UNL     1      29.923   0.750  -3.928  1.00  0.00    -0.044 N 
HETATM    2  C7  UNL     1      29.168  -0.349  -4.463  1.00  0.00     0.241 C 
HETATM    3  C8  UNL     1      30.053  -1.541  -4.570  1.00  0.00     0.048 C 
HETATM    4  C9  UNL     1      30.438  -1.998  -3.172  1.00  0.00     0.052 C 
HETATM    5  C15 UNL     1      29.331  -2.924  -2.734  1.00  0.00     0.025 C 
HETATM    6  C16 UNL     1      29.375  -3.368  -1.323  1.00  0.00    -0.013 C 
HETATM    7  C21 UNL     1      29.368  -2.188  -0.402  1.00  0.00     0.005 C 
HETATM    8  C22 UNL     1      29.391  -0.890  -1.175  1.00  0.00     0.013 C 
HETATM    9  C23 UNL     1      30.549  -0.891  -2.188  1.00  0.00     0.007 C 
HETATM   10  C24 UNL     1      31.771  -1.084  -1.284  1.00  0.00     0.019 C 
HETATM   11  C25 UNL     1      30.641   0.493  -2.746  1.00  0.00     0.160 A 
HETATM   12  C26 UNL     1      31.961   1.239  -2.600  1.00  0.00     0.049 C 
HETATM   13  C27 UNL     1      29.447   1.412  -2.727  1.00  0.00     0.279 A 
ENDROOT
BRANCH   4  14
HETATM   14  C10 UNL     1      31.688  -2.795  -3.365  1.00  0.00     0.228 C 
HETATM   15  O1  UNL     1      32.764  -2.222  -3.637  1.00  0.00    -0.273 OA
HETATM   16  N2  UNL     1      31.742  -4.212  -3.255  1.00  0.00    -0.352 N 
ATOM     17  H2  UNL     1      30.893  -4.732  -3.034  1.00  0.00     0.163 HD
BRANCH  16  18
HETATM   18  C11 UNL     1      32.975  -4.920  -3.452  1.00  0.00     0.022 C 
HETATM   19  C12 UNL     1      34.125  -4.299  -2.685  1.00  0.00     0.037 C 
HETATM   20  C13 UNL     1      33.265  -5.075  -4.909  1.00  0.00     0.037 C 
HETATM   21  C14 UNL     1      32.781  -6.315  -2.873  1.00  0.00     0.037 C 
ENDBRANCH  16  18
ENDBRANCH   4  14
BRANCH   6  22
HETATM   22  C17 UNL     1      28.217  -4.303  -1.062  1.00  0.00     0.005 C 
BRANCH  22  23
HETATM   23  C18 UNL     1      28.570  -5.555  -0.346  1.00  0.00     0.002 C 
BRANCH  23  24
HETATM   24  C19 UNL     1      27.754  -5.658   0.922  1.00  0.00     0.026 C 
BRANCH  24  25
HETATM   25  C20 UNL     1      27.874  -4.483   1.835  1.00  0.00     0.164 C 
BRANCH  25  26
HETATM   26  O2  UNL     1      26.572  -3.931   1.922  1.00  0.00    -0.401 OA
ATOM     27  H2  UNL     1      26.476  -3.379   1.155  1.00  0.00     0.209 HD
ENDBRANCH  25  26
ENDBRANCH  24  25
ENDBRANCH  23  24
ENDBRANCH  22  23
ENDBRANCH   6  22
BRANCH   1  28
HETATM   28  C6  UNL     1      30.468   1.679  -4.915  1.00  0.00     0.332 C 
BRANCH  28  29
HETATM   29  C5  UNL     1      29.548   1.887  -6.033  1.00  0.00    -0.079 C 
HETATM   30  C4  UNL     1      28.772   2.048  -6.945  1.00  0.00    -0.105 C 
BRANCH  30  31
HETATM   31  C3  UNL     1      27.827   2.219  -8.048  1.00  0.00     0.093 C 
BRANCH  31  32
HETATM   32  C2  UNL     1      26.931   0.999  -8.061  1.00  0.00     0.007 C 
HETATM   33  C1  UNL     1      25.759   1.274  -7.114  1.00  0.00     0.006 C 
ENDBRANCH  31  32
ENDBRANCH  30  31
ENDBRANCH  28  29
ENDBRANCH   1  28
TORSDOF 11
ENDMDL
MODEL 4
REMARK VINA RESULT: -5.551077082      2.534      7.229
REMARK  11 active torsions:
REMARK  status: ('A' for Active; 'I' for Inactive)
REMARK    1  A    between atoms: C2_2  and  C3_3 
REMARK    2  A    between atoms: C3_3  and  C4_4 
REMARK    3  A    between atoms: C5_5  and  C6_6 
REMARK    4  A    between atoms: C6_6  and  N1_7 
REMARK    5  A    between atoms: C9_10  and  C10_11 
REMARK       I    between atoms: C10_11  and  N2_13 
REMARK    6  A    between atoms: N2_13  and  C11_15 
REMARK    7  A    between atoms: C16_20  and  C17_21 
REMARK    8  A    between atoms: C17_21  and  C18_22 
REMARK    9  A    between atoms: C18_22  and  C19_23 
REMARK   10  A    between atoms: C19_23  and  C20_24 
REMARK   11  A    between atoms: C20_24  and  O2_25 
ROOT
HETATM    1  N1  UNL     1      29.903  -3.998  -3.080  1.00  0.00    -0.044 N 
HETATM    2  C7  UNL     1      28.619  -3.362  -2.971  1.00  0.00     0.241 C 
HETATM    3  C8  UNL     1      28.660  -2.368  -1.863  1.00  0.00     0.048 C 
HETATM    4  C9  UNL     1      29.604  -1.240  -2.246  1.00  0.00     0.052 C 
HETATM    5  C15 UNL     1      28.763  -0.259  -3.023  1.00  0.00     0.025 C 
HETATM    6  C16 UNL     1      29.493   0.853  -3.671  1.00  0.00    -0.013 C 
HETATM    7  C21 UNL     1      30.541   0.321  -4.598  1.00  0.00     0.005 C 
HETATM    8  C22 UNL     1      30.601  -1.187  -4.552  1.00  0.00     0.013 C 
HETATM    9  C23 UNL     1      30.742  -1.672  -3.098  1.00  0.00     0.007 C 
HETATM   10  C24 UNL     1      32.044  -0.997  -2.655  1.00  0.00     0.019 C 
HETATM   11  C25 UNL     1      31.015  -3.141  -3.153  1.00  0.00     0.160 A 
HETATM   12  C26 UNL     1      32.291  -3.658  -2.499  1.00  0.00     0.049 C 
HETATM   13  C27 UNL     1      30.603  -3.957  -4.350  1.00  0.00     0.279 A 
ENDROOT
BRANCH   4  14
HETATM   14  C10 UNL     1      29.996  -0.616  -0.944  1.00  0.00     0.228 C 
HETATM   15  O1  UNL     1      30.734  -1.233  -0.148  1.00  0.00    -0.273 OA
HETATM   16  N2  UNL     1      29.573   0.678  -0.534  1.00  0.00    -0.352 N 
ATOM     17  H2  UNL     1      28.970   1.228  -1.146  1.00  0.00     0.163 HD
BRANCH  16  18
HETATM   18  C11 UNL     1      29.984   1.221   0.729  1.00  0.00     0.022 C 
HETATM   19  C12 UNL     1      31.459   1.567   0.756  1.00  0.00     0.037 C 
HETATM   20  C13 UNL     1      29.579   0.317   1.847  1.00  0.00     0.037 C 
HETATM   21  C14 UNL     1      29.236   2.535   0.910  1.00  0.00     0.037 C 
ENDBRANCH  16  18
ENDBRANCH   4  14
BRANCH   6  22
HETATM   22  C17 UNL     1      28.504   1.747  -4.382  1.00  0.00     0.005 C 
BRANCH  22  23
HETATM   23  C18 UNL     1      27.487   1.034  -5.197  1.00  0.00     0.002 C 
BRANCH  23  24
HETATM   24  C19 UNL     1      27.712   1.338  -6.661  1.00  0.00     0.026 C 
BRANCH  24  25
HETATM   25  C20 UNL     1      26.547   1.036  -7.544  1.00  0.00     0.164 C 
BRANCH  25  26
HETATM   26  O2  UNL     1      26.971  -0.018  -8.391  1.00  0.00    -0.401 OA
ATOM     27  H2  UNL     1      27.123   0.381  -9.240  1.00  0.00     0.209 HD
ENDBRANCH  25  26
ENDBRANCH  24  25
ENDBRANCH  23  24
ENDBRANCH  22  23
ENDBRANCH   6  22
BRANCH   1  28
HETATM   28  C6  UNL     1      30.027  -5.285  -2.399  1.00  0.00     0.332 C 
BRANCH  28  29
HETATM   29  C5  UNL     1      29.153  -5.368  -1.229  1.00  0.00    -0.079 C 
HETATM   30  C4  UNL     1      28.448  -5.432  -0.250  1.00  0.00    -0.105 C 
BRANCH  30  31
HETATM   31  C3  UNL     1      27.612  -5.526   0.946  1.00  0.00     0.093 C 
BRANCH  31  32
HETATM   32  C2  UNL     1      27.136  -4.126   1.269  1.00  0.00     0.007 C 
HETATM   33  C1  UNL     1      28.316  -3.366   1.882  1.00  0.00     0.006 C 
ENDBRANCH  31  32
ENDBRANCH  30  31
ENDBRANCH  28  29
ENDBRANCH   1  28
TORSDOF 11
ENDMDL
MODEL 5
REMARK VINA RESULT: -5.535495121      3.021      7.449
REMARK  11 active torsions:
REMARK  status: ('A' for Active; 'I' for Inactive)
REMARK    1  A    between atoms: C2_2  and  C3_3 
REMARK    2  A    between atoms: C3_3  and  C4_4 
REMARK    3  A    between atoms: C5_5  and  C6_6 
REMARK    4  A    between atoms: C6_6  and  N1_7 
REMARK    5  A    between atoms: C9_10  and  C10_11 
REMARK       I    between atoms: C10_11  and  N2_13 
REMARK    6  A    between atoms: N2_13  and  C11_15 
REMARK    7  A    between atoms: C16_20  and  C17_21 
REMARK    8  A    between atoms: C17_21  and  C18_22 
REMARK    9  A    between atoms: C18_22  and  C19_23 
REMARK   10  A    between atoms: C19_23  and  C20_24 
REMARK   11  A    between atoms: C20_24  and  O2_25 
ROOT
HETATM    1  N1  UNL     1      30.081  -1.863  -2.909  1.00  0.00    -0.044 N 
HETATM    2  C7  UNL     1      28.857  -1.130  -2.737  1.00  0.00     0.241 C 
HETATM    3  C8  UNL     1      29.179   0.290  -2.426  1.00  0.00     0.048 C 
HETATM    4  C9  UNL     1      29.828   0.927  -3.644  1.00  0.00     0.052 C 
HETATM    5  C15 UNL     1      28.686   1.427  -4.492  1.00  0.00     0.025 C 
HETATM    6  C16 UNL     1      29.047   1.933  -5.835  1.00  0.00    -0.013 C 
HETATM    7  C21 UNL     1      29.762   0.877  -6.618  1.00  0.00     0.005 C 
HETATM    8  C22 UNL     1      29.974  -0.370  -5.792  1.00  0.00     0.013 C 
HETATM    9  C23 UNL     1      30.644  -0.016  -4.452  1.00  0.00     0.007 C 
HETATM   10  C24 UNL     1      31.951   0.643  -4.907  1.00  0.00     0.019 C 
HETATM   11  C25 UNL     1      31.018  -1.307  -3.798  1.00  0.00     0.160 A 
HETATM   12  C26 UNL     1      32.482  -1.531  -3.440  1.00  0.00     0.049 C 
HETATM   13  C27 UNL     1      30.301  -2.584  -4.149  1.00  0.00     0.279 A 
ENDROOT
BRANCH   4  14
HETATM   14  C10 UNL     1      30.579   2.101  -3.102  1.00  0.00     0.228 C 
HETATM   15  O1  UNL     1      30.399   3.240  -3.584  1.00  0.00    -0.273 OA
HETATM   16  N2  UNL     1      31.515   2.013  -2.036  1.00  0.00    -0.352 N 
ATOM     17  H2  UNL     1      31.701   1.107  -1.603  1.00  0.00     0.163 HD
BRANCH  16  18
HETATM   18  C11 UNL     1      32.203   3.179  -1.560  1.00  0.00     0.022 C 
HETATM   19  C12 UNL     1      31.257   4.207  -0.974  1.00  0.00     0.037 C 
HETATM   20  C13 UNL     1      33.084   3.741  -2.627  1.00  0.00     0.037 C 
HETATM   21  C14 UNL     1      33.101   2.727  -0.416  1.00  0.00     0.037 C 
ENDBRANCH  16  18
ENDBRANCH   4  14
BRANCH   6  22
HETATM   22  C17 UNL     1      27.796   2.413  -6.535  1.00  0.00     0.005 C 
BRANCH  22  23
HETATM   23  C18 UNL     1      26.533   1.791  -6.060  1.00  0.00     0.002 C 
BRANCH  23  24
HETATM   24  C19 UNL     1      25.838   1.114  -7.219  1.00  0.00     0.026 C 
BRANCH  24  25
HETATM   25  C20 UNL     1      26.597   1.149  -8.504  1.00  0.00     0.164 C 
BRANCH  25  26
HETATM   26  O2  UNL     1      26.939  -0.197  -8.784  1.00  0.00    -0.401 OA
ATOM     27  H2  UNL     1      26.113  -0.658  -8.873  1.00  0.00     0.209 HD
ENDBRANCH  25  26
ENDBRANCH  24  25
ENDBRANCH  23  24
ENDBRANCH  22  23
ENDBRANCH   6  22
BRANCH   1  28
HETATM   28  C6  UNL     1      30.548  -2.593  -1.732  1.00  0.00     0.332 C 
BRANCH  28  29
HETATM   29  C5  UNL     1      29.435  -3.101  -0.930  1.00  0.00    -0.079 C 
HETATM   30  C4  UNL     1      28.530  -3.533  -0.258  1.00  0.00    -0.105 C 
BRANCH  30  31
HETATM   31  C3  UNL     1      27.442  -4.081   0.552  1.00  0.00     0.093 C 
BRANCH  31  32
HETATM   32  C2  UNL     1      27.998  -5.276   1.298  1.00  0.00     0.007 C 
HETATM   33  C1  UNL     1      28.432  -6.311   0.257  1.00  0.00     0.006 C 
ENDBRANCH  31  32
ENDBRANCH  30  31
ENDBRANCH  28  29
ENDBRANCH   1  28
TORSDOF 11
ENDMDL
