MODEL 1
REMARK VINA RESULT: -6.025879673      0.000      0.000
REMARK  8 active torsions:
REMARK  status: ('A' for Active; 'I' for Inactive)
REMARK    1  A    between atoms: C2_2  and  C3_3 
REMARK    2  A    between atoms: C3_3  and  C4_4 
REMARK    3  A    between atoms: C3_3  and  N3_22 
REMARK    4  A    between atoms: C4_4  and  N1_5 
REMARK       I    between atoms: N1_5  and  C5_7 
REMARK    5  A    between atoms: C5_7  and  C6_9 
REMARK    6  A    between atoms: C9_12  and  N2_13 
REMARK    7  A    between atoms: N2_13  and  C10_14 
REMARK    8  A    between atoms: N3_22  and  C18_25 
ROOT
HETATM    1  C4  UNL     1      27.334  -3.673   1.613  1.00  0.00     0.159 C 
ENDROOT
BRANCH   1   2
HETATM    2  C3  UNL     1      28.341  -4.034   0.537  1.00  0.00     0.226 C 
BRANCH   2   3
HETATM    3  C2  UNL     1      27.956  -5.317  -0.129  1.00  0.00    -0.003 C 
HETATM    4  C1  UNL     1      28.625  -6.423   0.103  1.00  0.00     0.009 C 
ENDBRANCH   2   3
BRANCH   2   5
HETATM    5  N3  UNL     1      28.365  -3.038  -0.510  1.00  0.00    -0.061 N 
ATOM      6  H32 UNL     1      27.788  -3.317  -1.303  1.00  0.00     0.278 HD
ATOM      7  H31 UNL     1      27.860  -2.196  -0.235  1.00  0.00     0.278 HD
BRANCH   5   8
HETATM    8  C18 UNL     1      29.718  -2.735  -0.919  1.00  0.00     0.196 C 
HETATM    9  C19 UNL     1      30.176  -1.390  -0.394  1.00  0.00     0.039 C 
HETATM   10  C20 UNL     1      30.530  -0.592  -1.632  1.00  0.00    -0.004 C 
HETATM   11  C21 UNL     1      29.241  -0.283  -2.342  1.00  0.00     0.006 C 
HETATM   12  C25 UNL     1      31.073  -1.716  -2.529  1.00  0.00    -0.035 C 
HETATM   13  C22 UNL     1      28.775  -1.638  -2.859  1.00  0.00     0.012 C 
HETATM   14  C23 UNL     1      29.847  -2.610  -2.413  1.00  0.00    -0.008 C 
HETATM   15  C24 UNL     1      29.913  -3.860  -3.168  1.00  0.00     0.018 C 
HETATM   16  C26 UNL     1      31.274  -1.239  -3.948  1.00  0.00     0.016 C 
HETATM   17  C27 UNL     1      32.288  -2.365  -1.963  1.00  0.00     0.016 C 
ENDBRANCH   5   8
ENDBRANCH   2   5
ENDBRANCH   1   2
BRANCH   1  18
HETATM   18  N1  UNL     1      27.446  -2.317   2.074  1.00  0.00    -0.358 N 
HETATM   19  C5  UNL     1      28.387  -1.845   3.015  1.00  0.00     0.221 C 
HETATM   20  O1  UNL     1      29.209  -2.642   3.511  1.00  0.00    -0.273 OA
ATOM     21  H1  UNL     1      26.791  -1.637   1.688  1.00  0.00     0.162 HD
BRANCH  19  22
HETATM   22  C6  UNL     1      28.421  -0.396   3.436  1.00  0.00     0.078 C 
HETATM   23  C7  UNL     1      27.097   0.007   3.965  1.00  0.00     0.016 C 
HETATM   24  C8  UNL     1      26.364   0.967   3.060  1.00  0.00     0.034 C 
HETATM   25  C9  UNL     1      27.309   2.147   2.847  1.00  0.00     0.190 C 
HETATM   26  C16 UNL     1      28.375   1.664   1.927  1.00  0.00     0.034 C 
HETATM   27  C17 UNL     1      29.072   0.460   2.430  1.00  0.00     0.016 C 
BRANCH  25  28
HETATM   28  N2  UNL     1      26.603   3.334   2.431  1.00  0.00    -0.063 N 
HETATM   29  C12 UNL     1      26.361   3.451   1.032  1.00  0.00     0.238 C 
HETATM   30  C13 UNL     1      25.100   4.262   0.828  1.00  0.00     0.029 C 
HETATM   31  C14 UNL     1      24.346   4.050   2.092  1.00  0.00     0.029 C 
HETATM   32  C15 UNL     1      25.324   3.491   3.091  1.00  0.00     0.238 C 
BRANCH  28  33
HETATM   33  C10 UNL     1      27.440   4.429   2.927  1.00  0.00     0.233 C 
HETATM   34  C11 UNL     1      27.681   4.438   4.384  1.00  0.00     0.035 C 
ENDBRANCH  28  33
ENDBRANCH  25  28
ENDBRANCH  19  22
ENDBRANCH   1  18
TORSDOF 8
ENDMDL
MODEL 2
REMARK VINA RESULT: -5.947738442      1.878      3.097
REMARK  8 active torsions:
REMARK  status: ('A' for Active; 'I' for Inactive)
REMARK    1  A    between atoms: C2_2  and  C3_3 
REMARK    2  A    between atoms: C3_3  and  C4_4 
REMARK    3  A    between atoms: C3_3  and  N3_22 
REMARK    4  A    between atoms: C4_4  and  N1_5 
REMARK       I    between atoms: N1_5  and  C5_7 
REMARK    5  A    between atoms: C5_7  and  C6_9 
REMARK    6  A    between atoms: C9_12  and  N2_13 
REMARK    7  A    between atoms: N2_13  and  C10_14 
REMARK    8  A    between atoms: N3_22  and  C18_25 
ROOT
HETATM    1  C4  UNL     1      27.291  -3.539   1.838  1.00  0.00     0.159 C 
ENDROOT
BRANCH   1   2
HETATM    2  C3  UNL     1      28.272  -3.927   0.747  1.00  0.00     0.226 C 
BRANCH   2   3
HETATM    3  C2  UNL     1      27.850  -5.207   0.097  1.00  0.00    -0.003 C 
HETATM    4  C1  UNL     1      28.565  -6.300   0.234  1.00  0.00     0.009 C 
ENDBRANCH   2   3
BRANCH   2   5
HETATM    5  N3  UNL     1      28.298  -2.939  -0.306  1.00  0.00    -0.061 N 
ATOM      6  H32 UNL     1      27.673  -3.193  -1.072  1.00  0.00     0.278 HD
ATOM      7  H31 UNL     1      27.847  -2.072  -0.015  1.00  0.00     0.278 HD
BRANCH   5   8
HETATM    8  C18 UNL     1      29.644  -2.705  -0.778  1.00  0.00     0.196 C 
HETATM    9  C19 UNL     1      30.138  -1.323  -0.403  1.00  0.00     0.039 C 
HETATM   10  C20 UNL     1      30.473  -0.660  -1.723  1.00  0.00    -0.004 C 
HETATM   11  C21 UNL     1      29.171  -0.399  -2.429  1.00  0.00     0.006 C 
HETATM   12  C25 UNL     1      30.973  -1.880  -2.516  1.00  0.00    -0.035 C 
HETATM   13  C22 UNL     1      28.668  -1.789  -2.794  1.00  0.00     0.012 C 
HETATM   14  C23 UNL     1      29.735  -2.733  -2.279  1.00  0.00    -0.008 C 
HETATM   15  C24 UNL     1      29.759  -4.054  -2.907  1.00  0.00     0.018 C 
HETATM   16  C26 UNL     1      31.143  -1.550  -3.980  1.00  0.00     0.016 C 
HETATM   17  C27 UNL     1      32.191  -2.491  -1.918  1.00  0.00     0.016 C 
ENDBRANCH   5   8
ENDBRANCH   2   5
ENDBRANCH   1   2
BRANCH   1  18
HETATM   18  N1  UNL     1      27.277  -2.132   2.125  1.00  0.00    -0.358 N 
HETATM   19  C5  UNL     1      26.674  -1.529   3.250  1.00  0.00     0.221 C 
HETATM   20  O1  UNL     1      26.095  -2.245   4.092  1.00  0.00    -0.273 OA
ATOM     21  H1  UNL     1      27.743  -1.516   1.458  1.00  0.00     0.162 HD
BRANCH  19  22
HETATM   22  C6  UNL     1      26.714  -0.034   3.459  1.00  0.00     0.078 C 
HETATM   23  C7  UNL     1      28.076   0.477   3.181  1.00  0.00     0.016 C 
HETATM   24  C8  UNL     1      28.798   0.944   4.423  1.00  0.00     0.034 C 
HETATM   25  C9  UNL     1      27.887   1.983   5.071  1.00  0.00     0.190 C 
HETATM   26  C16 UNL     1      26.760   1.225   5.680  1.00  0.00     0.034 C 
HETATM   27  C17 UNL     1      26.045   0.370   4.707  1.00  0.00     0.016 C 
BRANCH  25  28
HETATM   28  N2  UNL     1      28.615   2.858   5.958  1.00  0.00    -0.063 N 
HETATM   29  C12 UNL     1      27.908   3.291   7.116  1.00  0.00     0.238 C 
HETATM   30  C13 UNL     1      28.908   3.556   8.220  1.00  0.00     0.029 C 
HETATM   31  C14 UNL     1      30.058   2.686   7.858  1.00  0.00     0.029 C 
HETATM   32  C15 UNL     1      29.861   2.284   6.420  1.00  0.00     0.238 C 
BRANCH  28  33
HETATM   33  C10 UNL     1      28.993   3.986   5.103  1.00  0.00     0.233 C 
HETATM   34  C11 UNL     1      27.893   4.594   4.326  1.00  0.00     0.035 C 
ENDBRANCH  28  33
ENDBRANCH  25  28
ENDBRANCH  19  22
ENDBRANCH   1  18
TORSDOF 8
ENDMDL
MODEL 3
REMARK VINA RESULT: -5.939545895      1.016      1.110
REMARK  8 active torsions:
REMARK  status: ('A' for Active; 'I' for Inactive)
REMARK    1  A    between atoms: C2_2  and  C3_3 
REMARK    2  A    between atoms: C3_3  and  C4_4 
REMARK    3  A    between atoms: C3_3  and  N3_22 
REMARK    4  A    between atoms: C4_4  and  N1_5 
REMARK       I    between atoms: N1_5  and  C5_7 
REMARK    5  A    between atoms: C5_7  and  C6_9 
REMARK    6  A    between atoms: C9_12  and  N2_13 
REMARK    7  A    between atoms: N2_13  and  C10_14 
REMARK    8  A    between atoms: N3_22  and  C18_25 
ROOT
HETATM    1  C4  UNL     1      27.864  -3.069   2.450  1.00  0.00     0.159 C 
ENDROOT
BRANCH   1   2
HETATM    2  C3  UNL     1      28.440  -3.676   1.184  1.00  0.00     0.226 C 
BRANCH   2   3
HETATM    3  C2  UNL     1      27.623  -4.852   0.750  1.00  0.00    -0.003 C 
HETATM    4  C1  UNL     1      28.089  -6.074   0.862  1.00  0.00     0.009 C 
ENDBRANCH   2   3
BRANCH   2   5
HETATM    5  N3  UNL     1      28.393  -2.737   0.087  1.00  0.00    -0.061 N 
ATOM      6  H32 UNL     1      27.587  -2.905  -0.514  1.00  0.00     0.278 HD
ATOM      7  H31 UNL     1      28.157  -1.799   0.410  1.00  0.00     0.278 HD
BRANCH   5   8
HETATM    8  C18 UNL     1      29.627  -2.743  -0.666  1.00  0.00     0.196 C 
HETATM    9  C19 UNL     1      30.270  -1.372  -0.703  1.00  0.00     0.039 C 
HETATM   10  C20 UNL     1      30.368  -1.029  -2.175  1.00  0.00    -0.004 C 
HETATM   11  C21 UNL     1      28.968  -0.784  -2.665  1.00  0.00     0.006 C 
HETATM   12  C25 UNL     1      30.621  -2.429  -2.760  1.00  0.00    -0.035 C 
HETATM   13  C22 UNL     1      28.317  -2.160  -2.617  1.00  0.00     0.012 C 
HETATM   14  C23 UNL     1      29.407  -3.085  -2.115  1.00  0.00    -0.008 C 
HETATM   15  C24 UNL     1      29.223  -4.500  -2.431  1.00  0.00     0.018 C 
HETATM   16  C26 UNL     1      30.508  -2.423  -4.266  1.00  0.00     0.016 C 
HETATM   17  C27 UNL     1      31.896  -3.029  -2.280  1.00  0.00     0.016 C 
ENDBRANCH   5   8
ENDBRANCH   2   5
ENDBRANCH   1   2
BRANCH   1  18
HETATM   18  N1  UNL     1      27.878  -1.632   2.456  1.00  0.00    -0.358 N 
HETATM   19  C5  UNL     1      28.935  -0.823   2.926  1.00  0.00     0.221 C 
HETATM   20  O1  UNL     1      29.963  -1.363   3.381  1.00  0.00    -0.273 OA
ATOM     21  H1  UNL     1      27.053  -1.157   2.089  1.00  0.00     0.162 HD
BRANCH  19  22
HETATM   22  C6  UNL     1      28.849   0.683   2.891  1.00  0.00     0.078 C 
HETATM   23  C7  UNL     1      27.592   1.132   3.534  1.00  0.00     0.016 C 
HETATM   24  C8  UNL     1      26.597   1.707   2.554  1.00  0.00     0.034 C 
HETATM   25  C9  UNL     1      27.330   2.828   1.822  1.00  0.00     0.190 C 
HETATM   26  C16 UNL     1      28.279   2.162   0.887  1.00  0.00     0.034 C 
HETATM   27  C17 UNL     1      29.203   1.229   1.569  1.00  0.00     0.016 C 
BRANCH  25  28
HETATM   28  N2  UNL     1      26.414   3.771   1.228  1.00  0.00    -0.063 N 
HETATM   29  C12 UNL     1      26.211   3.637  -0.175  1.00  0.00     0.238 C 
HETATM   30  C13 UNL     1      24.820   4.131  -0.510  1.00  0.00     0.029 C 
HETATM   31  C14 UNL     1      24.074   3.947   0.763  1.00  0.00     0.029 C 
HETATM   32  C15 UNL     1      25.104   3.751   1.844  1.00  0.00     0.238 C 
BRANCH  28  33
HETATM   33  C10 UNL     1      26.989   5.076   1.568  1.00  0.00     0.233 C 
HETATM   34  C11 UNL     1      27.349   5.264   2.987  1.00  0.00     0.035 C 
ENDBRANCH  28  33
ENDBRANCH  25  28
ENDBRANCH  19  22
ENDBRANCH   1  18
TORSDOF 8
ENDMDL
MODEL 4
REMARK VINA RESULT: -5.924877367      4.544      9.356
REMARK  8 active torsions:
REMARK  status: ('A' for Active; 'I' for Inactive)
REMARK    1  A    between atoms: C2_2  and  C3_3 
REMARK    2  A    between atoms: C3_3  and  C4_4 
REMARK    3  A    between atoms: C3_3  and  N3_22 
REMARK    4  A    between atoms: C4_4  and  N1_5 
REMARK       I    between atoms: N1_5  and  C5_7 
REMARK    5  A    between atoms: C5_7  and  C6_9 
REMARK    6  A    between atoms: C9_12  and  N2_13 
REMARK    7  A    between atoms: N2_13  and  C10_14 
REMARK    8  A    between atoms: N3_22  and  C18_25 
ROOT
HETATM    1  C4  UNL     1      29.256  -5.074  -2.563  1.00  0.00     0.159 C 
ENDROOT
BRANCH   1   2
HETATM    2  C3  UNL     1      28.876  -3.858  -1.739  1.00  0.00     0.226 C 
BRANCH   2   3
HETATM    3  C2  UNL     1      28.386  -4.275  -0.388  1.00  0.00    -0.003 C 
HETATM    4  C1  UNL     1      28.306  -5.545  -0.063  1.00  0.00     0.009 C 
ENDBRANCH   2   3
BRANCH   2   5
HETATM    5  N3  UNL     1      30.022  -3.013  -1.499  1.00  0.00    -0.061 N 
ATOM      6  H32 UNL     1      30.407  -3.161  -0.566  1.00  0.00     0.278 HD
ATOM      7  H31 UNL     1      30.827  -3.310  -2.051  1.00  0.00     0.278 HD
BRANCH   5   8
HETATM    8  C18 UNL     1      29.708  -1.620  -1.727  1.00  0.00     0.196 C 
HETATM    9  C19 UNL     1      28.567  -1.456  -2.710  1.00  0.00     0.039 C 
HETATM   10  C20 UNL     1      29.144  -0.629  -3.839  1.00  0.00    -0.004 C 
HETATM   11  C21 UNL     1      30.125  -1.503  -4.570  1.00  0.00     0.006 C 
HETATM   12  C25 UNL     1      30.113   0.266  -3.049  1.00  0.00    -0.035 C 
HETATM   13  C22 UNL     1      31.267  -1.679  -3.578  1.00  0.00     0.012 C 
HETATM   14  C23 UNL     1      30.850  -0.875  -2.363  1.00  0.00    -0.008 C 
HETATM   15  C24 UNL     1      31.939  -0.470  -1.476  1.00  0.00     0.018 C 
HETATM   16  C26 UNL     1      31.027   1.037  -3.972  1.00  0.00     0.016 C 
HETATM   17  C27 UNL     1      29.413   1.142  -2.069  1.00  0.00     0.016 C 
ENDBRANCH   5   8
ENDBRANCH   2   5
ENDBRANCH   1   2
BRANCH   1  18
HETATM   18  N1  UNL     1      30.674  -5.250  -2.709  1.00  0.00    -0.358 N 
HETATM   19  C5  UNL     1      31.383  -5.223  -3.929  1.00  0.00     0.221 C 
HETATM   20  O1  UNL     1      30.763  -5.030  -4.994  1.00  0.00    -0.273 OA
ATOM     21  H1  UNL     1      31.214  -5.408  -1.858  1.00  0.00     0.162 HD
BRANCH  19  22
HETATM   22  C6  UNL     1      32.879  -5.421  -3.975  1.00  0.00     0.078 C 
HETATM   23  C7  UNL     1      33.549  -4.400  -3.137  1.00  0.00     0.016 C 
HETATM   24  C8  UNL     1      34.319  -3.382  -3.945  1.00  0.00     0.034 C 
HETATM   25  C9  UNL     1      35.290  -4.181  -4.809  1.00  0.00     0.190 C 
HETATM   26  C16 UNL     1      34.471  -4.815  -5.879  1.00  0.00     0.034 C 
HETATM   27  C17 UNL     1      33.368  -5.645  -5.347  1.00  0.00     0.016 C 
BRANCH  25  28
HETATM   28  N2  UNL     1      36.401  -3.376  -5.256  1.00  0.00    -0.063 N 
HETATM   29  C12 UNL     1      36.807  -3.577  -6.606  1.00  0.00     0.238 C 
HETATM   30  C13 UNL     1      37.411  -2.290  -7.124  1.00  0.00     0.029 C 
HETATM   31  C14 UNL     1      36.772  -1.246  -6.279  1.00  0.00     0.029 C 
HETATM   32  C15 UNL     1      36.168  -1.956  -5.096  1.00  0.00     0.238 C 
BRANCH  28  33
HETATM   33  C10 UNL     1      37.474  -3.708  -4.314  1.00  0.00     0.233 C 
HETATM   34  C11 UNL     1      38.320  -4.857  -4.693  1.00  0.00     0.035 C 
ENDBRANCH  28  33
ENDBRANCH  25  28
ENDBRANCH  19  22
ENDBRANCH   1  18
TORSDOF 8
ENDMDL
MODEL 5
REMARK VINA RESULT: -5.911225709      1.044      1.447
REMARK  8 active torsions:
REMARK  status: ('A' for Active; 'I' for Inactive)
REMARK    1  A    between atoms: C2_2  and  C3_3 
REMARK    2  A    between atoms: C3_3  and  C4_4 
REMARK    3  A    between atoms: C3_3  and  N3_22 
REMARK    4  A    between atoms: C4_4  and  N1_5 
REMARK       I    between atoms: N1_5  and  C5_7 
REMARK    5  A    between atoms: C5_7  and  C6_9 
REMARK    6  A    between atoms: C9_12  and  N2_13 
REMARK    7  A    between atoms: N2_13  and  C10_14 
REMARK    8  A    between atoms: N3_22  and  C18_25 
ROOT
HETATM    1  C4  UNL     1      27.331  -3.499   1.635  1.00  0.00     0.159 C 
ENDROOT
BRANCH   1   2
HETATM    2  C3  UNL     1      28.302  -3.955   0.560  1.00  0.00     0.226 C 
BRANCH   2   3
HETATM    3  C2  UNL     1      27.856  -5.257  -0.028  1.00  0.00    -0.003 C 
HETATM    4  C1  UNL     1      28.558  -6.352   0.149  1.00  0.00     0.009 C 
ENDBRANCH   2   3
BRANCH   2   5
HETATM    5  N3  UNL     1      28.340  -3.018  -0.538  1.00  0.00    -0.061 N 
ATOM      6  H32 UNL     1      27.801  -3.355  -1.336  1.00  0.00     0.278 HD
ATOM      7  H31 UNL     1      27.804  -2.176  -0.329  1.00  0.00     0.278 HD
BRANCH   5   8
HETATM    8  C18 UNL     1      29.700  -2.701  -0.914  1.00  0.00     0.196 C 
HETATM    9  C19 UNL     1      30.125  -1.343  -0.394  1.00  0.00     0.039 C 
HETATM   10  C20 UNL     1      30.502  -0.556  -1.631  1.00  0.00    -0.004 C 
HETATM   11  C21 UNL     1      29.230  -0.273  -2.380  1.00  0.00     0.006 C 
HETATM   12  C25 UNL     1      31.085  -1.683  -2.499  1.00  0.00    -0.035 C 
HETATM   13  C22 UNL     1      28.796  -1.640  -2.892  1.00  0.00     0.012 C 
HETATM   14  C23 UNL     1      29.868  -2.593  -2.405  1.00  0.00    -0.008 C 
HETATM   15  C24 UNL     1      29.971  -3.851  -3.143  1.00  0.00     0.018 C 
HETATM   16  C26 UNL     1      31.318  -1.220  -3.918  1.00  0.00     0.016 C 
HETATM   17  C27 UNL     1      32.293  -2.308  -1.893  1.00  0.00     0.016 C 
ENDBRANCH   5   8
ENDBRANCH   2   5
ENDBRANCH   1   2
BRANCH   1  18
HETATM   18  N1  UNL     1      27.645  -2.210   2.184  1.00  0.00    -0.358 N 
HETATM   19  C5  UNL     1      27.041  -1.633   3.322  1.00  0.00     0.221 C 
HETATM   20  O1  UNL     1      26.156  -2.266   3.933  1.00  0.00    -0.273 OA
ATOM     21  H1  UNL     1      28.366  -1.665   1.711  1.00  0.00     0.162 HD
BRANCH  19  22
HETATM   22  C6  UNL     1      27.443  -0.266   3.819  1.00  0.00     0.078 C 
HETATM   23  C7  UNL     1      26.295   0.665   3.719  1.00  0.00     0.016 C 
HETATM   24  C8  UNL     1      26.478   1.719   2.653  1.00  0.00     0.034 C 
HETATM   25  C9  UNL     1      27.793   2.422   2.980  1.00  0.00     0.190 C 
HETATM   26  C16 UNL     1      28.876   1.469   2.610  1.00  0.00     0.034 C 
HETATM   27  C17 UNL     1      28.749   0.159   3.284  1.00  0.00     0.016 C 
BRANCH  25  28
HETATM   28  N2  UNL     1      27.867   3.731   2.378  1.00  0.00    -0.063 N 
HETATM   29  C12 UNL     1      29.156   4.127   1.918  1.00  0.00     0.238 C 
HETATM   30  C13 UNL     1      28.979   5.086   0.761  1.00  0.00     0.029 C 
HETATM   31  C14 UNL     1      27.646   4.723   0.213  1.00  0.00     0.029 C 
HETATM   32  C15 UNL     1      26.957   3.893   1.264  1.00  0.00     0.238 C 
BRANCH  28  33
HETATM   33  C10 UNL     1      27.370   4.626   3.427  1.00  0.00     0.233 C 
HETATM   34  C11 UNL     1      27.945   4.414   4.771  1.00  0.00     0.035 C 
ENDBRANCH  28  33
ENDBRANCH  25  28
ENDBRANCH  19  22
ENDBRANCH   1  18
TORSDOF 8
ENDMDL
