MODEL 1
REMARK VINA RESULT: -8.759931704      0.000      0.000
REMARK  3 active torsions:
REMARK  status: ('A' for Active; 'I' for Inactive)
REMARK       I    between atoms: C2_2  and  N1_4 
REMARK    1  A    between atoms: N1_4  and  C3_6 
REMARK    2  A    between atoms: C5_8  and  C6_9 
REMARK    3  A    between atoms: C9_15  and  C10_16 
REMARK       I    between atoms: C10_16  and  N3_18 
ROOT
HETATM    1  C10 UNL     1      -8.482 -28.938 -71.967  1.00  0.00     0.269 C 
HETATM    2  O3  UNL     1      -8.861 -30.123 -71.604  1.00  0.00    -0.266 OA
HETATM    3  N3  UNL     1      -7.109 -28.829 -72.194  1.00  0.00    -0.259 N 
ATOM      4  H3  UNL     1      -6.725 -27.931 -72.486  1.00  0.00     0.181 HD
HETATM    5  C11 UNL     1      -6.228 -29.935 -72.029  1.00  0.00     0.184 C 
HETATM    6  N4  UNL     1      -5.516 -30.837 -71.876  1.00  0.00    -0.172 NA
ENDROOT
BRANCH   1   7
HETATM    7  C9  UNL     1      -9.498 -27.932 -72.085  1.00  0.00     0.093 A 
HETATM    8  C6  UNL     1     -10.013 -27.199 -71.013  1.00  0.00     0.085 A 
HETATM    9  N2  UNL     1     -10.975 -26.424 -71.547  1.00  0.00    -0.259 N 
HETATM   10  O2  UNL     1     -11.065 -26.635 -72.814  1.00  0.00    -0.241 OA
ATOM     11  H2  UNL     1     -11.550 -25.765 -71.024  1.00  0.00     0.195 HD
HETATM   12  C7  UNL     1     -10.188 -27.547 -73.214  1.00  0.00     0.090 A 
HETATM   13  C8  UNL     1     -10.030 -28.019 -74.630  1.00  0.00     0.080 C 
BRANCH   8  14
HETATM   14  C5  UNL     1      -9.643 -27.245 -69.610  1.00  0.00     0.018 A 
HETATM   15  C4  UNL     1      -8.499 -26.543 -69.152  1.00  0.00     0.046 A 
HETATM   16  C3  UNL     1      -8.116 -26.481 -67.856  1.00  0.00     0.057 A 
HETATM   17  C14 UNL     1      -8.932 -27.170 -66.940  1.00  0.00     0.062 A 
HETATM   18  C13 UNL     1     -10.042 -27.854 -67.364  1.00  0.00     0.051 A 
HETATM   19 CL2  UNL     1      -8.490 -27.127 -65.255  1.00  0.00    -0.082 Cl
HETATM   20  C12 UNL     1     -10.410 -27.903 -68.687  1.00  0.00     0.048 A 
HETATM   21 CL1  UNL     1     -11.836 -28.800 -69.151  1.00  0.00    -0.083 Cl
BRANCH  16  22
HETATM   22  N1  UNL     1      -6.987 -25.790 -67.392  1.00  0.00    -0.326 N 
HETATM   23  C2  UNL     1      -5.650 -26.040 -67.705  1.00  0.00     0.218 C 
HETATM   24  C1  UNL     1      -4.579 -25.143 -67.072  1.00  0.00     0.117 C 
HETATM   25  O1  UNL     1      -5.249 -26.934 -68.456  1.00  0.00    -0.274 OA
ATOM     26  H1  UNL     1      -7.164 -25.016 -66.752  1.00  0.00     0.169 HD
ENDBRANCH  16  22
ENDBRANCH   8  14
ENDBRANCH   1   7
TORSDOF 3
ENDMDL
MODEL 2
REMARK VINA RESULT: -8.742794928      1.439      5.449
REMARK  3 active torsions:
REMARK  status: ('A' for Active; 'I' for Inactive)
REMARK       I    between atoms: C2_2  and  N1_4 
REMARK    1  A    between atoms: N1_4  and  C3_6 
REMARK    2  A    between atoms: C5_8  and  C6_9 
REMARK    3  A    between atoms: C9_15  and  C10_16 
REMARK       I    between atoms: C10_16  and  N3_18 
ROOT
HETATM    1  C10 UNL     1      -5.382 -26.952 -69.042  1.00  0.00     0.269 C 
HETATM    2  O3  UNL     1      -5.109 -26.305 -70.132  1.00  0.00    -0.266 OA
HETATM    3  N3  UNL     1      -5.226 -28.336 -69.152  1.00  0.00    -0.259 N 
ATOM      4  H3  UNL     1      -5.417 -28.922 -68.340  1.00  0.00     0.181 HD
HETATM    5  C11 UNL     1      -4.809 -28.953 -70.366  1.00  0.00     0.184 C 
HETATM    6  N4  UNL     1      -4.486 -29.448 -71.363  1.00  0.00    -0.172 NA
ENDROOT
BRANCH   1   7
HETATM    7  C9  UNL     1      -5.790 -26.179 -67.904  1.00  0.00     0.093 A 
HETATM    8  C6  UNL     1      -7.110 -26.059 -67.463  1.00  0.00     0.085 A 
HETATM    9  N2  UNL     1      -7.057 -25.204 -66.425  1.00  0.00    -0.259 N 
HETATM   10  O2  UNL     1      -5.844 -24.822 -66.224  1.00  0.00    -0.241 OA
ATOM     11  H2  UNL     1      -7.862 -24.903 -65.876  1.00  0.00     0.195 HD
HETATM   12  C7  UNL     1      -5.013 -25.382 -67.094  1.00  0.00     0.090 A 
HETATM   13  C8  UNL     1      -3.530 -25.149 -67.131  1.00  0.00     0.080 C 
BRANCH   8  14
HETATM   14  C5  UNL     1      -8.312 -26.680 -67.990  1.00  0.00     0.018 A 
HETATM   15  C4  UNL     1      -8.635 -26.552 -69.365  1.00  0.00     0.046 A 
HETATM   16  C3  UNL     1      -9.699 -27.145 -69.952  1.00  0.00     0.057 A 
HETATM   17  C14 UNL     1     -10.508 -27.931 -69.109  1.00  0.00     0.062 A 
HETATM   18  C13 UNL     1     -10.211 -28.067 -67.778  1.00  0.00     0.051 A 
HETATM   19 CL2  UNL     1     -11.894 -28.722 -69.809  1.00  0.00    -0.082 Cl
HETATM   20  C12 UNL     1      -9.124 -27.453 -67.204  1.00  0.00     0.048 A 
HETATM   21 CL1  UNL     1      -8.814 -27.670 -65.498  1.00  0.00    -0.083 Cl
BRANCH  16  22
HETATM   22  N1  UNL     1     -10.029 -27.026 -71.310  1.00  0.00    -0.326 N 
HETATM   23  C2  UNL     1      -9.525 -27.774 -72.375  1.00  0.00     0.218 C 
HETATM   24  C1  UNL     1     -10.040 -27.463 -73.785  1.00  0.00     0.117 C 
HETATM   25  O1  UNL     1      -8.688 -28.677 -72.279  1.00  0.00    -0.274 OA
ATOM     26  H1  UNL     1     -10.714 -26.309 -71.547  1.00  0.00     0.169 HD
ENDBRANCH  16  22
ENDBRANCH   8  14
ENDBRANCH   1   7
TORSDOF 3
ENDMDL
MODEL 3
REMARK VINA RESULT: -8.533595553      2.694      4.597
REMARK  3 active torsions:
REMARK  status: ('A' for Active; 'I' for Inactive)
REMARK       I    between atoms: C2_2  and  N1_4 
REMARK    1  A    between atoms: N1_4  and  C3_6 
REMARK    2  A    between atoms: C5_8  and  C6_9 
REMARK    3  A    between atoms: C9_15  and  C10_16 
REMARK       I    between atoms: C10_16  and  N3_18 
ROOT
HETATM    1  C10 UNL     1     -10.248 -27.007 -68.311  1.00  0.00     0.269 C 
HETATM    2  O3  UNL     1     -10.489 -28.169 -67.789  1.00  0.00    -0.266 OA
HETATM    3  N3  UNL     1      -9.465 -26.177 -67.506  1.00  0.00    -0.259 N 
ATOM      4  H3  UNL     1      -9.225 -25.245 -67.842  1.00  0.00     0.181 HD
HETATM    5  C11 UNL     1      -8.993 -26.594 -66.229  1.00  0.00     0.184 C 
HETATM    6  N4  UNL     1      -8.627 -26.935 -65.184  1.00  0.00    -0.172 NA
ENDROOT
BRANCH   1   7
HETATM    7  C9  UNL     1     -10.800 -26.744 -69.609  1.00  0.00     0.093 A 
HETATM    8  C6  UNL     1     -10.317 -27.294 -70.799  1.00  0.00     0.085 A 
HETATM    9  N2  UNL     1     -11.067 -26.742 -71.771  1.00  0.00    -0.259 N 
HETATM   10  O2  UNL     1     -11.932 -25.935 -71.262  1.00  0.00    -0.241 OA
ATOM     11  H2  UNL     1     -10.966 -26.935 -72.767  1.00  0.00     0.195 HD
HETATM   12  C7  UNL     1     -11.826 -25.888 -69.940  1.00  0.00     0.090 A 
HETATM   13  C8  UNL     1     -12.688 -25.047 -69.043  1.00  0.00     0.080 C 
BRANCH   8  14
HETATM   14  C5  UNL     1      -9.230 -28.235 -70.999  1.00  0.00     0.018 A 
HETATM   15  C4  UNL     1      -7.891 -27.774 -71.064  1.00  0.00     0.046 A 
HETATM   16  C3  UNL     1      -6.815 -28.584 -71.186  1.00  0.00     0.057 A 
HETATM   17  C14 UNL     1      -7.088 -29.964 -71.248  1.00  0.00     0.062 A 
HETATM   18  C13 UNL     1      -8.375 -30.429 -71.186  1.00  0.00     0.051 A 
HETATM   19 CL2  UNL     1      -5.741 -31.059 -71.404  1.00  0.00    -0.082 Cl
HETATM   20  C12 UNL     1      -9.453 -29.585 -71.062  1.00  0.00     0.048 A 
HETATM   21 CL1  UNL     1     -11.067 -30.253 -70.995  1.00  0.00    -0.083 Cl
BRANCH  16  22
HETATM   22  N1  UNL     1      -5.486 -28.140 -71.252  1.00  0.00    -0.326 N 
HETATM   23  C2  UNL     1      -4.581 -28.012 -70.197  1.00  0.00     0.218 C 
HETATM   24  C1  UNL     1      -3.169 -27.503 -70.513  1.00  0.00     0.117 C 
HETATM   25  O1  UNL     1      -4.822 -28.276 -69.015  1.00  0.00    -0.274 OA
ATOM     26  H1  UNL     1      -5.142 -27.879 -72.176  1.00  0.00     0.169 HD
ENDBRANCH  16  22
ENDBRANCH   8  14
ENDBRANCH   1   7
TORSDOF 3
ENDMDL
MODEL 4
REMARK VINA RESULT: -8.459358523      2.836      4.024
REMARK  3 active torsions:
REMARK  status: ('A' for Active; 'I' for Inactive)
REMARK       I    between atoms: C2_2  and  N1_4 
REMARK    1  A    between atoms: N1_4  and  C3_6 
REMARK    2  A    between atoms: C5_8  and  C6_9 
REMARK    3  A    between atoms: C9_15  and  C10_16 
REMARK       I    between atoms: C10_16  and  N3_18 
ROOT
HETATM    1  C10 UNL     1      -8.604 -28.107 -69.590  1.00  0.00     0.269 C 
HETATM    2  O3  UNL     1      -8.488 -28.042 -70.879  1.00  0.00    -0.266 OA
HETATM    3  N3  UNL     1      -7.992 -29.226 -69.023  1.00  0.00    -0.259 N 
ATOM      4  H3  UNL     1      -8.032 -29.355 -68.012  1.00  0.00     0.181 HD
HETATM    5  C11 UNL     1      -7.312 -30.195 -69.815  1.00  0.00     0.184 C 
HETATM    6  N4  UNL     1      -6.776 -30.987 -70.469  1.00  0.00    -0.172 NA
ENDROOT
BRANCH   1   7
HETATM    7  C9  UNL     1      -9.322 -27.047 -68.941  1.00  0.00     0.093 A 
HETATM    8  C6  UNL     1      -8.737 -26.090 -68.109  1.00  0.00     0.085 A 
HETATM    9  N2  UNL     1      -9.761 -25.336 -67.667  1.00  0.00    -0.259 N 
HETATM   10  O2  UNL     1     -10.872 -25.760 -68.160  1.00  0.00    -0.241 OA
ATOM     11  H2  UNL     1      -9.669 -24.543 -67.032  1.00  0.00     0.195 HD
HETATM   12  C7  UNL     1     -10.678 -26.806 -68.953  1.00  0.00     0.090 A 
HETATM   13  C8  UNL     1     -11.765 -27.535 -69.688  1.00  0.00     0.080 C 
BRANCH   8  14
HETATM   14  C5  UNL     1      -7.341 -25.921 -67.748  1.00  0.00     0.018 A 
HETATM   15  C4  UNL     1      -6.321 -26.236 -68.680  1.00  0.00     0.046 A 
HETATM   16  C3  UNL     1      -5.001 -26.053 -68.452  1.00  0.00     0.057 A 
HETATM   17  C14 UNL     1      -4.664 -25.511 -67.197  1.00  0.00     0.062 A 
HETATM   18  C13 UNL     1      -5.636 -25.199 -66.282  1.00  0.00     0.051 A 
HETATM   19 CL2  UNL     1      -2.977 -25.250 -66.843  1.00  0.00    -0.082 Cl
HETATM   20  C12 UNL     1      -6.972 -25.396 -66.538  1.00  0.00     0.048 A 
HETATM   21 CL1  UNL     1      -8.153 -24.978 -65.320  1.00  0.00    -0.083 Cl
BRANCH  16  22
HETATM   22  N1  UNL     1      -3.983 -26.361 -69.366  1.00  0.00    -0.326 N 
HETATM   23  C2  UNL     1      -3.589 -27.627 -69.803  1.00  0.00     0.218 C 
HETATM   24  C1  UNL     1      -2.444 -27.718 -70.818  1.00  0.00     0.117 C 
HETATM   25  O1  UNL     1      -4.090 -28.695 -69.437  1.00  0.00    -0.274 OA
ATOM     26  H1  UNL     1      -3.472 -25.570 -69.757  1.00  0.00     0.169 HD
ENDBRANCH  16  22
ENDBRANCH   8  14
ENDBRANCH   1   7
TORSDOF 3
ENDMDL
MODEL 5
REMARK VINA RESULT: -8.442100642      2.962      5.543
REMARK  3 active torsions:
REMARK  status: ('A' for Active; 'I' for Inactive)
REMARK       I    between atoms: C2_2  and  N1_4 
REMARK    1  A    between atoms: N1_4  and  C3_6 
REMARK    2  A    between atoms: C5_8  and  C6_9 
REMARK    3  A    between atoms: C9_15  and  C10_16 
REMARK       I    between atoms: C10_16  and  N3_18 
ROOT
HETATM    1  C10 UNL     1      -6.686 -25.556 -66.590  1.00  0.00     0.269 C 
HETATM    2  O3  UNL     1      -6.368 -26.379 -65.641  1.00  0.00    -0.266 OA
HETATM    3  N3  UNL     1      -5.587 -24.976 -67.226  1.00  0.00    -0.259 N 
ATOM      4  H3  UNL     1      -5.747 -24.316 -67.988  1.00  0.00     0.181 HD
HETATM    5  C11 UNL     1      -4.249 -25.277 -66.844  1.00  0.00     0.184 C 
HETATM    6  N4  UNL     1      -3.163 -25.515 -66.515  1.00  0.00    -0.172 NA
ENDROOT
BRANCH   1   7
HETATM    7  C9  UNL     1      -8.084 -25.362 -66.849  1.00  0.00     0.093 A 
HETATM    8  C6  UNL     1      -8.777 -25.939 -67.916  1.00  0.00     0.085 A 
HETATM    9  N2  UNL     1     -10.028 -25.452 -67.826  1.00  0.00    -0.259 N 
HETATM   10  O2  UNL     1     -10.126 -24.657 -66.818  1.00  0.00    -0.241 OA
ATOM     11  H2  UNL     1     -10.790 -25.679 -68.465  1.00  0.00     0.195 HD
HETATM   12  C7  UNL     1      -8.971 -24.556 -66.171  1.00  0.00     0.090 A 
HETATM   13  C8  UNL     1      -8.747 -23.713 -64.950  1.00  0.00     0.080 C 
BRANCH   8  14
HETATM   14  C5  UNL     1      -8.292 -26.848 -68.938  1.00  0.00     0.018 A 
HETATM   15  C4  UNL     1      -6.970 -26.720 -69.437  1.00  0.00     0.046 A 
HETATM   16  C3  UNL     1      -6.417 -27.558 -70.343  1.00  0.00     0.057 A 
HETATM   17  C14 UNL     1      -7.239 -28.610 -70.790  1.00  0.00     0.062 A 
HETATM   18  C13 UNL     1      -8.518 -28.750 -70.320  1.00  0.00     0.051 A 
HETATM   19 CL2  UNL     1      -6.581 -29.724 -71.958  1.00  0.00    -0.082 Cl
HETATM   20  C12 UNL     1      -9.059 -27.885 -69.399  1.00  0.00     0.048 A 
HETATM   21 CL1  UNL     1     -10.701 -28.126 -68.851  1.00  0.00    -0.083 Cl
BRANCH  16  22
HETATM   22  N1  UNL     1      -5.112 -27.442 -70.842  1.00  0.00    -0.326 N 
HETATM   23  C2  UNL     1      -3.958 -28.059 -70.356  1.00  0.00     0.218 C 
HETATM   24  C1  UNL     1      -2.632 -27.780 -71.073  1.00  0.00     0.117 C 
HETATM   25  O1  UNL     1      -3.912 -28.819 -69.384  1.00  0.00    -0.274 OA
ATOM     26  H1  UNL     1      -4.992 -26.836 -71.654  1.00  0.00     0.169 HD
ENDBRANCH  16  22
ENDBRANCH   8  14
ENDBRANCH   1   7
TORSDOF 3
ENDMDL
