MODEL 1
REMARK VINA RESULT: -8.417003626      0.000      0.000
REMARK  4 active torsions:
REMARK  status: ('A' for Active; 'I' for Inactive)
REMARK    1  A    between atoms: C2_2  and  C5_5 
REMARK    2  A    between atoms: C7_8  and  N1_9 
REMARK    3  A    between atoms: N1_9  and  C8_11 
REMARK    4  A    between atoms: C10_16  and  C11_17 
ROOT
HETATM    1  C8  UNL     1      -9.143 -29.534 -71.638  1.00  0.00     0.232 C 
HETATM    2  C9  UNL     1      -9.099 -30.933 -71.306  1.00  0.00     0.117 C 
HETATM    3  N2  UNL     1      -9.080 -32.055 -71.016  1.00  0.00    -0.192 NA
HETATM    4  N3  UNL     1      -9.277 -28.694 -70.446  1.00  0.00    -0.337 N 
ATOM      5  H3  UNL     1      -8.516 -28.304 -69.891  1.00  0.00     0.164 HD
HETATM    6  C10 UNL     1     -10.661 -28.525 -70.208  1.00  0.00     0.110 C 
HETATM    7  N4  UNL     1     -11.322 -28.819 -71.277  1.00  0.00    -0.356 N 
ATOM      8  H4  UNL     1     -12.339 -28.774 -71.350  1.00  0.00     0.162 HD
HETATM    9  C12 UNL     1     -10.456 -29.216 -72.353  1.00  0.00     0.255 C 
HETATM   10  C13 UNL     1     -10.180 -28.032 -73.184  1.00  0.00     0.090 C 
HETATM   11  N5  UNL     1      -9.938 -27.086 -73.836  1.00  0.00    -0.195 NA
ENDROOT
BRANCH   1  12
HETATM   12  N1  UNL     1      -8.021 -29.056 -72.362  1.00  0.00    -0.330 N 
ATOM     13  H1  UNL     1      -8.195 -28.500 -73.200  1.00  0.00     0.165 HD
BRANCH  12  14
HETATM   14  C7  UNL     1      -6.771 -29.283 -72.021  1.00  0.00     0.147 A 
HETATM   15  S1  UNL     1      -5.798 -30.644 -72.328  1.00  0.00    -0.064 SA
HETATM   16  C6  UNL     1      -4.364 -30.100 -71.589  1.00  0.00     0.079 A 
HETATM   17  C5  UNL     1      -4.728 -28.865 -71.135  1.00  0.00     0.025 A 
HETATM   18  N6  UNL     1      -5.962 -28.462 -71.363  1.00  0.00    -0.339 N 
ATOM     19  H6  UNL     1      -6.285 -27.548 -71.045  1.00  0.00     0.168 HD
BRANCH  17  20
HETATM   20  C2  UNL     1      -3.763 -27.932 -70.393  1.00  0.00    -0.008 C 
HETATM   21  C1  UNL     1      -4.432 -26.590 -70.198  1.00  0.00     0.021 C 
HETATM   22  C3  UNL     1      -2.512 -27.767 -71.156  1.00  0.00     0.021 C 
HETATM   23  C4  UNL     1      -3.423 -28.498 -69.036  1.00  0.00     0.021 C 
ENDBRANCH  17  20
ENDBRANCH  12  14
ENDBRANCH   1  12
BRANCH   6  24
HETATM   24  C11 UNL     1     -11.234 -28.070 -68.911  1.00  0.00     0.244 C 
HETATM   25 CL1  UNL     1     -11.978 -26.459 -69.077  1.00  0.00    -0.100 Cl
HETATM   26 CL2  UNL     1      -9.993 -27.958 -67.647  1.00  0.00    -0.100 Cl
ENDBRANCH   6  24
TORSDOF 4
ENDMDL
MODEL 2
REMARK VINA RESULT: -8.353775429      4.232      5.644
REMARK  4 active torsions:
REMARK  status: ('A' for Active; 'I' for Inactive)
REMARK    1  A    between atoms: C2_2  and  C5_5 
REMARK    2  A    between atoms: C7_8  and  N1_9 
REMARK    3  A    between atoms: N1_9  and  C8_11 
REMARK    4  A    between atoms: C10_16  and  C11_17 
ROOT
HETATM    1  C8  UNL     1      -7.560 -25.816 -66.961  1.00  0.00     0.232 C 
HETATM    2  C9  UNL     1      -6.180 -25.602 -66.615  1.00  0.00     0.117 C 
HETATM    3  N2  UNL     1      -5.077 -25.415 -66.315  1.00  0.00    -0.192 NA
HETATM    4  N3  UNL     1      -8.411 -24.708 -66.520  1.00  0.00    -0.337 N 
ATOM      5  H3  UNL     1      -8.644 -23.873 -67.056  1.00  0.00     0.164 HD
HETATM    6  C10 UNL     1      -8.850 -25.015 -65.211  1.00  0.00     0.110 C 
HETATM    7  N4  UNL     1      -8.691 -26.276 -64.986  1.00  0.00    -0.356 N 
ATOM      8  H4  UNL     1      -8.935 -26.734 -64.108  1.00  0.00     0.162 HD
HETATM    9  C12 UNL     1      -8.130 -26.958 -66.119  1.00  0.00     0.255 C 
HETATM   10  C13 UNL     1      -9.236 -27.522 -66.911  1.00  0.00     0.090 C 
HETATM   11  N5  UNL     1     -10.115 -27.954 -67.558  1.00  0.00    -0.195 NA
ENDROOT
BRANCH   1  12
HETATM   12  N1  UNL     1      -7.808 -26.008 -68.344  1.00  0.00    -0.330 N 
ATOM     13  H1  UNL     1      -8.737 -25.778 -68.699  1.00  0.00     0.165 HD
BRANCH  12  14
HETATM   14  C7  UNL     1      -6.917 -26.464 -69.198  1.00  0.00     0.147 A 
HETATM   15  S1  UNL     1      -5.733 -25.617 -70.078  1.00  0.00    -0.064 SA
HETATM   16  C6  UNL     1      -5.022 -26.940 -70.879  1.00  0.00     0.079 A 
HETATM   17  C5  UNL     1      -5.759 -27.988 -70.409  1.00  0.00     0.025 A 
HETATM   18  N6  UNL     1      -6.724 -27.729 -69.550  1.00  0.00    -0.339 N 
ATOM     19  H6  UNL     1      -7.304 -28.476 -69.168  1.00  0.00     0.168 HD
BRANCH  17  20
HETATM   20  C2  UNL     1      -5.498 -29.443 -70.822  1.00  0.00    -0.008 C 
HETATM   21  C1  UNL     1      -5.509 -30.312 -69.586  1.00  0.00     0.021 C 
HETATM   22  C3  UNL     1      -4.201 -29.561 -71.513  1.00  0.00     0.021 C 
HETATM   23  C4  UNL     1      -6.581 -29.926 -71.755  1.00  0.00     0.021 C 
ENDBRANCH  17  20
ENDBRANCH  12  14
ENDBRANCH   1  12
BRANCH   6  24
HETATM   24  C11 UNL     1      -9.410 -24.010 -64.264  1.00  0.00     0.244 C 
HETATM   25 CL1  UNL     1      -8.349 -22.582 -64.155  1.00  0.00    -0.100 Cl
HETATM   26 CL2  UNL     1      -9.582 -24.674 -62.627  1.00  0.00    -0.100 Cl
ENDBRANCH   6  24
TORSDOF 4
ENDMDL
MODEL 3
REMARK VINA RESULT: -8.145710917      4.196      5.862
REMARK  4 active torsions:
REMARK  status: ('A' for Active; 'I' for Inactive)
REMARK    1  A    between atoms: C2_2  and  C5_5 
REMARK    2  A    between atoms: C7_8  and  N1_9 
REMARK    3  A    between atoms: N1_9  and  C8_11 
REMARK    4  A    between atoms: C10_16  and  C11_17 
ROOT
HETATM    1  C8  UNL     1      -8.724 -28.452 -69.881  1.00  0.00     0.232 C 
HETATM    2  C9  UNL     1      -7.788 -27.408 -70.202  1.00  0.00     0.117 C 
HETATM    3  N2  UNL     1      -7.018 -26.586 -70.475  1.00  0.00    -0.192 NA
HETATM    4  N3  UNL     1      -8.060 -29.747 -69.713  1.00  0.00    -0.337 N 
ATOM      5  H3  UNL     1      -7.686 -30.128 -68.844  1.00  0.00     0.164 HD
HETATM    6  C10 UNL     1      -8.035 -30.370 -70.982  1.00  0.00     0.110 C 
HETATM    7  N4  UNL     1      -8.901 -29.808 -71.757  1.00  0.00    -0.356 N 
ATOM      8  H4  UNL     1      -9.065 -30.085 -72.725  1.00  0.00     0.162 HD
HETATM    9  C12 UNL     1      -9.605 -28.745 -71.094  1.00  0.00     0.255 C 
HETATM   10  C13 UNL     1     -10.860 -29.293 -70.551  1.00  0.00     0.090 C 
HETATM   11  N5  UNL     1     -11.851 -29.729 -70.097  1.00  0.00    -0.195 NA
ENDROOT
BRANCH   1  12
HETATM   12  N1  UNL     1      -9.496 -28.225 -68.713  1.00  0.00    -0.330 N 
ATOM     13  H1  UNL     1     -10.051 -29.000 -68.348  1.00  0.00     0.165 HD
BRANCH  12  14
HETATM   14  C7  UNL     1      -9.542 -27.077 -68.070  1.00  0.00     0.147 A 
HETATM   15  S1  UNL     1     -10.679 -25.817 -68.191  1.00  0.00    -0.064 SA
HETATM   16  C6  UNL     1     -10.019 -24.772 -67.020  1.00  0.00     0.079 A 
HETATM   17  C5  UNL     1      -8.930 -25.474 -66.592  1.00  0.00     0.025 A 
HETATM   18  N6  UNL     1      -8.699 -26.651 -67.138  1.00  0.00    -0.339 N 
ATOM     19  H6  UNL     1      -7.899 -27.216 -66.854  1.00  0.00     0.168 HD
BRANCH  17  20
HETATM   20  C2  UNL     1      -7.984 -24.960 -65.499  1.00  0.00    -0.008 C 
HETATM   21  C1  UNL     1      -6.712 -25.776 -65.528  1.00  0.00     0.021 C 
HETATM   22  C3  UNL     1      -8.620 -25.062 -64.173  1.00  0.00     0.021 C 
HETATM   23  C4  UNL     1      -7.629 -23.514 -65.748  1.00  0.00     0.021 C 
ENDBRANCH  17  20
ENDBRANCH  12  14
ENDBRANCH   1  12
BRANCH   6  24
HETATM   24  C11 UNL     1      -7.137 -31.505 -71.335  1.00  0.00     0.244 C 
HETATM   25 CL1  UNL     1      -5.877 -30.982 -72.482  1.00  0.00    -0.100 Cl
HETATM   26 CL2  UNL     1      -8.028 -32.840 -72.093  1.00  0.00    -0.100 Cl
ENDBRANCH   6  24
TORSDOF 4
ENDMDL
MODEL 4
REMARK VINA RESULT: -8.054177325      4.332      6.009
REMARK  4 active torsions:
REMARK  status: ('A' for Active; 'I' for Inactive)
REMARK    1  A    between atoms: C2_2  and  C5_5 
REMARK    2  A    between atoms: C7_8  and  N1_9 
REMARK    3  A    between atoms: N1_9  and  C8_11 
REMARK    4  A    between atoms: C10_16  and  C11_17 
ROOT
HETATM    1  C8  UNL     1      -7.858 -27.059 -70.176  1.00  0.00     0.232 C 
HETATM    2  C9  UNL     1      -6.680 -26.232 -70.187  1.00  0.00     0.117 C 
HETATM    3  N2  UNL     1      -5.717 -25.588 -70.203  1.00  0.00    -0.192 NA
HETATM    4  N3  UNL     1      -7.555 -28.432 -69.767  1.00  0.00    -0.337 N 
ATOM      5  H3  UNL     1      -7.568 -28.798 -68.815  1.00  0.00     0.164 HD
HETATM    6  C10 UNL     1      -7.243 -29.158 -70.940  1.00  0.00     0.110 C 
HETATM    7  N4  UNL     1      -7.679 -28.518 -71.972  1.00  0.00    -0.356 N 
ATOM      8  H4  UNL     1      -7.572 -28.844 -72.933  1.00  0.00     0.162 HD
HETATM    9  C12 UNL     1      -8.336 -27.293 -71.609  1.00  0.00     0.255 C 
HETATM   10  C13 UNL     1      -9.781 -27.557 -71.507  1.00  0.00     0.090 C 
HETATM   11  N5  UNL     1     -10.931 -27.767 -71.402  1.00  0.00    -0.195 NA
ENDROOT
BRANCH   1  12
HETATM   12  N1  UNL     1      -8.906 -26.596 -69.341  1.00  0.00    -0.330 N 
ATOM     13  H1  UNL     1      -9.768 -26.279 -69.786  1.00  0.00     0.165 HD
BRANCH  12  14
HETATM   14  C7  UNL     1      -8.838 -26.548 -68.027  1.00  0.00     0.147 A 
HETATM   15  S1  UNL     1      -8.923 -27.816 -66.896  1.00  0.00    -0.064 SA
HETATM   16  C6  UNL     1      -8.718 -26.898 -65.476  1.00  0.00     0.079 A 
HETATM   17  C5  UNL     1      -8.593 -25.632 -65.970  1.00  0.00     0.025 A 
HETATM   18  N6  UNL     1      -8.657 -25.469 -67.277  1.00  0.00    -0.339 N 
ATOM     19  H6  UNL     1      -8.569 -24.544 -67.697  1.00  0.00     0.168 HD
BRANCH  17  20
HETATM   20  C2  UNL     1      -8.366 -24.407 -65.076  1.00  0.00    -0.008 C 
HETATM   21  C1  UNL     1      -7.462 -23.434 -65.798  1.00  0.00     0.021 C 
HETATM   22  C3  UNL     1      -7.757 -24.806 -63.794  1.00  0.00     0.021 C 
HETATM   23  C4  UNL     1      -9.676 -23.717 -64.786  1.00  0.00     0.021 C 
ENDBRANCH  17  20
ENDBRANCH  12  14
ENDBRANCH   1  12
BRANCH   6  24
HETATM   24  C11 UNL     1      -6.522 -30.462 -70.946  1.00  0.00     0.244 C 
HETATM   25 CL1  UNL     1      -5.122 -30.407 -72.047  1.00  0.00    -0.100 Cl
HETATM   26 CL2  UNL     1      -7.570 -31.790 -71.480  1.00  0.00    -0.100 Cl
ENDBRANCH   6  24
TORSDOF 4
ENDMDL
MODEL 5
REMARK VINA RESULT: -7.917912411      4.881      7.057
REMARK  4 active torsions:
REMARK  status: ('A' for Active; 'I' for Inactive)
REMARK    1  A    between atoms: C2_2  and  C5_5 
REMARK    2  A    between atoms: C7_8  and  N1_9 
REMARK    3  A    between atoms: N1_9  and  C8_11 
REMARK    4  A    between atoms: C10_16  and  C11_17 
ROOT
HETATM    1  C8  UNL     1      -6.434 -26.891 -68.766  1.00  0.00     0.232 C 
HETATM    2  C9  UNL     1      -5.615 -26.018 -67.967  1.00  0.00     0.117 C 
HETATM    3  N2  UNL     1      -4.933 -25.327 -67.335  1.00  0.00    -0.192 NA
HETATM    4  N3  UNL     1      -5.775 -28.175 -69.021  1.00  0.00    -0.337 N 
ATOM      5  H3  UNL     1      -5.842 -29.014 -68.446  1.00  0.00     0.164 HD
HETATM    6  C10 UNL     1      -5.030 -28.032 -70.214  1.00  0.00     0.110 C 
HETATM    7  N4  UNL     1      -5.456 -27.003 -70.868  1.00  0.00    -0.356 N 
ATOM      8  H4  UNL     1      -5.071 -26.697 -71.762  1.00  0.00     0.162 HD
HETATM    9  C12 UNL     1      -6.535 -26.342 -70.188  1.00  0.00     0.255 C 
HETATM   10  C13 UNL     1      -7.804 -26.861 -70.725  1.00  0.00     0.090 C 
HETATM   11  N5  UNL     1      -8.819 -27.288 -71.133  1.00  0.00    -0.195 NA
ENDROOT
BRANCH   1  12
HETATM   12  N1  UNL     1      -7.711 -27.178 -68.220  1.00  0.00    -0.330 N 
ATOM     13  H1  UNL     1      -8.075 -28.125 -68.329  1.00  0.00     0.165 HD
BRANCH  12  14
HETATM   14  C7  UNL     1      -8.457 -26.300 -67.583  1.00  0.00     0.147 A 
HETATM   15  S1  UNL     1     -10.055 -25.811 -67.899  1.00  0.00    -0.064 SA
HETATM   16  C6  UNL     1     -10.238 -24.710 -66.613  1.00  0.00     0.079 A 
HETATM   17  C5  UNL     1      -9.022 -24.785 -65.998  1.00  0.00     0.025 A 
HETATM   18  N6  UNL     1      -8.122 -25.603 -66.506  1.00  0.00    -0.339 N 
ATOM     19  H6  UNL     1      -7.198 -25.697 -66.084  1.00  0.00     0.168 HD
BRANCH  17  20
HETATM   20  C2  UNL     1      -8.673 -23.978 -64.741  1.00  0.00    -0.008 C 
HETATM   21  C1  UNL     1      -7.663 -22.914 -65.107  1.00  0.00     0.021 C 
HETATM   22  C3  UNL     1      -8.123 -24.858 -63.695  1.00  0.00     0.021 C 
HETATM   23  C4  UNL     1      -9.905 -23.299 -64.194  1.00  0.00     0.021 C 
ENDBRANCH  17  20
ENDBRANCH  12  14
ENDBRANCH   1  12
BRANCH   6  24
HETATM   24  C11 UNL     1      -3.932 -28.950 -70.625  1.00  0.00     0.244 C 
HETATM   25 CL1  UNL     1      -2.563 -28.034 -71.307  1.00  0.00    -0.100 Cl
HETATM   26 CL2  UNL     1      -4.468 -30.107 -71.859  1.00  0.00    -0.100 Cl
ENDBRANCH   6  24
TORSDOF 4
ENDMDL
