MODEL 1
REMARK VINA RESULT: -0.742461744      0.000      0.000
REMARK  3 active torsions:
REMARK  status: ('A' for Active; 'I' for Inactive)
REMARK    1  A    between atoms: C2_2  and  C4_4 
REMARK    2  A    between atoms: C17_21  and  O4_22 
REMARK    3  A    between atoms: C18_24  and  C19_25 
ROOT
HETATM    1  C4  UNL     1      15.840  -1.235  30.203  1.00  0.00     0.264 C 
HETATM    2  O1  UNL     1      14.810  -1.656  29.362  1.00  0.00    -0.352 OA
HETATM    3  C5  UNL     1      13.871  -0.693  29.551  1.00  0.00     0.164 C 
HETATM    4  C6  UNL     1      12.817  -0.530  28.512  1.00  0.00     0.026 C 
HETATM    5  C7  UNL     1      12.226  -1.813  28.175  1.00  0.00     0.012 C 
HETATM    6  C8  UNL     1      10.779  -1.939  28.015  1.00  0.00     0.038 C 
HETATM    7  C9  UNL     1       9.983  -0.719  28.294  1.00  0.00    -0.038 C 
HETATM    8  C10 UNL     1       8.673  -0.887  28.333  1.00  0.00     0.083 C 
HETATM    9 CL1  UNL     1       7.982  -2.506  28.061  1.00  0.00    -0.080 Cl
HETATM   10  C11 UNL     1       7.705   0.170  28.586  1.00  0.00     0.178 C 
HETATM   11  O2  UNL     1       6.496   0.075  28.255  1.00  0.00    -0.291 OA
HETATM   12  C12 UNL     1       8.187   1.388  29.257  1.00  0.00     0.164 C 
HETATM   13  C13 UNL     1       9.672   1.376  29.428  1.00  0.00     0.147 C 
HETATM   14  O3  UNL     1      10.070   2.035  30.373  1.00  0.00    -0.296 OA
HETATM   15  C14 UNL     1      10.572   0.616  28.513  1.00  0.00     0.049 C 
HETATM   16  C15 UNL     1      10.488   1.339  27.179  1.00  0.00     0.029 C 
HETATM   17  C16 UNL     1      11.937   0.549  29.101  1.00  0.00     0.041 C 
HETATM   18  C17 UNL     1      12.714   1.835  28.980  1.00  0.00     0.131 C 
HETATM   19  C18 UNL     1      14.096   1.827  29.580  1.00  0.00     0.055 C 
HETATM   20  C22 UNL     1      14.781   0.531  29.462  1.00  0.00     0.093 C 
HETATM   21  C23 UNL     1      15.489   0.398  28.103  1.00  0.00     0.049 C 
HETATM   22  O5  UNL     1      15.685   0.139  30.395  1.00  0.00    -0.347 OA
ENDROOT
BRANCH   1  23
HETATM   23  C2  UNL     1      15.793  -1.890  31.558  1.00  0.00     0.033 C 
HETATM   24  C1  UNL     1      17.074  -1.696  32.333  1.00  0.00     0.014 C 
HETATM   25  C3  UNL     1      14.633  -1.236  32.311  1.00  0.00     0.014 C 
ENDBRANCH   1  23
BRANCH  19  26
HETATM   26  C19 UNL     1      14.187   2.548  30.883  1.00  0.00    -0.013 C 
HETATM   27  C20 UNL     1      14.336   4.036  30.626  1.00  0.00     0.010 C 
HETATM   28  C21 UNL     1      15.264   2.118  31.824  1.00  0.00     0.010 C 
ENDBRANCH  19  26
BRANCH  18  29
HETATM   29  O4  UNL     1      12.915   1.989  27.581  1.00  0.00    -0.395 OA
ATOM     30  H4  UNL     1      13.374   1.198  27.324  1.00  0.00     0.210 HD
ENDBRANCH  18  29
TORSDOF 3
ENDMDL
MODEL 2
REMARK VINA RESULT: 1.581612664      1.969      3.163
REMARK  3 active torsions:
REMARK  status: ('A' for Active; 'I' for Inactive)
REMARK    1  A    between atoms: C2_2  and  C4_4 
REMARK    2  A    between atoms: C17_21  and  O4_22 
REMARK    3  A    between atoms: C18_24  and  C19_25 
ROOT
HETATM    1  C4  UNL     1      15.417   0.615  30.934  1.00  0.00     0.264 C 
HETATM    2  O1  UNL     1      14.069   0.317  31.131  1.00  0.00    -0.352 OA
HETATM    3  C5  UNL     1      13.521   0.657  29.936  1.00  0.00     0.164 C 
HETATM    4  C6  UNL     1      12.195   0.077  29.584  1.00  0.00     0.026 C 
HETATM    5  C7  UNL     1      11.258   0.236  30.682  1.00  0.00     0.012 C 
HETATM    6  C8  UNL     1       9.882   0.656  30.422  1.00  0.00     0.038 C 
HETATM    7  C9  UNL     1       9.553   0.975  29.012  1.00  0.00    -0.038 C 
HETATM    8  C10 UNL     1       8.371   1.533  28.813  1.00  0.00     0.083 C 
HETATM    9 CL1  UNL     1       7.300   1.852  30.200  1.00  0.00    -0.080 Cl
HETATM   10  C11 UNL     1       7.843   1.925  27.514  1.00  0.00     0.178 C 
HETATM   11  O2  UNL     1       6.615   2.095  27.305  1.00  0.00    -0.291 OA
HETATM   12  C12 UNL     1       8.807   2.122  26.420  1.00  0.00     0.164 C 
HETATM   13  C13 UNL     1      10.191   1.724  26.821  1.00  0.00     0.147 C 
HETATM   14  O3  UNL     1      11.073   2.308  26.215  1.00  0.00    -0.296 OA
HETATM   15  C14 UNL     1      10.451   0.701  27.875  1.00  0.00     0.049 C 
HETATM   16  C15 UNL     1       9.984  -0.616  27.276  1.00  0.00     0.029 C 
HETATM   17  C16 UNL     1      11.888   0.736  28.258  1.00  0.00     0.041 C 
HETATM   18  C17 UNL     1      12.802   0.093  27.249  1.00  0.00     0.131 C 
HETATM   19  C18 UNL     1      14.272   0.122  27.580  1.00  0.00     0.055 C 
HETATM   20  C22 UNL     1      14.553   0.004  29.019  1.00  0.00     0.093 C 
HETATM   21  C23 UNL     1      14.594  -1.470  29.458  1.00  0.00     0.049 C 
HETATM   22  O5  UNL     1      15.653   0.586  29.559  1.00  0.00    -0.347 OA
ENDROOT
BRANCH   1  23
HETATM   23  C2  UNL     1      15.791   1.987  31.430  1.00  0.00     0.033 C 
HETATM   24  C1  UNL     1      15.117   3.085  30.643  1.00  0.00     0.014 C 
HETATM   25  C3  UNL     1      15.340   2.052  32.890  1.00  0.00     0.014 C 
ENDBRANCH   1  23
BRANCH  19  26
HETATM   26  C19 UNL     1      15.041   1.134  26.799  1.00  0.00    -0.013 C 
HETATM   27  C20 UNL     1      14.359   2.484  26.912  1.00  0.00     0.010 C 
HETATM   28  C21 UNL     1      15.278   0.840  25.354  1.00  0.00     0.010 C 
ENDBRANCH  19  26
BRANCH  18  29
HETATM   29  O4  UNL     1      12.440  -1.282  27.279  1.00  0.00    -0.395 OA
ATOM     30  H4  UNL     1      12.517  -1.522  28.195  1.00  0.00     0.210 HD
ENDBRANCH  18  29
TORSDOF 3
ENDMDL
MODEL 3
REMARK VINA RESULT: 2.933145976      0.625      1.060
REMARK  3 active torsions:
REMARK  status: ('A' for Active; 'I' for Inactive)
REMARK    1  A    between atoms: C2_2  and  C4_4 
REMARK    2  A    between atoms: C17_21  and  O4_22 
REMARK    3  A    between atoms: C18_24  and  C19_25 
ROOT
HETATM    1  C4  UNL     1      16.168  -1.031  30.613  1.00  0.00     0.264 C 
HETATM    2  O1  UNL     1      15.134  -1.555  29.837  1.00  0.00    -0.352 OA
HETATM    3  C5  UNL     1      14.243  -0.531  29.815  1.00  0.00     0.164 C 
HETATM    4  C6  UNL     1      13.219  -0.518  28.733  1.00  0.00     0.026 C 
HETATM    5  C7  UNL     1      12.570  -1.814  28.626  1.00  0.00     0.012 C 
HETATM    6  C8  UNL     1      11.121  -1.900  28.451  1.00  0.00     0.038 C 
HETATM    7  C9  UNL     1      10.384  -0.613  28.472  1.00  0.00    -0.038 C 
HETATM    8  C10 UNL     1       9.066  -0.709  28.504  1.00  0.00     0.083 C 
HETATM    9 CL1  UNL     1       8.299  -2.317  28.522  1.00  0.00    -0.080 Cl
HETATM   10  C11 UNL     1       8.148   0.420  28.526  1.00  0.00     0.178 C 
HETATM   11  O2  UNL     1       6.943   0.321  28.184  1.00  0.00    -0.291 OA
HETATM   12  C12 UNL     1       8.679   1.719  28.970  1.00  0.00     0.164 C 
HETATM   13  C13 UNL     1      10.158   1.670  29.183  1.00  0.00     0.147 C 
HETATM   14  O3  UNL     1      10.571   2.477  29.998  1.00  0.00    -0.296 OA
HETATM   15  C14 UNL     1      11.036   0.709  28.454  1.00  0.00     0.049 C 
HETATM   16  C15 UNL     1      11.015   1.171  27.005  1.00  0.00     0.029 C 
HETATM   17  C16 UNL     1      12.384   0.692  29.083  1.00  0.00     0.041 C 
HETATM   18  C17 UNL     1      13.227   1.894  28.745  1.00  0.00     0.131 C 
HETATM   19  C18 UNL     1      14.596   1.935  29.376  1.00  0.00     0.055 C 
HETATM   20  C22 UNL     1      15.215   0.610  29.523  1.00  0.00     0.093 C 
HETATM   21  C23 UNL     1      15.942   0.190  28.234  1.00  0.00     0.049 C 
HETATM   22  O5  UNL     1      16.080   0.360  30.538  1.00  0.00    -0.347 OA
ENDROOT
BRANCH   1  23
HETATM   23  C2  UNL     1      16.061  -1.416  32.065  1.00  0.00     0.033 C 
HETATM   24  C1  UNL     1      15.534  -2.818  32.250  1.00  0.00     0.014 C 
HETATM   25  C3  UNL     1      17.476  -1.320  32.639  1.00  0.00     0.014 C 
ENDBRANCH   1  23
BRANCH  19  26
HETATM   26  C19 UNL     1      14.698   2.885  30.522  1.00  0.00    -0.013 C 
HETATM   27  C20 UNL     1      14.633   2.112  31.826  1.00  0.00     0.010 C 
HETATM   28  C21 UNL     1      13.699   3.994  30.576  1.00  0.00     0.010 C 
ENDBRANCH  19  26
BRANCH  18  29
HETATM   29  O4  UNL     1      13.464   1.771  27.348  1.00  0.00    -0.395 OA
ATOM     30  H4  UNL     1      13.212   2.617  26.995  1.00  0.00     0.210 HD
ENDBRANCH  18  29
TORSDOF 3
ENDMDL
MODEL 4
REMARK VINA RESULT: 3.030296437      2.401      6.369
REMARK  3 active torsions:
REMARK  status: ('A' for Active; 'I' for Inactive)
REMARK    1  A    between atoms: C2_2  and  C4_4 
REMARK    2  A    between atoms: C17_21  and  O4_22 
REMARK    3  A    between atoms: C18_24  and  C19_25 
ROOT
HETATM    1  C4  UNL     1       8.809  -0.332  27.987  1.00  0.00     0.264 C 
HETATM    2  O1  UNL     1       9.533  -0.314  29.178  1.00  0.00    -0.352 OA
HETATM    3  C5  UNL     1      10.764   0.081  28.761  1.00  0.00     0.164 C 
HETATM    4  C6  UNL     1      11.695   0.654  29.773  1.00  0.00     0.026 C 
HETATM    5  C7  UNL     1      11.762  -0.198  30.947  1.00  0.00     0.012 C 
HETATM    6  C8  UNL     1      13.049  -0.486  31.577  1.00  0.00     0.038 C 
HETATM    7  C9  UNL     1      14.245   0.071  30.901  1.00  0.00    -0.038 C 
HETATM    8  C10 UNL     1      15.410  -0.347  31.362  1.00  0.00     0.083 C 
HETATM    9 CL1  UNL     1      15.460  -1.509  32.711  1.00  0.00    -0.080 Cl
HETATM   10  C11 UNL     1      16.708   0.070  30.852  1.00  0.00     0.178 C 
HETATM   11  O2  UNL     1      17.766  -0.036  31.521  1.00  0.00    -0.291 OA
HETATM   12  C12 UNL     1      16.754   0.637  29.494  1.00  0.00     0.164 C 
HETATM   13  C13 UNL     1      15.384   0.823  28.924  1.00  0.00     0.147 C 
HETATM   14  O3  UNL     1      15.342   0.784  27.706  1.00  0.00    -0.296 OA
HETATM   15  C14 UNL     1      14.186   1.036  29.786  1.00  0.00     0.049 C 
HETATM   16  C15 UNL     1      14.380   2.410  30.407  1.00  0.00     0.029 C 
HETATM   17  C16 UNL     1      12.952   0.890  28.968  1.00  0.00     0.041 C 
HETATM   18  C17 UNL     1      12.667   2.075  28.083  1.00  0.00     0.131 C 
HETATM   19  C18 UNL     1      11.438   1.968  27.216  1.00  0.00     0.055 C 
HETATM   20  C22 UNL     1      10.336   1.229  27.848  1.00  0.00     0.093 C 
HETATM   21  C23 UNL     1       9.489   2.151  28.743  1.00  0.00     0.049 C 
HETATM   22  O5  UNL     1       9.453   0.526  27.094  1.00  0.00    -0.347 OA
ENDROOT
BRANCH   1  23
HETATM   23  C2  UNL     1       8.763  -1.697  27.351  1.00  0.00     0.033 C 
HETATM   24  C1  UNL     1       9.905  -2.576  27.798  1.00  0.00     0.014 C 
HETATM   25  C3  UNL     1       7.435  -2.324  27.779  1.00  0.00     0.014 C 
ENDBRANCH   1  23
BRANCH  19  26
HETATM   26  C19 UNL     1      11.741   1.681  25.784  1.00  0.00    -0.013 C 
HETATM   27  C20 UNL     1      13.162   2.112  25.472  1.00  0.00     0.010 C 
HETATM   28  C21 UNL     1      10.828   2.280  24.764  1.00  0.00     0.010 C 
ENDBRANCH  19  26
BRANCH  18  29
HETATM   29  O4  UNL     1      12.388   3.130  28.995  1.00  0.00    -0.395 OA
ATOM     30  H4  UNL     1      12.359   3.908  28.449  1.00  0.00     0.210 HD
ENDBRANCH  18  29
TORSDOF 3
ENDMDL
MODEL 5
REMARK VINA RESULT: 3.036869199      2.329      6.859
REMARK  3 active torsions:
REMARK  status: ('A' for Active; 'I' for Inactive)
REMARK    1  A    between atoms: C2_2  and  C4_4 
REMARK    2  A    between atoms: C17_21  and  O4_22 
REMARK    3  A    between atoms: C18_24  and  C19_25 
ROOT
HETATM    1  C4  UNL     1       8.426   1.881  28.349  1.00  0.00     0.264 C 
HETATM    2  O1  UNL     1       9.686   2.429  28.586  1.00  0.00    -0.352 OA
HETATM    3  C5  UNL     1      10.432   1.328  28.862  1.00  0.00     0.164 C 
HETATM    4  C6  UNL     1      11.911   1.434  28.727  1.00  0.00     0.026 C 
HETATM    5  C7  UNL     1      12.405   2.617  29.411  1.00  0.00     0.012 C 
HETATM    6  C8  UNL     1      13.614   2.544  30.228  1.00  0.00     0.038 C 
HETATM    7  C9  UNL     1      14.229   1.202  30.367  1.00  0.00    -0.038 C 
HETATM    8  C10 UNL     1      15.203   1.108  31.255  1.00  0.00     0.083 C 
HETATM    9 CL1  UNL     1      15.690   2.545  32.187  1.00  0.00    -0.080 Cl
HETATM   10  C11 UNL     1      15.946  -0.108  31.551  1.00  0.00     0.178 C 
HETATM   11  O2  UNL     1      17.078  -0.096  32.097  1.00  0.00    -0.291 OA
HETATM   12  C12 UNL     1      15.324  -1.391  31.186  1.00  0.00     0.164 C 
HETATM   13  C13 UNL     1      14.059  -1.194  30.413  1.00  0.00     0.147 C 
HETATM   14  O3  UNL     1      13.260  -2.107  30.524  1.00  0.00    -0.296 OA
HETATM   15  C14 UNL     1      13.815   0.022  29.584  1.00  0.00     0.049 C 
HETATM   16  C15 UNL     1      14.794  -0.080  28.427  1.00  0.00     0.029 C 
HETATM   17  C16 UNL     1      12.383   0.073  29.187  1.00  0.00     0.041 C 
HETATM   18  C17 UNL     1      12.024  -0.889  28.084  1.00  0.00     0.131 C 
HETATM   19  C18 UNL     1      10.578  -0.892  27.659  1.00  0.00     0.055 C 
HETATM   20  C22 UNL     1       9.942   0.432  27.727  1.00  0.00     0.093 C 
HETATM   21  C23 UNL     1      10.204   1.241  26.444  1.00  0.00     0.049 C 
HETATM   22  O5  UNL     1       8.614   0.549  27.978  1.00  0.00    -0.347 OA
ENDROOT
BRANCH   1  23
HETATM   23  C2  UNL     1       7.545   1.892  29.571  1.00  0.00     0.033 C 
HETATM   24  C1  UNL     1       6.507   2.987  29.520  1.00  0.00     0.014 C 
HETATM   25  C3  UNL     1       6.852   0.529  29.612  1.00  0.00     0.014 C 
ENDBRANCH   1  23
BRANCH  19  26
HETATM   26  C19 UNL     1       9.808  -2.064  28.167  1.00  0.00    -0.013 C 
HETATM   27  C20 UNL     1       8.581  -2.276  27.301  1.00  0.00     0.010 C 
HETATM   28  C21 UNL     1       9.379  -2.026  29.598  1.00  0.00     0.010 C 
ENDBRANCH  19  26
BRANCH  18  29
HETATM   29  O4  UNL     1      12.744  -0.407  26.956  1.00  0.00    -0.395 OA
ATOM     30  H4  UNL     1      13.104  -1.191  26.558  1.00  0.00     0.210 HD
ENDBRANCH  18  29
TORSDOF 3
ENDMDL
