MODEL 1
REMARK VINA RESULT: -4.382876238      0.000      0.000
REMARK  4 active torsions:
REMARK  status: ('A' for Active; 'I' for Inactive)
REMARK    1  A    between atoms: C7_8  and  C8_9 
REMARK    2  A    between atoms: N1_10  and  O2_12 
REMARK    3  A    between atoms: O2_12  and  C9_13 
REMARK    4  A    between atoms: C19_28  and  O4_29 
ROOT
HETATM    1  C1  UNL     1      10.096   1.147  30.086  1.00  0.00     0.018 C 
HETATM    2  C2  UNL     1      10.073   0.922  28.619  1.00  0.00    -0.011 C 
HETATM    3  C3  UNL     1      10.404   2.092  27.778  1.00  0.00     0.012 C 
HETATM    4  C4  UNL     1      11.791   2.000  27.124  1.00  0.00     0.009 C 
HETATM    5  C5  UNL     1      12.703   1.393  28.142  1.00  0.00     0.029 C 
HETATM    6  C6  UNL     1      12.344  -0.097  28.213  1.00  0.00     0.132 C 
HETATM    7  O1  UNL     1      13.052  -0.601  29.265  1.00  0.00    -0.373 OA
HETATM    8  C7  UNL     1      14.355  -0.821  28.853  1.00  0.00     0.176 C 
HETATM    9  C10 UNL     1      14.975   0.296  28.075  1.00  0.00     0.031 C 
HETATM   10  C11 UNL     1      16.307   0.619  28.775  1.00  0.00     0.025 C 
HETATM   11  C12 UNL     1      15.354  -0.116  26.708  1.00  0.00     0.073 C 
HETATM   12  N2  UNL     1      15.081   0.771  25.878  1.00  0.00    -0.381 N 
ATOM     13  H2  UNL     1      15.263   0.684  24.878  1.00  0.00     0.164 HD
HETATM   14  C13 UNL     1      14.492   1.908  26.467  1.00  0.00     0.071 C 
HETATM   15  C14 UNL     1      14.151   1.500  27.874  1.00  0.00     0.009 C 
HETATM   16  C15 UNL     1      14.730   2.606  28.777  1.00  0.00     0.023 C 
HETATM   17  C16 UNL     1      10.909  -0.281  28.184  1.00  0.00     0.027 C 
HETATM   18  C17 UNL     1      10.312  -1.334  29.058  1.00  0.00     0.026 C 
HETATM   19  C18 UNL     1       8.823  -1.080  28.850  1.00  0.00     0.087 C 
HETATM   20 BR1  UNL     1       8.228  -2.323  27.484  1.00  0.00    -0.088 Br
HETATM   21  C19 UNL     1       8.696   0.321  28.284  1.00  0.00     0.141 C 
ENDROOT
BRANCH   8  22
HETATM   22  C8  UNL     1      15.192  -1.249  30.015  1.00  0.00     0.120 C 
HETATM   23  N1  UNL     1      14.800  -1.103  31.234  1.00  0.00    -0.268 N 
ATOM     24  H1  UNL     1      13.887  -0.682  31.406  1.00  0.00     0.193 HD
BRANCH  23  25
HETATM   25  O2  UNL     1      15.545  -1.485  32.295  1.00  0.00    -0.172 OA
BRANCH  25  26
HETATM   26  C9  UNL     1      16.861  -1.112  32.511  1.00  0.00     0.467 C 
HETATM   27  O3  UNL     1      17.090  -0.038  33.103  1.00  0.00    -0.222 OA
HETATM   28  F1  UNL     1      17.882  -1.887  32.096  1.00  0.00    -0.134 F 
ENDBRANCH  25  26
ENDBRANCH  23  25
ENDBRANCH   8  22
BRANCH  21  29
HETATM   29  O4  UNL     1       8.582   0.342  26.916  1.00  0.00    -0.394 OA
ATOM     30  H4  UNL     1       7.781  -0.122  26.704  1.00  0.00     0.210 HD
ENDBRANCH  21  29
TORSDOF 4
ENDMDL
MODEL 2
REMARK VINA RESULT: -0.816477433      0.995      1.023
REMARK  4 active torsions:
REMARK  status: ('A' for Active; 'I' for Inactive)
REMARK    1  A    between atoms: C7_8  and  C8_9 
REMARK    2  A    between atoms: N1_10  and  O2_12 
REMARK    3  A    between atoms: O2_12  and  C9_13 
REMARK    4  A    between atoms: C19_28  and  O4_29 
ROOT
HETATM    1  C1  UNL     1       8.963   1.622  29.312  1.00  0.00     0.018 C 
HETATM    2  C2  UNL     1       9.161   0.874  28.045  1.00  0.00    -0.011 C 
HETATM    3  C3  UNL     1       9.540   1.683  26.866  1.00  0.00     0.012 C 
HETATM    4  C4  UNL     1      11.009   1.505  26.452  1.00  0.00     0.009 C 
HETATM    5  C5  UNL     1      11.801   1.413  27.716  1.00  0.00     0.029 C 
HETATM    6  C6  UNL     1      11.521   0.023  28.304  1.00  0.00     0.132 C 
HETATM    7  O1  UNL     1      12.101   0.018  29.540  1.00  0.00    -0.373 OA
HETATM    8  C7  UNL     1      13.460  -0.199  29.386  1.00  0.00     0.176 C 
HETATM    9  C10 UNL     1      14.118   0.614  28.318  1.00  0.00     0.031 C 
HETATM   10  C11 UNL     1      15.318   1.310  28.986  1.00  0.00     0.025 C 
HETATM   11  C12 UNL     1      14.709  -0.227  27.257  1.00  0.00     0.073 C 
HETATM   12  N2  UNL     1      14.506   0.260  26.129  1.00  0.00    -0.381 N 
ATOM     13  H2  UNL     1      14.833  -0.167  25.262  1.00  0.00     0.164 HD
HETATM   14  C13 UNL     1      13.777   1.465  26.178  1.00  0.00     0.071 C 
HETATM   15  C14 UNL     1      13.263   1.567  27.588  1.00  0.00     0.009 C 
HETATM   16  C15 UNL     1      13.645   2.981  28.066  1.00  0.00     0.023 C 
HETATM   17  C16 UNL     1      10.117  -0.309  28.189  1.00  0.00     0.027 C 
HETATM   18  C17 UNL     1       9.464  -1.026  29.324  1.00  0.00     0.026 C 
HETATM   19  C18 UNL     1       8.007  -1.024  28.874  1.00  0.00     0.087 C 
HETATM   20 BR1  UNL     1       7.683  -2.736  28.021  1.00  0.00    -0.088 Br
HETATM   21  C19 UNL     1       7.881   0.051  27.812  1.00  0.00     0.141 C 
ENDROOT
BRANCH   8  22
HETATM   22  C8  UNL     1      14.147  -0.081  30.708  1.00  0.00     0.120 C 
HETATM   23  N1  UNL     1      14.828  -1.050  31.217  1.00  0.00    -0.268 N 
ATOM     24  H1  UNL     1      14.898  -1.924  30.696  1.00  0.00     0.193 HD
BRANCH  23  25
HETATM   25  O2  UNL     1      15.454  -0.958  32.411  1.00  0.00    -0.172 OA
BRANCH  25  26
HETATM   26  C9  UNL     1      16.817  -0.778  32.578  1.00  0.00     0.467 C 
HETATM   27  O3  UNL     1      17.310   0.339  32.320  1.00  0.00    -0.222 OA
HETATM   28  F1  UNL     1      17.604  -1.782  33.010  1.00  0.00    -0.134 F 
ENDBRANCH  25  26
ENDBRANCH  23  25
ENDBRANCH   8  22
BRANCH  21  29
HETATM   29  O4  UNL     1       7.961  -0.443  26.533  1.00  0.00    -0.394 OA
ATOM     30  H4  UNL     1       7.071  -0.490  26.205  1.00  0.00     0.210 HD
ENDBRANCH  21  29
TORSDOF 4
ENDMDL
MODEL 3
REMARK VINA RESULT: -0.694641774      3.156      4.748
REMARK  4 active torsions:
REMARK  status: ('A' for Active; 'I' for Inactive)
REMARK    1  A    between atoms: C7_8  and  C8_9 
REMARK    2  A    between atoms: N1_10  and  O2_12 
REMARK    3  A    between atoms: O2_12  and  C9_13 
REMARK    4  A    between atoms: C19_28  and  O4_29 
ROOT
HETATM    1  C1  UNL     1       9.191  -0.659  26.958  1.00  0.00     0.018 C 
HETATM    2  C2  UNL     1       9.062  -0.293  28.391  1.00  0.00    -0.011 C 
HETATM    3  C3  UNL     1       9.480  -1.324  29.365  1.00  0.00     0.012 C 
HETATM    4  C4  UNL     1      10.810  -0.999  30.063  1.00  0.00     0.009 C 
HETATM    5  C5  UNL     1      11.700  -0.392  29.026  1.00  0.00     0.029 C 
HETATM    6  C6  UNL     1      11.175   1.029  28.781  1.00  0.00     0.132 C 
HETATM    7  O1  UNL     1      11.875   1.506  27.712  1.00  0.00    -0.373 OA
HETATM    8  C7  UNL     1      13.120   1.923  28.154  1.00  0.00     0.176 C 
HETATM    9  C10 UNL     1      13.822   0.973  29.071  1.00  0.00     0.031 C 
HETATM   10  C11 UNL     1      15.219   0.745  28.466  1.00  0.00     0.025 C 
HETATM   11  C12 UNL     1      14.075   1.563  30.402  1.00  0.00     0.073 C 
HETATM   12  N2  UNL     1      13.862   0.737  31.309  1.00  0.00    -0.381 N 
ATOM     13  H2  UNL     1      13.979   0.945  32.300  1.00  0.00     0.164 HD
HETATM   14  C13 UNL     1      13.443  -0.516  30.819  1.00  0.00     0.071 C 
HETATM   15  C14 UNL     1      13.133  -0.296  29.364  1.00  0.00     0.009 C 
HETATM   16  C15 UNL     1      13.885  -1.408  28.609  1.00  0.00     0.023 C 
HETATM   17  C16 UNL     1       9.728   1.040  28.731  1.00  0.00     0.027 C 
HETATM   18  C17 UNL     1       9.062   1.920  27.726  1.00  0.00     0.026 C 
HETATM   19  C18 UNL     1       7.603   1.510  27.896  1.00  0.00     0.087 C 
HETATM   20 BR1  UNL     1       6.795   2.802  29.096  1.00  0.00    -0.088 Br
HETATM   21  C19 UNL     1       7.608   0.167  28.601  1.00  0.00     0.141 C 
ENDROOT
BRANCH   8  22
HETATM   22  C8  UNL     1      13.963   2.330  26.989  1.00  0.00     0.120 C 
HETATM   23  N1  UNL     1      13.688   1.969  25.782  1.00  0.00    -0.268 N 
ATOM     24  H1  UNL     1      12.867   1.386  25.623  1.00  0.00     0.193 HD
BRANCH  23  25
HETATM   25  O2  UNL     1      14.441   2.328  24.720  1.00  0.00    -0.172 OA
BRANCH  25  26
HETATM   26  C9  UNL     1      15.802   2.095  24.599  1.00  0.00     0.467 C 
HETATM   27  O3  UNL     1      16.575   3.073  24.562  1.00  0.00    -0.222 OA
HETATM   28  F1  UNL     1      16.289   0.842  24.521  1.00  0.00    -0.134 F 
ENDBRANCH  25  26
ENDBRANCH  23  25
ENDBRANCH   8  22
BRANCH  21  29
HETATM   29  O4  UNL     1       7.424   0.270  29.959  1.00  0.00    -0.394 OA
ATOM     30  H4  UNL     1       6.577  -0.117  30.147  1.00  0.00     0.210 HD
ENDBRANCH  21  29
TORSDOF 4
ENDMDL
