MODEL 1
REMARK VINA RESULT: 3.032651676      0.000      0.000
REMARK  4 active torsions:
REMARK  status: ('A' for Active; 'I' for Inactive)
REMARK    1  A    between atoms: C2_2  and  O2_4 
REMARK    2  A    between atoms: O2_4  and  C3_5 
REMARK    3  A    between atoms: C3_5  and  C4_6 
REMARK    4  A    between atoms: C4_6  and  O3_7 
ROOT
HETATM    1  C4  UNL     1       7.226   0.386  28.719  1.00  0.00     0.197 C 
HETATM    2  O4  UNL     1       8.434  -0.130  29.196  1.00  0.00    -0.307 OA
HETATM    3  C5  UNL     1       8.936   1.176  29.151  1.00  0.00     0.245 C 
HETATM    4  F1  UNL     1       8.571   1.926  30.281  1.00  0.00    -0.205 F 
HETATM    5  C6  UNL     1      10.373   1.316  28.836  1.00  0.00     0.016 A 
HETATM    6  C7  UNL     1      11.305   1.216  29.838  1.00  0.00     0.023 A 
HETATM    7  C8  UNL     1      12.669   1.335  29.656  1.00  0.00    -0.022 A 
HETATM    8  C9  UNL     1      13.119   1.571  28.366  1.00  0.00     0.081 A 
HETATM    9  C10 UNL     1      12.163   1.674  27.345  1.00  0.00    -0.021 A 
HETATM   10  C11 UNL     1      12.559   1.959  25.913  1.00  0.00     0.052 C 
HETATM   11  C12 UNL     1      10.807   1.549  27.560  1.00  0.00    -0.037 A 
HETATM   12  C13 UNL     1       9.864   1.669  26.405  1.00  0.00     0.040 C 
HETATM   13  C14 UNL     1       8.653   0.806  26.736  1.00  0.00     0.021 C 
HETATM   14  C15 UNL     1       8.039   1.387  27.963  1.00  0.00     0.123 C 
HETATM   15  O5  UNL     1      14.461   1.705  28.059  1.00  0.00    -0.350 OA
HETATM   16  C16 UNL     1      15.512   0.764  28.174  1.00  0.00     0.175 C 
HETATM   17  C17 UNL     1      16.701   1.446  28.806  1.00  0.00     0.027 C 
HETATM   18  C18 UNL     1      17.528   0.479  29.628  1.00  0.00     0.002 C 
HETATM   19  C19 UNL     1      17.211   0.557  31.106  1.00  0.00     0.000 C 
HETATM   20  C20 UNL     1      16.301  -0.606  31.430  1.00  0.00     0.001 C 
HETATM   21  C21 UNL     1      15.081  -0.114  32.172  1.00  0.00     0.020 C 
HETATM   22  C22 UNL     1      13.823  -0.147  31.335  1.00  0.00     0.086 C 
HETATM   23 CL1  UNL     1      12.511  -0.779  32.376  1.00  0.00    -0.125 Cl
HETATM   24  C23 UNL     1      13.543   1.234  30.864  1.00  0.00     0.061 C 
ENDROOT
BRANCH   1  25
HETATM   25  C3  UNL     1       6.344  -0.536  27.955  1.00  0.00     0.247 C 
BRANCH  25  26
HETATM   26  O2  UNL     1       6.603  -1.893  28.076  1.00  0.00    -0.316 OA
BRANCH  26  27
HETATM   27  C2  UNL     1       7.373  -2.532  27.130  1.00  0.00     0.254 C 
HETATM   28  C1  UNL     1       6.746  -3.196  25.932  1.00  0.00     0.126 C 
HETATM   29  O1  UNL     1       8.619  -2.552  27.283  1.00  0.00    -0.266 OA
ENDBRANCH  26  27
ENDBRANCH  25  26
ENDBRANCH   1  25
BRANCH   1  30
HETATM   30  O3  UNL     1       6.454   1.035  29.702  1.00  0.00    -0.363 OA
ATOM     31  H3  UNL     1       6.979   1.723  30.095  1.00  0.00     0.213 HD
ENDBRANCH   1  30
TORSDOF 4
ENDMDL
MODEL 2
REMARK VINA RESULT: 4.443443596      2.582      3.687
REMARK  4 active torsions:
REMARK  status: ('A' for Active; 'I' for Inactive)
REMARK    1  A    between atoms: C2_2  and  O2_4 
REMARK    2  A    between atoms: O2_4  and  C3_5 
REMARK    3  A    between atoms: C3_5  and  C4_6 
REMARK    4  A    between atoms: C4_6  and  O3_7 
ROOT
HETATM    1  C4  UNL     1       8.415   2.102  27.370  1.00  0.00     0.197 C 
HETATM    2  O4  UNL     1       9.393   2.235  28.359  1.00  0.00    -0.307 OA
HETATM    3  C5  UNL     1      10.244   1.497  27.527  1.00  0.00     0.245 C 
HETATM    4  F1  UNL     1      10.842   2.294  26.537  1.00  0.00    -0.205 F 
HETATM    5  C6  UNL     1      11.227   0.624  28.201  1.00  0.00     0.016 A 
HETATM    6  C7  UNL     1      12.427   1.142  28.618  1.00  0.00     0.023 A 
HETATM    7  C8  UNL     1      13.417   0.416  29.252  1.00  0.00    -0.022 A 
HETATM    8  C9  UNL     1      13.171  -0.930  29.480  1.00  0.00     0.081 A 
HETATM    9  C10 UNL     1      11.943  -1.454  29.051  1.00  0.00    -0.021 A 
HETATM   10  C11 UNL     1      11.599  -2.917  29.231  1.00  0.00     0.052 C 
HETATM   11  C12 UNL     1      10.975  -0.702  28.421  1.00  0.00    -0.037 A 
HETATM   12  C13 UNL     1       9.693  -1.351  28.004  1.00  0.00     0.040 C 
HETATM   13  C14 UNL     1       8.619  -0.272  28.053  1.00  0.00     0.021 C 
HETATM   14  C15 UNL     1       9.014   0.768  27.062  1.00  0.00     0.123 C 
HETATM   15  O5  UNL     1      14.083  -1.757  30.109  1.00  0.00    -0.350 OA
HETATM   16  C16 UNL     1      14.592  -1.703  31.429  1.00  0.00     0.175 C 
HETATM   17  C17 UNL     1      16.087  -1.898  31.377  1.00  0.00     0.027 C 
HETATM   18  C18 UNL     1      16.787  -1.155  32.497  1.00  0.00     0.002 C 
HETATM   19  C19 UNL     1      17.352   0.174  32.045  1.00  0.00     0.000 C 
HETATM   20  C20 UNL     1      16.390   1.248  32.504  1.00  0.00     0.001 C 
HETATM   21  C21 UNL     1      16.035   2.150  31.346  1.00  0.00     0.020 C 
HETATM   22  C22 UNL     1      14.623   1.949  30.847  1.00  0.00     0.086 C 
HETATM   23 CL1  UNL     1      13.932   3.571  30.543  1.00  0.00    -0.125 Cl
HETATM   24  C23 UNL     1      14.681   1.128  29.610  1.00  0.00     0.061 C 
ENDROOT
BRANCH   1  25
HETATM   25  C3  UNL     1       6.994   2.160  27.804  1.00  0.00     0.247 C 
BRANCH  25  26
HETATM   26  O2  UNL     1       6.699   2.993  28.872  1.00  0.00    -0.316 OA
BRANCH  26  27
HETATM   27  C2  UNL     1       6.434   2.454  30.110  1.00  0.00     0.254 C 
HETATM   28  C1  UNL     1       6.571   0.975  30.362  1.00  0.00     0.126 C 
HETATM   29  O1  UNL     1       6.073   3.220  31.037  1.00  0.00    -0.266 OA
ENDBRANCH  26  27
ENDBRANCH  25  26
ENDBRANCH   1  25
BRANCH   1  30
HETATM   30  O3  UNL     1       8.588   2.973  26.276  1.00  0.00    -0.363 OA
ATOM     31  H3  UNL     1       9.036   2.504  25.583  1.00  0.00     0.213 HD
ENDBRANCH   1  30
TORSDOF 4
ENDMDL
MODEL 3
REMARK VINA RESULT: 4.615293606      1.595      2.143
REMARK  4 active torsions:
REMARK  status: ('A' for Active; 'I' for Inactive)
REMARK    1  A    between atoms: C2_2  and  O2_4 
REMARK    2  A    between atoms: O2_4  and  C3_5 
REMARK    3  A    between atoms: C3_5  and  C4_6 
REMARK    4  A    between atoms: C4_6  and  O3_7 
ROOT
HETATM    1  C4  UNL     1       6.643   0.219  29.782  1.00  0.00     0.197 C 
HETATM    2  O4  UNL     1       7.965  -0.216  29.654  1.00  0.00    -0.307 OA
HETATM    3  C5  UNL     1       8.321   1.126  29.478  1.00  0.00     0.245 C 
HETATM    4  F1  UNL     1       8.445   1.810  30.699  1.00  0.00    -0.205 F 
HETATM    5  C6  UNL     1       9.465   1.390  28.580  1.00  0.00     0.016 A 
HETATM    6  C7  UNL     1      10.745   1.332  29.070  1.00  0.00     0.023 A 
HETATM    7  C8  UNL     1      11.883   1.564  28.322  1.00  0.00    -0.022 A 
HETATM    8  C9  UNL     1      11.710   1.875  26.982  1.00  0.00     0.081 A 
HETATM    9  C10 UNL     1      10.400   1.934  26.486  1.00  0.00    -0.021 A 
HETATM   10  C11 UNL     1      10.112   2.294  25.044  1.00  0.00     0.052 C 
HETATM   11  C12 UNL     1       9.284   1.697  27.260  1.00  0.00    -0.037 A 
HETATM   12  C13 UNL     1       7.925   1.778  26.638  1.00  0.00     0.040 C 
HETATM   13  C14 UNL     1       7.032   0.812  27.406  1.00  0.00     0.021 C 
HETATM   14  C15 UNL     1       6.984   1.303  28.812  1.00  0.00     0.123 C 
HETATM   15  O5  UNL     1      12.773   2.124  26.132  1.00  0.00    -0.350 OA
HETATM   16  C16 UNL     1      13.820   1.266  25.721  1.00  0.00     0.175 C 
HETATM   17  C17 UNL     1      15.124   2.019  25.815  1.00  0.00     0.027 C 
HETATM   18  C18 UNL     1      16.281   1.095  26.135  1.00  0.00     0.002 C 
HETATM   19  C19 UNL     1      16.638   1.102  27.605  1.00  0.00     0.000 C 
HETATM   20  C20 UNL     1      16.030  -0.140  28.219  1.00  0.00     0.001 C 
HETATM   21  C21 UNL     1      15.231   0.232  29.446  1.00  0.00     0.020 C 
HETATM   22  C22 UNL     1      13.738   0.126  29.237  1.00  0.00     0.086 C 
HETATM   23 CL1  UNL     1      13.052  -0.640  30.702  1.00  0.00    -0.125 Cl
HETATM   24  C23 UNL     1      13.202   1.494  29.022  1.00  0.00     0.061 C 
ENDROOT
BRANCH   1  25
HETATM   25  C3  UNL     1       5.570  -0.745  29.420  1.00  0.00     0.247 C 
BRANCH  25  26
HETATM   26  O2  UNL     1       5.975  -1.997  28.980  1.00  0.00    -0.316 OA
BRANCH  26  27
HETATM   27  C2  UNL     1       6.431  -2.157  27.691  1.00  0.00     0.254 C 
HETATM   28  C1  UNL     1       7.890  -2.399  27.405  1.00  0.00     0.126 C 
HETATM   29  O1  UNL     1       5.605  -2.098  26.749  1.00  0.00    -0.266 OA
ENDBRANCH  26  27
ENDBRANCH  25  26
ENDBRANCH   1  25
BRANCH   1  30
HETATM   30  O3  UNL     1       6.343   0.773  31.042  1.00  0.00    -0.363 OA
ATOM     31  H3  UNL     1       6.868   1.556  31.161  1.00  0.00     0.213 HD
ENDBRANCH   1  30
TORSDOF 4
ENDMDL
MODEL 4
REMARK VINA RESULT: 5.181627308      0.894      1.096
REMARK  4 active torsions:
REMARK  status: ('A' for Active; 'I' for Inactive)
REMARK    1  A    between atoms: C2_2  and  O2_4 
REMARK    2  A    between atoms: O2_4  and  C3_5 
REMARK    3  A    between atoms: C3_5  and  C4_6 
REMARK    4  A    between atoms: C4_6  and  O3_7 
ROOT
HETATM    1  C4  UNL     1       7.384   0.530  28.381  1.00  0.00     0.197 C 
HETATM    2  O4  UNL     1       8.547  -0.018  28.930  1.00  0.00    -0.307 OA
HETATM    3  C5  UNL     1       9.081   1.275  28.926  1.00  0.00     0.245 C 
HETATM    4  F1  UNL     1       8.663   2.028  30.036  1.00  0.00    -0.205 F 
HETATM    5  C6  UNL     1      10.539   1.383  28.704  1.00  0.00     0.016 A 
HETATM    6  C7  UNL     1      11.402   1.255  29.762  1.00  0.00     0.023 A 
HETATM    7  C8  UNL     1      12.777   1.342  29.668  1.00  0.00    -0.022 A 
HETATM    8  C9  UNL     1      13.315   1.574  28.411  1.00  0.00     0.081 A 
HETATM    9  C10 UNL     1      12.428   1.705  27.332  1.00  0.00    -0.021 A 
HETATM   10  C11 UNL     1      12.920   1.988  25.929  1.00  0.00     0.052 C 
HETATM   11  C12 UNL     1      11.058   1.612  27.460  1.00  0.00    -0.037 A 
HETATM   12  C13 UNL     1      10.193   1.761  26.248  1.00  0.00     0.040 C 
HETATM   13  C14 UNL     1       8.944   0.925  26.495  1.00  0.00     0.021 C 
HETATM   14  C15 UNL     1       8.267   1.514  27.685  1.00  0.00     0.123 C 
HETATM   15  O5  UNL     1      14.676   1.677  28.191  1.00  0.00    -0.350 OA
HETATM   16  C16 UNL     1      15.695   0.711  28.366  1.00  0.00     0.175 C 
HETATM   17  C17 UNL     1      16.857   1.360  29.076  1.00  0.00     0.027 C 
HETATM   18  C18 UNL     1      17.607   0.369  29.943  1.00  0.00     0.002 C 
HETATM   19  C19 UNL     1      17.199   0.447  31.398  1.00  0.00     0.000 C 
HETATM   20  C20 UNL     1      16.242  -0.696  31.656  1.00  0.00     0.001 C 
HETATM   21  C21 UNL     1      14.990  -0.178  32.322  1.00  0.00     0.020 C 
HETATM   22  C22 UNL     1      13.787  -0.176  31.407  1.00  0.00     0.086 C 
HETATM   23 CL1  UNL     1      12.397  -0.782  32.358  1.00  0.00    -0.125 Cl
HETATM   24  C23 UNL     1      13.571   1.213  30.928  1.00  0.00     0.061 C 
ENDROOT
BRANCH   1  25
HETATM   25  C3  UNL     1       6.531  -0.367  27.556  1.00  0.00     0.247 C 
BRANCH  25  26
HETATM   26  O2  UNL     1       6.513  -1.709  27.905  1.00  0.00    -0.316 OA
BRANCH  26  27
HETATM   27  C2  UNL     1       6.475  -2.073  29.232  1.00  0.00     0.254 C 
HETATM   28  C1  UNL     1       5.219  -1.915  30.049  1.00  0.00     0.126 C 
HETATM   29  O1  UNL     1       7.514  -2.543  29.757  1.00  0.00    -0.266 OA
ENDBRANCH  26  27
ENDBRANCH  25  26
ENDBRANCH   1  25
BRANCH   1  30
HETATM   30  O3  UNL     1       6.567   1.192  29.318  1.00  0.00    -0.363 OA
ATOM     31  H3  UNL     1       5.813   0.644  29.504  1.00  0.00     0.213 HD
ENDBRANCH   1  30
TORSDOF 4
ENDMDL
MODEL 5
REMARK VINA RESULT: 6.644757466      3.422      8.363
REMARK  4 active torsions:
REMARK  status: ('A' for Active; 'I' for Inactive)
REMARK    1  A    between atoms: C2_2  and  O2_4 
REMARK    2  A    between atoms: O2_4  and  C3_5 
REMARK    3  A    between atoms: C3_5  and  C4_6 
REMARK    4  A    between atoms: C4_6  and  O3_7 
ROOT
HETATM    1  C4  UNL     1      16.578  -0.665  32.326  1.00  0.00     0.197 C 
HETATM    2  O4  UNL     1      15.337  -0.111  31.997  1.00  0.00    -0.307 OA
HETATM    3  C5  UNL     1      15.390  -0.859  30.815  1.00  0.00     0.245 C 
HETATM    4  F1  UNL     1      14.979  -2.188  31.007  1.00  0.00    -0.205 F 
HETATM    5  C6  UNL     1      14.757  -0.253  29.625  1.00  0.00     0.016 A 
HETATM    6  C7  UNL     1      13.410  -0.406  29.416  1.00  0.00     0.023 A 
HETATM    7  C8  UNL     1      12.719   0.114  28.338  1.00  0.00    -0.022 A 
HETATM    8  C9  UNL     1      13.447   0.842  27.408  1.00  0.00     0.081 A 
HETATM    9  C10 UNL     1      14.824   0.994  27.626  1.00  0.00    -0.021 A 
HETATM   10  C11 UNL     1      15.703   1.747  26.651  1.00  0.00     0.052 C 
HETATM   11  C12 UNL     1      15.483   0.463  28.714  1.00  0.00    -0.037 A 
HETATM   12  C13 UNL     1      16.955   0.684  28.863  1.00  0.00     0.040 C 
HETATM   13  C14 UNL     1      17.250   0.683  30.358  1.00  0.00     0.021 C 
HETATM   14  C15 UNL     1      16.881  -0.669  30.863  1.00  0.00     0.123 C 
HETATM   15  O5  UNL     1      12.866   1.413  26.291  1.00  0.00    -0.350 OA
HETATM   16  C16 UNL     1      11.882   2.426  26.203  1.00  0.00     0.175 C 
HETATM   17  C17 UNL     1      10.846   2.005  25.190  1.00  0.00     0.027 C 
HETATM   18  C18 UNL     1       9.475   2.553  25.531  1.00  0.00     0.002 C 
HETATM   19  C19 UNL     1       8.606   1.536  26.240  1.00  0.00     0.000 C 
HETATM   20  C20 UNL     1       8.641   1.870  27.715  1.00  0.00     0.001 C 
HETATM   21  C21 UNL     1       8.985   0.636  28.514  1.00  0.00     0.020 C 
HETATM   22  C22 UNL     1      10.381   0.672  29.092  1.00  0.00     0.086 C 
HETATM   23 CL1  UNL     1      10.276   0.060  30.770  1.00  0.00    -0.125 Cl
HETATM   24  C23 UNL     1      11.256  -0.177  28.244  1.00  0.00     0.061 C 
ENDROOT
BRANCH   1  25
HETATM   25  C3  UNL     1      17.457   0.122  33.232  1.00  0.00     0.247 C 
BRANCH  25  26
HETATM   26  O2  UNL     1      17.656  -0.384  34.508  1.00  0.00    -0.316 OA
BRANCH  26  27
HETATM   27  C2  UNL     1      18.647   0.138  35.306  1.00  0.00     0.254 C 
HETATM   28  C1  UNL     1      18.446   0.306  36.790  1.00  0.00     0.126 C 
HETATM   29  O1  UNL     1      19.733   0.475  34.775  1.00  0.00    -0.266 OA
ENDBRANCH  26  27
ENDBRANCH  25  26
ENDBRANCH   1  25
BRANCH   1  30
HETATM   30  O3  UNL     1      16.503  -1.986  32.808  1.00  0.00    -0.363 OA
ATOM     31  H3  UNL     1      15.721  -2.072  33.340  1.00  0.00     0.213 HD
ENDBRANCH   1  30
TORSDOF 4
ENDMDL
