MODEL 1
REMARK VINA RESULT: 0.196221768      0.000      0.000
REMARK  4 active torsions:
REMARK  status: ('A' for Active; 'I' for Inactive)
REMARK    1  A    between atoms: C2_2  and  O2_4 
REMARK    2  A    between atoms: O2_4  and  C3_5 
REMARK    3  A    between atoms: C7_11  and  O3_12 
REMARK    4  A    between atoms: C14_21  and  C15_22 
ROOT
HETATM    1  C3  UNL     1       9.628  -0.774  27.811  1.00  0.00     0.147 C 
HETATM    2  C4  UNL     1       8.693   0.391  27.723  1.00  0.00     0.093 C 
HETATM    3  C5  UNL     1       9.469   1.535  27.108  1.00  0.00     0.184 C 
HETATM    4  F1  UNL     1       9.487   1.306  25.725  1.00  0.00    -0.225 F 
HETATM    5 CL1  UNL     1       8.509   3.041  27.316  1.00  0.00    -0.082 Cl
HETATM    6  C6  UNL     1      10.853   1.676  27.559  1.00  0.00     0.099 C 
HETATM    7  C7  UNL     1      11.214   0.883  28.815  1.00  0.00     0.076 C 
HETATM    8  C8  UNL     1      12.598   1.167  29.230  1.00  0.00     0.030 C 
HETATM    9  C9  UNL     1      12.651   1.868  30.602  1.00  0.00     0.011 C 
HETATM   10  C10 UNL     1      13.963   2.557  30.717  1.00  0.00     0.039 C 
HETATM   11  C11 UNL     1      15.054   1.516  30.656  1.00  0.00     0.068 C 
HETATM   12  C12 UNL     1      16.124   1.982  29.715  1.00  0.00     0.047 C 
HETATM   13  O4  UNL     1      15.619   1.456  31.947  1.00  0.00    -0.351 OA
HETATM   14  C13 UNL     1      16.283   0.332  32.390  1.00  0.00     0.146 C 
HETATM   15  C14 UNL     1      16.304  -0.774  31.671  1.00  0.00     0.002 C 
HETATM   16  C16 UNL     1      15.610  -0.863  30.344  1.00  0.00     0.052 C 
HETATM   17  C17 UNL     1      14.519   0.155  30.347  1.00  0.00     0.033 C 
HETATM   18  C18 UNL     1      13.611   0.082  29.138  1.00  0.00    -0.031 C 
HETATM   19  C19 UNL     1      14.408   0.192  27.835  1.00  0.00     0.016 C 
HETATM   20  C20 UNL     1      13.051  -1.316  29.140  1.00  0.00     0.011 C 
HETATM   21  C21 UNL     1      11.929  -1.443  28.180  1.00  0.00     0.016 C 
HETATM   22  C22 UNL     1      10.817  -0.552  28.694  1.00  0.00     0.015 C 
HETATM   23  C23 UNL     1      10.445  -1.104  30.075  1.00  0.00     0.021 C 
ENDROOT
BRANCH   1  24
HETATM   24  O2  UNL     1       9.022  -1.981  28.183  1.00  0.00    -0.315 OA
BRANCH  24  25
HETATM   25  C2  UNL     1       7.750  -2.364  27.919  1.00  0.00     0.255 C 
HETATM   26  C1  UNL     1       6.652  -2.001  28.839  1.00  0.00     0.126 C 
HETATM   27  O1  UNL     1       7.507  -3.017  26.904  1.00  0.00    -0.266 OA
ENDBRANCH  24  25
ENDBRANCH   1  24
BRANCH   7  28
HETATM   28  O3  UNL     1      10.353   1.414  29.814  1.00  0.00    -0.388 OA
ATOM     29  H3  UNL     1      10.851   2.131  30.188  1.00  0.00     0.210 HD
ENDBRANCH   7  28
BRANCH  15  30
HETATM   30  C15 UNL     1      17.028  -1.953  32.185  1.00  0.00     0.267 C 
HETATM   31  O5  UNL     1      16.440  -2.807  32.854  1.00  0.00    -0.302 OA
ENDBRANCH  15  30
TORSDOF 4
ENDMDL
MODEL 2
REMARK VINA RESULT: 1.053996921      2.747      7.309
REMARK  4 active torsions:
REMARK  status: ('A' for Active; 'I' for Inactive)
REMARK    1  A    between atoms: C2_2  and  O2_4 
REMARK    2  A    between atoms: O2_4  and  C3_5 
REMARK    3  A    between atoms: C7_11  and  O3_12 
REMARK    4  A    between atoms: C14_21  and  C15_22 
ROOT
HETATM    1  C3  UNL     1      14.936   1.399  29.485  1.00  0.00     0.147 C 
HETATM    2  C4  UNL     1      15.832   0.202  29.408  1.00  0.00     0.093 C 
HETATM    3  C5  UNL     1      15.523  -0.497  28.104  1.00  0.00     0.184 C 
HETATM    4  F1  UNL     1      16.202   0.211  27.101  1.00  0.00    -0.225 F 
HETATM    5 CL1  UNL     1      16.304  -2.117  28.135  1.00  0.00    -0.082 Cl
HETATM    6  C6  UNL     1      14.109  -0.556  27.734  1.00  0.00     0.099 C 
HETATM    7  C7  UNL     1      13.128  -0.216  28.857  1.00  0.00     0.076 C 
HETATM    8  C8  UNL     1      11.738  -0.392  28.403  1.00  0.00     0.030 C 
HETATM    9  C9  UNL     1      11.023  -1.519  29.177  1.00  0.00     0.011 C 
HETATM   10  C10 UNL     1       9.864  -1.972  28.365  1.00  0.00     0.039 C 
HETATM   11  C11 UNL     1       8.915  -0.810  28.201  1.00  0.00     0.068 C 
HETATM   12  C12 UNL     1       8.491  -0.722  26.766  1.00  0.00     0.047 C 
HETATM   13  O4  UNL     1       7.770  -1.122  28.964  1.00  0.00    -0.351 OA
HETATM   14  C13 UNL     1       6.928  -0.136  29.433  1.00  0.00     0.146 C 
HETATM   15  C14 UNL     1       7.231   1.141  29.295  1.00  0.00     0.002 C 
HETATM   16  C16 UNL     1       8.499   1.580  28.625  1.00  0.00     0.052 C 
HETATM   17  C17 UNL     1       9.477   0.460  28.752  1.00  0.00     0.033 C 
HETATM   18  C18 UNL     1      10.870   0.807  28.270  1.00  0.00    -0.031 C 
HETATM   19  C19 UNL     1      10.851   1.307  26.823  1.00  0.00     0.016 C 
HETATM   20  C20 UNL     1      11.293   1.997  29.091  1.00  0.00     0.011 C 
HETATM   21  C21 UNL     1      12.742   2.268  28.930  1.00  0.00     0.016 C 
HETATM   22  C22 UNL     1      13.473   1.079  29.517  1.00  0.00     0.015 C 
HETATM   23  C23 UNL     1      13.068   1.029  30.996  1.00  0.00     0.021 C 
ENDROOT
BRANCH   1  24
HETATM   24  O2  UNL     1      15.219   2.272  30.543  1.00  0.00    -0.315 OA
BRANCH  24  25
HETATM   25  C2  UNL     1      15.645   1.930  31.783  1.00  0.00     0.255 C 
HETATM   26  C1  UNL     1      16.514   0.751  31.978  1.00  0.00     0.126 C 
HETATM   27  O1  UNL     1      15.304   2.607  32.754  1.00  0.00    -0.266 OA
ENDBRANCH  24  25
ENDBRANCH   1  24
BRANCH   7  28
HETATM   28  O3  UNL     1      13.382  -1.206  29.845  1.00  0.00    -0.388 OA
ATOM     29  H3  UNL     1      12.611  -1.179  30.399  1.00  0.00     0.210 HD
ENDBRANCH   7  28
BRANCH  15  30
HETATM   30  C15 UNL     1       6.299   2.162  29.813  1.00  0.00     0.267 C 
HETATM   31  O5  UNL     1       6.502   3.360  29.599  1.00  0.00    -0.302 OA
ENDBRANCH  15  30
TORSDOF 4
ENDMDL
MODEL 3
REMARK VINA RESULT: 2.112901309      1.486      1.669
REMARK  4 active torsions:
REMARK  status: ('A' for Active; 'I' for Inactive)
REMARK    1  A    between atoms: C2_2  and  O2_4 
REMARK    2  A    between atoms: O2_4  and  C3_5 
REMARK    3  A    between atoms: C7_11  and  O3_12 
REMARK    4  A    between atoms: C14_21  and  C15_22 
ROOT
HETATM    1  C3  UNL     1       9.411   0.127  28.182  1.00  0.00     0.147 C 
HETATM    2  C4  UNL     1       8.979   1.282  27.335  1.00  0.00     0.093 C 
HETATM    3  C5  UNL     1       9.968   1.389  26.196  1.00  0.00     0.184 C 
HETATM    4  F1  UNL     1       9.596   0.419  25.254  1.00  0.00    -0.225 F 
HETATM    5 CL1  UNL     1       9.704   2.964  25.368  1.00  0.00    -0.082 Cl
HETATM    6  C6  UNL     1      11.368   1.160  26.549  1.00  0.00     0.099 C 
HETATM    7  C7  UNL     1      11.675   1.186  28.047  1.00  0.00     0.076 C 
HETATM    8  C8  UNL     1      13.121   1.035  28.284  1.00  0.00     0.030 C 
HETATM    9  C9  UNL     1      13.729   2.296  28.930  1.00  0.00     0.011 C 
HETATM   10  C10 UNL     1      15.193   2.284  28.678  1.00  0.00     0.039 C 
HETATM   11  C11 UNL     1      15.780   1.061  29.342  1.00  0.00     0.068 C 
HETATM   12  C12 UNL     1      16.712   0.383  28.384  1.00  0.00     0.047 C 
HETATM   13  O4  UNL     1      16.550   1.528  30.427  1.00  0.00    -0.351 OA
HETATM   14  C13 UNL     1      16.830   0.723  31.510  1.00  0.00     0.146 C 
HETATM   15  C14 UNL     1      16.282  -0.471  31.631  1.00  0.00     0.002 C 
HETATM   16  C16 UNL     1      15.332  -1.008  30.601  1.00  0.00     0.052 C 
HETATM   17  C17 UNL     1      14.725   0.164  29.906  1.00  0.00     0.033 C 
HETATM   18  C18 UNL     1      13.614  -0.202  28.945  1.00  0.00    -0.031 C 
HETATM   19  C19 UNL     1      14.089  -1.222  27.906  1.00  0.00     0.016 C 
HETATM   20  C20 UNL     1      12.591  -0.934  29.774  1.00  0.00     0.011 C 
HETATM   21  C21 UNL     1      11.321  -1.102  29.029  1.00  0.00     0.016 C 
HETATM   22  C22 UNL     1      10.760   0.287  28.813  1.00  0.00     0.015 C 
HETATM   23  C23 UNL     1      10.521   0.865  30.213  1.00  0.00     0.021 C 
ENDROOT
BRANCH   1  24
HETATM   24  O2  UNL     1       8.498  -0.237  29.181  1.00  0.00    -0.315 OA
BRANCH  24  25
HETATM   25  C2  UNL     1       7.170  -0.452  29.025  1.00  0.00     0.255 C 
HETATM   26  C1  UNL     1       6.685  -1.553  28.166  1.00  0.00     0.126 C 
HETATM   27  O1  UNL     1       6.361   0.275  29.603  1.00  0.00    -0.266 OA
ENDBRANCH  24  25
ENDBRANCH   1  24
BRANCH   7  28
HETATM   28  O3  UNL     1      11.313   2.500  28.448  1.00  0.00    -0.388 OA
ATOM     29  H3  UNL     1      10.386   2.432  28.645  1.00  0.00     0.210 HD
ENDBRANCH   7  28
BRANCH  15  30
HETATM   30  C15 UNL     1      16.612  -1.300  32.807  1.00  0.00     0.267 C 
HETATM   31  O5  UNL     1      17.379  -0.877  33.676  1.00  0.00    -0.302 OA
ENDBRANCH  15  30
TORSDOF 4
ENDMDL
MODEL 4
REMARK VINA RESULT: 3.519437807      2.561      4.240
REMARK  4 active torsions:
REMARK  status: ('A' for Active; 'I' for Inactive)
REMARK    1  A    between atoms: C2_2  and  O2_4 
REMARK    2  A    between atoms: O2_4  and  C3_5 
REMARK    3  A    between atoms: C7_11  and  O3_12 
REMARK    4  A    between atoms: C14_21  and  C15_22 
ROOT
HETATM    1  C3  UNL     1       7.513   0.412  28.580  1.00  0.00     0.147 C 
HETATM    2  C4  UNL     1       7.061  -0.632  27.608  1.00  0.00     0.093 C 
HETATM    3  C5  UNL     1       7.699  -1.935  28.031  1.00  0.00     0.184 C 
HETATM    4  F1  UNL     1       6.926  -2.432  29.090  1.00  0.00    -0.225 F 
HETATM    5 CL1  UNL     1       7.481  -3.126  26.701  1.00  0.00    -0.082 Cl
HETATM    6  C6  UNL     1       9.085  -1.844  28.490  1.00  0.00     0.099 C 
HETATM    7  C7  UNL     1       9.795  -0.530  28.161  1.00  0.00     0.076 C 
HETATM    8  C8  UNL     1      11.204  -0.580  28.586  1.00  0.00     0.030 C 
HETATM    9  C9  UNL     1      12.167  -0.498  27.385  1.00  0.00     0.011 C 
HETATM   10  C10 UNL     1      13.481  -1.047  27.809  1.00  0.00     0.039 C 
HETATM   11  C11 UNL     1      14.017  -0.187  28.928  1.00  0.00     0.068 C 
HETATM   12  C12 UNL     1      14.522  -1.072  30.027  1.00  0.00     0.047 C 
HETATM   13  O4  UNL     1      15.125   0.508  28.398  1.00  0.00    -0.351 OA
HETATM   14  C13 UNL     1      15.557   1.697  28.947  1.00  0.00     0.146 C 
HETATM   15  C14 UNL     1      14.874   2.292  29.905  1.00  0.00     0.002 C 
HETATM   16  C16 UNL     1      13.601   1.709  30.443  1.00  0.00     0.052 C 
HETATM   17  C17 UNL     1      13.027   0.840  29.374  1.00  0.00     0.033 C 
HETATM   18  C18 UNL     1      11.649   0.303  29.697  1.00  0.00    -0.031 C 
HETATM   19  C19 UNL     1      11.642  -0.452  31.029  1.00  0.00     0.016 C 
HETATM   20  C20 UNL     1      10.790   1.518  29.930  1.00  0.00     0.011 C 
HETATM   21  C21 UNL     1       9.353   1.156  29.974  1.00  0.00     0.016 C 
HETATM   22  C22 UNL     1       8.992   0.654  28.591  1.00  0.00     0.015 C 
HETATM   23  C23 UNL     1       9.250   1.828  27.639  1.00  0.00     0.021 C 
ENDROOT
BRANCH   1  24
HETATM   24  O2  UNL     1       6.867   1.649  28.452  1.00  0.00    -0.315 OA
BRANCH  24  25
HETATM   25  C2  UNL     1       6.634   2.547  29.439  1.00  0.00     0.255 C 
HETATM   26  C1  UNL     1       6.295   2.091  30.803  1.00  0.00     0.126 C 
HETATM   27  O1  UNL     1       6.707   3.753  29.197  1.00  0.00    -0.266 OA
ENDBRANCH  24  25
ENDBRANCH   1  24
BRANCH   7  28
HETATM   28  O3  UNL     1       9.781  -0.481  26.740  1.00  0.00    -0.388 OA
ATOM     29  H3  UNL     1      10.402   0.207  26.529  1.00  0.00     0.210 HD
ENDBRANCH   7  28
BRANCH  15  30
HETATM   30  C15 UNL     1      15.375   3.564  30.463  1.00  0.00     0.267 C 
HETATM   31  O5  UNL     1      14.592   4.471  30.755  1.00  0.00    -0.302 OA
ENDBRANCH  15  30
TORSDOF 4
ENDMDL
MODEL 5
REMARK VINA RESULT: 4.195846460      2.564      6.979
REMARK  4 active torsions:
REMARK  status: ('A' for Active; 'I' for Inactive)
REMARK    1  A    between atoms: C2_2  and  O2_4 
REMARK    2  A    between atoms: O2_4  and  C3_5 
REMARK    3  A    between atoms: C7_11  and  O3_12 
REMARK    4  A    between atoms: C14_21  and  C15_22 
ROOT
HETATM    1  C3  UNL     1      14.511  -0.112  29.619  1.00  0.00     0.147 C 
HETATM    2  C4  UNL     1      15.381   0.354  28.494  1.00  0.00     0.093 C 
HETATM    3  C5  UNL     1      14.930   1.752  28.137  1.00  0.00     0.184 C 
HETATM    4  F1  UNL     1      15.509   2.610  29.084  1.00  0.00    -0.225 F 
HETATM    5 CL1  UNL     1      15.692   2.208  26.573  1.00  0.00    -0.082 Cl
HETATM    6  C6  UNL     1      13.485   1.976  28.152  1.00  0.00     0.099 C 
HETATM    7  C7  UNL     1      12.630   0.708  28.186  1.00  0.00     0.076 C 
HETATM    8  C8  UNL     1      11.198   1.045  28.107  1.00  0.00     0.030 C 
HETATM    9  C9  UNL     1      10.555   0.508  26.813  1.00  0.00     0.011 C 
HETATM   10  C10 UNL     1       9.313   1.283  26.559  1.00  0.00     0.039 C 
HETATM   11  C11 UNL     1       8.364   1.052  27.711  1.00  0.00     0.068 C 
HETATM   12  C12 UNL     1       7.795   2.367  28.148  1.00  0.00     0.047 C 
HETATM   13  O4  UNL     1       7.302   0.276  27.201  1.00  0.00    -0.351 OA
HETATM   14  C13 UNL     1       6.525  -0.509  28.026  1.00  0.00     0.146 C 
HETATM   15  C14 UNL     1       6.826  -0.664  29.301  1.00  0.00     0.002 C 
HETATM   16  C16 UNL     1       8.023   0.003  29.913  1.00  0.00     0.052 C 
HETATM   17  C17 UNL     1       8.995   0.262  28.812  1.00  0.00     0.033 C 
HETATM   18  C18 UNL     1      10.334   0.783  29.289  1.00  0.00    -0.031 C 
HETATM   19  C19 UNL     1      10.170   2.050  30.134  1.00  0.00     0.016 C 
HETATM   20  C20 UNL     1      10.855  -0.260  30.242  1.00  0.00     0.011 C 
HETATM   21  C21 UNL     1      12.282  -0.023  30.567  1.00  0.00     0.016 C 
HETATM   22  C22 UNL     1      13.056  -0.215  29.280  1.00  0.00     0.015 C 
HETATM   23  C23 UNL     1      12.808  -1.668  28.856  1.00  0.00     0.021 C 
ENDROOT
BRANCH   1  24
HETATM   24  O2  UNL     1      14.913  -1.320  30.205  1.00  0.00    -0.315 OA
BRANCH  24  25
HETATM   25  C2  UNL     1      15.607  -1.469  31.359  1.00  0.00     0.255 C 
HETATM   26  C1  UNL     1      16.284  -0.312  31.980  1.00  0.00     0.126 C 
HETATM   27  O1  UNL     1      15.673  -2.577  31.893  1.00  0.00    -0.266 OA
ENDBRANCH  24  25
ENDBRANCH   1  24
BRANCH   7  28
HETATM   28  O3  UNL     1      12.974   0.031  26.984  1.00  0.00    -0.388 OA
ATOM     29  H3  UNL     1      12.386  -0.715  26.965  1.00  0.00     0.210 HD
ENDBRANCH   7  28
BRANCH  15  30
HETATM   30  C15 UNL     1       5.965  -1.514  30.146  1.00  0.00     0.267 C 
HETATM   31  O5  UNL     1       5.047  -2.170  29.646  1.00  0.00    -0.302 OA
ENDBRANCH  15  30
TORSDOF 4
ENDMDL
