MODEL 1
REMARK VINA RESULT: -6.104594412      0.000      0.000
REMARK  16 active torsions:
REMARK  status: ('A' for Active; 'I' for Inactive)
REMARK    1  A    between atoms: C2_2  and  C4_4 
REMARK    2  A    between atoms: C7_7  and  O1_8 
REMARK    3  A    between atoms: C8_10  and  O2_11 
REMARK    4  A    between atoms: O2_11  and  C9_12 
REMARK    5  A    between atoms: C9_12  and  C10_14 
REMARK    6  A    between atoms: C12_16  and  C13_17 
REMARK    7  A    between atoms: C14_18  and  C15_19 
REMARK    8  A    between atoms: C15_19  and  O4_22 
REMARK    9  A    between atoms: C18_24  and  C19_25 
REMARK   10  A    between atoms: C18_24  and  O7_37 
REMARK   11  A    between atoms: C19_25  and  O5_26 
REMARK   12  A    between atoms: O5_26  and  C20_27 
REMARK   13  A    between atoms: C22_29  and  N1_30 
REMARK   14  A    between atoms: C23_34  and  O6_35 
REMARK   15  A    between atoms: C25_39  and  C26_40 
REMARK   16  A    between atoms: C26_40  and  O8_41 
ROOT
HETATM    1  C4  UNL     1      -5.149  -0.526   9.258  1.00  0.00     0.111 A 
HETATM    2  C5  UNL     1      -5.274  -1.751   8.345  1.00  0.00     0.054 C 
HETATM    3  C6  UNL     1      -5.586  -1.137   7.066  1.00  0.00     0.037 C 
HETATM    4  C7  UNL     1      -5.277  -1.722   5.781  1.00  0.00     0.156 C 
HETATM    5  C8  UNL     1      -5.431  -0.505   4.885  1.00  0.00     0.199 C 
HETATM    6  C18 UNL     1      -5.264   0.741   5.782  1.00  0.00     0.123 C 
HETATM    7  C25 UNL     1      -4.704   0.111   7.013  1.00  0.00     0.053 C 
HETATM    8  C28 UNL     1      -4.968   0.668   8.330  1.00  0.00     0.176 A 
HETATM    9  O9  UNL     1      -3.973   0.189   9.295  1.00  0.00    -0.363 OA
ENDROOT
BRANCH   6  10
HETATM   10  C19 UNL     1      -6.584   1.413   5.933  1.00  0.00     0.210 C 
BRANCH  10  11
HETATM   11  O5  UNL     1      -7.551   1.051   5.021  1.00  0.00    -0.380 OA
BRANCH  11  12
HETATM   12  C20 UNL     1      -8.806   1.062   5.565  1.00  0.00     0.154 C 
HETATM   13  C21 UNL     1      -9.962   1.323   4.642  1.00  0.00     0.070 C 
HETATM   14  C22 UNL     1     -10.714   0.171   5.230  1.00  0.00     0.217 C 
HETATM   15  C23 UNL     1      -9.400  -0.270   5.887  1.00  0.00     0.177 C 
BRANCH  14  16
HETATM   16  N1  UNL     1     -11.687   0.490   6.243  1.00  0.00    -0.072 N 
ATOM     17  H13 UNL     1     -11.682   1.494   6.420  1.00  0.00     0.274 HD
ATOM     18  H12 UNL     1     -12.626   0.372   5.865  1.00  0.00     0.274 HD
ATOM     19  H11 UNL     1     -11.606  -0.014   7.126  1.00  0.00     0.274 HD
ENDBRANCH  14  16
BRANCH  15  20
HETATM   20  O6  UNL     1      -8.871  -1.368   5.218  1.00  0.00    -0.391 OA
ATOM     21  H6  UNL     1      -9.211  -2.221   5.463  1.00  0.00     0.210 HD
ENDBRANCH  15  20
ENDBRANCH  11  12
ENDBRANCH  10  11
ENDBRANCH   6  10
BRANCH   6  22
HETATM   22  O7  UNL     1      -4.375   1.524   5.099  1.00  0.00    -0.379 OA
HETATM   23  C24 UNL     1      -4.505   2.860   5.076  1.00  0.00     0.202 C 
ENDBRANCH   6  22
BRANCH   5  24
HETATM   24  O2  UNL     1      -4.484  -0.577   3.864  1.00  0.00    -0.306 OA
BRANCH  24  25
HETATM   25  C9  UNL     1      -4.784  -1.051   2.557  1.00  0.00     0.289 C 
HETATM   26  O3  UNL     1      -5.014  -2.282   2.537  1.00  0.00    -0.260 OA
BRANCH  25  27
HETATM   27  C10 UNL     1      -4.792  -0.138   1.454  1.00  0.00     0.013 C 
HETATM   28  C11 UNL     1      -3.441   0.355   0.976  1.00  0.00     0.054 C 
HETATM   29  C12 UNL     1      -5.844   0.300   0.836  1.00  0.00     0.012 C 
BRANCH  29  30
HETATM   30  C13 UNL     1      -7.229   0.005   1.070  1.00  0.00    -0.000 C 
HETATM   31  C14 UNL     1      -8.170   0.886   1.323  1.00  0.00     0.010 C 
BRANCH  31  32
HETATM   32  C15 UNL     1      -7.904   2.330   1.397  1.00  0.00     0.068 C 
HETATM   33  C16 UNL     1      -9.269   3.022   1.504  1.00  0.00     0.050 C 
HETATM   34  C17 UNL     1      -7.195   2.861   0.184  1.00  0.00     0.050 C 
BRANCH  32  35
HETATM   35  O4  UNL     1      -7.235   2.600   2.587  1.00  0.00    -0.387 OA
ATOM     36  H4  UNL     1      -7.041   3.529   2.624  1.00  0.00     0.211 HD
ENDBRANCH  32  35
ENDBRANCH  31  32
ENDBRANCH  29  30
ENDBRANCH  25  27
ENDBRANCH  24  25
ENDBRANCH   5  24
BRANCH   7  37
HETATM   37  C26 UNL     1      -3.268  -0.202   6.785  1.00  0.00     0.183 C 
BRANCH  37  38
HETATM   38  O8  UNL     1      -2.381   0.830   7.048  1.00  0.00    -0.395 OA
HETATM   39  C27 UNL     1      -1.119   0.349   7.317  1.00  0.00     0.201 C 
ENDBRANCH  37  38
ENDBRANCH   7  37
BRANCH   4  40
HETATM   40  O1  UNL     1      -6.206  -2.697   5.348  1.00  0.00    -0.392 OA
ATOM     41  H1  UNL     1      -7.046  -2.345   5.080  1.00  0.00     0.210 HD
ENDBRANCH   4  40
BRANCH   1  42
HETATM   42  C2  UNL     1      -5.979  -0.432  10.455  1.00  0.00    -0.056 C 
HETATM   43  C1  UNL     1      -7.286  -0.450  10.379  1.00  0.00     0.017 C 
HETATM   44  C3  UNL     1      -5.334  -0.315  11.787  1.00  0.00     0.046 C 
ENDBRANCH   1  42
TORSDOF 16
ENDMDL
MODEL 2
REMARK VINA RESULT: -6.100712668      2.807      5.262
REMARK  16 active torsions:
REMARK  status: ('A' for Active; 'I' for Inactive)
REMARK    1  A    between atoms: C2_2  and  C4_4 
REMARK    2  A    between atoms: C7_7  and  O1_8 
REMARK    3  A    between atoms: C8_10  and  O2_11 
REMARK    4  A    between atoms: O2_11  and  C9_12 
REMARK    5  A    between atoms: C9_12  and  C10_14 
REMARK    6  A    between atoms: C12_16  and  C13_17 
REMARK    7  A    between atoms: C14_18  and  C15_19 
REMARK    8  A    between atoms: C15_19  and  O4_22 
REMARK    9  A    between atoms: C18_24  and  C19_25 
REMARK   10  A    between atoms: C18_24  and  O7_37 
REMARK   11  A    between atoms: C19_25  and  O5_26 
REMARK   12  A    between atoms: O5_26  and  C20_27 
REMARK   13  A    between atoms: C22_29  and  N1_30 
REMARK   14  A    between atoms: C23_34  and  O6_35 
REMARK   15  A    between atoms: C25_39  and  C26_40 
REMARK   16  A    between atoms: C26_40  and  O8_41 
ROOT
HETATM    1  C4  UNL     1      -2.802   1.493   5.377  1.00  0.00     0.111 A 
HETATM    2  C5  UNL     1      -3.333   0.870   4.081  1.00  0.00     0.054 C 
HETATM    3  C6  UNL     1      -3.807  -0.422   4.546  1.00  0.00     0.037 C 
HETATM    4  C7  UNL     1      -4.863  -1.181   3.915  1.00  0.00     0.156 C 
HETATM    5  C8  UNL     1      -5.192  -2.163   5.026  1.00  0.00     0.199 C 
HETATM    6  C18 UNL     1      -4.703  -1.531   6.347  1.00  0.00     0.123 C 
HETATM    7  C25 UNL     1      -4.457  -0.130   5.898  1.00  0.00     0.053 C 
HETATM    8  C28 UNL     1      -3.420   0.685   6.510  1.00  0.00     0.176 A 
HETATM    9  O9  UNL     1      -3.669   2.107   6.252  1.00  0.00    -0.363 OA
ENDROOT
BRANCH   6  10
HETATM   10  C19 UNL     1      -3.512  -2.281   6.834  1.00  0.00     0.210 C 
BRANCH  10  11
HETATM   11  O5  UNL     1      -3.170  -3.402   6.110  1.00  0.00    -0.380 OA
BRANCH  11  12
HETATM   12  C20 UNL     1      -3.141  -4.530   6.884  1.00  0.00     0.154 C 
HETATM   13  C21 UNL     1      -3.832  -4.477   8.217  1.00  0.00     0.070 C 
HETATM   14  C22 UNL     1      -4.494  -5.790   7.945  1.00  0.00     0.217 C 
HETATM   15  C23 UNL     1      -4.062  -5.634   6.482  1.00  0.00     0.177 C 
BRANCH  14  16
HETATM   16  N1  UNL     1      -3.870  -6.954   8.520  1.00  0.00    -0.072 N 
ATOM     17  H13 UNL     1      -3.286  -6.676   9.309  1.00  0.00     0.274 HD
ATOM     18  H12 UNL     1      -4.572  -7.518   8.998  1.00  0.00     0.274 HD
ATOM     19  H11 UNL     1      -3.331  -7.542   7.885  1.00  0.00     0.274 HD
ENDBRANCH  14  16
BRANCH  15  20
HETATM   20  O6  UNL     1      -5.151  -5.283   5.692  1.00  0.00    -0.391 OA
ATOM     21  H6  UNL     1      -4.977  -5.119   4.774  1.00  0.00     0.210 HD
ENDBRANCH  15  20
ENDBRANCH  11  12
ENDBRANCH  10  11
ENDBRANCH   6  10
BRANCH   6  22
HETATM   22  O7  UNL     1      -5.767  -1.670   7.195  1.00  0.00    -0.379 OA
HETATM   23  C24 UNL     1      -5.604  -1.606   8.526  1.00  0.00     0.202 C 
ENDBRANCH   6  22
BRANCH   5  24
HETATM   24  O2  UNL     1      -6.563  -2.413   5.012  1.00  0.00    -0.306 OA
BRANCH  24  25
HETATM   25  C9  UNL     1      -7.337  -2.442   3.818  1.00  0.00     0.289 C 
HETATM   26  O3  UNL     1      -7.103  -3.456   3.122  1.00  0.00    -0.260 OA
BRANCH  25  27
HETATM   27  C10 UNL     1      -8.253  -1.376   3.539  1.00  0.00     0.013 C 
HETATM   28  C11 UNL     1      -9.223  -1.013   4.644  1.00  0.00     0.054 C 
HETATM   29  C12 UNL     1      -8.321  -0.701   2.435  1.00  0.00     0.012 C 
BRANCH  29  30
HETATM   30  C13 UNL     1      -7.537  -0.826   1.239  1.00  0.00    -0.000 C 
HETATM   31  C14 UNL     1      -6.983   0.164   0.575  1.00  0.00     0.010 C 
BRANCH  31  32
HETATM   32  C15 UNL     1      -7.106   1.566   0.997  1.00  0.00     0.068 C 
HETATM   33  C16 UNL     1      -6.526   2.418  -0.140  1.00  0.00     0.050 C 
HETATM   34  C17 UNL     1      -6.346   1.871   2.256  1.00  0.00     0.050 C 
BRANCH  32  35
HETATM   35  O4  UNL     1      -8.457   1.891   1.079  1.00  0.00    -0.387 OA
ATOM     36  H4  UNL     1      -8.608   2.363   1.889  1.00  0.00     0.211 HD
ENDBRANCH  32  35
ENDBRANCH  31  32
ENDBRANCH  29  30
ENDBRANCH  25  27
ENDBRANCH  24  25
ENDBRANCH   5  24
BRANCH   7  37
HETATM   37  C26 UNL     1      -5.761   0.574   5.776  1.00  0.00     0.183 C 
BRANCH  37  38
HETATM   38  O8  UNL     1      -6.253   1.130   6.946  1.00  0.00    -0.395 OA
HETATM   39  C27 UNL     1      -7.630   1.134   6.958  1.00  0.00     0.201 C 
ENDBRANCH  37  38
ENDBRANCH   7  37
BRANCH   4  40
HETATM   40  O1  UNL     1      -4.448  -1.928   2.787  1.00  0.00    -0.392 OA
ATOM     41  H1  UNL     1      -5.017  -1.844   2.031  1.00  0.00     0.210 HD
ENDBRANCH   4  40
BRANCH   1  42
HETATM   42  C2  UNL     1      -1.417   1.949   5.443  1.00  0.00    -0.056 C 
HETATM   43  C1  UNL     1      -0.913   2.435   6.550  1.00  0.00     0.017 C 
HETATM   44  C3  UNL     1      -0.558   1.860   4.236  1.00  0.00     0.046 C 
ENDBRANCH   1  42
TORSDOF 16
ENDMDL
MODEL 3
REMARK VINA RESULT: -6.019391776      2.558      7.512
REMARK  16 active torsions:
REMARK  status: ('A' for Active; 'I' for Inactive)
REMARK    1  A    between atoms: C2_2  and  C4_4 
REMARK    2  A    between atoms: C7_7  and  O1_8 
REMARK    3  A    between atoms: C8_10  and  O2_11 
REMARK    4  A    between atoms: O2_11  and  C9_12 
REMARK    5  A    between atoms: C9_12  and  C10_14 
REMARK    6  A    between atoms: C12_16  and  C13_17 
REMARK    7  A    between atoms: C14_18  and  C15_19 
REMARK    8  A    between atoms: C15_19  and  O4_22 
REMARK    9  A    between atoms: C18_24  and  C19_25 
REMARK   10  A    between atoms: C18_24  and  O7_37 
REMARK   11  A    between atoms: C19_25  and  O5_26 
REMARK   12  A    between atoms: O5_26  and  C20_27 
REMARK   13  A    between atoms: C22_29  and  N1_30 
REMARK   14  A    between atoms: C23_34  and  O6_35 
REMARK   15  A    between atoms: C25_39  and  C26_40 
REMARK   16  A    between atoms: C26_40  and  O8_41 
ROOT
HETATM    1  C4  UNL     1      -5.686  -0.071   1.579  1.00  0.00     0.111 A 
HETATM    2  C5  UNL     1      -4.562  -0.648   2.448  1.00  0.00     0.054 C 
HETATM    3  C6  UNL     1      -5.009  -0.296   3.784  1.00  0.00     0.037 C 
HETATM    4  C7  UNL     1      -4.663  -1.027   4.981  1.00  0.00     0.156 C 
HETATM    5  C8  UNL     1      -5.708  -0.486   5.942  1.00  0.00     0.199 C 
HETATM    6  C18 UNL     1      -6.869   0.062   5.084  1.00  0.00     0.123 C 
HETATM    7  C25 UNL     1      -6.520  -0.524   3.757  1.00  0.00     0.053 C 
HETATM    8  C28 UNL     1      -6.861   0.160   2.520  1.00  0.00     0.176 A 
HETATM    9  O9  UNL     1      -6.850  -0.782   1.396  1.00  0.00    -0.363 OA
ENDROOT
BRANCH   6  10
HETATM   10  C19 UNL     1      -6.874   1.549   5.162  1.00  0.00     0.210 C 
BRANCH  10  11
HETATM   11  O5  UNL     1      -5.923   2.111   5.985  1.00  0.00    -0.380 OA
BRANCH  11  12
HETATM   12  C20 UNL     1      -5.112   2.988   5.317  1.00  0.00     0.154 C 
HETATM   13  C21 UNL     1      -5.546   3.429   3.948  1.00  0.00     0.070 C 
HETATM   14  C22 UNL     1      -5.255   4.854   4.297  1.00  0.00     0.217 C 
HETATM   15  C23 UNL     1      -5.166   4.411   5.763  1.00  0.00     0.177 C 
BRANCH  14  16
HETATM   16  N1  UNL     1      -3.984   5.374   3.863  1.00  0.00    -0.072 N 
ATOM     17  H13 UNL     1      -3.698   4.909   3.002  1.00  0.00     0.274 HD
ATOM     18  H12 UNL     1      -4.100   6.330   3.529  1.00  0.00     0.274 HD
ATOM     19  H11 UNL     1      -3.222   5.338   4.541  1.00  0.00     0.274 HD
ENDBRANCH  14  16
BRANCH  15  20
HETATM   20  O6  UNL     1      -6.304   4.807   6.456  1.00  0.00    -0.391 OA
ATOM     21  H6  UNL     1      -6.178   5.112   7.346  1.00  0.00     0.210 HD
ENDBRANCH  15  20
ENDBRANCH  11  12
ENDBRANCH  10  11
ENDBRANCH   6  10
BRANCH   6  22
HETATM   22  O7  UNL     1      -7.987  -0.477   5.658  1.00  0.00    -0.379 OA
HETATM   23  C24 UNL     1      -9.081   0.270   5.878  1.00  0.00     0.202 C 
ENDBRANCH   6  22
BRANCH   5  24
HETATM   24  O2  UNL     1      -6.097  -1.509   6.804  1.00  0.00    -0.306 OA
BRANCH  24  25
HETATM   25  C9  UNL     1      -5.538  -1.691   8.100  1.00  0.00     0.289 C 
HETATM   26  O3  UNL     1      -5.019  -2.822   8.241  1.00  0.00    -0.260 OA
BRANCH  25  27
HETATM   27  C10 UNL     1      -5.616  -0.633   9.062  1.00  0.00     0.013 C 
HETATM   28  C11 UNL     1      -6.986  -0.348   9.642  1.00  0.00     0.054 C 
HETATM   29  C12 UNL     1      -4.626   0.094   9.475  1.00  0.00     0.012 C 
BRANCH  29  30
HETATM   30  C13 UNL     1      -3.240   0.045   9.104  1.00  0.00    -0.000 C 
HETATM   31  C14 UNL     1      -2.237   0.518   9.810  1.00  0.00     0.010 C 
BRANCH  31  32
HETATM   32  C15 UNL     1      -2.426   1.176  11.110  1.00  0.00     0.068 C 
HETATM   33  C16 UNL     1      -1.050   1.203  11.790  1.00  0.00     0.050 C 
HETATM   34  C17 UNL     1      -3.385   0.445  12.006  1.00  0.00     0.050 C 
BRANCH  32  35
HETATM   35  O4  UNL     1      -2.780   2.504  10.891  1.00  0.00    -0.387 OA
ATOM     36  H4  UNL     1      -2.239   3.058  11.442  1.00  0.00     0.211 HD
ENDBRANCH  32  35
ENDBRANCH  31  32
ENDBRANCH  29  30
ENDBRANCH  25  27
ENDBRANCH  24  25
ENDBRANCH   5  24
BRANCH   7  37
HETATM   37  C26 UNL     1      -6.890  -1.964   3.752  1.00  0.00     0.183 C 
BRANCH  37  38
HETATM   38  O8  UNL     1      -8.159  -2.255   3.277  1.00  0.00    -0.395 OA
HETATM   39  C27 UNL     1      -8.163  -3.418   2.539  1.00  0.00     0.201 C 
ENDBRANCH  37  38
ENDBRANCH   7  37
BRANCH   4  40
HETATM   40  O1  UNL     1      -3.388  -0.711   5.508  1.00  0.00    -0.392 OA
ATOM     41  H1  UNL     1      -2.964  -1.429   5.963  1.00  0.00     0.210 HD
ENDBRANCH   4  40
BRANCH   1  42
HETATM   42  C2  UNL     1      -5.363   0.887   0.526  1.00  0.00    -0.056 C 
HETATM   43  C1  UNL     1      -4.189   1.466   0.470  1.00  0.00     0.017 C 
HETATM   44  C3  UNL     1      -6.379   1.214  -0.505  1.00  0.00     0.046 C 
ENDBRANCH   1  42
TORSDOF 16
ENDMDL
MODEL 4
REMARK VINA RESULT: -5.973656070      1.632      2.434
REMARK  16 active torsions:
REMARK  status: ('A' for Active; 'I' for Inactive)
REMARK    1  A    between atoms: C2_2  and  C4_4 
REMARK    2  A    between atoms: C7_7  and  O1_8 
REMARK    3  A    between atoms: C8_10  and  O2_11 
REMARK    4  A    between atoms: O2_11  and  C9_12 
REMARK    5  A    between atoms: C9_12  and  C10_14 
REMARK    6  A    between atoms: C12_16  and  C13_17 
REMARK    7  A    between atoms: C14_18  and  C15_19 
REMARK    8  A    between atoms: C15_19  and  O4_22 
REMARK    9  A    between atoms: C18_24  and  C19_25 
REMARK   10  A    between atoms: C18_24  and  O7_37 
REMARK   11  A    between atoms: C19_25  and  O5_26 
REMARK   12  A    between atoms: O5_26  and  C20_27 
REMARK   13  A    between atoms: C22_29  and  N1_30 
REMARK   14  A    between atoms: C23_34  and  O6_35 
REMARK   15  A    between atoms: C25_39  and  C26_40 
REMARK   16  A    between atoms: C26_40  and  O8_41 
ROOT
HETATM    1  C4  UNL     1      -4.341  -0.509   9.844  1.00  0.00     0.111 A 
HETATM    2  C5  UNL     1      -4.396  -1.727   8.916  1.00  0.00     0.054 C 
HETATM    3  C6  UNL     1      -4.677  -1.111   7.632  1.00  0.00     0.037 C 
HETATM    4  C7  UNL     1      -4.303  -1.674   6.354  1.00  0.00     0.156 C 
HETATM    5  C8  UNL     1      -4.459  -0.453   5.463  1.00  0.00     0.199 C 
HETATM    6  C18 UNL     1      -4.363   0.788   6.377  1.00  0.00     0.123 C 
HETATM    7  C25 UNL     1      -3.831   0.162   7.623  1.00  0.00     0.053 C 
HETATM    8  C28 UNL     1      -4.160   0.699   8.933  1.00  0.00     0.176 A 
HETATM    9  O9  UNL     1      -3.189   0.239   9.932  1.00  0.00    -0.363 OA
ENDROOT
BRANCH   6  10
HETATM   10  C19 UNL     1      -5.707   1.420   6.484  1.00  0.00     0.210 C 
BRANCH  10  11
HETATM   11  O5  UNL     1      -6.571   1.177   5.439  1.00  0.00    -0.380 OA
BRANCH  11  12
HETATM   12  C20 UNL     1      -7.877   1.142   5.844  1.00  0.00     0.154 C 
HETATM   13  C21 UNL     1      -8.936   1.249   4.785  1.00  0.00     0.070 C 
HETATM   14  C22 UNL     1      -9.678   0.097   5.386  1.00  0.00     0.217 C 
HETATM   15  C23 UNL     1      -8.421  -0.198   6.213  1.00  0.00     0.177 C 
BRANCH  14  16
HETATM   16  N1  UNL     1     -10.775   0.426   6.258  1.00  0.00    -0.072 N 
ATOM     17  H13 UNL     1     -11.234  -0.429   6.571  1.00  0.00     0.274 HD
ATOM     18  H12 UNL     1     -10.415   0.778   7.145  1.00  0.00     0.274 HD
ATOM     19  H11 UNL     1     -11.471   1.073   5.889  1.00  0.00     0.274 HD
ENDBRANCH  14  16
BRANCH  15  20
HETATM   20  O6  UNL     1      -7.756  -1.306   5.701  1.00  0.00    -0.391 OA
ATOM     21  H6  UNL     1      -8.247  -2.118   5.659  1.00  0.00     0.210 HD
ENDBRANCH  15  20
ENDBRANCH  11  12
ENDBRANCH  10  11
ENDBRANCH   6  10
BRANCH   6  22
HETATM   22  O7  UNL     1      -3.472   1.604   5.735  1.00  0.00    -0.379 OA
HETATM   23  C24 UNL     1      -3.621   2.938   5.749  1.00  0.00     0.202 C 
ENDBRANCH   6  22
BRANCH   5  24
HETATM   24  O2  UNL     1      -3.473  -0.488   4.479  1.00  0.00    -0.306 OA
BRANCH  24  25
HETATM   25  C9  UNL     1      -3.678  -0.009   3.154  1.00  0.00     0.289 C 
HETATM   26  O3  UNL     1      -2.601   0.228   2.561  1.00  0.00    -0.260 OA
BRANCH  25  27
HETATM   27  C10 UNL     1      -5.011   0.148   2.654  1.00  0.00     0.013 C 
HETATM   28  C11 UNL     1      -5.431   1.554   2.282  1.00  0.00     0.054 C 
HETATM   29  C12 UNL     1      -5.880  -0.801   2.494  1.00  0.00     0.012 C 
BRANCH  29  30
HETATM   30  C13 UNL     1      -5.757  -2.206   2.760  1.00  0.00    -0.000 C 
HETATM   31  C14 UNL     1      -6.719  -3.095   2.653  1.00  0.00     0.010 C 
BRANCH  31  32
HETATM   32  C15 UNL     1      -8.082  -2.742   2.234  1.00  0.00     0.068 C 
HETATM   33  C16 UNL     1      -8.742  -4.039   1.749  1.00  0.00     0.050 C 
HETATM   34  C17 UNL     1      -8.113  -1.743   1.112  1.00  0.00     0.050 C 
BRANCH  32  35
HETATM   35  O4  UNL     1      -8.801  -2.333   3.354  1.00  0.00    -0.387 OA
ATOM     36  H4  UNL     1      -8.840  -1.384   3.360  1.00  0.00     0.211 HD
ENDBRANCH  32  35
ENDBRANCH  31  32
ENDBRANCH  29  30
ENDBRANCH  25  27
ENDBRANCH  24  25
ENDBRANCH   5  24
BRANCH   7  37
HETATM   37  C26 UNL     1      -2.379  -0.106   7.447  1.00  0.00     0.183 C 
BRANCH  37  38
HETATM   38  O8  UNL     1      -1.532   0.942   7.770  1.00  0.00    -0.395 OA
HETATM   39  C27 UNL     1      -0.295   0.783   7.189  1.00  0.00     0.201 C 
ENDBRANCH  37  38
ENDBRANCH   7  37
BRANCH   4  40
HETATM   40  O1  UNL     1      -5.186  -2.671   5.877  1.00  0.00    -0.392 OA
ATOM     41  H1  UNL     1      -4.801  -3.262   5.240  1.00  0.00     0.210 HD
ENDBRANCH   4  40
BRANCH   1  42
HETATM   42  C2  UNL     1      -5.218  -0.450  11.009  1.00  0.00    -0.056 C 
HETATM   43  C1  UNL     1      -4.731  -0.396  12.224  1.00  0.00     0.017 C 
HETATM   44  C3  UNL     1      -6.690  -0.451  10.820  1.00  0.00     0.046 C 
ENDBRANCH   1  42
TORSDOF 16
ENDMDL
MODEL 5
REMARK VINA RESULT: -5.940331239      1.832      6.619
REMARK  16 active torsions:
REMARK  status: ('A' for Active; 'I' for Inactive)
REMARK    1  A    between atoms: C2_2  and  C4_4 
REMARK    2  A    between atoms: C7_7  and  O1_8 
REMARK    3  A    between atoms: C8_10  and  O2_11 
REMARK    4  A    between atoms: O2_11  and  C9_12 
REMARK    5  A    between atoms: C9_12  and  C10_14 
REMARK    6  A    between atoms: C12_16  and  C13_17 
REMARK    7  A    between atoms: C14_18  and  C15_19 
REMARK    8  A    between atoms: C15_19  and  O4_22 
REMARK    9  A    between atoms: C18_24  and  C19_25 
REMARK   10  A    between atoms: C18_24  and  O7_37 
REMARK   11  A    between atoms: C19_25  and  O5_26 
REMARK   12  A    between atoms: O5_26  and  C20_27 
REMARK   13  A    between atoms: C22_29  and  N1_30 
REMARK   14  A    between atoms: C23_34  and  O6_35 
REMARK   15  A    between atoms: C25_39  and  C26_40 
REMARK   16  A    between atoms: C26_40  and  O8_41 
ROOT
HETATM    1  C4  UNL     1      -3.954   0.397   2.601  1.00  0.00     0.111 A 
HETATM    2  C5  UNL     1      -3.786   1.157   3.921  1.00  0.00     0.054 C 
HETATM    3  C6  UNL     1      -5.078   0.950   4.550  1.00  0.00     0.037 C 
HETATM    4  C7  UNL     1      -5.303   0.955   5.977  1.00  0.00     0.156 C 
HETATM    5  C8  UNL     1      -6.669   0.292   6.039  1.00  0.00     0.199 C 
HETATM    6  C18 UNL     1      -6.838  -0.515   4.734  1.00  0.00     0.123 C 
HETATM    7  C25 UNL     1      -5.435  -0.501   4.227  1.00  0.00     0.053 C 
HETATM    8  C28 UNL     1      -5.150  -0.523   2.801  1.00  0.00     0.176 A 
HETATM    9  O9  UNL     1      -3.773  -0.966   2.562  1.00  0.00    -0.363 OA
ENDROOT
BRANCH   6  10
HETATM   10  C19 UNL     1      -7.852   0.156   3.874  1.00  0.00     0.210 C 
BRANCH  10  11
HETATM   11  O5  UNL     1      -8.710   1.020   4.519  1.00  0.00    -0.380 OA
BRANCH  11  12
HETATM   12  C20 UNL     1      -9.998   0.558   4.529  1.00  0.00     0.154 C 
HETATM   13  C21 UNL     1     -10.749   0.622   5.829  1.00  0.00     0.070 C 
HETATM   14  C22 UNL     1     -11.936   1.209   5.134  1.00  0.00     0.217 C 
HETATM   15  C23 UNL     1     -11.027   1.454   3.923  1.00  0.00     0.177 C 
BRANCH  14  16
HETATM   16  N1  UNL     1     -12.990   0.293   4.780  1.00  0.00    -0.072 N 
ATOM     17  H13 UNL     1     -13.557   0.088   5.602  1.00  0.00     0.274 HD
ATOM     18  H12 UNL     1     -13.676   0.768   4.194  1.00  0.00     0.274 HD
ATOM     19  H11 UNL     1     -12.704  -0.579   4.335  1.00  0.00     0.274 HD
ENDBRANCH  14  16
BRANCH  15  20
HETATM   20  O6  UNL     1     -10.705   2.803   3.828  1.00  0.00    -0.391 OA
ATOM     21  H6  UNL     1     -10.625   3.162   2.952  1.00  0.00     0.210 HD
ENDBRANCH  15  20
ENDBRANCH  11  12
ENDBRANCH  10  11
ENDBRANCH   6  10
BRANCH   6  22
HETATM   22  O7  UNL     1      -7.269  -1.742   5.157  1.00  0.00    -0.379 OA
HETATM   23  C24 UNL     1      -7.948  -2.559   4.335  1.00  0.00     0.202 C 
ENDBRANCH   6  22
BRANCH   5  24
HETATM   24  O2  UNL     1      -6.731  -0.499   7.185  1.00  0.00    -0.306 OA
BRANCH  24  25
HETATM   25  C9  UNL     1      -7.303  -0.052   8.409  1.00  0.00     0.289 C 
HETATM   26  O3  UNL     1      -8.304   0.679   8.229  1.00  0.00    -0.260 OA
BRANCH  25  27
HETATM   27  C10 UNL     1      -6.719  -0.452   9.654  1.00  0.00     0.013 C 
HETATM   28  C11 UNL     1      -7.494  -0.101  10.907  1.00  0.00     0.054 C 
HETATM   29  C12 UNL     1      -5.596  -1.084   9.800  1.00  0.00     0.012 C 
BRANCH  29  30
HETATM   30  C13 UNL     1      -4.668  -1.537   8.803  1.00  0.00    -0.000 C 
HETATM   31  C14 UNL     1      -3.472  -1.039   8.582  1.00  0.00     0.010 C 
BRANCH  31  32
HETATM   32  C15 UNL     1      -2.926   0.082   9.360  1.00  0.00     0.068 C 
HETATM   33  C16 UNL     1      -1.489   0.297   8.868  1.00  0.00     0.050 C 
HETATM   34  C17 UNL     1      -2.888  -0.189  10.837  1.00  0.00     0.050 C 
BRANCH  32  35
HETATM   35  O4  UNL     1      -3.629   1.238   9.031  1.00  0.00    -0.387 OA
ATOM     36  H4  UNL     1      -3.354   1.937   9.613  1.00  0.00     0.211 HD
ENDBRANCH  32  35
ENDBRANCH  31  32
ENDBRANCH  29  30
ENDBRANCH  25  27
ENDBRANCH  24  25
ENDBRANCH   5  24
BRANCH   7  37
HETATM   37  C26 UNL     1      -4.631  -1.483   5.001  1.00  0.00     0.183 C 
BRANCH  37  38
HETATM   38  O8  UNL     1      -4.558  -2.757   4.460  1.00  0.00    -0.395 OA
HETATM   39  C27 UNL     1      -4.513  -3.717   5.446  1.00  0.00     0.201 C 
ENDBRANCH  37  38
ENDBRANCH   7  37
BRANCH   4  40
HETATM   40  O1  UNL     1      -5.425   2.247   6.542  1.00  0.00    -0.392 OA
ATOM     41  H1  UNL     1      -5.038   2.335   7.405  1.00  0.00     0.210 HD
ENDBRANCH   4  40
BRANCH   1  42
HETATM   42  C2  UNL     1      -3.742   1.094   1.336  1.00  0.00    -0.056 C 
HETATM   43  C1  UNL     1      -2.913   0.630   0.434  1.00  0.00     0.017 C 
HETATM   44  C3  UNL     1      -4.478   2.353   1.060  1.00  0.00     0.046 C 
ENDBRANCH   1  42
TORSDOF 16
ENDMDL
