MODEL 1
REMARK VINA RESULT: -8.710326926      0.000      0.000
REMARK  14 active torsions:
REMARK  status: ('A' for Active; 'I' for Inactive)
REMARK    1  A    between atoms: C3_3  and  C4_4 
REMARK    2  A    between atoms: C5_5  and  C6_6 
REMARK    3  A    between atoms: C8_8  and  O1_9 
REMARK    4  A    between atoms: O1_9  and  C9_10 
REMARK    5  A    between atoms: C10_11  and  O2_12 
REMARK    6  A    between atoms: O2_12  and  C11_13 
REMARK    7  A    between atoms: C11_13  and  C13_15 
REMARK    8  A    between atoms: C20_22  and  O3_23 
REMARK    9  A    between atoms: O3_23  and  C21_24 
REMARK   10  A    between atoms: C23_27  and  O5_28 
REMARK   11  A    between atoms: C24_30  and  O6_31 
REMARK   12  A    between atoms: C25_33  and  O7_34 
REMARK   13  A    between atoms: C26_36  and  O8_37 
REMARK   14  A    between atoms: C27_40  and  C28_41 
ROOT
HETATM    1  C9  UNL     1      -3.045  -0.690   7.536  1.00  0.00     0.184 C 
HETATM    2  C10 UNL     1      -4.239  -0.456   8.429  1.00  0.00     0.156 C 
HETATM    3  C19 UNL     1      -5.427  -1.047   7.684  1.00  0.00     0.069 C 
HETATM    4  C20 UNL     1      -4.864  -1.993   6.642  1.00  0.00     0.158 C 
HETATM    5  C26 UNL     1      -3.358  -1.997   6.823  1.00  0.00     0.178 C 
ENDROOT
BRANCH   1   6
HETATM    6  O1  UNL     1      -1.835  -0.689   8.173  1.00  0.00    -0.351 OA
BRANCH   6   7
HETATM    7  C8  UNL     1      -1.101   0.494   7.917  1.00  0.00     0.262 C 
HETATM    8  C7  UNL     1      -1.089   1.306   9.212  1.00  0.00     0.072 C 
HETATM    9  C6  UNL     1       0.235   0.779   9.766  1.00  0.00     0.052 C 
HETATM   10  C27 UNL     1       1.045   0.874   8.511  1.00  0.00     0.233 C 
HETATM   11  O9  UNL     1       0.201   0.049   7.682  1.00  0.00    -0.345 OA
BRANCH   9  12
HETATM   12  C5  UNL     1       0.670   1.302  10.996  1.00  0.00    -0.019 C 
HETATM   13  C4  UNL     1       0.632   0.725  12.166  1.00  0.00    -0.004 C 
BRANCH  13  14
HETATM   14  C3  UNL     1       1.140   1.418  13.369  1.00  0.00    -0.005 C 
HETATM   15  C2  UNL     1       2.044   0.837  14.105  1.00  0.00    -0.031 C 
HETATM   16  C1  UNL     1       2.557  -0.500  13.738  1.00  0.00     0.036 C 
ENDBRANCH  13  14
ENDBRANCH   9  12
BRANCH  10  17
HETATM   17  C28 UNL     1       1.081   2.193   7.881  1.00  0.00     0.203 C 
HETATM   18  O10 UNL     1       1.205   3.253   8.498  1.00  0.00    -0.646 OA
HETATM   19  O11 UNL     1       0.969   2.306   6.485  1.00  0.00    -0.646 OA
ENDBRANCH  10  17
ENDBRANCH   6   7
ENDBRANCH   1   6
BRANCH   2  20
HETATM   20  O2  UNL     1      -4.174  -1.113   9.635  1.00  0.00    -0.374 OA
BRANCH  20  21
HETATM   21  C11 UNL     1      -4.131  -0.172  10.658  1.00  0.00     0.151 C 
HETATM   22  C12 UNL     1      -2.867  -0.239  11.460  1.00  0.00     0.045 C 
BRANCH  21  23
HETATM   23  C13 UNL     1      -5.288  -0.358  11.600  1.00  0.00    -0.030 A 
HETATM   24  C14 UNL     1      -5.059  -0.547  12.944  1.00  0.00     0.010 A 
HETATM   25  C15 UNL     1      -6.096  -0.725  13.853  1.00  0.00     0.001 A 
HETATM   26  C16 UNL     1      -7.406  -0.716  13.422  1.00  0.00     0.000 A 
HETATM   27  C17 UNL     1      -7.633  -0.526  12.075  1.00  0.00     0.001 A 
HETATM   28  C18 UNL     1      -6.597  -0.348  11.169  1.00  0.00     0.010 A 
ENDBRANCH  21  23
ENDBRANCH  20  21
ENDBRANCH   2  20
BRANCH   5  29
HETATM   29  O8  UNL     1      -2.910  -3.107   7.526  1.00  0.00    -0.390 OA
ATOM     30  H8  UNL     1      -3.622  -3.647   7.848  1.00  0.00     0.210 HD
ENDBRANCH   5  29
BRANCH   4  31
HETATM   31  O3  UNL     1      -5.237  -1.496   5.403  1.00  0.00    -0.351 OA
BRANCH  31  32
HETATM   32  C21 UNL     1      -5.775  -2.477   4.610  1.00  0.00     0.291 C 
HETATM   33  O4  UNL     1      -7.126  -2.714   4.891  1.00  0.00    -0.356 OA
HETATM   34  C22 UNL     1      -7.877  -1.548   4.800  1.00  0.00     0.205 C 
HETATM   35  C23 UNL     1      -7.783  -0.904   3.439  1.00  0.00     0.173 C 
HETATM   36  C24 UNL     1      -6.385  -0.830   2.922  1.00  0.00     0.182 C 
HETATM   37  C25 UNL     1      -5.701  -2.166   3.126  1.00  0.00     0.204 C 
BRANCH  35  38
HETATM   38  O5  UNL     1      -8.654  -1.522   2.565  1.00  0.00    -0.391 OA
ATOM     39  H5  UNL     1      -9.546  -1.439   2.882  1.00  0.00     0.210 HD
ENDBRANCH  35  38
BRANCH  36  40
HETATM   40  O6  UNL     1      -6.394  -0.549   1.560  1.00  0.00    -0.390 OA
ATOM     41  H6  UNL     1      -5.512  -0.366   1.259  1.00  0.00     0.210 HD
ENDBRANCH  36  40
BRANCH  37  42
HETATM   42  O7  UNL     1      -6.372  -3.201   2.474  1.00  0.00    -0.388 OA
ATOM     43  H7  UNL     1      -7.184  -2.830   2.148  1.00  0.00     0.210 HD
ENDBRANCH  37  42
ENDBRANCH  31  32
ENDBRANCH   4  31
TORSDOF 14
ENDMDL
MODEL 2
REMARK VINA RESULT: -8.610952866      1.486      1.989
REMARK  14 active torsions:
REMARK  status: ('A' for Active; 'I' for Inactive)
REMARK    1  A    between atoms: C3_3  and  C4_4 
REMARK    2  A    between atoms: C5_5  and  C6_6 
REMARK    3  A    between atoms: C8_8  and  O1_9 
REMARK    4  A    between atoms: O1_9  and  C9_10 
REMARK    5  A    between atoms: C10_11  and  O2_12 
REMARK    6  A    between atoms: O2_12  and  C11_13 
REMARK    7  A    between atoms: C11_13  and  C13_15 
REMARK    8  A    between atoms: C20_22  and  O3_23 
REMARK    9  A    between atoms: O3_23  and  C21_24 
REMARK   10  A    between atoms: C23_27  and  O5_28 
REMARK   11  A    between atoms: C24_30  and  O6_31 
REMARK   12  A    between atoms: C25_33  and  O7_34 
REMARK   13  A    between atoms: C26_36  and  O8_37 
REMARK   14  A    between atoms: C27_40  and  C28_41 
ROOT
HETATM    1  C9  UNL     1      -3.088  -0.605   7.545  1.00  0.00     0.184 C 
HETATM    2  C10 UNL     1      -4.276  -0.373   8.446  1.00  0.00     0.156 C 
HETATM    3  C19 UNL     1      -5.464  -0.983   7.717  1.00  0.00     0.069 C 
HETATM    4  C20 UNL     1      -4.901  -1.934   6.679  1.00  0.00     0.158 C 
HETATM    5  C26 UNL     1      -3.394  -1.922   6.847  1.00  0.00     0.178 C 
ENDROOT
BRANCH   1   6
HETATM    6  O1  UNL     1      -1.872  -0.586   8.171  1.00  0.00    -0.351 OA
BRANCH   6   7
HETATM    7  C8  UNL     1      -0.984   0.343   7.578  1.00  0.00     0.262 C 
HETATM    8  C7  UNL     1      -1.273   1.707   8.207  1.00  0.00     0.072 C 
HETATM    9  C6  UNL     1      -0.227   1.639   9.321  1.00  0.00     0.052 C 
HETATM   10  C27 UNL     1       0.921   1.129   8.506  1.00  0.00     0.233 C 
HETATM   11  O9  UNL     1       0.281  -0.064   8.009  1.00  0.00    -0.345 OA
BRANCH   9  12
HETATM   12  C5  UNL     1      -0.122   2.753  10.172  1.00  0.00    -0.019 C 
HETATM   13  C4  UNL     1      -1.082   3.351  10.823  1.00  0.00    -0.004 C 
BRANCH  13  14
HETATM   14  C3  UNL     1      -0.798   4.516  11.688  1.00  0.00    -0.005 C 
HETATM   15  C2  UNL     1      -1.498   5.604  11.542  1.00  0.00    -0.031 C 
HETATM   16  C1  UNL     1      -2.566   5.671  10.521  1.00  0.00     0.036 C 
ENDBRANCH  13  14
ENDBRANCH   9  12
BRANCH  10  17
HETATM   17  C28 UNL     1       1.268   1.931   7.333  1.00  0.00     0.203 C 
HETATM   18  O10 UNL     1       1.276   3.164   7.314  1.00  0.00    -0.646 OA
HETATM   19  O11 UNL     1       1.619   1.297   6.129  1.00  0.00    -0.646 OA
ENDBRANCH  10  17
ENDBRANCH   6   7
ENDBRANCH   1   6
BRANCH   2  20
HETATM   20  O2  UNL     1      -4.194  -1.018   9.657  1.00  0.00    -0.374 OA
BRANCH  20  21
HETATM   21  C11 UNL     1      -4.137  -0.067  10.670  1.00  0.00     0.151 C 
HETATM   22  C12 UNL     1      -2.825  -0.065  11.396  1.00  0.00     0.045 C 
BRANCH  21  23
HETATM   23  C13 UNL     1      -5.225  -0.299  11.681  1.00  0.00    -0.030 A 
HETATM   24  C14 UNL     1      -4.904  -0.539  12.997  1.00  0.00     0.010 A 
HETATM   25  C15 UNL     1      -5.875  -0.762  13.966  1.00  0.00     0.001 A 
HETATM   26  C16 UNL     1      -7.212  -0.747  13.627  1.00  0.00     0.000 A 
HETATM   27  C17 UNL     1      -7.531  -0.506  12.307  1.00  0.00     0.001 A 
HETATM   28  C18 UNL     1      -6.560  -0.284  11.340  1.00  0.00     0.010 A 
ENDBRANCH  21  23
ENDBRANCH  20  21
ENDBRANCH   2  20
BRANCH   5  29
HETATM   29  O8  UNL     1      -2.929  -3.021   7.557  1.00  0.00    -0.390 OA
ATOM     30  H8  UNL     1      -3.593  -3.397   8.122  1.00  0.00     0.210 HD
ENDBRANCH   5  29
BRANCH   4  31
HETATM   31  O3  UNL     1      -5.290  -1.452   5.439  1.00  0.00    -0.351 OA
BRANCH  31  32
HETATM   32  C21 UNL     1      -5.804  -2.451   4.651  1.00  0.00     0.291 C 
HETATM   33  O4  UNL     1      -7.161  -2.687   4.900  1.00  0.00    -0.356 OA
HETATM   34  C22 UNL     1      -7.913  -1.525   4.766  1.00  0.00     0.205 C 
HETATM   35  C23 UNL     1      -7.783  -0.908   3.395  1.00  0.00     0.173 C 
HETATM   36  C24 UNL     1      -6.372  -0.840   2.915  1.00  0.00     0.182 C 
HETATM   37  C25 UNL     1      -5.690  -2.169   3.164  1.00  0.00     0.204 C 
BRANCH  35  38
HETATM   38  O5  UNL     1      -8.628  -1.547   2.510  1.00  0.00    -0.391 OA
ATOM     39  H5  UNL     1      -8.422  -1.287   1.620  1.00  0.00     0.210 HD
ENDBRANCH  35  38
BRANCH  36  40
HETATM   40  O6  UNL     1      -6.345  -0.586   1.548  1.00  0.00    -0.390 OA
ATOM     41  H6  UNL     1      -7.226  -0.435   1.226  1.00  0.00     0.210 HD
ENDBRANCH  36  40
BRANCH  37  42
HETATM   42  O7  UNL     1      -6.340  -3.220   2.515  1.00  0.00    -0.388 OA
ATOM     43  H7  UNL     1      -5.692  -3.627   1.952  1.00  0.00     0.210 HD
ENDBRANCH  37  42
ENDBRANCH  31  32
ENDBRANCH   4  31
TORSDOF 14
ENDMDL
MODEL 3
REMARK VINA RESULT: -8.579678961      0.850      1.033
REMARK  14 active torsions:
REMARK  status: ('A' for Active; 'I' for Inactive)
REMARK    1  A    between atoms: C3_3  and  C4_4 
REMARK    2  A    between atoms: C5_5  and  C6_6 
REMARK    3  A    between atoms: C8_8  and  O1_9 
REMARK    4  A    between atoms: O1_9  and  C9_10 
REMARK    5  A    between atoms: C10_11  and  O2_12 
REMARK    6  A    between atoms: O2_12  and  C11_13 
REMARK    7  A    between atoms: C11_13  and  C13_15 
REMARK    8  A    between atoms: C20_22  and  O3_23 
REMARK    9  A    between atoms: O3_23  and  C21_24 
REMARK   10  A    between atoms: C23_27  and  O5_28 
REMARK   11  A    between atoms: C24_30  and  O6_31 
REMARK   12  A    between atoms: C25_33  and  O7_34 
REMARK   13  A    between atoms: C26_36  and  O8_37 
REMARK   14  A    between atoms: C27_40  and  C28_41 
ROOT
HETATM    1  C9  UNL     1      -3.043  -0.687   7.532  1.00  0.00     0.184 C 
HETATM    2  C10 UNL     1      -4.238  -0.449   8.421  1.00  0.00     0.156 C 
HETATM    3  C19 UNL     1      -5.423  -1.055   7.682  1.00  0.00     0.069 C 
HETATM    4  C20 UNL     1      -4.853  -2.010   6.652  1.00  0.00     0.158 C 
HETATM    5  C26 UNL     1      -3.348  -2.004   6.834  1.00  0.00     0.178 C 
ENDROOT
BRANCH   1   6
HETATM    6  O1  UNL     1      -1.833  -0.672   8.169  1.00  0.00    -0.351 OA
BRANCH   6   7
HETATM    7  C8  UNL     1      -0.980   0.339   7.665  1.00  0.00     0.262 C 
HETATM    8  C7  UNL     1      -1.349   1.639   8.382  1.00  0.00     0.072 C 
HETATM    9  C6  UNL     1      -0.325   1.542   9.513  1.00  0.00     0.052 C 
HETATM   10  C27 UNL     1       0.864   1.147   8.692  1.00  0.00     0.233 C 
HETATM   11  O9  UNL     1       0.294  -0.037   8.097  1.00  0.00    -0.345 OA
BRANCH   9  12
HETATM   12  C5  UNL     1      -0.293   2.595  10.443  1.00  0.00    -0.019 C 
HETATM   13  C4  UNL     1      -0.301   2.509  11.745  1.00  0.00    -0.004 C 
BRANCH  13  14
HETATM   14  C3  UNL     1      -0.258   3.725  12.584  1.00  0.00    -0.005 C 
HETATM   15  C2  UNL     1       0.620   3.808  13.542  1.00  0.00    -0.031 C 
HETATM   16  C1  UNL     1       1.564   2.696  13.785  1.00  0.00     0.036 C 
ENDBRANCH  13  14
ENDBRANCH   9  12
BRANCH  10  17
HETATM   17  C28 UNL     1       1.194   2.047   7.587  1.00  0.00     0.203 C 
HETATM   18  O10 UNL     1       1.164   3.277   7.662  1.00  0.00    -0.646 OA
HETATM   19  O11 UNL     1       1.576   1.518   6.343  1.00  0.00    -0.646 OA
ENDBRANCH  10  17
ENDBRANCH   6   7
ENDBRANCH   1   6
BRANCH   2  20
HETATM   20  O2  UNL     1      -4.171  -1.091   9.634  1.00  0.00    -0.374 OA
BRANCH  20  21
HETATM   21  C11 UNL     1      -4.119  -0.139  10.646  1.00  0.00     0.151 C 
HETATM   22  C12 UNL     1      -2.829  -0.167  11.409  1.00  0.00     0.045 C 
BRANCH  21  23
HETATM   23  C13 UNL     1      -5.241  -0.341  11.626  1.00  0.00    -0.030 A 
HETATM   24  C14 UNL     1      -4.965  -0.540  12.959  1.00  0.00     0.010 A 
HETATM   25  C15 UNL     1      -5.969  -0.733  13.901  1.00  0.00     0.001 A 
HETATM   26  C16 UNL     1      -7.293  -0.730  13.516  1.00  0.00     0.000 A 
HETATM   27  C17 UNL     1      -7.567  -0.530  12.179  1.00  0.00     0.001 A 
HETATM   28  C18 UNL     1      -6.564  -0.337  11.239  1.00  0.00     0.010 A 
ENDBRANCH  21  23
ENDBRANCH  20  21
ENDBRANCH   2  20
BRANCH   5  29
HETATM   29  O8  UNL     1      -2.894  -3.103   7.550  1.00  0.00    -0.390 OA
ATOM     30  H8  UNL     1      -3.384  -3.893   7.354  1.00  0.00     0.210 HD
ENDBRANCH   5  29
BRANCH   4  31
HETATM   31  O3  UNL     1      -5.228  -1.529   5.407  1.00  0.00    -0.351 OA
BRANCH  31  32
HETATM   32  C21 UNL     1      -5.766  -2.521   4.626  1.00  0.00     0.291 C 
HETATM   33  O4  UNL     1      -7.117  -2.756   4.911  1.00  0.00    -0.356 OA
HETATM   34  C22 UNL     1      -7.869  -1.592   4.806  1.00  0.00     0.205 C 
HETATM   35  C23 UNL     1      -7.776  -0.965   3.436  1.00  0.00     0.173 C 
HETATM   36  C24 UNL     1      -6.379  -0.897   2.918  1.00  0.00     0.182 C 
HETATM   37  C25 UNL     1      -5.693  -2.229   3.139  1.00  0.00     0.204 C 
BRANCH  35  38
HETATM   38  O5  UNL     1      -8.647  -1.596   2.571  1.00  0.00    -0.391 OA
ATOM     39  H5  UNL     1      -8.446  -2.524   2.528  1.00  0.00     0.210 HD
ENDBRANCH  35  38
BRANCH  36  40
HETATM   40  O6  UNL     1      -6.389  -0.634   1.552  1.00  0.00    -0.390 OA
ATOM     41  H6  UNL     1      -5.504  -0.661   1.208  1.00  0.00     0.210 HD
ENDBRANCH  36  40
BRANCH  37  42
HETATM   42  O7  UNL     1      -6.363  -3.274   2.501  1.00  0.00    -0.388 OA
ATOM     43  H7  UNL     1      -5.813  -4.042   2.597  1.00  0.00     0.210 HD
ENDBRANCH  37  42
ENDBRANCH  31  32
ENDBRANCH   4  31
TORSDOF 14
ENDMDL
MODEL 4
REMARK VINA RESULT: -8.511921577      0.694      1.147
REMARK  14 active torsions:
REMARK  status: ('A' for Active; 'I' for Inactive)
REMARK    1  A    between atoms: C3_3  and  C4_4 
REMARK    2  A    between atoms: C5_5  and  C6_6 
REMARK    3  A    between atoms: C8_8  and  O1_9 
REMARK    4  A    between atoms: O1_9  and  C9_10 
REMARK    5  A    between atoms: C10_11  and  O2_12 
REMARK    6  A    between atoms: O2_12  and  C11_13 
REMARK    7  A    between atoms: C11_13  and  C13_15 
REMARK    8  A    between atoms: C20_22  and  O3_23 
REMARK    9  A    between atoms: O3_23  and  C21_24 
REMARK   10  A    between atoms: C23_27  and  O5_28 
REMARK   11  A    between atoms: C24_30  and  O6_31 
REMARK   12  A    between atoms: C25_33  and  O7_34 
REMARK   13  A    between atoms: C26_36  and  O8_37 
REMARK   14  A    between atoms: C27_40  and  C28_41 
ROOT
HETATM    1  C9  UNL     1      -2.815  -0.726   7.670  1.00  0.00     0.184 C 
HETATM    2  C10 UNL     1      -4.085  -0.477   8.446  1.00  0.00     0.156 C 
HETATM    3  C19 UNL     1      -5.191  -1.142   7.640  1.00  0.00     0.069 C 
HETATM    4  C20 UNL     1      -4.520  -2.128   6.704  1.00  0.00     0.158 C 
HETATM    5  C26 UNL     1      -3.035  -2.079   7.010  1.00  0.00     0.178 C 
ENDROOT
BRANCH   1   6
HETATM    6  O1  UNL     1      -1.664  -0.655   8.404  1.00  0.00    -0.351 OA
BRANCH   6   7
HETATM    7  C8  UNL     1      -0.979   0.567   8.202  1.00  0.00     0.262 C 
HETATM    8  C7  UNL     1      -0.988   1.314   9.537  1.00  0.00     0.072 C 
HETATM    9  C6  UNL     1       0.361   0.814  10.055  1.00  0.00     0.052 C 
HETATM   10  C27 UNL     1       1.156   1.002   8.801  1.00  0.00     0.233 C 
HETATM   11  O9  UNL     1       0.338   0.186   7.937  1.00  0.00    -0.345 OA
BRANCH   9  12
HETATM   12  C5  UNL     1       0.786   1.292  11.307  1.00  0.00    -0.019 C 
HETATM   13  C4  UNL     1       0.722   0.680  12.457  1.00  0.00    -0.004 C 
BRANCH  13  14
HETATM   14  C3  UNL     1       1.223   1.328  13.688  1.00  0.00    -0.005 C 
HETATM   15  C2  UNL     1       2.102   0.708  14.422  1.00  0.00    -0.031 C 
HETATM   16  C1  UNL     1       2.594  -0.629  14.026  1.00  0.00     0.036 C 
ENDBRANCH  13  14
ENDBRANCH   9  12
BRANCH  10  17
HETATM   17  C28 UNL     1       1.134   2.352   8.237  1.00  0.00     0.203 C 
HETATM   18  O10 UNL     1       1.243   3.384   8.903  1.00  0.00    -0.646 OA
HETATM   19  O11 UNL     1       0.979   2.530   6.852  1.00  0.00    -0.646 OA
ENDBRANCH  10  17
ENDBRANCH   6   7
ENDBRANCH   1   6
BRANCH   2  20
HETATM   20  O2  UNL     1      -4.107  -1.064   9.688  1.00  0.00    -0.374 OA
BRANCH  20  21
HETATM   21  C11 UNL     1      -4.304  -0.077  10.648  1.00  0.00     0.151 C 
HETATM   22  C12 UNL     1      -3.175   0.016  11.630  1.00  0.00     0.045 C 
BRANCH  21  23
HETATM   23  C13 UNL     1      -5.569  -0.331  11.420  1.00  0.00    -0.030 A 
HETATM   24  C14 UNL     1      -5.529  -0.446  12.791  1.00  0.00     0.010 A 
HETATM   25  C15 UNL     1      -6.672  -0.682  13.546  1.00  0.00     0.001 A 
HETATM   26  C16 UNL     1      -7.899  -0.810  12.929  1.00  0.00     0.000 A 
HETATM   27  C17 UNL     1      -7.936  -0.694  11.556  1.00  0.00     0.001 A 
HETATM   28  C18 UNL     1      -6.794  -0.458  10.802  1.00  0.00     0.010 A 
ENDBRANCH  21  23
ENDBRANCH  20  21
ENDBRANCH   2  20
BRANCH   5  29
HETATM   29  O8  UNL     1      -2.622  -3.135   7.811  1.00  0.00    -0.390 OA
ATOM     30  H8  UNL     1      -1.831  -2.935   8.298  1.00  0.00     0.210 HD
ENDBRANCH   5  29
BRANCH   4  31
HETATM   31  O3  UNL     1      -4.798  -1.711   5.412  1.00  0.00    -0.351 OA
BRANCH  31  32
HETATM   32  C21 UNL     1      -6.136  -1.459   5.242  1.00  0.00     0.291 C 
HETATM   33  O4  UNL     1      -6.377  -0.221   4.635  1.00  0.00    -0.356 OA
HETATM   34  C22 UNL     1      -5.703  -0.108   3.425  1.00  0.00     0.205 C 
HETATM   35  C23 UNL     1      -6.081  -1.195   2.449  1.00  0.00     0.173 C 
HETATM   36  C24 UNL     1      -6.104  -2.553   3.066  1.00  0.00     0.182 C 
HETATM   37  C25 UNL     1      -6.843  -2.494   4.387  1.00  0.00     0.204 C 
BRANCH  35  38
HETATM   38  O5  UNL     1      -7.261  -0.866   1.812  1.00  0.00    -0.391 OA
ATOM     39  H5  UNL     1      -7.321   0.076   1.707  1.00  0.00     0.210 HD
ENDBRANCH  35  38
BRANCH  36  40
HETATM   40  O6  UNL     1      -6.772  -3.444   2.233  1.00  0.00    -0.390 OA
ATOM     41  H6  UNL     1      -7.635  -3.634   2.583  1.00  0.00     0.210 HD
ENDBRANCH  36  40
BRANCH  37  42
HETATM   42  O7  UNL     1      -8.155  -2.043   4.231  1.00  0.00    -0.388 OA
ATOM     43  H7  UNL     1      -8.124  -1.348   3.584  1.00  0.00     0.210 HD
ENDBRANCH  37  42
ENDBRANCH  31  32
ENDBRANCH   4  31
TORSDOF 14
ENDMDL
MODEL 5
REMARK VINA RESULT: -8.483980266      0.973      1.416
REMARK  14 active torsions:
REMARK  status: ('A' for Active; 'I' for Inactive)
REMARK    1  A    between atoms: C3_3  and  C4_4 
REMARK    2  A    between atoms: C5_5  and  C6_6 
REMARK    3  A    between atoms: C8_8  and  O1_9 
REMARK    4  A    between atoms: O1_9  and  C9_10 
REMARK    5  A    between atoms: C10_11  and  O2_12 
REMARK    6  A    between atoms: O2_12  and  C11_13 
REMARK    7  A    between atoms: C11_13  and  C13_15 
REMARK    8  A    between atoms: C20_22  and  O3_23 
REMARK    9  A    between atoms: O3_23  and  C21_24 
REMARK   10  A    between atoms: C23_27  and  O5_28 
REMARK   11  A    between atoms: C24_30  and  O6_31 
REMARK   12  A    between atoms: C25_33  and  O7_34 
REMARK   13  A    between atoms: C26_36  and  O8_37 
REMARK   14  A    between atoms: C27_40  and  C28_41 
ROOT
HETATM    1  C9  UNL     1      -3.505  -0.453   7.136  1.00  0.00     0.184 C 
HETATM    2  C10 UNL     1      -4.667  -0.248   8.076  1.00  0.00     0.156 C 
HETATM    3  C19 UNL     1      -5.903  -0.671   7.295  1.00  0.00     0.069 C 
HETATM    4  C20 UNL     1      -5.419  -1.523   6.139  1.00  0.00     0.158 C 
HETATM    5  C26 UNL     1      -3.915  -1.645   6.285  1.00  0.00     0.178 C 
ENDROOT
BRANCH   1   6
HETATM    6  O1  UNL     1      -2.289  -0.604   7.741  1.00  0.00    -0.351 OA
BRANCH   6   7
HETATM    7  C8  UNL     1      -1.426   0.488   7.480  1.00  0.00     0.262 C 
HETATM    8  C7  UNL     1      -1.453   1.388   8.716  1.00  0.00     0.072 C 
HETATM    9  C6  UNL     1      -0.239   0.789   9.426  1.00  0.00     0.052 C 
HETATM   10  C27 UNL     1       0.685   0.720   8.250  1.00  0.00     0.233 C 
HETATM   11  O9  UNL     1      -0.156  -0.086   7.399  1.00  0.00    -0.345 OA
BRANCH   9  12
HETATM   12  C5  UNL     1       0.133   1.360  10.655  1.00  0.00    -0.019 C 
HETATM   13  C4  UNL     1       0.252   0.761  11.809  1.00  0.00    -0.004 C 
BRANCH  13  14
HETATM   14  C3  UNL     1       0.661   1.514  13.014  1.00  0.00    -0.005 C 
HETATM   15  C2  UNL     1       1.576   1.016  13.796  1.00  0.00    -0.031 C 
HETATM   16  C1  UNL     1       2.197  -0.287  13.479  1.00  0.00     0.036 C 
ENDBRANCH  13  14
ENDBRANCH   9  12
BRANCH  10  17
HETATM   17  C28 UNL     1       0.901   1.981   7.542  1.00  0.00     0.203 C 
HETATM   18  O10 UNL     1       1.099   3.064   8.099  1.00  0.00    -0.646 OA
HETATM   19  O11 UNL     1       0.889   2.008   6.138  1.00  0.00    -0.646 OA
ENDBRANCH  10  17
ENDBRANCH   6   7
ENDBRANCH   1   6
BRANCH   2  20
HETATM   20  O2  UNL     1      -4.629  -1.043   9.196  1.00  0.00    -0.374 OA
BRANCH  20  21
HETATM   21  C11 UNL     1      -4.489  -0.234  10.318  1.00  0.00     0.151 C 
HETATM   22  C12 UNL     1      -3.240  -0.522  11.095  1.00  0.00     0.045 C 
BRANCH  21  23
HETATM   23  C13 UNL     1      -5.660  -0.403  11.246  1.00  0.00    -0.030 A 
HETATM   24  C14 UNL     1      -5.462  -0.443  12.607  1.00  0.00     0.010 A 
HETATM   25  C15 UNL     1      -6.513  -0.599  13.503  1.00  0.00     0.001 A 
HETATM   26  C16 UNL     1      -7.807  -0.722  13.042  1.00  0.00     0.000 A 
HETATM   27  C17 UNL     1      -8.003  -0.682  11.677  1.00  0.00     0.001 A 
HETATM   28  C18 UNL     1      -6.953  -0.526  10.784  1.00  0.00     0.010 A 
ENDBRANCH  21  23
ENDBRANCH  20  21
ENDBRANCH   2  20
BRANCH   5  29
HETATM   29  O8  UNL     1      -3.531  -2.856   6.844  1.00  0.00    -0.390 OA
ATOM     30  H8  UNL     1      -2.794  -3.250   6.392  1.00  0.00     0.210 HD
ENDBRANCH   5  29
BRANCH   4  31
HETATM   31  O3  UNL     1      -5.777  -0.862   4.974  1.00  0.00    -0.351 OA
BRANCH  31  32
HETATM   32  C21 UNL     1      -7.127  -0.622   4.927  1.00  0.00     0.291 C 
HETATM   33  O4  UNL     1      -7.470   0.327   3.956  1.00  0.00    -0.356 OA
HETATM   34  C22 UNL     1      -6.996  -0.037   2.700  1.00  0.00     0.205 C 
HETATM   35  C23 UNL     1      -7.514  -1.381   2.253  1.00  0.00     0.173 C 
HETATM   36  C24 UNL     1      -7.430  -2.424   3.317  1.00  0.00     0.182 C 
HETATM   37  C25 UNL     1      -7.952  -1.857   4.620  1.00  0.00     0.204 C 
BRANCH  35  38
HETATM   38  O5  UNL     1      -8.783  -1.244   1.725  1.00  0.00    -0.391 OA
ATOM     39  H5  UNL     1      -9.271  -2.051   1.841  1.00  0.00     0.210 HD
ENDBRANCH  35  38
BRANCH  36  40
HETATM   40  O6  UNL     1      -8.214  -3.520   2.973  1.00  0.00    -0.390 OA
ATOM     41  H6  UNL     1      -7.661  -4.250   2.719  1.00  0.00     0.210 HD
ENDBRANCH  36  40
BRANCH  37  42
HETATM   42  O7  UNL     1      -9.276  -1.427   4.510  1.00  0.00    -0.388 OA
ATOM     43  H7  UNL     1      -9.753  -2.135   4.094  1.00  0.00     0.210 HD
ENDBRANCH  37  42
ENDBRANCH  31  32
ENDBRANCH   4  31
TORSDOF 14
ENDMDL
