MODEL 1
REMARK VINA RESULT: -8.013678181      0.000      0.000
REMARK  16 active torsions:
REMARK  status: ('A' for Active; 'I' for Inactive)
REMARK    1  A    between atoms: O1_2  and  N1_3 
REMARK    2  A    between atoms: C2_5  and  C3_6 
REMARK    3  A    between atoms: C2_5  and  C23_41 
REMARK    4  A    between atoms: C3_6  and  N2_7 
REMARK    5  A    between atoms: C4_10  and  C5_11 
REMARK    6  A    between atoms: C11_17  and  N4_18 
REMARK    7  A    between atoms: N4_18  and  C12_20 
REMARK    8  A    between atoms: C12_20  and  C13_21 
REMARK    9  A    between atoms: C13_21  and  O2_22 
REMARK   10  A    between atoms: C13_21  and  C14_24 
REMARK   11  A    between atoms: C14_24  and  O3_25 
REMARK   12  A    between atoms: C15_29  and  N6_30 
REMARK   13  A    between atoms: N6_30  and  O4_32 
REMARK   14  A    between atoms: O4_32  and  C16_33 
REMARK   15  A    between atoms: C16_33  and  C17_34 
REMARK   16  A    between atoms: C25_44  and  N8_45 
ROOT
HETATM    1  N2  UNL     1      -6.022   0.889   6.422  1.00  0.00    -0.116 N 
HETATM    2  N3  UNL     1      -5.967   0.762   7.741  1.00  0.00    -0.279 N 
ATOM      3  H3  UNL     1      -6.262   1.574   8.282  1.00  0.00     0.188 HD
HETATM    4  C4  UNL     1      -5.576  -0.289   8.437  1.00  0.00     0.103 A 
HETATM    5  C11 UNL     1      -5.178  -1.386   7.698  1.00  0.00     0.146 A 
HETATM    6  N5  UNL     1      -5.217  -1.302   6.373  1.00  0.00    -0.171 N 
ATOM      7  H5  UNL     1      -4.925  -2.114   5.829  1.00  0.00     0.186 HD
HETATM    8  C15 UNL     1      -5.636  -0.169   5.688  1.00  0.00     0.720 A 
ENDROOT
BRANCH   1   9
HETATM    9  C3  UNL     1      -6.514   2.067   5.789  1.00  0.00     0.229 C 
BRANCH   9  10
HETATM   10  C2  UNL     1      -5.659   3.273   5.862  1.00  0.00     0.079 C 
HETATM   11  N1  UNL     1      -6.210   4.332   6.220  1.00  0.00    -0.267 N 
ATOM     12  H1  UNL     1      -7.202   4.189   6.412  1.00  0.00     0.194 HD
BRANCH  11  13
HETATM   13  O1  UNL     1      -5.858   5.580   6.416  1.00  0.00    -0.285 OA
HETATM   14  C1  UNL     1      -5.938   6.554   5.368  1.00  0.00     0.237 C 
ENDBRANCH  11  13
BRANCH  10  15
HETATM   15  C23 UNL     1      -4.188   3.217   5.581  1.00  0.00     0.067 A 
HETATM   16  C24 UNL     1      -3.716   2.872   4.339  1.00  0.00     0.084 A 
HETATM   17  S1  UNL     1      -2.000   2.911   4.571  1.00  0.00    -0.064 SA
HETATM   18  C25 UNL     1      -2.006   3.357   6.212  1.00  0.00     0.142 A 
HETATM   19  N9  UNL     1      -3.285   3.454   6.506  1.00  0.00    -0.335 N 
ATOM     20  H9  UNL     1      -3.574   3.713   7.449  1.00  0.00     0.168 HD
BRANCH  18  21
HETATM   21  N8  UNL     1      -0.978   3.556   6.998  1.00  0.00    -0.380 N 
ATOM     22  H82 UNL     1      -0.135   2.990   7.087  1.00  0.00     0.158 HD
ATOM     23  H81 UNL     1      -0.833   4.315   7.664  1.00  0.00     0.158 HD
ENDBRANCH  18  21
ENDBRANCH  10  15
ENDBRANCH   9  10
ENDBRANCH   1   9
BRANCH   8  24
HETATM   24  N6  UNL     1      -5.551  -0.265   4.436  1.00  0.00    -0.094 N 
ATOM     25  H6  UNL     1      -4.593  -0.529   4.209  1.00  0.00     0.213 HD
BRANCH  24  26
HETATM   26  O4  UNL     1      -6.198  -0.161   3.338  1.00  0.00    -0.262 OA
BRANCH  26  27
HETATM   27  C16 UNL     1      -7.353  -0.927   3.061  1.00  0.00     0.240 C 
BRANCH  27  28
HETATM   28  C17 UNL     1      -8.549  -0.373   3.728  1.00  0.00    -0.030 A 
HETATM   29  C18 UNL     1      -9.146   0.805   3.385  1.00  0.00     0.026 A 
HETATM   30  C19 UNL     1     -10.262   1.214   4.087  1.00  0.00     0.090 A 
HETATM   31  N7  UNL     1     -10.794   0.501   5.101  1.00  0.00    -0.371 N 
HETATM   32  C20 UNL     1     -11.960   0.932   5.830  1.00  0.00     0.154 C 
HETATM   33  C21 UNL     1     -10.201  -0.646   5.423  1.00  0.00     0.090 A 
HETATM   34  C22 UNL     1      -9.089  -1.104   4.761  1.00  0.00     0.026 A 
ENDBRANCH  27  28
ENDBRANCH  26  27
ENDBRANCH  24  26
ENDBRANCH   8  24
BRANCH   4  35
HETATM   35  C5  UNL     1      -5.563  -0.320   9.902  1.00  0.00    -0.004 A 
HETATM   36  C6  UNL     1      -6.770  -0.401  10.556  1.00  0.00     0.014 A 
HETATM   37  C7  UNL     1      -6.876  -0.429  11.936  1.00  0.00     0.001 A 
HETATM   38  C8  UNL     1      -5.721  -0.373  12.665  1.00  0.00     0.000 A 
HETATM   39  C9  UNL     1      -4.508  -0.293  12.034  1.00  0.00     0.001 A 
HETATM   40  C10 UNL     1      -4.413  -0.265  10.651  1.00  0.00     0.014 A 
ENDBRANCH   4  35
BRANCH   5  41
HETATM   41  N4  UNL     1      -4.795  -2.444   8.333  1.00  0.00    -0.371 N 
ATOM     42  H4  UNL     1      -5.394  -2.874   9.037  1.00  0.00     0.161 HD
BRANCH  41  43
HETATM   43  C12 UNL     1      -3.485  -3.015   8.021  1.00  0.00     0.155 C 
BRANCH  43  44
HETATM   44  C13 UNL     1      -3.675  -4.474   7.700  1.00  0.00     0.159 C 
BRANCH  44  45
HETATM   45  O2  UNL     1      -4.885  -4.862   8.298  1.00  0.00    -0.392 OA
ATOM     46  H2  UNL     1      -5.238  -5.563   7.764  1.00  0.00     0.210 HD
ENDBRANCH  44  45
BRANCH  44  47
HETATM   47  C14 UNL     1      -3.861  -4.666   6.209  1.00  0.00     0.197 C 
BRANCH  47  48
HETATM   48  O3  UNL     1      -4.871  -5.597   6.033  1.00  0.00    -0.398 OA
ATOM     49  H3  UNL     1      -4.751  -5.990   5.176  1.00  0.00     0.209 HD
ENDBRANCH  47  48
ENDBRANCH  44  47
ENDBRANCH  43  44
ENDBRANCH  41  43
ENDBRANCH   5  41
TORSDOF 16
ENDMDL
MODEL 2
REMARK VINA RESULT: -7.887891824      2.052      3.244
REMARK  16 active torsions:
REMARK  status: ('A' for Active; 'I' for Inactive)
REMARK    1  A    between atoms: O1_2  and  N1_3 
REMARK    2  A    between atoms: C2_5  and  C3_6 
REMARK    3  A    between atoms: C2_5  and  C23_41 
REMARK    4  A    between atoms: C3_6  and  N2_7 
REMARK    5  A    between atoms: C4_10  and  C5_11 
REMARK    6  A    between atoms: C11_17  and  N4_18 
REMARK    7  A    between atoms: N4_18  and  C12_20 
REMARK    8  A    between atoms: C12_20  and  C13_21 
REMARK    9  A    between atoms: C13_21  and  O2_22 
REMARK   10  A    between atoms: C13_21  and  C14_24 
REMARK   11  A    between atoms: C14_24  and  O3_25 
REMARK   12  A    between atoms: C15_29  and  N6_30 
REMARK   13  A    between atoms: N6_30  and  O4_32 
REMARK   14  A    between atoms: O4_32  and  C16_33 
REMARK   15  A    between atoms: C16_33  and  C17_34 
REMARK   16  A    between atoms: C25_44  and  N8_45 
ROOT
HETATM    1  N2  UNL     1      -4.039   1.169   6.418  1.00  0.00    -0.116 N 
HETATM    2  N3  UNL     1      -4.486   0.985   7.652  1.00  0.00    -0.279 N 
ATOM      3  H3  UNL     1      -4.646   1.829   8.202  1.00  0.00     0.188 HD
HETATM    4  C4  UNL     1      -4.748  -0.159   8.257  1.00  0.00     0.103 A 
HETATM    5  C11 UNL     1      -4.531  -1.299   7.507  1.00  0.00     0.146 A 
HETATM    6  N5  UNL     1      -4.082  -1.161   6.264  1.00  0.00    -0.171 N 
ATOM      7  H5  UNL     1      -3.923  -2.003   5.712  1.00  0.00     0.186 HD
HETATM    8  C15 UNL     1      -3.819   0.069   5.676  1.00  0.00     0.720 A 
ENDROOT
BRANCH   1   9
HETATM    9  C3  UNL     1      -3.842   2.466   5.863  1.00  0.00     0.229 C 
BRANCH   9  10
HETATM   10  C2  UNL     1      -5.053   3.279   5.616  1.00  0.00     0.079 C 
HETATM   11  N1  UNL     1      -5.154   4.346   6.252  1.00  0.00    -0.267 N 
ATOM     12  H1  UNL     1      -4.351   4.492   6.864  1.00  0.00     0.194 HD
BRANCH  11  13
HETATM   13  O1  UNL     1      -6.014   5.332   6.345  1.00  0.00    -0.285 OA
HETATM   14  C1  UNL     1      -5.775   6.597   5.716  1.00  0.00     0.237 C 
ENDBRANCH  11  13
BRANCH  10  15
HETATM   15  C23 UNL     1      -6.085   2.874   4.606  1.00  0.00     0.067 A 
HETATM   16  C24 UNL     1      -6.124   3.454   3.362  1.00  0.00     0.084 A 
HETATM   17  S1  UNL     1      -7.496   2.685   2.638  1.00  0.00    -0.064 SA
HETATM   18  C25 UNL     1      -7.916   1.693   3.954  1.00  0.00     0.142 A 
HETATM   19  N9  UNL     1      -7.015   1.985   4.867  1.00  0.00    -0.335 N 
ATOM     20  H9  UNL     1      -7.039   1.521   5.775  1.00  0.00     0.168 HD
BRANCH  18  21
HETATM   21  N8  UNL     1      -8.906   0.840   4.038  1.00  0.00    -0.380 N 
ATOM     22  H82 UNL     1      -9.907   1.033   4.016  1.00  0.00     0.158 HD
ATOM     23  H81 UNL     1      -8.856  -0.173   4.140  1.00  0.00     0.158 HD
ENDBRANCH  18  21
ENDBRANCH  10  15
ENDBRANCH   9  10
ENDBRANCH   1   9
BRANCH   8  24
HETATM   24  N6  UNL     1      -3.351  -0.009   4.510  1.00  0.00    -0.094 N 
ATOM     25  H6  UNL     1      -2.435   0.439   4.513  1.00  0.00     0.213 HD
BRANCH  24  26
HETATM   26  O4  UNL     1      -3.576  -0.432   3.324  1.00  0.00    -0.262 OA
BRANCH  26  27
HETATM   27  C16 UNL     1      -4.609   0.092   2.515  1.00  0.00     0.240 C 
BRANCH  27  28
HETATM   28  C17 UNL     1      -5.693  -0.890   2.310  1.00  0.00    -0.030 A 
HETATM   29  C18 UNL     1      -6.770  -0.691   1.495  1.00  0.00     0.026 A 
HETATM   30  C19 UNL     1      -7.717  -1.689   1.389  1.00  0.00     0.090 A 
HETATM   31  N7  UNL     1      -7.629  -2.860   2.054  1.00  0.00    -0.371 N 
HETATM   32  C20 UNL     1      -8.621  -3.899   1.938  1.00  0.00     0.154 C 
HETATM   33  C21 UNL     1      -6.573  -3.039   2.843  1.00  0.00     0.090 A 
HETATM   34  C22 UNL     1      -5.600  -2.083   2.989  1.00  0.00     0.026 A 
ENDBRANCH  27  28
ENDBRANCH  26  27
ENDBRANCH  24  26
ENDBRANCH   8  24
BRANCH   4  35
HETATM   35  C5  UNL     1      -5.249  -0.243   9.631  1.00  0.00    -0.004 A 
HETATM   36  C6  UNL     1      -6.609  -0.322   9.818  1.00  0.00     0.014 A 
HETATM   37  C7  UNL     1      -7.190  -0.397  11.073  1.00  0.00     0.001 A 
HETATM   38  C8  UNL     1      -6.363  -0.393  12.161  1.00  0.00     0.000 A 
HETATM   39  C9  UNL     1      -5.005  -0.316  11.997  1.00  0.00     0.001 A 
HETATM   40  C10 UNL     1      -4.433  -0.240  10.736  1.00  0.00     0.014 A 
ENDBRANCH   4  35
BRANCH   5  41
HETATM   41  N4  UNL     1      -4.781  -2.445   8.050  1.00  0.00    -0.371 N 
ATOM     42  H4  UNL     1      -5.702  -2.645   8.439  1.00  0.00     0.161 HD
BRANCH  41  43
HETATM   43  C12 UNL     1      -3.718  -3.448   8.094  1.00  0.00     0.155 C 
BRANCH  43  44
HETATM   44  C13 UNL     1      -3.605  -4.070   6.727  1.00  0.00     0.159 C 
BRANCH  44  45
HETATM   45  O2  UNL     1      -2.234  -4.219   6.466  1.00  0.00    -0.392 OA
ATOM     46  H2  UNL     1      -2.104  -5.124   6.208  1.00  0.00     0.210 HD
ENDBRANCH  44  45
BRANCH  44  47
HETATM   47  C14 UNL     1      -4.188  -5.468   6.733  1.00  0.00     0.197 C 
BRANCH  47  48
HETATM   48  O3  UNL     1      -5.174  -5.511   5.760  1.00  0.00    -0.398 OA
ATOM     49  H3  UNL     1      -4.990  -4.816   5.138  1.00  0.00     0.209 HD
ENDBRANCH  47  48
ENDBRANCH  44  47
ENDBRANCH  43  44
ENDBRANCH  41  43
ENDBRANCH   5  41
TORSDOF 16
ENDMDL
MODEL 3
REMARK VINA RESULT: -7.842833872      0.387      1.124
REMARK  16 active torsions:
REMARK  status: ('A' for Active; 'I' for Inactive)
REMARK    1  A    between atoms: O1_2  and  N1_3 
REMARK    2  A    between atoms: C2_5  and  C3_6 
REMARK    3  A    between atoms: C2_5  and  C23_41 
REMARK    4  A    between atoms: C3_6  and  N2_7 
REMARK    5  A    between atoms: C4_10  and  C5_11 
REMARK    6  A    between atoms: C11_17  and  N4_18 
REMARK    7  A    between atoms: N4_18  and  C12_20 
REMARK    8  A    between atoms: C12_20  and  C13_21 
REMARK    9  A    between atoms: C13_21  and  O2_22 
REMARK   10  A    between atoms: C13_21  and  C14_24 
REMARK   11  A    between atoms: C14_24  and  O3_25 
REMARK   12  A    between atoms: C15_29  and  N6_30 
REMARK   13  A    between atoms: N6_30  and  O4_32 
REMARK   14  A    between atoms: O4_32  and  C16_33 
REMARK   15  A    between atoms: C16_33  and  C17_34 
REMARK   16  A    between atoms: C25_44  and  N8_45 
ROOT
HETATM    1  N2  UNL     1      -6.022   0.831   6.484  1.00  0.00    -0.116 N 
HETATM    2  N3  UNL     1      -5.861   0.738   7.796  1.00  0.00    -0.279 N 
ATOM      3  H3  UNL     1      -6.075   1.577   8.334  1.00  0.00     0.188 HD
HETATM    4  C4  UNL     1      -5.455  -0.309   8.490  1.00  0.00     0.103 A 
HETATM    5  C11 UNL     1      -5.166  -1.442   7.755  1.00  0.00     0.146 A 
HETATM    6  N5  UNL     1      -5.314  -1.394   6.436  1.00  0.00    -0.171 N 
ATOM      7  H5  UNL     1      -5.102  -2.232   5.895  1.00  0.00     0.186 HD
HETATM    8  C15 UNL     1      -5.743  -0.263   5.753  1.00  0.00     0.720 A 
ENDROOT
BRANCH   1   9
HETATM    9  C3  UNL     1      -6.518   2.010   5.857  1.00  0.00     0.229 C 
BRANCH   9  10
HETATM   10  C2  UNL     1      -5.640   3.201   5.882  1.00  0.00     0.079 C 
HETATM   11  N1  UNL     1      -6.172   4.286   6.184  1.00  0.00    -0.267 N 
ATOM     12  H1  UNL     1      -7.168   4.173   6.374  1.00  0.00     0.194 HD
BRANCH  11  13
HETATM   13  O1  UNL     1      -5.796   5.535   6.324  1.00  0.00    -0.285 OA
HETATM   14  C1  UNL     1      -5.788   6.444   5.217  1.00  0.00     0.237 C 
ENDBRANCH  11  13
BRANCH  10  15
HETATM   15  C23 UNL     1      -4.167   3.102   5.617  1.00  0.00     0.067 A 
HETATM   16  C24 UNL     1      -3.693   2.667   4.404  1.00  0.00     0.084 A 
HETATM   17  S1  UNL     1      -1.978   2.693   4.647  1.00  0.00    -0.064 SA
HETATM   18  C25 UNL     1      -1.988   3.249   6.254  1.00  0.00     0.142 A 
HETATM   19  N9  UNL     1      -3.267   3.387   6.530  1.00  0.00    -0.335 N 
ATOM     20  H9  UNL     1      -3.559   3.713   7.452  1.00  0.00     0.168 HD
BRANCH  18  21
HETATM   21  N8  UNL     1      -0.962   3.484   7.033  1.00  0.00    -0.380 N 
ATOM     22  H82 UNL     1      -0.058   3.013   7.042  1.00  0.00     0.158 HD
ATOM     23  H81 UNL     1      -0.882   4.181   7.773  1.00  0.00     0.158 HD
ENDBRANCH  18  21
ENDBRANCH  10  15
ENDBRANCH   9  10
ENDBRANCH   1   9
BRANCH   8  24
HETATM   24  N6  UNL     1      -5.769  -0.398   4.502  1.00  0.00    -0.094 N 
ATOM     25  H6  UNL     1      -4.949   0.074   4.122  1.00  0.00     0.213 HD
BRANCH  24  26
HETATM   26  O4  UNL     1      -6.423  -0.896   3.522  1.00  0.00    -0.262 OA
BRANCH  26  27
HETATM   27  C16 UNL     1      -7.457  -0.193   2.864  1.00  0.00     0.240 C 
BRANCH  27  28
HETATM   28  C17 UNL     1      -8.654  -0.054   3.718  1.00  0.00    -0.030 A 
HETATM   29  C18 UNL     1      -9.094  -1.008   4.588  1.00  0.00     0.026 A 
HETATM   30  C19 UNL     1     -10.229  -0.756   5.332  1.00  0.00     0.090 A 
HETATM   31  N7  UNL     1     -10.928   0.395   5.241  1.00  0.00    -0.371 N 
HETATM   32  C20 UNL     1     -12.112   0.652   6.021  1.00  0.00     0.154 C 
HETATM   33  C21 UNL     1     -10.485   1.315   4.389  1.00  0.00     0.090 A 
HETATM   34  C22 UNL     1      -9.363   1.121   3.623  1.00  0.00     0.026 A 
ENDBRANCH  27  28
ENDBRANCH  26  27
ENDBRANCH  24  26
ENDBRANCH   8  24
BRANCH   4  35
HETATM   35  C5  UNL     1      -5.319  -0.299   9.948  1.00  0.00    -0.004 A 
HETATM   36  C6  UNL     1      -4.053  -0.198  10.478  1.00  0.00     0.014 A 
HETATM   37  C7  UNL     1      -3.808  -0.188  11.840  1.00  0.00     0.001 A 
HETATM   38  C8  UNL     1      -4.881  -0.283  12.682  1.00  0.00     0.000 A 
HETATM   39  C9  UNL     1      -6.150  -0.384  12.176  1.00  0.00     0.001 A 
HETATM   40  C10 UNL     1      -6.385  -0.394  10.810  1.00  0.00     0.014 A 
ENDBRANCH   4  35
BRANCH   5  41
HETATM   41  N4  UNL     1      -4.773  -2.498   8.388  1.00  0.00    -0.371 N 
ATOM     42  H4  UNL     1      -5.377  -2.945   9.078  1.00  0.00     0.161 HD
BRANCH  41  43
HETATM   43  C12 UNL     1      -3.446  -3.039   8.097  1.00  0.00     0.155 C 
BRANCH  43  44
HETATM   44  C13 UNL     1      -3.605  -4.492   7.733  1.00  0.00     0.159 C 
BRANCH  44  45
HETATM   45  O2  UNL     1      -4.862  -4.892   8.213  1.00  0.00    -0.392 OA
ATOM     46  H2  UNL     1      -4.735  -5.159   9.116  1.00  0.00     0.210 HD
ENDBRANCH  44  45
BRANCH  44  47
HETATM   47  C14 UNL     1      -3.657  -4.657   6.228  1.00  0.00     0.197 C 
BRANCH  47  48
HETATM   48  O3  UNL     1      -4.961  -4.412   5.829  1.00  0.00    -0.398 OA
ATOM     49  H3  UNL     1      -5.359  -5.251   5.627  1.00  0.00     0.209 HD
ENDBRANCH  47  48
ENDBRANCH  44  47
ENDBRANCH  43  44
ENDBRANCH  41  43
ENDBRANCH   5  41
TORSDOF 16
ENDMDL
MODEL 4
REMARK VINA RESULT: -7.820041418      1.118      1.530
REMARK  16 active torsions:
REMARK  status: ('A' for Active; 'I' for Inactive)
REMARK    1  A    between atoms: O1_2  and  N1_3 
REMARK    2  A    between atoms: C2_5  and  C3_6 
REMARK    3  A    between atoms: C2_5  and  C23_41 
REMARK    4  A    between atoms: C3_6  and  N2_7 
REMARK    5  A    between atoms: C4_10  and  C5_11 
REMARK    6  A    between atoms: C11_17  and  N4_18 
REMARK    7  A    between atoms: N4_18  and  C12_20 
REMARK    8  A    between atoms: C12_20  and  C13_21 
REMARK    9  A    between atoms: C13_21  and  O2_22 
REMARK   10  A    between atoms: C13_21  and  C14_24 
REMARK   11  A    between atoms: C14_24  and  O3_25 
REMARK   12  A    between atoms: C15_29  and  N6_30 
REMARK   13  A    between atoms: N6_30  and  O4_32 
REMARK   14  A    between atoms: O4_32  and  C16_33 
REMARK   15  A    between atoms: C16_33  and  C17_34 
REMARK   16  A    between atoms: C25_44  and  N8_45 
ROOT
HETATM    1  N2  UNL     1      -6.172   0.792   6.506  1.00  0.00    -0.116 N 
HETATM    2  N3  UNL     1      -6.068   0.679   7.823  1.00  0.00    -0.279 N 
ATOM      3  H3  UNL     1      -6.393   1.477   8.368  1.00  0.00     0.188 HD
HETATM    4  C4  UNL     1      -5.595  -0.342   8.513  1.00  0.00     0.103 A 
HETATM    5  C11 UNL     1      -5.158  -1.420   7.769  1.00  0.00     0.146 A 
HETATM    6  N5  UNL     1      -5.243  -1.349   6.445  1.00  0.00    -0.171 N 
ATOM      7  H5  UNL     1      -4.921  -2.147   5.897  1.00  0.00     0.186 HD
HETATM    8  C15 UNL     1      -5.748  -0.248   5.766  1.00  0.00     0.720 A 
ENDROOT
BRANCH   1   9
HETATM    9  C3  UNL     1      -6.751   1.934   5.881  1.00  0.00     0.229 C 
BRANCH   9  10
HETATM   10  C2  UNL     1      -5.838   3.050   5.549  1.00  0.00     0.079 C 
HETATM   11  N1  UNL     1      -5.967   4.098   6.212  1.00  0.00    -0.267 N 
ATOM     12  H1  UNL     1      -6.711   4.013   6.904  1.00  0.00     0.194 HD
BRANCH  11  13
HETATM   13  O1  UNL     1      -5.402   5.281   6.258  1.00  0.00    -0.285 OA
HETATM   14  C1  UNL     1      -6.178   6.484   6.199  1.00  0.00     0.237 C 
ENDBRANCH  11  13
BRANCH  10  15
HETATM   15  C23 UNL     1      -4.767   2.913   4.510  1.00  0.00     0.067 A 
HETATM   16  C24 UNL     1      -3.440   2.890   4.859  1.00  0.00     0.084 A 
HETATM   17  S1  UNL     1      -2.654   2.772   3.319  1.00  0.00    -0.064 SA
HETATM   18  C25 UNL     1      -4.054   2.761   2.355  1.00  0.00     0.142 A 
HETATM   19  N9  UNL     1      -5.037   2.846   3.226  1.00  0.00    -0.335 N 
ATOM     20  H9  UNL     1      -6.005   2.860   2.905  1.00  0.00     0.168 HD
BRANCH  18  21
HETATM   21  N8  UNL     1      -4.135   2.685   1.050  1.00  0.00    -0.380 N 
ATOM     22  H82 UNL     1      -3.716   3.305   0.356  1.00  0.00     0.158 HD
ATOM     23  H81 UNL     1      -4.630   1.992   0.489  1.00  0.00     0.158 HD
ENDBRANCH  18  21
ENDBRANCH  10  15
ENDBRANCH   9  10
ENDBRANCH   1   9
BRANCH   8  24
HETATM   24  N6  UNL     1      -5.697  -0.349   4.513  1.00  0.00    -0.094 N 
ATOM     25  H6  UNL     1      -4.808  -0.785   4.273  1.00  0.00     0.213 HD
BRANCH  24  26
HETATM   26  O4  UNL     1      -6.327  -0.118   3.424  1.00  0.00    -0.262 OA
BRANCH  26  27
HETATM   27  C16 UNL     1      -7.490  -0.829   3.054  1.00  0.00     0.240 C 
BRANCH  27  28
HETATM   28  C17 UNL     1      -8.691  -0.308   3.739  1.00  0.00    -0.030 A 
HETATM   29  C18 UNL     1      -9.326   0.852   3.404  1.00  0.00     0.026 A 
HETATM   30  C19 UNL     1     -10.441   1.231   4.125  1.00  0.00     0.090 A 
HETATM   31  N7  UNL     1     -10.936   0.506   5.149  1.00  0.00    -0.371 N 
HETATM   32  C20 UNL     1     -12.101   0.906   5.897  1.00  0.00     0.154 C 
HETATM   33  C21 UNL     1     -10.305  -0.623   5.463  1.00  0.00     0.090 A 
HETATM   34  C22 UNL     1      -9.192  -1.051   4.783  1.00  0.00     0.026 A 
ENDBRANCH  27  28
ENDBRANCH  26  27
ENDBRANCH  24  26
ENDBRANCH   8  24
BRANCH   4  35
HETATM   35  C5  UNL     1      -5.534  -0.360   9.977  1.00  0.00    -0.004 A 
HETATM   36  C6  UNL     1      -6.721  -0.403  10.671  1.00  0.00     0.014 A 
HETATM   37  C7  UNL     1      -6.781  -0.415  12.054  1.00  0.00     0.001 A 
HETATM   38  C8  UNL     1      -5.602  -0.385  12.744  1.00  0.00     0.000 A 
HETATM   39  C9  UNL     1      -4.409  -0.343  12.073  1.00  0.00     0.001 A 
HETATM   40  C10 UNL     1      -4.359  -0.330  10.687  1.00  0.00     0.014 A 
ENDBRANCH   4  35
BRANCH   5  41
HETATM   41  N4  UNL     1      -4.694  -2.449   8.397  1.00  0.00    -0.371 N 
ATOM     42  H4  UNL     1      -5.189  -2.834   9.201  1.00  0.00     0.161 HD
BRANCH  41  43
HETATM   43  C12 UNL     1      -3.444  -3.051   7.934  1.00  0.00     0.155 C 
BRANCH  43  44
HETATM   44  C13 UNL     1      -3.692  -4.518   7.699  1.00  0.00     0.159 C 
BRANCH  44  45
HETATM   45  O2  UNL     1      -4.875  -4.840   8.384  1.00  0.00    -0.392 OA
ATOM     46  H2  UNL     1      -5.493  -5.141   7.729  1.00  0.00     0.210 HD
ENDBRANCH  44  45
BRANCH  44  47
HETATM   47  C14 UNL     1      -3.969  -4.779   6.233  1.00  0.00     0.197 C 
BRANCH  47  48
HETATM   48  O3  UNL     1      -3.659  -3.620   5.539  1.00  0.00    -0.398 OA
ATOM     49  H3  UNL     1      -2.717  -3.608   5.414  1.00  0.00     0.209 HD
ENDBRANCH  47  48
ENDBRANCH  44  47
ENDBRANCH  43  44
ENDBRANCH  41  43
ENDBRANCH   5  41
TORSDOF 16
ENDMDL
MODEL 5
REMARK VINA RESULT: -7.787245074      2.920      5.081
REMARK  16 active torsions:
REMARK  status: ('A' for Active; 'I' for Inactive)
REMARK    1  A    between atoms: O1_2  and  N1_3 
REMARK    2  A    between atoms: C2_5  and  C3_6 
REMARK    3  A    between atoms: C2_5  and  C23_41 
REMARK    4  A    between atoms: C3_6  and  N2_7 
REMARK    5  A    between atoms: C4_10  and  C5_11 
REMARK    6  A    between atoms: C11_17  and  N4_18 
REMARK    7  A    between atoms: N4_18  and  C12_20 
REMARK    8  A    between atoms: C12_20  and  C13_21 
REMARK    9  A    between atoms: C13_21  and  O2_22 
REMARK   10  A    between atoms: C13_21  and  C14_24 
REMARK   11  A    between atoms: C14_24  and  O3_25 
REMARK   12  A    between atoms: C15_29  and  N6_30 
REMARK   13  A    between atoms: N6_30  and  O4_32 
REMARK   14  A    between atoms: O4_32  and  C16_33 
REMARK   15  A    between atoms: C16_33  and  C17_34 
REMARK   16  A    between atoms: C25_44  and  N8_45 
ROOT
HETATM    1  N2  UNL     1      -6.889   0.453   6.618  1.00  0.00    -0.116 N 
HETATM    2  N3  UNL     1      -6.843   0.376   7.941  1.00  0.00    -0.279 N 
ATOM      3  H3  UNL     1      -7.425   1.042   8.449  1.00  0.00     0.188 HD
HETATM    4  C4  UNL     1      -6.136  -0.459   8.680  1.00  0.00     0.103 A 
HETATM    5  C11 UNL     1      -5.351  -1.359   7.986  1.00  0.00     0.146 A 
HETATM    6  N5  UNL     1      -5.366  -1.317   6.658  1.00  0.00    -0.171 N 
ATOM      7  H5  UNL     1      -4.787  -1.984   6.148  1.00  0.00     0.186 HD
HETATM    8  C15 UNL     1      -6.128  -0.415   5.928  1.00  0.00     0.720 A 
ENDROOT
BRANCH   1   9
HETATM    9  C3  UNL     1      -7.737   1.371   5.936  1.00  0.00     0.229 C 
BRANCH   9  10
HETATM   10  C2  UNL     1      -8.956   0.816   5.307  1.00  0.00     0.079 C 
HETATM   11  N1  UNL     1      -9.811   0.327   6.072  1.00  0.00    -0.267 N 
ATOM     12  H1  UNL     1      -9.519   0.393   7.047  1.00  0.00     0.194 HD
BRANCH  11  13
HETATM   13  O1  UNL     1     -10.984  -0.248   5.960  1.00  0.00    -0.285 OA
HETATM   14  C1  UNL     1     -12.199   0.509   6.017  1.00  0.00     0.237 C 
ENDBRANCH  11  13
BRANCH  10  15
HETATM   15  C23 UNL     1      -9.186   0.889   3.828  1.00  0.00     0.067 A 
HETATM   16  C24 UNL     1      -9.934   1.900   3.276  1.00  0.00     0.084 A 
HETATM   17  S1  UNL     1      -9.928   1.489   1.594  1.00  0.00    -0.064 SA
HETATM   18  C25 UNL     1      -8.986   0.078   1.711  1.00  0.00     0.142 A 
HETATM   19  N9  UNL     1      -8.724  -0.018   2.997  1.00  0.00    -0.335 N 
ATOM     20  H9  UNL     1      -8.163  -0.794   3.348  1.00  0.00     0.168 HD
BRANCH  18  21
HETATM   21  N8  UNL     1      -8.610  -0.725   0.747  1.00  0.00    -0.380 N 
ATOM     22  H82 UNL     1      -8.346  -0.482  -0.207  1.00  0.00     0.158 HD
ATOM     23  H81 UNL     1      -8.513  -1.740   0.776  1.00  0.00     0.158 HD
ENDBRANCH  18  21
ENDBRANCH  10  15
ENDBRANCH   9  10
ENDBRANCH   1   9
BRANCH   8  24
HETATM   24  N6  UNL     1      -5.967  -0.498   4.682  1.00  0.00    -0.094 N 
ATOM     25  H6  UNL     1      -5.604   0.397   4.356  1.00  0.00     0.213 HD
BRANCH  24  26
HETATM   26  O4  UNL     1      -6.082  -1.267   3.666  1.00  0.00    -0.262 OA
BRANCH  26  27
HETATM   27  C16 UNL     1      -4.997  -1.560   2.810  1.00  0.00     0.240 C 
BRANCH  27  28
HETATM   28  C17 UNL     1      -4.577  -0.375   2.034  1.00  0.00    -0.030 A 
HETATM   29  C18 UNL     1      -5.272   0.140   0.979  1.00  0.00     0.026 A 
HETATM   30  C19 UNL     1      -4.773   1.255   0.335  1.00  0.00     0.090 A 
HETATM   31  N7  UNL     1      -3.624   1.862   0.700  1.00  0.00    -0.371 N 
HETATM   32  C20 UNL     1      -3.108   3.025   0.024  1.00  0.00     0.154 C 
HETATM   33  C21 UNL     1      -2.959   1.347   1.730  1.00  0.00     0.090 A 
HETATM   34  C22 UNL     1      -3.405   0.241   2.409  1.00  0.00     0.026 A 
ENDBRANCH  27  28
ENDBRANCH  26  27
ENDBRANCH  24  26
ENDBRANCH   8  24
BRANCH   4  35
HETATM   35  C5  UNL     1      -6.169  -0.457  10.144  1.00  0.00    -0.004 A 
HETATM   36  C6  UNL     1      -4.980  -0.298  10.817  1.00  0.00     0.014 A 
HETATM   37  C7  UNL     1      -4.894  -0.290  12.198  1.00  0.00     0.001 A 
HETATM   38  C8  UNL     1      -6.050  -0.447  12.910  1.00  0.00     0.000 A 
HETATM   39  C9  UNL     1      -7.246  -0.606  12.261  1.00  0.00     0.001 A 
HETATM   40  C10 UNL     1      -7.321  -0.614  10.877  1.00  0.00     0.014 A 
ENDBRANCH   4  35
BRANCH   5  41
HETATM   41  N4  UNL     1      -4.646  -2.204   8.663  1.00  0.00    -0.371 N 
ATOM     42  H4  UNL     1      -4.954  -2.519   9.583  1.00  0.00     0.161 HD
BRANCH  41  43
HETATM   43  C12 UNL     1      -3.398  -2.701   8.085  1.00  0.00     0.155 C 
BRANCH  43  44
HETATM   44  C13 UNL     1      -3.521  -4.193   7.922  1.00  0.00     0.159 C 
BRANCH  44  45
HETATM   45  O2  UNL     1      -4.831  -4.532   8.297  1.00  0.00    -0.392 OA
ATOM     46  H2  UNL     1      -4.997  -4.097   9.125  1.00  0.00     0.210 HD
ENDBRANCH  44  45
BRANCH  44  47
HETATM   47  C14 UNL     1      -3.388  -4.577   6.462  1.00  0.00     0.197 C 
BRANCH  47  48
HETATM   48  O3  UNL     1      -3.673  -3.450   5.709  1.00  0.00    -0.398 OA
ATOM     49  H3  UNL     1      -3.183  -2.726   6.083  1.00  0.00     0.209 HD
ENDBRANCH  47  48
ENDBRANCH  44  47
ENDBRANCH  43  44
ENDBRANCH  41  43
ENDBRANCH   5  41
TORSDOF 16
ENDMDL
