MODEL 1
REMARK VINA RESULT: -8.555490464      0.000      0.000
REMARK  16 active torsions:
REMARK  status: ('A' for Active; 'I' for Inactive)
REMARK    1  A    between atoms: C2_2  and  N1_3 
REMARK    2  A    between atoms: N1_3  and  C4_5 
REMARK    3  A    between atoms: C5_6  and  O1_7 
REMARK    4  A    between atoms: C6_9  and  C7_10 
REMARK    5  A    between atoms: C7_10  and  O2_11 
REMARK    6  A    between atoms: O2_11  and  C8_12 
REMARK    7  A    between atoms: C9_14  and  C10_15 
REMARK    8  A    between atoms: C10_15  and  O4_16 
REMARK    9  A    between atoms: C11_18  and  O5_19 
REMARK   10  A    between atoms: C12_21  and  O6_22 
REMARK   11  A    between atoms: O6_22  and  C13_23 
REMARK   12  A    between atoms: C13_23  and  C14_25 
REMARK   13  A    between atoms: C20_31  and  O8_32 
REMARK   14  A    between atoms: C21_35  and  C22_36 
REMARK   15  A    between atoms: C22_36  and  O10_37 
REMARK   16  A    between atoms: C22_36  and  C23_39 
ROOT
HETATM    1  C8  UNL     1      -4.296  -0.714   6.383  1.00  0.00     0.291 C 
HETATM    2  O3  UNL     1      -4.073  -1.930   5.788  1.00  0.00    -0.348 OA
HETATM    3  C9  UNL     1      -4.237  -3.023   6.614  1.00  0.00     0.179 C 
HETATM    4  C11 UNL     1      -3.367  -2.908   7.870  1.00  0.00     0.181 C 
HETATM    5  C12 UNL     1      -3.842  -1.682   8.578  1.00  0.00     0.197 C 
HETATM    6  C20 UNL     1      -3.569  -0.505   7.671  1.00  0.00     0.205 C 
ENDROOT
BRANCH   1   7
HETATM    7  O2  UNL     1      -4.056   0.282   5.449  1.00  0.00    -0.356 OA
BRANCH   7   8
HETATM    8  C7  UNL     1      -3.824  -0.223   4.177  1.00  0.00     0.205 C 
BRANCH   8   9
HETATM    9  C6  UNL     1      -4.783   0.362   3.163  1.00  0.00     0.176 C 
HETATM   10  C5  UNL     1      -5.346  -0.645   2.232  1.00  0.00     0.174 C 
HETATM   11  C4  UNL     1      -6.725  -0.911   2.806  1.00  0.00     0.146 C 
HETATM   12  C21 UNL     1      -6.988   0.340   3.580  1.00  0.00     0.180 C 
HETATM   13  O9  UNL     1      -5.804   0.984   3.835  1.00  0.00    -0.371 OA
BRANCH  10  14
HETATM   14  O1  UNL     1      -4.598  -1.787   2.070  1.00  0.00    -0.391 OA
ATOM     15  H1  UNL     1      -3.676  -1.661   2.263  1.00  0.00     0.210 HD
ENDBRANCH  10  14
BRANCH  11  16
HETATM   16  N1  UNL     1      -7.638  -1.261   1.820  1.00  0.00    -0.388 N 
HETATM   17  C3  UNL     1      -7.898  -0.370   0.757  1.00  0.00     0.149 C 
BRANCH  16  18
HETATM   18  C2  UNL     1      -8.328  -2.471   1.861  1.00  0.00     0.054 C 
HETATM   19  C1  UNL     1      -7.620  -3.471   2.713  1.00  0.00     0.054 C 
ENDBRANCH  16  18
ENDBRANCH  11  16
BRANCH  12  20
HETATM   20  C22 UNL     1      -7.644   0.049   4.927  1.00  0.00     0.182 C 
BRANCH  20  21
HETATM   21  O10 UNL     1      -7.572  -1.284   5.276  1.00  0.00    -0.388 OA
ATOM     22  H10 UNL     1      -7.862  -1.445   6.166  1.00  0.00     0.210 HD
ENDBRANCH  20  21
BRANCH  20  23
HETATM   23  C23 UNL     1      -9.066   0.454   4.863  1.00  0.00    -0.027 A 
HETATM   24  C24 UNL     1      -9.945  -0.054   5.809  1.00  0.00     0.010 A 
HETATM   25  C25 UNL     1     -11.279   0.289   5.794  1.00  0.00     0.001 A 
HETATM   26  C26 UNL     1     -11.767   1.146   4.836  1.00  0.00     0.000 A 
HETATM   27  C27 UNL     1     -10.885   1.655   3.888  1.00  0.00     0.001 A 
HETATM   28  C28 UNL     1      -9.552   1.314   3.900  1.00  0.00     0.010 A 
ENDBRANCH  20  23
ENDBRANCH  12  20
ENDBRANCH   8   9
ENDBRANCH   7   8
ENDBRANCH   1   7
BRANCH   6  29
HETATM   29  O8  UNL     1      -2.199  -0.337   7.503  1.00  0.00    -0.388 OA
ATOM     30  H8  UNL     1      -1.769   0.013   8.274  1.00  0.00     0.210 HD
ENDBRANCH   6  29
BRANCH   3  31
HETATM   31  C10 UNL     1      -3.731  -4.232   5.859  1.00  0.00     0.198 C 
BRANCH  31  32
HETATM   32  O4  UNL     1      -2.393  -4.483   6.158  1.00  0.00    -0.398 OA
ATOM     33  H4  UNL     1      -2.098  -5.287   5.747  1.00  0.00     0.209 HD
ENDBRANCH  31  32
ENDBRANCH   3  31
BRANCH   5  34
HETATM   34  O6  UNL     1      -3.340  -1.509   9.870  1.00  0.00    -0.306 OA
BRANCH  34  35
HETATM   35  C13 UNL     1      -3.688  -0.470  10.709  1.00  0.00     0.293 C 
HETATM   36  O7  UNL     1      -2.860   0.459  10.829  1.00  0.00    -0.259 OA
BRANCH  35  37
HETATM   37  C14 UNL     1      -4.983  -0.476  11.422  1.00  0.00     0.039 A 
HETATM   38  C15 UNL     1      -6.168  -0.416  10.728  1.00  0.00     0.017 A 
HETATM   39  C16 UNL     1      -7.392  -0.422  11.368  1.00  0.00     0.001 A 
HETATM   40  C17 UNL     1      -7.390  -0.492  12.743  1.00  0.00     0.000 A 
HETATM   41  C18 UNL     1      -6.222  -0.553  13.475  1.00  0.00     0.001 A 
HETATM   42  C19 UNL     1      -5.029  -0.545  12.791  1.00  0.00     0.017 A 
ENDBRANCH  35  37
ENDBRANCH  34  35
ENDBRANCH   5  34
BRANCH   4  43
HETATM   43  O5  UNL     1      -3.550  -4.076   8.606  1.00  0.00    -0.390 OA
ATOM     44  H5  UNL     1      -2.695  -4.474   8.718  1.00  0.00     0.210 HD
ENDBRANCH   4  43
TORSDOF 16
ENDMDL
MODEL 2
REMARK VINA RESULT: -8.547341910      0.407      1.410
REMARK  16 active torsions:
REMARK  status: ('A' for Active; 'I' for Inactive)
REMARK    1  A    between atoms: C2_2  and  N1_3 
REMARK    2  A    between atoms: N1_3  and  C4_5 
REMARK    3  A    between atoms: C5_6  and  O1_7 
REMARK    4  A    between atoms: C6_9  and  C7_10 
REMARK    5  A    between atoms: C7_10  and  O2_11 
REMARK    6  A    between atoms: O2_11  and  C8_12 
REMARK    7  A    between atoms: C9_14  and  C10_15 
REMARK    8  A    between atoms: C10_15  and  O4_16 
REMARK    9  A    between atoms: C11_18  and  O5_19 
REMARK   10  A    between atoms: C12_21  and  O6_22 
REMARK   11  A    between atoms: O6_22  and  C13_23 
REMARK   12  A    between atoms: C13_23  and  C14_25 
REMARK   13  A    between atoms: C20_31  and  O8_32 
REMARK   14  A    between atoms: C21_35  and  C22_36 
REMARK   15  A    between atoms: C22_36  and  O10_37 
REMARK   16  A    between atoms: C22_36  and  C23_39 
ROOT
HETATM    1  C8  UNL     1      -4.339  -0.770   6.561  1.00  0.00     0.291 C 
HETATM    2  O3  UNL     1      -4.081  -1.984   5.976  1.00  0.00    -0.348 OA
HETATM    3  C9  UNL     1      -4.143  -3.068   6.826  1.00  0.00     0.179 C 
HETATM    4  C11 UNL     1      -3.219  -2.882   8.034  1.00  0.00     0.181 C 
HETATM    5  C12 UNL     1      -3.724  -1.670   8.745  1.00  0.00     0.197 C 
HETATM    6  C20 UNL     1      -3.562  -0.498   7.806  1.00  0.00     0.205 C 
ENDROOT
BRANCH   1   7
HETATM    7  O2  UNL     1      -4.201   0.218   5.599  1.00  0.00    -0.356 OA
BRANCH   7   8
HETATM    8  C7  UNL     1      -3.968  -0.297   4.332  1.00  0.00     0.205 C 
BRANCH   8   9
HETATM    9  C6  UNL     1      -4.973   0.221   3.326  1.00  0.00     0.176 C 
HETATM   10  C5  UNL     1      -5.413  -0.802   2.349  1.00  0.00     0.174 C 
HETATM   11  C4  UNL     1      -6.761  -1.239   2.890  1.00  0.00     0.146 C 
HETATM   12  C21 UNL     1      -7.167  -0.057   3.708  1.00  0.00     0.180 C 
HETATM   13  O9  UNL     1      -6.063   0.700   4.006  1.00  0.00    -0.371 OA
BRANCH  10  14
HETATM   14  O1  UNL     1      -4.543  -1.850   2.154  1.00  0.00    -0.391 OA
ATOM     15  H1  UNL     1      -4.805  -2.426   1.445  1.00  0.00     0.210 HD
ENDBRANCH  10  14
BRANCH  11  16
HETATM   16  N1  UNL     1      -7.619  -1.647   1.877  1.00  0.00    -0.388 N 
HETATM   17  C3  UNL     1      -8.208  -2.927   1.931  1.00  0.00     0.149 C 
BRANCH  16  18
HETATM   18  C2  UNL     1      -7.901  -0.826   0.787  1.00  0.00     0.054 C 
HETATM   19  C1  UNL     1      -9.005   0.129   1.096  1.00  0.00     0.054 C 
ENDBRANCH  16  18
ENDBRANCH  11  16
BRANCH  12  20
HETATM   20  C22 UNL     1      -7.802  -0.471   5.032  1.00  0.00     0.182 C 
BRANCH  20  21
HETATM   21  O10 UNL     1      -7.755  -1.835   5.240  1.00  0.00    -0.388 OA
ATOM     22  H10 UNL     1      -8.532  -2.280   4.924  1.00  0.00     0.210 HD
ENDBRANCH  20  21
BRANCH  20  23
HETATM   23  C23 UNL     1      -9.215  -0.033   5.042  1.00  0.00    -0.027 A 
HETATM   24  C24 UNL     1      -9.543   1.171   4.435  1.00  0.00     0.010 A 
HETATM   25  C25 UNL     1     -10.843   1.626   4.416  1.00  0.00     0.001 A 
HETATM   26  C26 UNL     1     -11.846   0.892   5.005  1.00  0.00     0.000 A 
HETATM   27  C27 UNL     1     -11.517  -0.314   5.614  1.00  0.00     0.001 A 
HETATM   28  C28 UNL     1     -10.219  -0.772   5.634  1.00  0.00     0.010 A 
ENDBRANCH  20  23
ENDBRANCH  12  20
ENDBRANCH   8   9
ENDBRANCH   7   8
ENDBRANCH   1   7
BRANCH   6  29
HETATM   29  O8  UNL     1      -2.213  -0.260   7.565  1.00  0.00    -0.388 OA
ATOM     30  H8  UNL     1      -1.694  -0.213   8.361  1.00  0.00     0.210 HD
ENDBRANCH   6  29
BRANCH   3  31
HETATM   31  C10 UNL     1      -3.611  -4.262   6.067  1.00  0.00     0.198 C 
BRANCH  31  32
HETATM   32  O4  UNL     1      -2.242  -4.419   6.279  1.00  0.00    -0.398 OA
ATOM     33  H4  UNL     1      -1.982  -5.325   6.165  1.00  0.00     0.209 HD
ENDBRANCH  31  32
ENDBRANCH   3  31
BRANCH   5  34
HETATM   34  O6  UNL     1      -3.168  -1.445  10.007  1.00  0.00    -0.306 OA
BRANCH  34  35
HETATM   35  C13 UNL     1      -3.534  -0.414  10.847  1.00  0.00     0.293 C 
HETATM   36  O7  UNL     1      -2.721   0.527  10.974  1.00  0.00    -0.259 OA
BRANCH  35  37
HETATM   37  C14 UNL     1      -4.832  -0.440  11.555  1.00  0.00     0.039 A 
HETATM   38  C15 UNL     1      -4.885  -0.577  12.922  1.00  0.00     0.017 A 
HETATM   39  C16 UNL     1      -6.082  -0.602  13.609  1.00  0.00     0.001 A 
HETATM   40  C17 UNL     1      -7.241  -0.485  12.873  1.00  0.00     0.000 A 
HETATM   41  C18 UNL     1      -7.228  -0.347  11.500  1.00  0.00     0.001 A 
HETATM   42  C19 UNL     1      -6.010  -0.327  10.863  1.00  0.00     0.017 A 
ENDBRANCH  35  37
ENDBRANCH  34  35
ENDBRANCH   5  34
BRANCH   4  43
HETATM   43  O5  UNL     1      -3.301  -4.044   8.798  1.00  0.00    -0.390 OA
ATOM     44  H5  UNL     1      -2.431  -4.423   8.827  1.00  0.00     0.210 HD
ENDBRANCH   4  43
TORSDOF 16
ENDMDL
MODEL 3
REMARK VINA RESULT: -8.463962551      2.025      3.749
REMARK  16 active torsions:
REMARK  status: ('A' for Active; 'I' for Inactive)
REMARK    1  A    between atoms: C2_2  and  N1_3 
REMARK    2  A    between atoms: N1_3  and  C4_5 
REMARK    3  A    between atoms: C5_6  and  O1_7 
REMARK    4  A    between atoms: C6_9  and  C7_10 
REMARK    5  A    between atoms: C7_10  and  O2_11 
REMARK    6  A    between atoms: O2_11  and  C8_12 
REMARK    7  A    between atoms: C9_14  and  C10_15 
REMARK    8  A    between atoms: C10_15  and  O4_16 
REMARK    9  A    between atoms: C11_18  and  O5_19 
REMARK   10  A    between atoms: C12_21  and  O6_22 
REMARK   11  A    between atoms: O6_22  and  C13_23 
REMARK   12  A    between atoms: C13_23  and  C14_25 
REMARK   13  A    between atoms: C20_31  and  O8_32 
REMARK   14  A    between atoms: C21_35  and  C22_36 
REMARK   15  A    between atoms: C22_36  and  O10_37 
REMARK   16  A    between atoms: C22_36  and  C23_39 
ROOT
HETATM    1  C8  UNL     1      -5.541  -2.294   5.667  1.00  0.00     0.291 C 
HETATM    2  O3  UNL     1      -4.378  -3.011   5.795  1.00  0.00    -0.348 OA
HETATM    3  C9  UNL     1      -3.976  -3.245   7.094  1.00  0.00     0.179 C 
HETATM    4  C11 UNL     1      -3.855  -1.939   7.885  1.00  0.00     0.181 C 
HETATM    5  C12 UNL     1      -5.225  -1.345   7.895  1.00  0.00     0.197 C 
HETATM    6  C20 UNL     1      -5.588  -1.031   6.462  1.00  0.00     0.205 C 
ENDROOT
BRANCH   1   7
HETATM    7  O2  UNL     1      -5.793  -2.104   4.318  1.00  0.00    -0.356 OA
BRANCH   7   8
HETATM    8  C7  UNL     1      -6.609  -3.090   3.781  1.00  0.00     0.205 C 
BRANCH   8   9
HETATM    9  C6  UNL     1      -7.624  -2.511   2.820  1.00  0.00     0.176 C 
HETATM   10  C5  UNL     1      -8.588  -1.588   3.464  1.00  0.00     0.174 C 
HETATM   11  C4  UNL     1      -8.044  -0.217   3.108  1.00  0.00     0.146 C 
HETATM   12  C21 UNL     1      -7.243  -0.509   1.880  1.00  0.00     0.180 C 
HETATM   13  O9  UNL     1      -6.953  -1.849   1.824  1.00  0.00    -0.371 OA
BRANCH  10  14
HETATM   14  O1  UNL     1      -8.766  -1.764   4.817  1.00  0.00    -0.391 OA
ATOM     15  H1  UNL     1      -8.418  -2.589   5.135  1.00  0.00     0.210 HD
ENDBRANCH  10  14
BRANCH  11  16
HETATM   16  N1  UNL     1      -9.053   0.731   3.008  1.00  0.00    -0.388 N 
HETATM   17  C3  UNL     1      -9.499   1.404   4.165  1.00  0.00     0.149 C 
BRANCH  16  18
HETATM   18  C2  UNL     1      -9.659   1.026   1.788  1.00  0.00     0.054 C 
HETATM   19  C1  UNL     1      -9.707   2.498   1.546  1.00  0.00     0.054 C 
ENDBRANCH  16  18
ENDBRANCH  11  16
BRANCH  12  20
HETATM   20  C22 UNL     1      -5.915   0.242   1.874  1.00  0.00     0.182 C 
BRANCH  20  21
HETATM   21  O10 UNL     1      -5.457   0.522   3.146  1.00  0.00    -0.388 OA
ATOM     22  H10 UNL     1      -4.939   1.318   3.180  1.00  0.00     0.210 HD
ENDBRANCH  20  21
BRANCH  20  23
HETATM   23  C23 UNL     1      -6.087   1.512   1.135  1.00  0.00    -0.027 A 
HETATM   24  C24 UNL     1      -5.946   2.708   1.824  1.00  0.00     0.010 A 
HETATM   25  C25 UNL     1      -6.096   3.918   1.185  1.00  0.00     0.001 A 
HETATM   26  C26 UNL     1      -6.393   3.965  -0.157  1.00  0.00     0.000 A 
HETATM   27  C27 UNL     1      -6.536   2.766  -0.848  1.00  0.00     0.001 A 
HETATM   28  C28 UNL     1      -6.386   1.554  -0.211  1.00  0.00     0.010 A 
ENDBRANCH  20  23
ENDBRANCH  12  20
ENDBRANCH   8   9
ENDBRANCH   7   8
ENDBRANCH   1   7
BRANCH   6  29
HETATM   29  O8  UNL     1      -4.751  -0.040   5.961  1.00  0.00    -0.388 OA
ATOM     30  H8  UNL     1      -5.224   0.699   5.596  1.00  0.00     0.210 HD
ENDBRANCH   6  29
BRANCH   3  31
HETATM   31  C10 UNL     1      -2.584  -3.832   7.031  1.00  0.00     0.198 C 
BRANCH  31  32
HETATM   32  O4  UNL     1      -2.430  -4.629   5.898  1.00  0.00    -0.398 OA
ATOM     33  H4  UNL     1      -1.961  -4.163   5.215  1.00  0.00     0.209 HD
ENDBRANCH  31  32
ENDBRANCH   3  31
BRANCH   5  34
HETATM   34  O6  UNL     1      -5.397  -0.259   8.757  1.00  0.00    -0.306 OA
BRANCH  34  35
HETATM   35  C13 UNL     1      -6.444  -0.128   9.646  1.00  0.00     0.293 C 
HETATM   36  O7  UNL     1      -7.561   0.157   9.165  1.00  0.00    -0.259 OA
BRANCH  35  37
HETATM   37  C14 UNL     1      -6.231  -0.321  11.096  1.00  0.00     0.039 A 
HETATM   38  C15 UNL     1      -7.297  -0.490  11.947  1.00  0.00     0.017 A 
HETATM   39  C16 UNL     1      -7.127  -0.675  13.305  1.00  0.00     0.001 A 
HETATM   40  C17 UNL     1      -5.838  -0.685  13.790  1.00  0.00     0.000 A 
HETATM   41  C18 UNL     1      -4.743  -0.518  12.968  1.00  0.00     0.001 A 
HETATM   42  C19 UNL     1      -4.965  -0.339  11.623  1.00  0.00     0.017 A 
ENDBRANCH  35  37
ENDBRANCH  34  35
ENDBRANCH   5  34
BRANCH   4  43
HETATM   43  O5  UNL     1      -3.388  -2.268   9.155  1.00  0.00    -0.390 OA
ATOM     44  H5  UNL     1      -2.922  -3.092   9.077  1.00  0.00     0.210 HD
ENDBRANCH   4  43
TORSDOF 16
ENDMDL
MODEL 4
REMARK VINA RESULT: -8.338069165      2.232      3.827
REMARK  16 active torsions:
REMARK  status: ('A' for Active; 'I' for Inactive)
REMARK    1  A    between atoms: C2_2  and  N1_3 
REMARK    2  A    between atoms: N1_3  and  C4_5 
REMARK    3  A    between atoms: C5_6  and  O1_7 
REMARK    4  A    between atoms: C6_9  and  C7_10 
REMARK    5  A    between atoms: C7_10  and  O2_11 
REMARK    6  A    between atoms: O2_11  and  C8_12 
REMARK    7  A    between atoms: C9_14  and  C10_15 
REMARK    8  A    between atoms: C10_15  and  O4_16 
REMARK    9  A    between atoms: C11_18  and  O5_19 
REMARK   10  A    between atoms: C12_21  and  O6_22 
REMARK   11  A    between atoms: O6_22  and  C13_23 
REMARK   12  A    between atoms: C13_23  and  C14_25 
REMARK   13  A    between atoms: C20_31  and  O8_32 
REMARK   14  A    between atoms: C21_35  and  C22_36 
REMARK   15  A    between atoms: C22_36  and  O10_37 
REMARK   16  A    between atoms: C22_36  and  C23_39 
ROOT
HETATM    1  C8  UNL     1      -5.425  -2.695   4.399  1.00  0.00     0.291 C 
HETATM    2  O3  UNL     1      -4.638  -3.792   4.642  1.00  0.00    -0.348 OA
HETATM    3  C9  UNL     1      -4.507  -4.133   5.972  1.00  0.00     0.179 C 
HETATM    4  C11 UNL     1      -3.997  -2.951   6.803  1.00  0.00     0.181 C 
HETATM    5  C12 UNL     1      -5.036  -1.887   6.670  1.00  0.00     0.197 C 
HETATM    6  C20 UNL     1      -5.087  -1.489   5.214  1.00  0.00     0.205 C 
ENDROOT
BRANCH   1   7
HETATM    7  O2  UNL     1      -5.429  -2.452   3.034  1.00  0.00    -0.356 OA
BRANCH   7   8
HETATM    8  C7  UNL     1      -6.681  -2.086   2.560  1.00  0.00     0.205 C 
BRANCH   8   9
HETATM    9  C6  UNL     1      -6.624  -0.791   1.780  1.00  0.00     0.176 C 
HETATM   10  C5  UNL     1      -7.960  -0.244   1.443  1.00  0.00     0.174 C 
HETATM   11  C4  UNL     1      -8.160   0.842   2.483  1.00  0.00     0.146 C 
HETATM   12  C21 UNL     1      -6.754   1.166   2.870  1.00  0.00     0.180 C 
HETATM   13  O9  UNL     1      -5.926   0.132   2.516  1.00  0.00    -0.371 OA
BRANCH  10  14
HETATM   14  O1  UNL     1      -8.986  -1.160   1.413  1.00  0.00    -0.391 OA
ATOM     15  H1  UNL     1      -8.688  -2.058   1.503  1.00  0.00     0.210 HD
ENDBRANCH  10  14
BRANCH  11  16
HETATM   16  N1  UNL     1      -8.952   1.878   2.005  1.00  0.00    -0.388 N 
HETATM   17  C3  UNL     1      -8.433   2.769   1.042  1.00  0.00     0.149 C 
BRANCH  16  18
HETATM   18  C2  UNL     1     -10.250   2.077   2.469  1.00  0.00     0.054 C 
HETATM   19  C1  UNL     1     -11.254   1.867   1.385  1.00  0.00     0.054 C 
ENDBRANCH  16  18
ENDBRANCH  11  16
BRANCH  12  20
HETATM   20  C22 UNL     1      -6.609   1.367   4.376  1.00  0.00     0.182 C 
BRANCH  20  21
HETATM   21  O10 UNL     1      -7.796   1.727   4.980  1.00  0.00    -0.388 OA
ATOM     22  H10 UNL     1      -7.779   1.602   5.922  1.00  0.00     0.210 HD
ENDBRANCH  20  21
BRANCH  20  23
HETATM   23  C23 UNL     1      -5.604   2.424   4.623  1.00  0.00    -0.027 A 
HETATM   24  C24 UNL     1      -5.563   3.517   3.769  1.00  0.00     0.010 A 
HETATM   25  C25 UNL     1      -4.647   4.528   3.953  1.00  0.00     0.001 A 
HETATM   26  C26 UNL     1      -3.750   4.474   4.994  1.00  0.00     0.000 A 
HETATM   27  C27 UNL     1      -3.790   3.378   5.850  1.00  0.00     0.001 A 
HETATM   28  C28 UNL     1      -4.705   2.366   5.668  1.00  0.00     0.010 A 
ENDBRANCH  20  23
ENDBRANCH  12  20
ENDBRANCH   8   9
ENDBRANCH   7   8
ENDBRANCH   1   7
BRANCH   6  29
HETATM   29  O8  UNL     1      -3.887  -0.895   4.836  1.00  0.00    -0.388 OA
ATOM     30  H8  UNL     1      -3.124  -1.385   5.120  1.00  0.00     0.210 HD
ENDBRANCH   6  29
BRANCH   3  31
HETATM   31  C10 UNL     1      -3.438  -5.200   6.055  1.00  0.00     0.198 C 
BRANCH  31  32
HETATM   32  O4  UNL     1      -2.165  -4.634   6.022  1.00  0.00    -0.398 OA
ATOM     33  H4  UNL     1      -1.520  -5.265   5.722  1.00  0.00     0.209 HD
ENDBRANCH  31  32
ENDBRANCH   3  31
BRANCH   5  34
HETATM   34  O6  UNL     1      -4.888  -0.799   7.533  1.00  0.00    -0.306 OA
BRANCH  34  35
HETATM   35  C13 UNL     1      -5.910  -0.251   8.280  1.00  0.00     0.293 C 
HETATM   36  O7  UNL     1      -6.850   0.278   7.648  1.00  0.00    -0.259 OA
BRANCH  35  37
HETATM   37  C14 UNL     1      -5.875  -0.298   9.757  1.00  0.00     0.039 A 
HETATM   38  C15 UNL     1      -4.677  -0.317  10.432  1.00  0.00     0.017 A 
HETATM   39  C16 UNL     1      -4.615  -0.358  11.811  1.00  0.00     0.001 A 
HETATM   40  C17 UNL     1      -5.806  -0.380  12.501  1.00  0.00     0.000 A 
HETATM   41  C18 UNL     1      -7.028  -0.362  11.860  1.00  0.00     0.001 A 
HETATM   42  C19 UNL     1      -7.036  -0.320  10.486  1.00  0.00     0.017 A 
ENDBRANCH  35  37
ENDBRANCH  34  35
ENDBRANCH   5  34
BRANCH   4  43
HETATM   43  O5  UNL     1      -3.838  -3.406   8.110  1.00  0.00    -0.390 OA
ATOM     44  H5  UNL     1      -4.294  -2.795   8.677  1.00  0.00     0.210 HD
ENDBRANCH   4  43
TORSDOF 16
ENDMDL
MODEL 5
REMARK VINA RESULT: -8.295403919      1.684      2.523
REMARK  16 active torsions:
REMARK  status: ('A' for Active; 'I' for Inactive)
REMARK    1  A    between atoms: C2_2  and  N1_3 
REMARK    2  A    between atoms: N1_3  and  C4_5 
REMARK    3  A    between atoms: C5_6  and  O1_7 
REMARK    4  A    between atoms: C6_9  and  C7_10 
REMARK    5  A    between atoms: C7_10  and  O2_11 
REMARK    6  A    between atoms: O2_11  and  C8_12 
REMARK    7  A    between atoms: C9_14  and  C10_15 
REMARK    8  A    between atoms: C10_15  and  O4_16 
REMARK    9  A    between atoms: C11_18  and  O5_19 
REMARK   10  A    between atoms: C12_21  and  O6_22 
REMARK   11  A    between atoms: O6_22  and  C13_23 
REMARK   12  A    between atoms: C13_23  and  C14_25 
REMARK   13  A    between atoms: C20_31  and  O8_32 
REMARK   14  A    between atoms: C21_35  and  C22_36 
REMARK   15  A    between atoms: C22_36  and  O10_37 
REMARK   16  A    between atoms: C22_36  and  C23_39 
ROOT
HETATM    1  C8  UNL     1      -2.637  -0.176   6.735  1.00  0.00     0.291 C 
HETATM    2  O3  UNL     1      -1.334   0.246   6.818  1.00  0.00    -0.348 OA
HETATM    3  C9  UNL     1      -0.785   0.203   8.083  1.00  0.00     0.179 C 
HETATM    4  C11 UNL     1      -1.636   0.989   9.086  1.00  0.00     0.181 C 
HETATM    5  C12 UNL     1      -2.966   0.312   9.105  1.00  0.00     0.197 C 
HETATM    6  C20 UNL     1      -3.562   0.454   7.724  1.00  0.00     0.205 C 
ENDROOT
BRANCH   1   7
HETATM    7  O2  UNL     1      -3.060  -0.038   5.422  1.00  0.00    -0.356 OA
BRANCH   7   8
HETATM    8  C7  UNL     1      -4.317  -0.585   5.205  1.00  0.00     0.205 C 
BRANCH   8   9
HETATM    9  C6  UNL     1      -5.096   0.203   4.175  1.00  0.00     0.176 C 
HETATM   10  C5  UNL     1      -5.412  -0.573   2.952  1.00  0.00     0.174 C 
HETATM   11  C4  UNL     1      -6.858  -0.980   3.166  1.00  0.00     0.146 C 
HETATM   12  C21 UNL     1      -7.335   0.058   4.129  1.00  0.00     0.180 C 
HETATM   13  O9  UNL     1      -6.261   0.642   4.750  1.00  0.00    -0.371 OA
BRANCH  10  14
HETATM   14  O1  UNL     1      -4.582  -1.639   2.695  1.00  0.00    -0.391 OA
ATOM     15  H1  UNL     1      -4.050  -1.888   3.442  1.00  0.00     0.210 HD
ENDBRANCH  10  14
BRANCH  11  16
HETATM   16  N1  UNL     1      -7.544  -1.109   1.966  1.00  0.00    -0.388 N 
HETATM   17  C3  UNL     1      -7.509  -0.061   1.023  1.00  0.00     0.149 C 
BRANCH  16  18
HETATM   18  C2  UNL     1      -8.290  -2.248   1.672  1.00  0.00     0.054 C 
HETATM   19  C1  UNL     1      -7.653  -3.476   2.233  1.00  0.00     0.054 C 
ENDBRANCH  16  18
ENDBRANCH  11  16
BRANCH  12  20
HETATM   20  C22 UNL     1      -8.219  -0.539   5.220  1.00  0.00     0.182 C 
BRANCH  20  21
HETATM   21  O10 UNL     1      -8.297  -1.915   5.146  1.00  0.00    -0.388 OA
ATOM     22  H10 UNL     1      -9.020  -2.267   5.652  1.00  0.00     0.210 HD
ENDBRANCH  20  21
BRANCH  20  23
HETATM   23  C23 UNL     1      -9.580   0.027   5.097  1.00  0.00    -0.027 A 
HETATM   24  C24 UNL     1      -9.808   1.012   4.147  1.00  0.00     0.010 A 
HETATM   25  C25 UNL     1     -11.056   1.573   3.991  1.00  0.00     0.001 A 
HETATM   26  C26 UNL     1     -12.106   1.166   4.780  1.00  0.00     0.000 A 
HETATM   27  C27 UNL     1     -11.877   0.179   5.733  1.00  0.00     0.001 A 
HETATM   28  C28 UNL     1     -10.631  -0.384   5.891  1.00  0.00     0.010 A 
ENDBRANCH  20  23
ENDBRANCH  12  20
ENDBRANCH   8   9
ENDBRANCH   7   8
ENDBRANCH   1   7
BRANCH   6  29
HETATM   29  O8  UNL     1      -3.824   1.792   7.450  1.00  0.00    -0.388 OA
ATOM     30  H8  UNL     1      -4.736   1.957   7.238  1.00  0.00     0.210 HD
ENDBRANCH   6  29
BRANCH   3  31
HETATM   31  C10 UNL     1       0.549   0.911   8.014  1.00  0.00     0.198 C 
BRANCH  31  32
HETATM   32  O4  UNL     1       1.436   0.396   8.958  1.00  0.00    -0.398 OA
ATOM     33  H4  UNL     1       2.023   1.072   9.277  1.00  0.00     0.209 HD
ENDBRANCH  31  32
ENDBRANCH   3  31
BRANCH   5  34
HETATM   34  O6  UNL     1      -3.830   0.723  10.122  1.00  0.00    -0.306 OA
BRANCH  34  35
HETATM   35  C13 UNL     1      -4.111  -0.014  11.254  1.00  0.00     0.293 C 
HETATM   36  O7  UNL     1      -3.134  -0.437  11.909  1.00  0.00    -0.259 OA
BRANCH  35  37
HETATM   37  C14 UNL     1      -5.509  -0.282  11.653  1.00  0.00     0.039 A 
HETATM   38  C15 UNL     1      -6.501  -0.399  10.708  1.00  0.00     0.017 A 
HETATM   39  C16 UNL     1      -7.814  -0.651  11.053  1.00  0.00     0.001 A 
HETATM   40  C17 UNL     1      -8.106  -0.783  12.392  1.00  0.00     0.000 A 
HETATM   41  C18 UNL     1      -7.139  -0.671  13.370  1.00  0.00     0.001 A 
HETATM   42  C19 UNL     1      -5.846  -0.421  12.975  1.00  0.00     0.017 A 
ENDBRANCH  35  37
ENDBRANCH  34  35
ENDBRANCH   5  34
BRANCH   4  43
HETATM   43  O5  UNL     1      -0.975   0.942  10.311  1.00  0.00    -0.390 OA
ATOM     44  H5  UNL     1      -0.982   1.822  10.668  1.00  0.00     0.210 HD
ENDBRANCH   4  43
TORSDOF 16
ENDMDL
