MODEL 1
REMARK VINA RESULT: -8.735634773      0.000      0.000
REMARK  13 active torsions:
REMARK  status: ('A' for Active; 'I' for Inactive)
REMARK    1  A    between atoms: C5_9  and  N3_10 
REMARK    2  A    between atoms: C8_17  and  N6_18 
REMARK    3  A    between atoms: N7_21  and  C11_22 
REMARK    4  A    between atoms: C14_25  and  O1_26 
REMARK    5  A    between atoms: C16_29  and  C17_30 
REMARK    6  A    between atoms: N8_31  and  O2_33 
REMARK    7  A    between atoms: O2_33  and  C18_34 
REMARK    8  A    between atoms: C18_34  and  C19_35 
REMARK    9  A    between atoms: C19_35  and  O3_36 
REMARK   10  A    between atoms: O3_36  and  C20_37 
REMARK   11  A    between atoms: C20_37  and  C21_38 
REMARK   12  A    between atoms: C21_38  and  N9_39 
REMARK   13  A    between atoms: C24_42  and  O4_43 
ROOT
HETATM    1  N3  UNL     1      -7.868  -1.808   2.423  1.00  0.00    -0.278 N 
ATOM      2  H3  UNL     1      -8.377  -1.043   1.980  1.00  0.00     0.179 HD
HETATM    3  C6  UNL     1      -8.063  -3.144   2.028  1.00  0.00     0.183 C 
HETATM    4  N4  UNL     1      -8.220  -4.254   1.722  1.00  0.00    -0.172 NA
ENDROOT
BRANCH   1   5
HETATM    5  C5  UNL     1      -6.916  -1.567   3.483  1.00  0.00     0.140 A 
HETATM    6  C4  UNL     1      -6.526  -0.345   3.775  1.00  0.00     0.110 A 
HETATM    7  N1  UNL     1      -6.846   0.857   3.261  1.00  0.00    -0.323 N 
HETATM    8  C3  UNL     1      -5.618  -0.171   4.791  1.00  0.00     0.089 A 
HETATM    9  C1  UNL     1      -7.751   1.181   2.190  1.00  0.00     0.159 C 
HETATM   10  C2  UNL     1      -6.136   1.760   3.960  1.00  0.00     0.179 A 
HETATM   11  S1  UNL     1      -6.153   3.395   3.738  1.00  0.00    -0.040 SA
HETATM   12  N2  UNL     1      -5.396   1.159   4.880  1.00  0.00    -0.329 N 
ATOM     13  H2  UNL     1      -4.768   1.620   5.539  1.00  0.00     0.168 HD
HETATM   14  C8  UNL     1      -5.116  -1.169   5.489  1.00  0.00     0.054 A 
HETATM   15  C7  UNL     1      -5.488  -2.568   5.238  1.00  0.00     0.180 A 
HETATM   16  N5  UNL     1      -6.433  -2.702   4.172  1.00  0.00    -0.368 N 
ATOM     17  H5  UNL     1      -6.764  -3.630   3.908  1.00  0.00     0.161 HD
BRANCH  14  18
HETATM   18  N6  UNL     1      -4.166  -0.845   6.537  1.00  0.00    -0.378 N 
HETATM   19  C9  UNL     1      -3.760  -1.932   7.387  1.00  0.00     0.142 C 
HETATM   20  C10 UNL     1      -3.330  -1.390   8.721  1.00  0.00     0.143 C 
HETATM   21  N7  UNL     1      -4.157  -0.240   9.024  1.00  0.00    -0.377 N 
HETATM   22  C27 UNL     1      -3.947   0.920   8.156  1.00  0.00     0.143 C 
HETATM   23  C28 UNL     1      -3.638   0.473   6.742  1.00  0.00     0.142 C 
BRANCH  21  24
HETATM   24  C11 UNL     1      -5.092  -0.257  10.083  1.00  0.00     0.042 A 
HETATM   25  C12 UNL     1      -4.577  -0.239  11.388  1.00  0.00     0.033 A 
HETATM   26  C13 UNL     1      -5.428  -0.239  12.468  1.00  0.00     0.039 A 
HETATM   27  C14 UNL     1      -6.795  -0.256  12.280  1.00  0.00     0.066 A 
HETATM   28  C15 UNL     1      -7.339  -0.275  11.021  1.00  0.00     0.051 A 
HETATM   29  C16 UNL     1      -6.461  -0.276   9.925  1.00  0.00     0.010 A 
BRANCH  27  30
HETATM   30  O1  UNL     1      -7.646  -0.255  13.399  1.00  0.00    -0.361 OA
ATOM     31  H1  UNL     1      -8.588  -0.267  13.269  1.00  0.00     0.217 HD
ENDBRANCH  27  30
BRANCH  29  32
HETATM   32  C17 UNL     1      -6.994  -0.313   8.569  1.00  0.00     0.127 C 
HETATM   33  N8  UNL     1      -7.490   0.742   8.070  1.00  0.00    -0.277 N 
ATOM     34  H8  UNL     1      -7.492   1.581   8.650  1.00  0.00     0.193 HD
BRANCH  33  35
HETATM   35  O2  UNL     1      -8.020   0.841   6.816  1.00  0.00    -0.279 OA
BRANCH  35  36
HETATM   36  C18 UNL     1      -9.420   0.818   6.574  1.00  0.00     0.227 C 
BRANCH  36  37
HETATM   37  C19 UNL     1      -9.668  -0.234   5.516  1.00  0.00     0.196 C 
BRANCH  37  38
HETATM   38  O3  UNL     1     -10.270   0.271   4.388  1.00  0.00    -0.387 OA
BRANCH  38  39
HETATM   39  C20 UNL     1     -10.808   1.538   4.555  1.00  0.00     0.198 C 
BRANCH  39  40
HETATM   40  C21 UNL     1     -11.092   2.146   3.210  1.00  0.00     0.298 C 
BRANCH  40  41
HETATM   41  N9  UNL     1     -12.290   1.615   2.654  1.00  0.00     0.090 N 
HETATM   42  C22 UNL     1     -12.503   2.120   1.301  1.00  0.00     0.275 C 
HETATM   43  C23 UNL     1     -13.871   1.822   0.789  1.00  0.00     0.062 C 
HETATM   44  C24 UNL     1     -14.516   0.644   1.461  1.00  0.00     0.121 C 
HETATM   45  C25 UNL     1     -14.469   0.681   2.952  1.00  0.00     0.062 C 
HETATM   46  C26 UNL     1     -13.482   1.760   3.419  1.00  0.00     0.275 C 
BRANCH  44  47
HETATM   47  O4  UNL     1     -13.954  -0.569   1.030  1.00  0.00    -0.395 OA
ATOM     48  H4  UNL     1     -14.258  -1.301   1.554  1.00  0.00     0.210 HD
ENDBRANCH  44  47
ENDBRANCH  40  41
ENDBRANCH  39  40
ENDBRANCH  38  39
ENDBRANCH  37  38
ENDBRANCH  36  37
ENDBRANCH  35  36
ENDBRANCH  33  35
ENDBRANCH  29  32
ENDBRANCH  21  24
ENDBRANCH  14  18
ENDBRANCH   1   5
TORSDOF 13
ENDMDL
MODEL 2
REMARK VINA RESULT: -8.476371613      4.769     10.633
REMARK  13 active torsions:
REMARK  status: ('A' for Active; 'I' for Inactive)
REMARK    1  A    between atoms: C5_9  and  N3_10 
REMARK    2  A    between atoms: C8_17  and  N6_18 
REMARK    3  A    between atoms: N7_21  and  C11_22 
REMARK    4  A    between atoms: C14_25  and  O1_26 
REMARK    5  A    between atoms: C16_29  and  C17_30 
REMARK    6  A    between atoms: N8_31  and  O2_33 
REMARK    7  A    between atoms: O2_33  and  C18_34 
REMARK    8  A    between atoms: C18_34  and  C19_35 
REMARK    9  A    between atoms: C19_35  and  O3_36 
REMARK   10  A    between atoms: O3_36  and  C20_37 
REMARK   11  A    between atoms: C20_37  and  C21_38 
REMARK   12  A    between atoms: C21_38  and  N9_39 
REMARK   13  A    between atoms: C24_42  and  O4_43 
ROOT
HETATM    1  N3  UNL     1      -9.804   1.759   3.634  1.00  0.00    -0.278 N 
ATOM      2  H3  UNL     1      -9.668   2.396   2.850  1.00  0.00     0.179 HD
HETATM    3  C6  UNL     1     -11.079   1.272   3.972  1.00  0.00     0.183 C 
HETATM    4  N4  UNL     1     -12.127   0.868   4.272  1.00  0.00    -0.172 NA
ENDROOT
BRANCH   1   5
HETATM    5  C5  UNL     1      -8.693   1.316   4.447  1.00  0.00     0.140 A 
HETATM    6  C4  UNL     1      -7.553   0.961   3.896  1.00  0.00     0.110 A 
HETATM    7  N1  UNL     1      -7.139   0.910   2.616  1.00  0.00    -0.323 N 
HETATM    8  C3  UNL     1      -6.529   0.547   4.714  1.00  0.00     0.089 A 
HETATM    9  C1  UNL     1      -7.853   1.245   1.413  1.00  0.00     0.159 C 
HETATM   10  C2  UNL     1      -5.870   0.468   2.653  1.00  0.00     0.179 A 
HETATM   11  S1  UNL     1      -4.887   0.221   1.351  1.00  0.00    -0.040 SA
HETATM   12  N2  UNL     1      -5.491   0.246   3.903  1.00  0.00    -0.329 N 
ATOM     13  H2  UNL     1      -4.576  -0.092   4.201  1.00  0.00     0.168 HD
HETATM   14  C8  UNL     1      -6.633   0.489   6.026  1.00  0.00     0.054 A 
HETATM   15  C7  UNL     1      -7.864   0.865   6.734  1.00  0.00     0.180 A 
HETATM   16  N5  UNL     1      -8.902   1.287   5.845  1.00  0.00    -0.368 N 
ATOM     17  H5  UNL     1      -9.805   1.571   6.224  1.00  0.00     0.161 HD
BRANCH  14  18
HETATM   18  N6  UNL     1      -5.474   0.035   6.772  1.00  0.00    -0.378 N 
HETATM   19  C9  UNL     1      -5.487  -1.339   7.196  1.00  0.00     0.142 C 
HETATM   20  C10 UNL     1      -4.623  -1.495   8.415  1.00  0.00     0.143 C 
HETATM   21  N7  UNL     1      -4.739  -0.285   9.203  1.00  0.00    -0.377 N 
HETATM   22  C27 UNL     1      -4.162   0.912   8.588  1.00  0.00     0.143 C 
HETATM   23  C28 UNL     1      -4.359   0.881   7.086  1.00  0.00     0.142 C 
BRANCH  21  24
HETATM   24  C11 UNL     1      -5.365  -0.282  10.469  1.00  0.00     0.042 A 
HETATM   25  C12 UNL     1      -6.752  -0.492  10.495  1.00  0.00     0.033 A 
HETATM   26  C13 UNL     1      -7.426  -0.517  11.693  1.00  0.00     0.039 A 
HETATM   27  C14 UNL     1      -6.746  -0.335  12.880  1.00  0.00     0.066 A 
HETATM   28  C15 UNL     1      -5.391  -0.126  12.899  1.00  0.00     0.051 A 
HETATM   29  C16 UNL     1      -4.713  -0.102  11.670  1.00  0.00     0.010 A 
BRANCH  27  30
HETATM   30  O1  UNL     1      -7.456  -0.365  14.094  1.00  0.00    -0.361 OA
ATOM     31  H1  UNL     1      -7.433  -1.149  14.629  1.00  0.00     0.217 HD
ENDBRANCH  27  30
BRANCH  29  32
HETATM   32  C17 UNL     1      -3.275   0.135  11.639  1.00  0.00     0.127 C 
HETATM   33  N8  UNL     1      -2.833   1.292  11.915  1.00  0.00    -0.277 N 
ATOM     34  H8  UNL     1      -3.515   2.013  12.150  1.00  0.00     0.193 HD
BRANCH  33  35
HETATM   35  O2  UNL     1      -1.513   1.644  11.922  1.00  0.00    -0.279 OA
BRANCH  35  36
HETATM   36  C18 UNL     1      -0.534   0.954  11.157  1.00  0.00     0.227 C 
BRANCH  36  37
HETATM   37  C19 UNL     1       0.766   1.040  11.925  1.00  0.00     0.196 C 
BRANCH  37  38
HETATM   38  O3  UNL     1       0.794   0.218  13.026  1.00  0.00    -0.387 OA
BRANCH  38  39
HETATM   39  C20 UNL     1       1.998   0.236  13.712  1.00  0.00     0.198 C 
BRANCH  39  40
HETATM   40  C21 UNL     1       2.061   1.456  14.587  1.00  0.00     0.298 C 
BRANCH  40  41
HETATM   41  N9  UNL     1       1.907   1.107  15.959  1.00  0.00     0.090 N 
HETATM   42  C22 UNL     1       2.568   2.085  16.820  1.00  0.00     0.275 C 
HETATM   43  C23 UNL     1       2.680   1.618  18.232  1.00  0.00     0.062 C 
HETATM   44  C24 UNL     1       1.652   0.587  18.602  1.00  0.00     0.121 C 
HETATM   45  C25 UNL     1       1.544  -0.550  17.641  1.00  0.00     0.062 C 
HETATM   46  C26 UNL     1       2.288  -0.210  16.341  1.00  0.00     0.275 C 
BRANCH  44  47
HETATM   47  O4  UNL     1       0.378   1.157  18.758  1.00  0.00    -0.395 OA
ATOM     48  H4  UNL     1      -0.105   1.164  17.940  1.00  0.00     0.210 HD
ENDBRANCH  44  47
ENDBRANCH  40  41
ENDBRANCH  39  40
ENDBRANCH  38  39
ENDBRANCH  37  38
ENDBRANCH  36  37
ENDBRANCH  35  36
ENDBRANCH  33  35
ENDBRANCH  29  32
ENDBRANCH  21  24
ENDBRANCH  14  18
ENDBRANCH   1   5
TORSDOF 13
ENDMDL
MODEL 3
REMARK VINA RESULT: -8.451722830      4.598     10.379
REMARK  13 active torsions:
REMARK  status: ('A' for Active; 'I' for Inactive)
REMARK    1  A    between atoms: C5_9  and  N3_10 
REMARK    2  A    between atoms: C8_17  and  N6_18 
REMARK    3  A    between atoms: N7_21  and  C11_22 
REMARK    4  A    between atoms: C14_25  and  O1_26 
REMARK    5  A    between atoms: C16_29  and  C17_30 
REMARK    6  A    between atoms: N8_31  and  O2_33 
REMARK    7  A    between atoms: O2_33  and  C18_34 
REMARK    8  A    between atoms: C18_34  and  C19_35 
REMARK    9  A    between atoms: C19_35  and  O3_36 
REMARK   10  A    between atoms: O3_36  and  C20_37 
REMARK   11  A    between atoms: C20_37  and  C21_38 
REMARK   12  A    between atoms: C21_38  and  N9_39 
REMARK   13  A    between atoms: C24_42  and  O4_43 
ROOT
HETATM    1  N3  UNL     1      -8.167  -2.495   2.636  1.00  0.00    -0.278 N 
ATOM      2  H3  UNL     1      -8.849  -1.798   2.338  1.00  0.00     0.179 HD
HETATM    3  C6  UNL     1      -8.160  -3.793   2.095  1.00  0.00     0.183 C 
HETATM    4  N4  UNL     1      -8.147  -4.873   1.666  1.00  0.00    -0.172 NA
ENDROOT
BRANCH   1   5
HETATM    5  C5  UNL     1      -7.166  -2.193   3.634  1.00  0.00     0.140 A 
HETATM    6  C4  UNL     1      -6.963  -0.955   4.033  1.00  0.00     0.110 A 
HETATM    7  N1  UNL     1      -7.534   0.215   3.690  1.00  0.00    -0.323 N 
HETATM    8  C3  UNL     1      -5.999  -0.722   4.983  1.00  0.00     0.089 A 
HETATM    9  C1  UNL     1      -8.586   0.474   2.742  1.00  0.00     0.159 C 
HETATM   10  C2  UNL     1      -6.921   1.157   4.428  1.00  0.00     0.179 A 
HETATM   11  S1  UNL     1      -7.239   2.775   4.398  1.00  0.00    -0.040 SA
HETATM   12  N2  UNL     1      -5.999   0.611   5.207  1.00  0.00    -0.329 N 
ATOM     13  H2  UNL     1      -5.395   1.109   5.860  1.00  0.00     0.168 HD
HETATM   14  C8  UNL     1      -5.265  -1.677   5.516  1.00  0.00     0.054 A 
HETATM   15  C7  UNL     1      -5.417  -3.088   5.136  1.00  0.00     0.180 A 
HETATM   16  N5  UNL     1      -6.429  -3.285   4.145  1.00  0.00    -0.368 N 
ATOM     17  H5  UNL     1      -6.622  -4.226   3.803  1.00  0.00     0.161 HD
BRANCH  14  18
HETATM   18  N6  UNL     1      -4.282  -1.292   6.512  1.00  0.00    -0.378 N 
HETATM   19  C9  UNL     1      -3.872  -2.319   7.431  1.00  0.00     0.142 C 
HETATM   20  C10 UNL     1      -3.397  -1.687   8.709  1.00  0.00     0.143 C 
HETATM   21  N7  UNL     1      -4.197  -0.503   8.945  1.00  0.00    -0.377 N 
HETATM   22  C27 UNL     1      -3.991   0.585   7.986  1.00  0.00     0.143 C 
HETATM   23  C28 UNL     1      -3.728   0.027   6.604  1.00  0.00     0.142 C 
BRANCH  21  24
HETATM   24  C11 UNL     1      -5.103  -0.423  10.026  1.00  0.00     0.042 A 
HETATM   25  C12 UNL     1      -6.458  -0.654   9.742  1.00  0.00     0.033 A 
HETATM   26  C13 UNL     1      -7.394  -0.607  10.747  1.00  0.00     0.039 A 
HETATM   27  C14 UNL     1      -7.011  -0.335  12.045  1.00  0.00     0.066 A 
HETATM   28  C15 UNL     1      -5.698  -0.103  12.365  1.00  0.00     0.051 A 
HETATM   29  C16 UNL     1      -4.751  -0.152  11.331  1.00  0.00     0.010 A 
BRANCH  27  30
HETATM   30  O1  UNL     1      -7.986  -0.293  13.058  1.00  0.00    -0.361 OA
ATOM     31  H1  UNL     1      -8.189   0.536  13.476  1.00  0.00     0.217 HD
ENDBRANCH  27  30
BRANCH  29  32
HETATM   32  C17 UNL     1      -3.345   0.105  11.621  1.00  0.00     0.127 C 
HETATM   33  N8  UNL     1      -2.947   1.304  11.734  1.00  0.00    -0.277 N 
ATOM     34  H8  UNL     1      -3.639   2.043  11.616  1.00  0.00     0.193 HD
BRANCH  33  35
HETATM   35  O2  UNL     1      -1.661   1.679  12.004  1.00  0.00    -0.279 OA
BRANCH  35  36
HETATM   36  C18 UNL     1      -0.572   1.338  11.156  1.00  0.00     0.227 C 
BRANCH  36  37
HETATM   37  C19 UNL     1       0.672   1.342  12.015  1.00  0.00     0.196 C 
BRANCH  37  38
HETATM   38  O3  UNL     1       0.704   0.306  12.918  1.00  0.00    -0.387 OA
BRANCH  38  39
HETATM   39  C20 UNL     1       1.894   0.209  13.623  1.00  0.00     0.198 C 
BRANCH  39  40
HETATM   40  C21 UNL     1       2.073   1.431  14.480  1.00  0.00     0.298 C 
BRANCH  40  41
HETATM   41  N9  UNL     1       1.913   1.113  15.859  1.00  0.00     0.090 N 
HETATM   42  C22 UNL     1       2.538   2.129  16.701  1.00  0.00     0.275 C 
HETATM   43  C23 UNL     1       2.645   1.702  18.126  1.00  0.00     0.062 C 
HETATM   44  C24 UNL     1       1.641   0.653  18.511  1.00  0.00     0.121 C 
HETATM   45  C25 UNL     1       1.574  -0.510  17.579  1.00  0.00     0.062 C 
HETATM   46  C26 UNL     1       2.323  -0.184  16.279  1.00  0.00     0.275 C 
BRANCH  44  47
HETATM   47  O4  UNL     1       0.351   1.193  18.639  1.00  0.00    -0.395 OA
ATOM     48  H4  UNL     1      -0.320   0.541  18.472  1.00  0.00     0.210 HD
ENDBRANCH  44  47
ENDBRANCH  40  41
ENDBRANCH  39  40
ENDBRANCH  38  39
ENDBRANCH  37  38
ENDBRANCH  36  37
ENDBRANCH  35  36
ENDBRANCH  33  35
ENDBRANCH  29  32
ENDBRANCH  21  24
ENDBRANCH  14  18
ENDBRANCH   1   5
TORSDOF 13
ENDMDL
MODEL 4
REMARK VINA RESULT: -8.285464107      5.451     10.299
REMARK  13 active torsions:
REMARK  status: ('A' for Active; 'I' for Inactive)
REMARK    1  A    between atoms: C5_9  and  N3_10 
REMARK    2  A    between atoms: C8_17  and  N6_18 
REMARK    3  A    between atoms: N7_21  and  C11_22 
REMARK    4  A    between atoms: C14_25  and  O1_26 
REMARK    5  A    between atoms: C16_29  and  C17_30 
REMARK    6  A    between atoms: N8_31  and  O2_33 
REMARK    7  A    between atoms: O2_33  and  C18_34 
REMARK    8  A    between atoms: C18_34  and  C19_35 
REMARK    9  A    between atoms: C19_35  and  O3_36 
REMARK   10  A    between atoms: O3_36  and  C20_37 
REMARK   11  A    between atoms: C20_37  and  C21_38 
REMARK   12  A    between atoms: C21_38  and  N9_39 
REMARK   13  A    between atoms: C24_42  and  O4_43 
ROOT
HETATM    1  N3  UNL     1      -7.797   3.534   0.228  1.00  0.00    -0.278 N 
ATOM      2  H3  UNL     1      -8.712   3.867  -0.076  1.00  0.00     0.179 HD
HETATM    3  C6  UNL     1      -6.613   3.976  -0.389  1.00  0.00     0.183 C 
HETATM    4  N4  UNL     1      -5.626   4.323  -0.895  1.00  0.00    -0.172 NA
ENDROOT
BRANCH   1   5
HETATM    5  C5  UNL     1      -7.661   2.588   1.312  1.00  0.00     0.140 A 
HETATM    6  C4  UNL     1      -8.713   2.181   1.989  1.00  0.00     0.110 A 
HETATM    7  N1  UNL     1     -10.023   2.475   1.894  1.00  0.00    -0.323 N 
HETATM    8  C3  UNL     1      -8.528   1.282   3.011  1.00  0.00     0.089 A 
HETATM    9  C1  UNL     1     -10.696   3.360   0.980  1.00  0.00     0.159 C 
HETATM   10  C2  UNL     1     -10.635   1.757   2.853  1.00  0.00     0.179 A 
HETATM   11  S1  UNL     1     -12.252   1.744   3.176  1.00  0.00    -0.040 SA
HETATM   12  N2  UNL     1      -9.752   1.038   3.529  1.00  0.00    -0.329 N 
ATOM     13  H2  UNL     1      -9.959   0.410   4.306  1.00  0.00     0.168 HD
HETATM   14  C8  UNL     1      -7.347   0.804   3.347  1.00  0.00     0.054 A 
HETATM   15  C7  UNL     1      -6.115   1.196   2.651  1.00  0.00     0.180 A 
HETATM   16  N5  UNL     1      -6.353   2.134   1.597  1.00  0.00    -0.368 N 
ATOM     17  H5  UNL     1      -5.569   2.480   1.045  1.00  0.00     0.161 HD
BRANCH  14  18
HETATM   18  N6  UNL     1      -7.294  -0.143   4.445  1.00  0.00    -0.378 N 
HETATM   19  C9  UNL     1      -7.387   0.412   5.769  1.00  0.00     0.142 C 
HETATM   20  C10 UNL     1      -6.715  -0.509   6.747  1.00  0.00     0.143 C 
HETATM   21  N7  UNL     1      -5.582  -1.118   6.080  1.00  0.00    -0.377 N 
HETATM   22  C27 UNL     1      -5.925  -2.042   4.997  1.00  0.00     0.143 C 
HETATM   23  C28 UNL     1      -7.157  -1.558   4.260  1.00  0.00     0.142 C 
BRANCH  21  24
HETATM   24  C11 UNL     1      -4.253  -0.829   6.461  1.00  0.00     0.042 A 
HETATM   25  C12 UNL     1      -3.597   0.195   5.762  1.00  0.00     0.033 A 
HETATM   26  C13 UNL     1      -2.307   0.541   6.089  1.00  0.00     0.039 A 
HETATM   27  C14 UNL     1      -1.646  -0.115   7.107  1.00  0.00     0.066 A 
HETATM   28  C15 UNL     1      -2.250  -1.122   7.815  1.00  0.00     0.051 A 
HETATM   29  C16 UNL     1      -3.567  -1.468   7.472  1.00  0.00     0.010 A 
BRANCH  27  30
HETATM   30  O1  UNL     1      -0.326   0.256   7.425  1.00  0.00    -0.361 OA
ATOM     31  H1  UNL     1       0.111  -0.159   8.159  1.00  0.00     0.217 HD
ENDBRANCH  27  30
BRANCH  29  32
HETATM   32  C17 UNL     1      -4.244  -2.544   8.185  1.00  0.00     0.127 C 
HETATM   33  N8  UNL     1      -3.939  -3.747   7.922  1.00  0.00    -0.277 N 
ATOM     34  H8  UNL     1      -3.224  -3.907   7.213  1.00  0.00     0.193 HD
BRANCH  33  35
HETATM   35  O2  UNL     1      -4.497  -4.843   8.516  1.00  0.00    -0.279 OA
BRANCH  35  36
HETATM   36  C18 UNL     1      -3.976  -6.154   8.343  1.00  0.00     0.227 C 
BRANCH  36  37
HETATM   37  C19 UNL     1      -4.439  -6.972   9.527  1.00  0.00     0.196 C 
BRANCH  37  38
HETATM   38  O3  UNL     1      -3.399  -7.474  10.272  1.00  0.00    -0.387 OA
BRANCH  38  39
HETATM   39  C20 UNL     1      -3.712  -7.685  11.606  1.00  0.00     0.198 C 
BRANCH  39  40
HETATM   40  C21 UNL     1      -3.730  -9.160  11.893  1.00  0.00     0.298 C 
BRANCH  40  41
HETATM   41  N9  UNL     1      -3.247  -9.430  13.205  1.00  0.00     0.090 N 
HETATM   42  C22 UNL     1      -3.738  -8.434  14.153  1.00  0.00     0.275 C 
HETATM   43  C23 UNL     1      -3.040  -8.505  15.469  1.00  0.00     0.062 C 
HETATM   44  C24 UNL     1      -2.438  -9.852  15.752  1.00  0.00     0.121 C 
HETATM   45  C25 UNL     1      -1.605 -10.402  14.643  1.00  0.00     0.062 C 
HETATM   46  C26 UNL     1      -1.841  -9.593  13.358  1.00  0.00     0.275 C 
BRANCH  44  47
HETATM   47  O4  UNL     1      -3.420 -10.800  16.080  1.00  0.00    -0.395 OA
ATOM     48  H4  UNL     1      -3.035 -11.603  16.411  1.00  0.00     0.210 HD
ENDBRANCH  44  47
ENDBRANCH  40  41
ENDBRANCH  39  40
ENDBRANCH  38  39
ENDBRANCH  37  38
ENDBRANCH  36  37
ENDBRANCH  35  36
ENDBRANCH  33  35
ENDBRANCH  29  32
ENDBRANCH  21  24
ENDBRANCH  14  18
ENDBRANCH   1   5
TORSDOF 13
ENDMDL
MODEL 5
REMARK VINA RESULT: -8.203005351      4.563     10.001
REMARK  13 active torsions:
REMARK  status: ('A' for Active; 'I' for Inactive)
REMARK    1  A    between atoms: C5_9  and  N3_10 
REMARK    2  A    between atoms: C8_17  and  N6_18 
REMARK    3  A    between atoms: N7_21  and  C11_22 
REMARK    4  A    between atoms: C14_25  and  O1_26 
REMARK    5  A    between atoms: C16_29  and  C17_30 
REMARK    6  A    between atoms: N8_31  and  O2_33 
REMARK    7  A    between atoms: O2_33  and  C18_34 
REMARK    8  A    between atoms: C18_34  and  C19_35 
REMARK    9  A    between atoms: C19_35  and  O3_36 
REMARK   10  A    between atoms: O3_36  and  C20_37 
REMARK   11  A    between atoms: C20_37  and  C21_38 
REMARK   12  A    between atoms: C21_38  and  N9_39 
REMARK   13  A    between atoms: C24_42  and  O4_43 
ROOT
HETATM    1  N3  UNL     1      -9.834   1.654   3.575  1.00  0.00    -0.278 N 
ATOM      2  H3  UNL     1      -9.694   2.226   2.742  1.00  0.00     0.179 HD
HETATM    3  C6  UNL     1     -11.119   1.254   3.982  1.00  0.00     0.183 C 
HETATM    4  N4  UNL     1     -12.175   0.924   4.340  1.00  0.00    -0.172 NA
ENDROOT
BRANCH   1   5
HETATM    5  C5  UNL     1      -8.721   1.219   4.387  1.00  0.00     0.140 A 
HETATM    6  C4  UNL     1      -7.574   0.882   3.837  1.00  0.00     0.110 A 
HETATM    7  N1  UNL     1      -7.157   0.847   2.557  1.00  0.00    -0.323 N 
HETATM    8  C3  UNL     1      -6.548   0.475   4.654  1.00  0.00     0.089 A 
HETATM    9  C1  UNL     1      -7.872   1.184   1.354  1.00  0.00     0.159 C 
HETATM   10  C2  UNL     1      -5.882   0.421   2.594  1.00  0.00     0.179 A 
HETATM   11  S1  UNL     1      -4.893   0.197   1.293  1.00  0.00    -0.040 SA
HETATM   12  N2  UNL     1      -5.504   0.194   3.843  1.00  0.00    -0.329 N 
ATOM     13  H2  UNL     1      -4.585  -0.136   4.141  1.00  0.00     0.168 HD
HETATM   14  C8  UNL     1      -6.655   0.405   5.965  1.00  0.00     0.054 A 
HETATM   15  C7  UNL     1      -7.892   0.759   6.672  1.00  0.00     0.180 A 
HETATM   16  N5  UNL     1      -8.933   1.176   5.784  1.00  0.00    -0.368 N 
ATOM     17  H5  UNL     1      -9.840   1.445   6.163  1.00  0.00     0.161 HD
BRANCH  14  18
HETATM   18  N6  UNL     1      -5.491  -0.040   6.710  1.00  0.00    -0.378 N 
HETATM   19  C9  UNL     1      -5.496  -1.413   7.138  1.00  0.00     0.142 C 
HETATM   20  C10 UNL     1      -4.629  -1.561   8.356  1.00  0.00     0.143 C 
HETATM   21  N7  UNL     1      -4.751  -0.350   9.141  1.00  0.00    -0.377 N 
HETATM   22  C27 UNL     1      -4.182   0.849   8.521  1.00  0.00     0.143 C 
HETATM   23  C28 UNL     1      -4.380   0.812   7.020  1.00  0.00     0.142 C 
BRANCH  21  24
HETATM   24  C11 UNL     1      -5.375  -0.346  10.408  1.00  0.00     0.042 A 
HETATM   25  C12 UNL     1      -6.778  -0.360  10.428  1.00  0.00     0.033 A 
HETATM   26  C13 UNL     1      -7.453  -0.373  11.626  1.00  0.00     0.039 A 
HETATM   27  C14 UNL     1      -6.759  -0.372  12.818  1.00  0.00     0.066 A 
HETATM   28  C15 UNL     1      -5.388  -0.359  12.843  1.00  0.00     0.051 A 
HETATM   29  C16 UNL     1      -4.709  -0.345  11.614  1.00  0.00     0.010 A 
BRANCH  27  30
HETATM   30  O1  UNL     1      -7.471  -0.386  14.031  1.00  0.00    -0.361 OA
ATOM     31  H1  UNL     1      -7.892  -1.188  14.316  1.00  0.00     0.217 HD
ENDBRANCH  27  30
BRANCH  29  32
HETATM   32  C17 UNL     1      -3.251  -0.312  11.592  1.00  0.00     0.127 C 
HETATM   33  N8  UNL     1      -2.654   0.777  11.847  1.00  0.00    -0.277 N 
ATOM     34  H8  UNL     1      -3.229   1.591  12.060  1.00  0.00     0.193 HD
BRANCH  33  35
HETATM   35  O2  UNL     1      -1.298   0.941  11.858  1.00  0.00    -0.279 OA
BRANCH  35  36
HETATM   36  C18 UNL     1      -0.620   1.770  10.923  1.00  0.00     0.227 C 
BRANCH  36  37
HETATM   37  C19 UNL     1      -0.039   0.858   9.866  1.00  0.00     0.196 C 
BRANCH  37  38
HETATM   38  O3  UNL     1       1.336   0.874   9.841  1.00  0.00    -0.387 OA
BRANCH  38  39
HETATM   39  C20 UNL     1       1.911   1.550  10.906  1.00  0.00     0.198 C 
BRANCH  39  40
HETATM   40  C21 UNL     1       3.247   0.941  11.226  1.00  0.00     0.298 C 
BRANCH  40  41
HETATM   41  N9  UNL     1       3.235   0.335  12.514  1.00  0.00     0.090 N 
HETATM   42  C22 UNL     1       1.957   0.566  13.183  1.00  0.00     0.275 C 
HETATM   43  C23 UNL     1       1.995   0.201  14.629  1.00  0.00     0.062 C 
HETATM   44  C24 UNL     1       3.059  -0.806  14.961  1.00  0.00     0.121 C 
HETATM   45  C25 UNL     1       4.413  -0.474  14.429  1.00  0.00     0.062 C 
HETATM   46  C26 UNL     1       4.307   0.656  13.394  1.00  0.00     0.275 C 
BRANCH  44  47
HETATM   47  O4  UNL     1       2.711  -2.092  14.517  1.00  0.00    -0.395 OA
ATOM     48  H4  UNL     1       3.072  -2.767  15.081  1.00  0.00     0.210 HD
ENDBRANCH  44  47
ENDBRANCH  40  41
ENDBRANCH  39  40
ENDBRANCH  38  39
ENDBRANCH  37  38
ENDBRANCH  36  37
ENDBRANCH  35  36
ENDBRANCH  33  35
ENDBRANCH  29  32
ENDBRANCH  21  24
ENDBRANCH  14  18
ENDBRANCH   1   5
TORSDOF 13
ENDMDL
