MODEL 1
REMARK VINA RESULT: -8.689584777      0.000      0.000
REMARK  19 active torsions:
REMARK  status: ('A' for Active; 'I' for Inactive)
REMARK    1  A    between atoms: O1_2  and  C2_3 
REMARK    2  A    between atoms: C2_3  and  O2_4 
REMARK    3  A    between atoms: C2_3  and  C3_6 
REMARK    4  A    between atoms: C3_6  and  O3_7 
REMARK    5  A    between atoms: C3_6  and  C4_9 
REMARK    6  A    between atoms: C5_10  and  C6_11 
REMARK    7  A    between atoms: C7_12  and  C8_13 
REMARK    8  A    between atoms: C8_13  and  C10_15 
REMARK    9  A    between atoms: C8_13  and  O5_18 
REMARK   10  A    between atoms: C10_15  and  O4_16 
REMARK   11  A    between atoms: O5_18  and  C11_19 
REMARK   12  A    between atoms: C16_25  and  O7_26 
REMARK   13  A    between atoms: C17_28  and  O8_29 
REMARK   14  A    between atoms: O8_29  and  C18_30 
REMARK   15  A    between atoms: C18_30  and  C19_32 
REMARK   16  A    between atoms: C25_38  and  O10_39 
REMARK   17  A    between atoms: C26_41  and  O11_42 
REMARK   18  A    between atoms: C26_41  and  C27_44 
REMARK   19  A    between atoms: C27_44  and  C28_46 
ROOT
HETATM    1  C4  UNL     1      -6.949  -0.005   4.967  1.00  0.00    -0.003 C 
HETATM    2  C5  UNL     1      -8.080   0.500   5.423  1.00  0.00    -0.048 C 
HETATM    3  C13 UNL     1      -7.804   1.446   6.605  1.00  0.00     0.040 C 
HETATM    4  C14 UNL     1      -6.386   1.816   6.221  1.00  0.00     0.025 C 
HETATM    5  C15 UNL     1      -5.899   0.423   5.931  1.00  0.00     0.060 C 
HETATM    6  C16 UNL     1      -6.000  -0.472   7.194  1.00  0.00     0.167 C 
HETATM    7  C17 UNL     1      -5.034   0.272   8.075  1.00  0.00     0.194 C 
HETATM    8  C25 UNL     1      -3.945   0.654   7.136  1.00  0.00     0.194 C 
HETATM    9  C26 UNL     1      -4.485   0.358   5.690  1.00  0.00     0.171 C 
ENDROOT
BRANCH   1  10
HETATM   10  C3  UNL     1      -6.793  -0.870   3.815  1.00  0.00     0.105 C 
BRANCH  10  11
HETATM   11  C2  UNL     1      -7.107  -2.268   3.554  1.00  0.00     0.314 C 
BRANCH  11  12
HETATM   12  O1  UNL     1      -8.223  -2.433   2.734  1.00  0.00    -0.360 OA
HETATM   13  C1  UNL     1      -8.194  -3.597   1.997  1.00  0.00     0.205 C 
ENDBRANCH  11  12
BRANCH  11  14
HETATM   14  O2  UNL     1      -7.082  -3.127   4.646  1.00  0.00    -0.365 OA
ATOM     15  H2  UNL     1      -6.229  -3.509   4.814  1.00  0.00     0.213 HD
ENDBRANCH  11  14
ENDBRANCH  10  11
BRANCH  10  16
HETATM   16  O3  UNL     1      -6.248  -0.330   2.741  1.00  0.00    -0.359 OA
ATOM     17  H3  UNL     1      -5.317  -0.520   2.725  1.00  0.00     0.217 HD
ENDBRANCH  10  16
ENDBRANCH   1  10
BRANCH   6  18
HETATM   18  O7  UNL     1      -5.476  -1.721   6.860  1.00  0.00    -0.392 OA
ATOM     19  H7  UNL     1      -5.831  -2.350   7.477  1.00  0.00     0.210 HD
ENDBRANCH   6  18
BRANCH   9  20
HETATM   20  O11 UNL     1      -3.897  -0.861   5.440  1.00  0.00    -0.378 OA
ATOM     21  H11 UNL     1      -3.754  -1.133   4.542  1.00  0.00     0.211 HD
ENDBRANCH   9  20
BRANCH   9  22
HETATM   22  C27 UNL     1      -3.838   1.358   4.812  1.00  0.00     0.263 C 
HETATM   23  O12 UNL     1      -4.057   2.587   4.941  1.00  0.00    -0.282 OA
BRANCH  22  24
HETATM   24  C28 UNL     1      -2.910   0.994   3.746  1.00  0.00     0.250 C 
HETATM   25  O13 UNL     1      -3.355   0.655   2.596  1.00  0.00    -0.642 OA
HETATM   26  O14 UNL     1      -1.542   0.995   3.915  1.00  0.00    -0.642 OA
ENDBRANCH  22  24
ENDBRANCH   9  22
BRANCH   2  27
HETATM   27  C6  UNL     1      -9.445   0.373   4.963  1.00  0.00     0.007 C 
HETATM   28  C7  UNL     1     -10.240   1.449   4.819  1.00  0.00     0.014 C 
BRANCH  28  29
HETATM   29  C8  UNL     1     -11.640   1.367   4.352  1.00  0.00     0.106 C 
HETATM   30  C9  UNL     1     -12.313   2.732   4.521  1.00  0.00     0.053 C 
BRANCH  29  31
HETATM   31  C10 UNL     1     -12.374   0.415   5.270  1.00  0.00     0.206 C 
BRANCH  31  32
HETATM   32  O4  UNL     1     -12.303   0.825   6.598  1.00  0.00    -0.398 OA
ATOM     33  H4  UNL     1     -13.160   1.051   6.941  1.00  0.00     0.209 HD
ENDBRANCH  31  32
ENDBRANCH  29  31
BRANCH  29  34
HETATM   34  O5  UNL     1     -11.634   0.955   3.018  1.00  0.00    -0.304 OA
BRANCH  34  35
HETATM   35  C11 UNL     1     -11.769   1.771   1.922  1.00  0.00     0.255 C 
HETATM   36  C12 UNL     1     -13.051   1.756   1.155  1.00  0.00     0.126 C 
HETATM   37  O6  UNL     1     -10.811   2.500   1.600  1.00  0.00    -0.266 OA
ENDBRANCH  34  35
ENDBRANCH  29  34
ENDBRANCH  28  29
ENDBRANCH   2  27
BRANCH   7  38
HETATM   38  O8  UNL     1      -4.568  -0.530   9.150  1.00  0.00    -0.307 OA
BRANCH  38  39
HETATM   39  C18 UNL     1      -4.357  -0.032  10.424  1.00  0.00     0.293 C 
HETATM   40  O9  UNL     1      -3.300   0.611  10.620  1.00  0.00    -0.259 OA
BRANCH  39  41
HETATM   41  C19 UNL     1      -5.291  -0.216  11.523  1.00  0.00     0.039 A 
HETATM   42  C20 UNL     1      -6.659  -0.206  11.347  1.00  0.00     0.017 A 
HETATM   43  C21 UNL     1      -7.440  -0.393  12.466  1.00  0.00     0.001 A 
HETATM   44  C22 UNL     1      -6.922  -0.585  13.731  1.00  0.00     0.000 A 
HETATM   45  C23 UNL     1      -5.555  -0.593  13.898  1.00  0.00     0.001 A 
HETATM   46  C24 UNL     1      -4.772  -0.408  12.787  1.00  0.00     0.017 A 
ENDBRANCH  39  41
ENDBRANCH  38  39
ENDBRANCH   7  38
BRANCH   8  47
HETATM   47  O10 UNL     1      -3.569   1.949   7.297  1.00  0.00    -0.389 OA
ATOM     48  H10 UNL     1      -3.014   2.248   6.587  1.00  0.00     0.210 HD
ENDBRANCH   8  47
TORSDOF 19
ENDMDL
MODEL 2
REMARK VINA RESULT: -8.689571803      2.756      4.041
REMARK  19 active torsions:
REMARK  status: ('A' for Active; 'I' for Inactive)
REMARK    1  A    between atoms: O1_2  and  C2_3 
REMARK    2  A    between atoms: C2_3  and  O2_4 
REMARK    3  A    between atoms: C2_3  and  C3_6 
REMARK    4  A    between atoms: C3_6  and  O3_7 
REMARK    5  A    between atoms: C3_6  and  C4_9 
REMARK    6  A    between atoms: C5_10  and  C6_11 
REMARK    7  A    between atoms: C7_12  and  C8_13 
REMARK    8  A    between atoms: C8_13  and  C10_15 
REMARK    9  A    between atoms: C8_13  and  O5_18 
REMARK   10  A    between atoms: C10_15  and  O4_16 
REMARK   11  A    between atoms: O5_18  and  C11_19 
REMARK   12  A    between atoms: C16_25  and  O7_26 
REMARK   13  A    between atoms: C17_28  and  O8_29 
REMARK   14  A    between atoms: O8_29  and  C18_30 
REMARK   15  A    between atoms: C18_30  and  C19_32 
REMARK   16  A    between atoms: C25_38  and  O10_39 
REMARK   17  A    between atoms: C26_41  and  O11_42 
REMARK   18  A    between atoms: C26_41  and  C27_44 
REMARK   19  A    between atoms: C27_44  and  C28_46 
ROOT
HETATM    1  C4  UNL     1      -5.380  -1.187   5.061  1.00  0.00    -0.003 C 
HETATM    2  C5  UNL     1      -5.031  -0.148   4.325  1.00  0.00    -0.048 C 
HETATM    3  C13 UNL     1      -3.797   0.545   4.931  1.00  0.00     0.040 C 
HETATM    4  C14 UNL     1      -3.239  -0.665   5.651  1.00  0.00     0.025 C 
HETATM    5  C15 UNL     1      -4.526  -1.122   6.278  1.00  0.00     0.060 C 
HETATM    6  C16 UNL     1      -5.100  -0.032   7.221  1.00  0.00     0.167 C 
HETATM    7  C17 UNL     1      -3.983   0.003   8.230  1.00  0.00     0.194 C 
HETATM    8  C25 UNL     1      -3.613  -1.430   8.375  1.00  0.00     0.194 C 
HETATM    9  C26 UNL     1      -4.348  -2.195   7.215  1.00  0.00     0.171 C 
ENDROOT
BRANCH   1  10
HETATM   10  C3  UNL     1      -6.439  -2.132   4.772  1.00  0.00     0.105 C 
BRANCH  10  11
HETATM   11  C2  UNL     1      -6.580  -3.229   3.824  1.00  0.00     0.314 C 
BRANCH  11  12
HETATM   12  O1  UNL     1      -7.261  -2.863   2.663  1.00  0.00    -0.360 OA
HETATM   13  C1  UNL     1      -8.132  -3.831   2.210  1.00  0.00     0.205 C 
ENDBRANCH  11  12
BRANCH  11  14
HETATM   14  O2  UNL     1      -6.975  -4.455   4.344  1.00  0.00    -0.365 OA
ATOM     15  H2  UNL     1      -6.255  -5.054   4.503  1.00  0.00     0.213 HD
ENDBRANCH  11  14
ENDBRANCH  10  11
BRANCH  10  16
HETATM   16  O3  UNL     1      -7.541  -2.019   5.487  1.00  0.00    -0.359 OA
ATOM     17  H3  UNL     1      -7.318  -1.912   6.405  1.00  0.00     0.217 HD
ENDBRANCH  10  16
ENDBRANCH   1  10
BRANCH   6  18
HETATM   18  O7  UNL     1      -6.254  -0.554   7.806  1.00  0.00    -0.392 OA
ATOM     19  H7  UNL     1      -6.944   0.088   7.690  1.00  0.00     0.210 HD
ENDBRANCH   6  18
BRANCH   9  20
HETATM   20  O11 UNL     1      -5.440  -2.695   7.887  1.00  0.00    -0.378 OA
ATOM     21  H11 UNL     1      -5.477  -3.621   8.093  1.00  0.00     0.211 HD
ENDBRANCH   9  20
BRANCH   9  22
HETATM   22  C27 UNL     1      -3.470  -3.337   6.874  1.00  0.00     0.263 C 
HETATM   23  O12 UNL     1      -2.284  -3.398   7.278  1.00  0.00    -0.282 OA
BRANCH  22  24
HETATM   24  C28 UNL     1      -3.913  -4.460   6.055  1.00  0.00     0.250 C 
HETATM   25  O13 UNL     1      -4.823  -5.249   6.485  1.00  0.00    -0.642 OA
HETATM   26  O14 UNL     1      -3.390  -4.727   4.808  1.00  0.00    -0.642 OA
ENDBRANCH  22  24
ENDBRANCH   9  22
BRANCH   2  27
HETATM   27  C6  UNL     1      -5.546   0.362   3.074  1.00  0.00     0.007 C 
HETATM   28  C7  UNL     1      -6.819   0.780   2.956  1.00  0.00     0.014 C 
BRANCH  28  29
HETATM   29  C8  UNL     1      -7.387   1.310   1.699  1.00  0.00     0.106 C 
HETATM   30  C9  UNL     1      -8.916   1.280   1.779  1.00  0.00     0.053 C 
BRANCH  29  31
HETATM   31  C10 UNL     1      -7.003   0.359   0.587  1.00  0.00     0.206 C 
BRANCH  31  32
HETATM   32  O4  UNL     1      -7.833  -0.758   0.556  1.00  0.00    -0.398 OA
ATOM     33  H4  UNL     1      -8.048  -1.011  -0.335  1.00  0.00     0.209 HD
ENDBRANCH  31  32
ENDBRANCH  29  31
BRANCH  29  34
HETATM   34  O5  UNL     1      -6.903   2.605   1.510  1.00  0.00    -0.304 OA
BRANCH  34  35
HETATM   35  C11 UNL     1      -6.274   3.075   0.383  1.00  0.00     0.255 C 
HETATM   36  C12 UNL     1      -4.784   3.017   0.302  1.00  0.00     0.126 C 
HETATM   37  O6  UNL     1      -6.972   3.537  -0.540  1.00  0.00    -0.266 OA
ENDBRANCH  34  35
ENDBRANCH  29  34
ENDBRANCH  28  29
ENDBRANCH   2  27
BRANCH   7  38
HETATM   38  O8  UNL     1      -4.394   0.586   9.457  1.00  0.00    -0.307 OA
BRANCH  38  39
HETATM   39  C18 UNL     1      -4.071   0.047  10.691  1.00  0.00     0.293 C 
HETATM   40  O9  UNL     1      -2.870  -0.244  10.893  1.00  0.00    -0.259 OA
BRANCH  39  41
HETATM   41  C19 UNL     1      -5.046  -0.191  11.743  1.00  0.00     0.039 A 
HETATM   42  C20 UNL     1      -4.685  -0.436  13.052  1.00  0.00     0.017 A 
HETATM   43  C21 UNL     1      -5.702  -0.646  13.958  1.00  0.00     0.001 A 
HETATM   44  C22 UNL     1      -7.039  -0.623  13.617  1.00  0.00     0.000 A 
HETATM   45  C23 UNL     1      -7.391  -0.379  12.309  1.00  0.00     0.001 A 
HETATM   46  C24 UNL     1      -6.383  -0.168  11.402  1.00  0.00     0.017 A 
ENDBRANCH  39  41
ENDBRANCH  38  39
ENDBRANCH   7  38
BRANCH   8  47
HETATM   47  O10 UNL     1      -2.267  -1.611   8.348  1.00  0.00    -0.389 OA
ATOM     48  H10 UNL     1      -1.999  -2.353   8.877  1.00  0.00     0.210 HD
ENDBRANCH   8  47
TORSDOF 19
ENDMDL
MODEL 3
REMARK VINA RESULT: -8.650956363      0.862      1.451
REMARK  19 active torsions:
REMARK  status: ('A' for Active; 'I' for Inactive)
REMARK    1  A    between atoms: O1_2  and  C2_3 
REMARK    2  A    between atoms: C2_3  and  O2_4 
REMARK    3  A    between atoms: C2_3  and  C3_6 
REMARK    4  A    between atoms: C3_6  and  O3_7 
REMARK    5  A    between atoms: C3_6  and  C4_9 
REMARK    6  A    between atoms: C5_10  and  C6_11 
REMARK    7  A    between atoms: C7_12  and  C8_13 
REMARK    8  A    between atoms: C8_13  and  C10_15 
REMARK    9  A    between atoms: C8_13  and  O5_18 
REMARK   10  A    between atoms: C10_15  and  O4_16 
REMARK   11  A    between atoms: O5_18  and  C11_19 
REMARK   12  A    between atoms: C16_25  and  O7_26 
REMARK   13  A    between atoms: C17_28  and  O8_29 
REMARK   14  A    between atoms: O8_29  and  C18_30 
REMARK   15  A    between atoms: C18_30  and  C19_32 
REMARK   16  A    between atoms: C25_38  and  O10_39 
REMARK   17  A    between atoms: C26_41  and  O11_42 
REMARK   18  A    between atoms: C26_41  and  C27_44 
REMARK   19  A    between atoms: C27_44  and  C28_46 
ROOT
HETATM    1  C4  UNL     1      -6.925  -0.400   5.319  1.00  0.00    -0.003 C 
HETATM    2  C5  UNL     1      -7.953   0.296   5.768  1.00  0.00    -0.048 C 
HETATM    3  C13 UNL     1      -7.471   1.403   6.723  1.00  0.00     0.040 C 
HETATM    4  C14 UNL     1      -6.074   1.544   6.156  1.00  0.00     0.025 C 
HETATM    5  C15 UNL     1      -5.747   0.078   6.092  1.00  0.00     0.060 C 
HETATM    6  C16 UNL     1      -5.795  -0.561   7.504  1.00  0.00     0.167 C 
HETATM    7  C17 UNL     1      -4.679   0.220   8.144  1.00  0.00     0.194 C 
HETATM    8  C25 UNL     1      -3.665   0.310   7.060  1.00  0.00     0.194 C 
HETATM    9  C26 UNL     1      -4.377  -0.180   5.747  1.00  0.00     0.171 C 
ENDROOT
BRANCH   1  10
HETATM   10  C3  UNL     1      -6.968  -1.468   4.342  1.00  0.00     0.105 C 
BRANCH  10  11
HETATM   11  C2  UNL     1      -7.415  -1.552   2.958  1.00  0.00     0.314 C 
BRANCH  11  12
HETATM   12  O1  UNL     1      -7.066  -2.753   2.342  1.00  0.00    -0.360 OA
HETATM   13  C1  UNL     1      -8.152  -3.506   1.952  1.00  0.00     0.205 C 
ENDBRANCH  11  12
BRANCH  11  14
HETATM   14  O2  UNL     1      -7.200  -0.432   2.164  1.00  0.00    -0.365 OA
ATOM     15  H2  UNL     1      -7.790  -0.367   1.423  1.00  0.00     0.213 HD
ENDBRANCH  11  14
ENDBRANCH  10  11
BRANCH  10  16
HETATM   16  O3  UNL     1      -6.522  -2.646   4.735  1.00  0.00    -0.359 OA
ATOM     17  H3  UNL     1      -6.544  -2.695   5.684  1.00  0.00     0.217 HD
ENDBRANCH  10  16
ENDBRANCH   1  10
BRANCH   6  18
HETATM   18  O7  UNL     1      -5.423  -1.899   7.368  1.00  0.00    -0.392 OA
ATOM     19  H7  UNL     1      -6.155  -2.427   7.663  1.00  0.00     0.210 HD
ENDBRANCH   6  18
BRANCH   9  20
HETATM   20  O11 UNL     1      -3.930  -1.479   5.681  1.00  0.00    -0.378 OA
ATOM     21  H11 UNL     1      -4.424  -2.117   5.181  1.00  0.00     0.211 HD
ENDBRANCH   9  20
BRANCH   9  22
HETATM   22  C27 UNL     1      -3.738   0.572   4.644  1.00  0.00     0.263 C 
HETATM   23  O12 UNL     1      -2.581   1.045   4.754  1.00  0.00    -0.282 OA
BRANCH  22  24
HETATM   24  C28 UNL     1      -4.396   0.814   3.365  1.00  0.00     0.250 C 
HETATM   25  O13 UNL     1      -4.261  -0.020   2.405  1.00  0.00    -0.642 OA
HETATM   26  O14 UNL     1      -5.177   1.925   3.125  1.00  0.00    -0.642 OA
ENDBRANCH  22  24
ENDBRANCH   9  22
BRANCH   2  27
HETATM   27  C6  UNL     1      -9.364   0.236   5.460  1.00  0.00     0.007 C 
HETATM   28  C7  UNL     1      -9.985   1.240   4.813  1.00  0.00     0.014 C 
BRANCH  28  29
HETATM   29  C8  UNL     1     -11.424   1.221   4.476  1.00  0.00     0.106 C 
HETATM   30  C9  UNL     1     -12.047   2.575   4.830  1.00  0.00     0.053 C 
BRANCH  29  31
HETATM   31  C10 UNL     1     -12.091   0.201   5.372  1.00  0.00     0.206 C 
BRANCH  31  32
HETATM   32  O4  UNL     1     -12.447   0.751   6.601  1.00  0.00    -0.398 OA
ATOM     33  H4  UNL     1     -12.164   0.204   7.325  1.00  0.00     0.209 HD
ENDBRANCH  31  32
ENDBRANCH  29  31
BRANCH  29  34
HETATM   34  O5  UNL     1     -11.553   0.931   3.117  1.00  0.00    -0.304 OA
BRANCH  34  35
HETATM   35  C11 UNL     1     -10.728   1.381   2.116  1.00  0.00     0.255 C 
HETATM   36  C12 UNL     1     -10.901   2.772   1.598  1.00  0.00     0.126 C 
HETATM   37  O6  UNL     1      -9.858   0.610   1.668  1.00  0.00    -0.266 OA
ENDBRANCH  34  35
ENDBRANCH  29  34
ENDBRANCH  28  29
ENDBRANCH   2  27
BRANCH   7  38
HETATM   38  O8  UNL     1      -4.178  -0.422   9.306  1.00  0.00    -0.307 OA
BRANCH  38  39
HETATM   39  C18 UNL     1      -4.134   0.193  10.546  1.00  0.00     0.293 C 
HETATM   40  O9  UNL     1      -3.230   1.040  10.733  1.00  0.00    -0.259 OA
BRANCH  39  41
HETATM   41  C19 UNL     1      -5.072  -0.094  11.618  1.00  0.00     0.039 A 
HETATM   42  C20 UNL     1      -4.670  -0.333  12.916  1.00  0.00     0.017 A 
HETATM   43  C21 UNL     1      -5.655  -0.594  13.844  1.00  0.00     0.001 A 
HETATM   44  C22 UNL     1      -6.999  -0.625  13.535  1.00  0.00     0.000 A 
HETATM   45  C23 UNL     1      -7.393  -0.386  12.238  1.00  0.00     0.001 A 
HETATM   46  C24 UNL     1      -6.417  -0.126  11.309  1.00  0.00     0.017 A 
ENDBRANCH  39  41
ENDBRANCH  38  39
ENDBRANCH   7  38
BRANCH   8  47
HETATM   47  O10 UNL     1      -3.159   1.565   6.941  1.00  0.00    -0.389 OA
ATOM     48  H10 UNL     1      -2.398   1.694   7.494  1.00  0.00     0.210 HD
ENDBRANCH   8  47
TORSDOF 19
ENDMDL
MODEL 4
REMARK VINA RESULT: -8.647079763      2.321      3.849
REMARK  19 active torsions:
REMARK  status: ('A' for Active; 'I' for Inactive)
REMARK    1  A    between atoms: O1_2  and  C2_3 
REMARK    2  A    between atoms: C2_3  and  O2_4 
REMARK    3  A    between atoms: C2_3  and  C3_6 
REMARK    4  A    between atoms: C3_6  and  O3_7 
REMARK    5  A    between atoms: C3_6  and  C4_9 
REMARK    6  A    between atoms: C5_10  and  C6_11 
REMARK    7  A    between atoms: C7_12  and  C8_13 
REMARK    8  A    between atoms: C8_13  and  C10_15 
REMARK    9  A    between atoms: C8_13  and  O5_18 
REMARK   10  A    between atoms: C10_15  and  O4_16 
REMARK   11  A    between atoms: O5_18  and  C11_19 
REMARK   12  A    between atoms: C16_25  and  O7_26 
REMARK   13  A    between atoms: C17_28  and  O8_29 
REMARK   14  A    between atoms: O8_29  and  C18_30 
REMARK   15  A    between atoms: C18_30  and  C19_32 
REMARK   16  A    between atoms: C25_38  and  O10_39 
REMARK   17  A    between atoms: C26_41  and  O11_42 
REMARK   18  A    between atoms: C26_41  and  C27_44 
REMARK   19  A    between atoms: C27_44  and  C28_46 
ROOT
HETATM    1  C4  UNL     1      -5.233  -1.102   5.104  1.00  0.00    -0.003 C 
HETATM    2  C5  UNL     1      -4.864  -0.066   4.376  1.00  0.00    -0.048 C 
HETATM    3  C13 UNL     1      -3.638   0.620   5.006  1.00  0.00     0.040 C 
HETATM    4  C14 UNL     1      -3.102  -0.593   5.738  1.00  0.00     0.025 C 
HETATM    5  C15 UNL     1      -4.404  -1.042   6.338  1.00  0.00     0.060 C 
HETATM    6  C16 UNL     1      -4.991   0.051   7.270  1.00  0.00     0.167 C 
HETATM    7  C17 UNL     1      -3.895   0.081   8.300  1.00  0.00     0.194 C 
HETATM    8  C25 UNL     1      -3.536  -1.355   8.454  1.00  0.00     0.194 C 
HETATM    9  C26 UNL     1      -4.251  -2.116   7.279  1.00  0.00     0.171 C 
ENDROOT
BRANCH   1  10
HETATM   10  C3  UNL     1      -6.292  -2.041   4.794  1.00  0.00     0.105 C 
BRANCH  10  11
HETATM   11  C2  UNL     1      -6.425  -3.129   3.833  1.00  0.00     0.314 C 
BRANCH  11  12
HETATM   12  O1  UNL     1      -6.846  -2.698   2.576  1.00  0.00    -0.360 OA
HETATM   13  C1  UNL     1      -8.091  -3.173   2.222  1.00  0.00     0.205 C 
ENDBRANCH  11  12
BRANCH  11  14
HETATM   14  O2  UNL     1      -7.068  -4.277   4.277  1.00  0.00    -0.365 OA
ATOM     15  H2  UNL     1      -6.576  -4.766   4.927  1.00  0.00     0.213 HD
ENDBRANCH  11  14
ENDBRANCH  10  11
BRANCH  10  16
HETATM   16  O3  UNL     1      -7.402  -1.932   5.498  1.00  0.00    -0.359 OA
ATOM     17  H3  UNL     1      -8.066  -2.510   5.139  1.00  0.00     0.217 HD
ENDBRANCH  10  16
ENDBRANCH   1  10
BRANCH   6  18
HETATM   18  O7  UNL     1      -6.159  -0.464   7.831  1.00  0.00    -0.392 OA
ATOM     19  H7  UNL     1      -6.289  -0.027   8.664  1.00  0.00     0.210 HD
ENDBRANCH   6  18
BRANCH   9  20
HETATM   20  O11 UNL     1      -5.360  -2.609   7.929  1.00  0.00    -0.378 OA
ATOM     21  H11 UNL     1      -5.255  -3.303   8.569  1.00  0.00     0.211 HD
ENDBRANCH   9  20
BRANCH   9  22
HETATM   22  C27 UNL     1      -3.373  -3.262   6.956  1.00  0.00     0.263 C 
HETATM   23  O12 UNL     1      -2.218  -3.363   7.437  1.00  0.00    -0.282 OA
BRANCH  22  24
HETATM   24  C28 UNL     1      -3.780  -4.347   6.068  1.00  0.00     0.250 C 
HETATM   25  O13 UNL     1      -4.852  -5.002   6.304  1.00  0.00    -0.642 OA
HETATM   26  O14 UNL     1      -3.051  -4.714   4.957  1.00  0.00    -0.642 OA
ENDBRANCH  22  24
ENDBRANCH   9  22
BRANCH   2  27
HETATM   27  C6  UNL     1      -5.350   0.447   3.114  1.00  0.00     0.007 C 
HETATM   28  C7  UNL     1      -6.515   1.114   3.029  1.00  0.00     0.014 C 
BRANCH  28  29
HETATM   29  C8  UNL     1      -7.051   1.656   1.762  1.00  0.00     0.106 C 
HETATM   30  C9  UNL     1      -7.076   0.549   0.705  1.00  0.00     0.053 C 
BRANCH  29  31
HETATM   31  C10 UNL     1      -6.075   2.698   1.262  1.00  0.00     0.206 C 
BRANCH  31  32
HETATM   32  O4  UNL     1      -5.957   2.668  -0.125  1.00  0.00    -0.398 OA
ATOM     33  H4  UNL     1      -6.749   2.975  -0.551  1.00  0.00     0.209 HD
ENDBRANCH  31  32
ENDBRANCH  29  31
BRANCH  29  34
HETATM   34  O5  UNL     1      -8.326   2.167   2.008  1.00  0.00    -0.304 OA
BRANCH  34  35
HETATM   35  C11 UNL     1      -9.356   1.500   2.626  1.00  0.00     0.255 C 
HETATM   36  C12 UNL     1      -9.738   1.879   4.020  1.00  0.00     0.126 C 
HETATM   37  O6  UNL     1      -9.940   0.595   2.000  1.00  0.00    -0.266 OA
ENDBRANCH  34  35
ENDBRANCH  29  34
ENDBRANCH  28  29
ENDBRANCH   2  27
BRANCH   7  38
HETATM   38  O8  UNL     1      -4.327   0.666   9.519  1.00  0.00    -0.307 OA
BRANCH  38  39
HETATM   39  C18 UNL     1      -4.104   0.082  10.755  1.00  0.00     0.293 C 
HETATM   40  O9  UNL     1      -2.926  -0.240  11.032  1.00  0.00    -0.259 OA
BRANCH  39  41
HETATM   41  C19 UNL     1      -5.157  -0.167  11.726  1.00  0.00     0.039 A 
HETATM   42  C20 UNL     1      -6.494  -0.176  11.389  1.00  0.00     0.017 A 
HETATM   43  C21 UNL     1      -7.398  -0.425  12.399  1.00  0.00     0.001 A 
HETATM   44  C22 UNL     1      -7.028  -0.660  13.707  1.00  0.00     0.000 A 
HETATM   45  C23 UNL     1      -5.692  -0.649  14.036  1.00  0.00     0.001 A 
HETATM   46  C24 UNL     1      -4.787  -0.403  13.035  1.00  0.00     0.017 A 
ENDBRANCH  39  41
ENDBRANCH  38  39
ENDBRANCH   7  38
BRANCH   8  47
HETATM   47  O10 UNL     1      -2.191  -1.543   8.454  1.00  0.00    -0.389 OA
ATOM     48  H10 UNL     1      -1.822  -1.460   9.325  1.00  0.00     0.210 HD
ENDBRANCH   8  47
TORSDOF 19
ENDMDL
MODEL 5
REMARK VINA RESULT: -8.408649674      0.819      1.140
REMARK  19 active torsions:
REMARK  status: ('A' for Active; 'I' for Inactive)
REMARK    1  A    between atoms: O1_2  and  C2_3 
REMARK    2  A    between atoms: C2_3  and  O2_4 
REMARK    3  A    between atoms: C2_3  and  C3_6 
REMARK    4  A    between atoms: C3_6  and  O3_7 
REMARK    5  A    between atoms: C3_6  and  C4_9 
REMARK    6  A    between atoms: C5_10  and  C6_11 
REMARK    7  A    between atoms: C7_12  and  C8_13 
REMARK    8  A    between atoms: C8_13  and  C10_15 
REMARK    9  A    between atoms: C8_13  and  O5_18 
REMARK   10  A    between atoms: C10_15  and  O4_16 
REMARK   11  A    between atoms: O5_18  and  C11_19 
REMARK   12  A    between atoms: C16_25  and  O7_26 
REMARK   13  A    between atoms: C17_28  and  O8_29 
REMARK   14  A    between atoms: O8_29  and  C18_30 
REMARK   15  A    between atoms: C18_30  and  C19_32 
REMARK   16  A    between atoms: C25_38  and  O10_39 
REMARK   17  A    between atoms: C26_41  and  O11_42 
REMARK   18  A    between atoms: C26_41  and  C27_44 
REMARK   19  A    between atoms: C27_44  and  C28_46 
ROOT
HETATM    1  C4  UNL     1      -6.918  -0.032   5.192  1.00  0.00    -0.003 C 
HETATM    2  C5  UNL     1      -8.029   0.474   5.695  1.00  0.00    -0.048 C 
HETATM    3  C13 UNL     1      -7.702   1.431   6.855  1.00  0.00     0.040 C 
HETATM    4  C14 UNL     1      -6.304   1.801   6.404  1.00  0.00     0.025 C 
HETATM    5  C15 UNL     1      -5.828   0.407   6.105  1.00  0.00     0.060 C 
HETATM    6  C16 UNL     1      -5.869  -0.477   7.378  1.00  0.00     0.167 C 
HETATM    7  C17 UNL     1      -4.865   0.277   8.209  1.00  0.00     0.194 C 
HETATM    8  C25 UNL     1      -3.821   0.653   7.218  1.00  0.00     0.194 C 
HETATM    9  C26 UNL     1      -4.425   0.343   5.801  1.00  0.00     0.171 C 
ENDROOT
BRANCH   1  10
HETATM   10  C3  UNL     1      -6.812  -0.907   4.043  1.00  0.00     0.105 C 
BRANCH  10  11
HETATM   11  C2  UNL     1      -6.587  -0.681   2.621  1.00  0.00     0.314 C 
BRANCH  11  12
HETATM   12  O1  UNL     1      -7.725  -0.906   1.846  1.00  0.00    -0.360 OA
HETATM   13  C1  UNL     1      -8.487   0.225   1.651  1.00  0.00     0.205 C 
ENDBRANCH  11  12
BRANCH  11  14
HETATM   14  O2  UNL     1      -5.425  -1.217   2.080  1.00  0.00    -0.365 OA
ATOM     15  H2  UNL     1      -4.663  -1.121   2.639  1.00  0.00     0.213 HD
ENDBRANCH  11  14
ENDBRANCH  10  11
BRANCH  10  16
HETATM   16  O3  UNL     1      -6.944  -2.200   4.271  1.00  0.00    -0.359 OA
ATOM     17  H3  UNL     1      -6.098  -2.626   4.194  1.00  0.00     0.217 HD
ENDBRANCH  10  16
ENDBRANCH   1  10
BRANCH   6  18
HETATM   18  O7  UNL     1      -5.357  -1.728   7.033  1.00  0.00    -0.392 OA
ATOM     19  H7  UNL     1      -4.598  -1.885   7.582  1.00  0.00     0.210 HD
ENDBRANCH   6  18
BRANCH   9  20
HETATM   20  O11 UNL     1      -3.846  -0.877   5.535  1.00  0.00    -0.378 OA
ATOM     21  H11 UNL     1      -4.269  -1.670   5.843  1.00  0.00     0.211 HD
ENDBRANCH   9  20
BRANCH   9  22
HETATM   22  C27 UNL     1      -3.821   1.336   4.885  1.00  0.00     0.263 C 
HETATM   23  O12 UNL     1      -4.116   2.554   4.949  1.00  0.00    -0.282 OA
BRANCH  22  24
HETATM   24  C28 UNL     1      -2.851   0.978   3.856  1.00  0.00     0.250 C 
HETATM   25  O13 UNL     1      -3.247   0.665   2.681  1.00  0.00    -0.642 OA
HETATM   26  O14 UNL     1      -1.492   0.957   4.087  1.00  0.00    -0.642 OA
ENDBRANCH  22  24
ENDBRANCH   9  22
BRANCH   2  27
HETATM   27  C6  UNL     1      -9.413   0.340   5.298  1.00  0.00     0.007 C 
HETATM   28  C7  UNL     1     -10.115   1.390   4.834  1.00  0.00     0.014 C 
BRANCH  28  29
HETATM   29  C8  UNL     1     -11.531   1.300   4.417  1.00  0.00     0.106 C 
HETATM   30  C9  UNL     1     -12.217   2.647   4.651  1.00  0.00     0.053 C 
BRANCH  29  31
HETATM   31  C10 UNL     1     -12.215   0.310   5.333  1.00  0.00     0.206 C 
BRANCH  31  32
HETATM   32  O4  UNL     1     -12.367   0.820   6.620  1.00  0.00    -0.398 OA
ATOM     33  H4  UNL     1     -13.281   0.959   6.837  1.00  0.00     0.209 HD
ENDBRANCH  31  32
ENDBRANCH  29  31
BRANCH  29  34
HETATM   34  O5  UNL     1     -11.568   0.926   3.073  1.00  0.00    -0.304 OA
BRANCH  34  35
HETATM   35  C11 UNL     1     -12.377   1.472   2.107  1.00  0.00     0.255 C 
HETATM   36  C12 UNL     1     -11.851   2.582   1.256  1.00  0.00     0.126 C 
HETATM   37  O6  UNL     1     -13.530   1.021   1.971  1.00  0.00    -0.266 OA
ENDBRANCH  34  35
ENDBRANCH  29  34
ENDBRANCH  28  29
ENDBRANCH   2  27
BRANCH   7  38
HETATM   38  O8  UNL     1      -4.350  -0.515   9.268  1.00  0.00    -0.307 OA
BRANCH  38  39
HETATM   39  C18 UNL     1      -4.190  -0.034  10.557  1.00  0.00     0.293 C 
HETATM   40  O9  UNL     1      -3.135   0.592  10.809  1.00  0.00    -0.259 OA
BRANCH  39  41
HETATM   41  C19 UNL     1      -5.175  -0.219  11.610  1.00  0.00     0.039 A 
HETATM   42  C20 UNL     1      -6.534  -0.183  11.373  1.00  0.00     0.017 A 
HETATM   43  C21 UNL     1      -7.368  -0.373  12.454  1.00  0.00     0.001 A 
HETATM   44  C22 UNL     1      -6.910  -0.593  13.737  1.00  0.00     0.000 A 
HETATM   45  C23 UNL     1      -5.552  -0.626  13.965  1.00  0.00     0.001 A 
HETATM   46  C24 UNL     1      -4.717  -0.439  12.893  1.00  0.00     0.017 A 
ENDBRANCH  39  41
ENDBRANCH  38  39
ENDBRANCH   7  38
BRANCH   8  47
HETATM   47  O10 UNL     1      -3.442   1.951   7.351  1.00  0.00    -0.389 OA
ATOM     48  H10 UNL     1      -2.648   2.139   6.864  1.00  0.00     0.210 HD
ENDBRANCH   8  47
TORSDOF 19
ENDMDL
