MODEL 1
REMARK VINA RESULT: -7.575879071      0.000      0.000
REMARK  17 active torsions:
REMARK  status: ('A' for Active; 'I' for Inactive)
REMARK    1  A    between atoms: C2_2  and  C3_3 
REMARK    2  A    between atoms: C2_2  and  C5_9 
REMARK    3  A    between atoms: C3_3  and  O1_4 
REMARK    4  A    between atoms: C3_3  and  C4_6 
REMARK    5  A    between atoms: C5_9  and  O4_10 
REMARK    6  A    between atoms: C5_9  and  C10_17 
REMARK    7  A    between atoms: O4_10  and  C6_11 
REMARK    8  A    between atoms: C6_11  and  C9_14 
REMARK    9  A    between atoms: C9_14  and  O5_15 
REMARK   10  A    between atoms: C10_17  and  O6_18 
REMARK   11  A    between atoms: C10_17  and  C11_20 
REMARK   12  A    between atoms: C11_20  and  O7_21 
REMARK   13  A    between atoms: O7_21  and  C12_22 
REMARK   14  A    between atoms: C16_28  and  O10_29 
REMARK   15  A    between atoms: C21_35  and  O11_36 
REMARK   16  A    between atoms: O11_36  and  C22_37 
REMARK   17  A    between atoms: C28_45  and  O14_46 
ROOT
HETATM    1  C12 UNL     1      -5.488  -0.090   4.448  1.00  0.00     0.257 A 
HETATM    2  O8  UNL     1      -4.697  -0.651   3.447  1.00  0.00    -0.303 OA
HETATM    3  C13 UNL     1      -6.006  -0.960   3.567  1.00  0.00     0.258 A 
HETATM    4  O9  UNL     1      -6.765  -0.739   2.485  1.00  0.00    -0.332 OA
HETATM    5  C14 UNL     1      -7.752  -1.503   2.985  1.00  0.00     0.119 C 
HETATM    6  C15 UNL     1      -8.144  -2.560   1.927  1.00  0.00     0.052 C 
HETATM    7  C16 UNL     1      -8.883  -0.894   3.695  1.00  0.00     0.166 C 
HETATM    8  C17 UNL     1      -8.999   0.527   3.983  1.00  0.00     0.080 C 
HETATM    9  C18 UNL     1      -8.817   0.748   5.450  1.00  0.00    -0.075 C 
HETATM   10  C19 UNL     1      -9.996   0.312   6.282  1.00  0.00     0.044 C 
HETATM   11  C20 UNL     1      -7.801   1.258   6.133  1.00  0.00     0.011 C 
HETATM   12  C21 UNL     1      -6.508   1.782   5.696  1.00  0.00     0.189 C 
HETATM   13  C24 UNL     1      -6.070   1.306   4.333  1.00  0.00     0.224 C 
HETATM   14  O13 UNL     1      -6.874   1.494   3.297  1.00  0.00    -0.366 OA
HETATM   15  C25 UNL     1      -8.206   1.539   3.275  1.00  0.00     0.064 C 
HETATM   16  C26 UNL     1      -8.663   2.927   3.686  1.00  0.00     0.046 C 
HETATM   17  C27 UNL     1      -8.676   1.468   1.793  1.00  0.00     0.046 C 
HETATM   18  C28 UNL     1      -6.711  -2.169   3.885  1.00  0.00     0.223 C 
ENDROOT
BRANCH   1  19
HETATM   19  O7  UNL     1      -4.955  -0.502   5.696  1.00  0.00    -0.346 OA
BRANCH  19  20
HETATM   20  C11 UNL     1      -3.583  -0.321   5.591  1.00  0.00     0.206 C 
BRANCH  20  21
HETATM   21  C10 UNL     1      -2.866  -1.229   6.560  1.00  0.00     0.175 C 
BRANCH  21  22
HETATM   22  C5  UNL     1      -3.783  -1.979   7.485  1.00  0.00     0.184 C 
BRANCH  22  23
HETATM   23  C2  UNL     1      -3.545  -3.435   7.416  1.00  0.00    -0.019 C 
HETATM   24  C1  UNL     1      -3.429  -4.171   8.541  1.00  0.00     0.020 C 
BRANCH  23  25
HETATM   25  C3  UNL     1      -3.424  -4.148   6.132  1.00  0.00     0.249 C 
BRANCH  25  26
HETATM   26  O1  UNL     1      -2.086  -4.605   5.966  1.00  0.00    -0.380 OA
ATOM     27  H1  UNL     1      -2.084  -5.398   5.445  1.00  0.00     0.211 HD
ENDBRANCH  25  26
BRANCH  25  28
HETATM   28  C4  UNL     1      -4.288  -5.341   6.062  1.00  0.00     0.207 C 
HETATM   29  O2  UNL     1      -5.359  -5.333   5.431  1.00  0.00    -0.646 OA
HETATM   30  O3  UNL     1      -3.916  -6.497   6.702  1.00  0.00    -0.646 OA
ENDBRANCH  25  28
ENDBRANCH  23  25
ENDBRANCH  22  23
BRANCH  22  31
HETATM   31  O4  UNL     1      -3.502  -1.493   8.771  1.00  0.00    -0.366 OA
BRANCH  31  32
HETATM   32  C6  UNL     1      -4.454  -0.658   9.283  1.00  0.00     0.076 C 
HETATM   33  C7  UNL     1      -4.407  -0.519  10.791  1.00  0.00     0.048 C 
HETATM   34  C8  UNL     1      -5.803  -1.340   8.985  1.00  0.00     0.048 C 
BRANCH  32  35
HETATM   35  C9  UNL     1      -4.533   0.709   8.699  1.00  0.00     0.201 C 
BRANCH  35  36
HETATM   36  O5  UNL     1      -3.319   1.389   8.701  1.00  0.00    -0.398 OA
ATOM     37  H5  UNL     1      -3.205   1.970   7.958  1.00  0.00     0.209 HD
ENDBRANCH  35  36
ENDBRANCH  32  35
ENDBRANCH  31  32
ENDBRANCH  22  31
ENDBRANCH  21  22
BRANCH  21  38
HETATM   38  O6  UNL     1      -1.787  -0.625   7.148  1.00  0.00    -0.391 OA
ATOM     39  H6  UNL     1      -1.012  -1.165   7.246  1.00  0.00     0.210 HD
ENDBRANCH  21  38
ENDBRANCH  20  21
ENDBRANCH  19  20
ENDBRANCH   1  19
BRANCH  18  40
HETATM   40  O14 UNL     1      -6.117  -3.308   3.340  1.00  0.00    -0.387 OA
ATOM     41  H14 UNL     1      -6.628  -4.097   3.479  1.00  0.00     0.210 HD
ENDBRANCH  18  40
BRANCH  12  42
HETATM   42  O11 UNL     1      -6.399   3.190   5.817  1.00  0.00    -0.309 OA
BRANCH  42  43
HETATM   43  C22 UNL     1      -5.266   3.908   6.044  1.00  0.00     0.255 C 
HETATM   44  C23 UNL     1      -5.204   5.399   6.006  1.00  0.00     0.126 C 
HETATM   45  O12 UNL     1      -4.229   3.246   6.295  1.00  0.00    -0.266 OA
ENDBRANCH  42  43
ENDBRANCH  12  42
BRANCH   7  46
HETATM   46  O10 UNL     1      -9.034  -1.631   4.899  1.00  0.00    -0.392 OA
ATOM     47  H10 UNL     1      -8.600  -1.123   5.574  1.00  0.00     0.210 HD
ENDBRANCH   7  46
TORSDOF 17
ENDMDL
MODEL 2
REMARK VINA RESULT: -7.141081554      2.060      6.729
REMARK  17 active torsions:
REMARK  status: ('A' for Active; 'I' for Inactive)
REMARK    1  A    between atoms: C2_2  and  C3_3 
REMARK    2  A    between atoms: C2_2  and  C5_9 
REMARK    3  A    between atoms: C3_3  and  O1_4 
REMARK    4  A    between atoms: C3_3  and  C4_6 
REMARK    5  A    between atoms: C5_9  and  O4_10 
REMARK    6  A    between atoms: C5_9  and  C10_17 
REMARK    7  A    between atoms: O4_10  and  C6_11 
REMARK    8  A    between atoms: C6_11  and  C9_14 
REMARK    9  A    between atoms: C9_14  and  O5_15 
REMARK   10  A    between atoms: C10_17  and  O6_18 
REMARK   11  A    between atoms: C10_17  and  C11_20 
REMARK   12  A    between atoms: C11_20  and  O7_21 
REMARK   13  A    between atoms: O7_21  and  C12_22 
REMARK   14  A    between atoms: C16_28  and  O10_29 
REMARK   15  A    between atoms: C21_35  and  O11_36 
REMARK   16  A    between atoms: O11_36  and  C22_37 
REMARK   17  A    between atoms: C28_45  and  O14_46 
ROOT
HETATM    1  C12 UNL     1      -6.217   0.070   7.110  1.00  0.00     0.257 A 
HETATM    2  O8  UNL     1      -6.972   0.966   7.864  1.00  0.00    -0.303 OA
HETATM    3  C13 UNL     1      -6.083   0.131   8.444  1.00  0.00     0.258 A 
HETATM    4  O9  UNL     1      -5.130   0.711   9.187  1.00  0.00    -0.332 OA
HETATM    5  C14 UNL     1      -4.822  -0.466   9.761  1.00  0.00     0.119 C 
HETATM    6  C15 UNL     1      -4.857  -0.291  11.297  1.00  0.00     0.052 C 
HETATM    7  C16 UNL     1      -3.704  -1.274   9.260  1.00  0.00     0.166 C 
HETATM    8  C17 UNL     1      -2.907  -0.932   8.091  1.00  0.00     0.080 C 
HETATM    9  C18 UNL     1      -3.224  -1.883   6.983  1.00  0.00    -0.075 C 
HETATM   10  C19 UNL     1      -2.647  -3.262   7.182  1.00  0.00     0.044 C 
HETATM   11  C20 UNL     1      -3.922  -1.717   5.868  1.00  0.00     0.011 C 
HETATM   12  C21 UNL     1      -4.621  -0.552   5.329  1.00  0.00     0.189 C 
HETATM   13  C24 UNL     1      -4.971   0.496   6.357  1.00  0.00     0.224 C 
HETATM   14  O13 UNL     1      -4.007   1.005   7.111  1.00  0.00    -0.366 OA
HETATM   15  C25 UNL     1      -2.883   0.423   7.527  1.00  0.00     0.064 C 
HETATM   16  C26 UNL     1      -1.846   0.497   6.421  1.00  0.00     0.046 C 
HETATM   17  C27 UNL     1      -2.245   1.317   8.630  1.00  0.00     0.046 C 
HETATM   18  C28 UNL     1      -6.210  -0.967   9.359  1.00  0.00     0.223 C 
ENDROOT
BRANCH   1  19
HETATM   19  O7  UNL     1      -7.118  -0.825   6.479  1.00  0.00    -0.346 OA
BRANCH  19  20
HETATM   20  C11 UNL     1      -8.141  -0.030   5.980  1.00  0.00     0.206 C 
BRANCH  20  21
HETATM   21  C10 UNL     1      -8.829  -0.732   4.835  1.00  0.00     0.175 C 
BRANCH  21  22
HETATM   22  C5  UNL     1      -8.707  -0.017   3.518  1.00  0.00     0.184 C 
BRANCH  22  23
HETATM   23  C2  UNL     1      -8.204  -0.916   2.461  1.00  0.00    -0.019 C 
HETATM   24  C1  UNL     1      -7.773  -0.423   1.281  1.00  0.00     0.020 C 
BRANCH  23  25
HETATM   25  C3  UNL     1      -8.148  -2.378   2.638  1.00  0.00     0.249 C 
BRANCH  25  26
HETATM   26  O1  UNL     1      -8.283  -3.015   1.372  1.00  0.00    -0.380 OA
ATOM     27  H1  UNL     1      -8.550  -2.377   0.722  1.00  0.00     0.211 HD
ENDBRANCH  25  26
BRANCH  25  28
HETATM   28  C4  UNL     1      -6.865  -2.833   3.203  1.00  0.00     0.207 C 
HETATM   29  O2  UNL     1      -5.788  -2.636   2.615  1.00  0.00    -0.646 OA
HETATM   30  O3  UNL     1      -6.840  -3.492   4.407  1.00  0.00    -0.646 OA
ENDBRANCH  25  28
ENDBRANCH  23  25
ENDBRANCH  22  23
BRANCH  22  31
HETATM   31  O4  UNL     1     -10.000   0.433   3.213  1.00  0.00    -0.366 OA
BRANCH  31  32
HETATM   32  C6  UNL     1     -10.147   1.791   3.228  1.00  0.00     0.076 C 
HETATM   33  C7  UNL     1     -11.318   2.275   4.059  1.00  0.00     0.048 C 
HETATM   34  C8  UNL     1     -10.493   2.185   1.780  1.00  0.00     0.048 C 
BRANCH  32  35
HETATM   35  C9  UNL     1      -8.951   2.591   3.611  1.00  0.00     0.201 C 
BRANCH  35  36
HETATM   36  O5  UNL     1      -9.033   3.931   3.245  1.00  0.00    -0.398 OA
ATOM     37  H5  UNL     1      -9.859   4.340   3.474  1.00  0.00     0.209 HD
ENDBRANCH  35  36
ENDBRANCH  32  35
ENDBRANCH  31  32
ENDBRANCH  22  31
ENDBRANCH  21  22
BRANCH  21  38
HETATM   38  O6  UNL     1     -10.084  -1.170   5.163  1.00  0.00    -0.391 OA
ATOM     39  H6  UNL     1     -10.165  -2.098   5.348  1.00  0.00     0.210 HD
ENDBRANCH  21  38
ENDBRANCH  20  21
ENDBRANCH  19  20
ENDBRANCH   1  19
BRANCH  18  40
HETATM   40  O14 UNL     1      -7.200  -0.767  10.321  1.00  0.00    -0.387 OA
ATOM     41  H14 UNL     1      -7.521   0.127  10.345  1.00  0.00     0.210 HD
ENDBRANCH  18  40
BRANCH  12  42
HETATM   42  O11 UNL     1      -3.984   0.018   4.199  1.00  0.00    -0.309 OA
BRANCH  42  43
HETATM   43  C22 UNL     1      -4.582   0.625   3.139  1.00  0.00     0.255 C 
HETATM   44  C23 UNL     1      -5.480   1.812   3.259  1.00  0.00     0.126 C 
HETATM   45  O12 UNL     1      -4.345   0.133   2.009  1.00  0.00    -0.266 OA
ENDBRANCH  42  43
ENDBRANCH  12  42
BRANCH   7  46
HETATM   46  O10 UNL     1      -4.207  -2.593   9.114  1.00  0.00    -0.392 OA
ATOM     47  H10 UNL     1      -3.632  -3.027   8.495  1.00  0.00     0.210 HD
ENDBRANCH   7  46
TORSDOF 17
ENDMDL
MODEL 3
REMARK VINA RESULT: -7.104128486      1.738      3.624
REMARK  17 active torsions:
REMARK  status: ('A' for Active; 'I' for Inactive)
REMARK    1  A    between atoms: C2_2  and  C3_3 
REMARK    2  A    between atoms: C2_2  and  C5_9 
REMARK    3  A    between atoms: C3_3  and  O1_4 
REMARK    4  A    between atoms: C3_3  and  C4_6 
REMARK    5  A    between atoms: C5_9  and  O4_10 
REMARK    6  A    between atoms: C5_9  and  C10_17 
REMARK    7  A    between atoms: O4_10  and  C6_11 
REMARK    8  A    between atoms: C6_11  and  C9_14 
REMARK    9  A    between atoms: C9_14  and  O5_15 
REMARK   10  A    between atoms: C10_17  and  O6_18 
REMARK   11  A    between atoms: C10_17  and  C11_20 
REMARK   12  A    between atoms: C11_20  and  O7_21 
REMARK   13  A    between atoms: O7_21  and  C12_22 
REMARK   14  A    between atoms: C16_28  and  O10_29 
REMARK   15  A    between atoms: C21_35  and  O11_36 
REMARK   16  A    between atoms: O11_36  and  C22_37 
REMARK   17  A    between atoms: C28_45  and  O14_46 
ROOT
HETATM    1  C12 UNL     1      -5.752   0.485   4.101  1.00  0.00     0.257 A 
HETATM    2  O8  UNL     1      -4.879   1.278   4.844  1.00  0.00    -0.303 OA
HETATM    3  C13 UNL     1      -4.896   1.322   3.495  1.00  0.00     0.258 A 
HETATM    4  O9  UNL     1      -5.113   2.527   2.948  1.00  0.00    -0.332 OA
HETATM    5  C14 UNL     1      -4.678   2.093   1.751  1.00  0.00     0.119 C 
HETATM    6  C15 UNL     1      -3.586   3.063   1.242  1.00  0.00     0.052 C 
HETATM    7  C16 UNL     1      -5.628   1.645   0.727  1.00  0.00     0.166 C 
HETATM    8  C17 UNL     1      -7.066   1.553   0.930  1.00  0.00     0.080 C 
HETATM    9  C18 UNL     1      -7.465   0.113   0.984  1.00  0.00    -0.075 C 
HETATM   10  C19 UNL     1      -7.439  -0.575  -0.358  1.00  0.00     0.044 C 
HETATM   11  C20 UNL     1      -7.831  -0.650   2.004  1.00  0.00     0.011 C 
HETATM   12  C21 UNL     1      -7.976  -0.355   3.429  1.00  0.00     0.189 C 
HETATM   13  C24 UNL     1      -7.208   0.857   3.897  1.00  0.00     0.224 C 
HETATM   14  O13 UNL     1      -7.411   2.019   3.293  1.00  0.00    -0.366 OA
HETATM   15  C25 UNL     1      -7.751   2.249   2.025  1.00  0.00     0.064 C 
HETATM   16  C26 UNL     1      -9.253   2.085   1.876  1.00  0.00     0.046 C 
HETATM   17  C27 UNL     1      -7.560   3.766   1.732  1.00  0.00     0.046 C 
HETATM   18  C28 UNL     1      -3.941   0.971   2.482  1.00  0.00     0.223 C 
ENDROOT
BRANCH   1  19
HETATM   19  O7  UNL     1      -5.429  -0.870   4.363  1.00  0.00    -0.346 OA
BRANCH  19  20
HETATM   20  C11 UNL     1      -5.412  -0.986   5.747  1.00  0.00     0.206 C 
BRANCH  20  21
HETATM   21  C10 UNL     1      -4.062  -1.481   6.208  1.00  0.00     0.175 C 
BRANCH  21  22
HETATM   22  C5  UNL     1      -4.081  -2.125   7.566  1.00  0.00     0.184 C 
BRANCH  22  23
HETATM   23  C2  UNL     1      -3.673  -3.543   7.495  1.00  0.00    -0.019 C 
HETATM   24  C1  UNL     1      -3.431  -4.249   8.620  1.00  0.00     0.020 C 
BRANCH  23  25
HETATM   25  C3  UNL     1      -3.515  -4.249   6.212  1.00  0.00     0.249 C 
BRANCH  25  26
HETATM   26  O1  UNL     1      -2.153  -4.626   6.042  1.00  0.00    -0.380 OA
ATOM     27  H1  UNL     1      -1.761  -4.793   6.891  1.00  0.00     0.211 HD
ENDBRANCH  25  26
BRANCH  25  28
HETATM   28  C4  UNL     1      -4.306  -5.491   6.145  1.00  0.00     0.207 C 
HETATM   29  O2  UNL     1      -3.919  -6.540   6.689  1.00  0.00    -0.646 OA
HETATM   30  O3  UNL     1      -5.502  -5.508   5.471  1.00  0.00    -0.646 OA
ENDBRANCH  25  28
ENDBRANCH  23  25
ENDBRANCH  22  23
BRANCH  22  31
HETATM   31  O4  UNL     1      -3.175  -1.388   8.344  1.00  0.00    -0.366 OA
BRANCH  31  32
HETATM   32  C6  UNL     1      -3.756  -0.598   9.295  1.00  0.00     0.076 C 
HETATM   33  C7  UNL     1      -3.352  -0.942  10.714  1.00  0.00     0.048 C 
HETATM   34  C8  UNL     1      -5.264  -0.904   9.221  1.00  0.00     0.048 C 
BRANCH  32  35
HETATM   35  C9  UNL     1      -3.614   0.874   9.122  1.00  0.00     0.201 C 
BRANCH  35  36
HETATM   36  O5  UNL     1      -4.121   1.348   7.917  1.00  0.00    -0.398 OA
ATOM     37  H5  UNL     1      -3.520   1.261   7.187  1.00  0.00     0.209 HD
ENDBRANCH  35  36
ENDBRANCH  32  35
ENDBRANCH  31  32
ENDBRANCH  22  31
ENDBRANCH  21  22
BRANCH  21  38
HETATM   38  O6  UNL     1      -3.065  -0.569   5.992  1.00  0.00    -0.391 OA
ATOM     39  H6  UNL     1      -2.960  -0.273   5.095  1.00  0.00     0.210 HD
ENDBRANCH  21  38
ENDBRANCH  20  21
ENDBRANCH  19  20
ENDBRANCH   1  19
BRANCH  18  40
HETATM   40  O14 UNL     1      -2.627   1.276   2.840  1.00  0.00    -0.387 OA
ATOM     41  H14 UNL     1      -1.985   0.923   2.235  1.00  0.00     0.210 HD
ENDBRANCH  18  40
BRANCH  12  42
HETATM   42  O11 UNL     1      -9.324  -0.319   3.864  1.00  0.00    -0.309 OA
BRANCH  42  43
HETATM   43  C22 UNL     1      -9.773  -0.362   5.148  1.00  0.00     0.255 C 
HETATM   44  C23 UNL     1      -9.120   0.356   6.281  1.00  0.00     0.126 C 
HETATM   45  O12 UNL     1     -10.798  -1.056   5.355  1.00  0.00    -0.266 OA
ENDBRANCH  42  43
ENDBRANCH  12  42
BRANCH   7  46
HETATM   46  O10 UNL     1      -5.140   0.397   0.258  1.00  0.00    -0.392 OA
ATOM     47  H10 UNL     1      -5.780   0.083  -0.369  1.00  0.00     0.210 HD
ENDBRANCH   7  46
TORSDOF 17
ENDMDL
MODEL 4
REMARK VINA RESULT: -7.023997827      1.460      4.241
REMARK  17 active torsions:
REMARK  status: ('A' for Active; 'I' for Inactive)
REMARK    1  A    between atoms: C2_2  and  C3_3 
REMARK    2  A    between atoms: C2_2  and  C5_9 
REMARK    3  A    between atoms: C3_3  and  O1_4 
REMARK    4  A    between atoms: C3_3  and  C4_6 
REMARK    5  A    between atoms: C5_9  and  O4_10 
REMARK    6  A    between atoms: C5_9  and  C10_17 
REMARK    7  A    between atoms: O4_10  and  C6_11 
REMARK    8  A    between atoms: C6_11  and  C9_14 
REMARK    9  A    between atoms: C9_14  and  O5_15 
REMARK   10  A    between atoms: C10_17  and  O6_18 
REMARK   11  A    between atoms: C10_17  and  C11_20 
REMARK   12  A    between atoms: C11_20  and  O7_21 
REMARK   13  A    between atoms: O7_21  and  C12_22 
REMARK   14  A    between atoms: C16_28  and  O10_29 
REMARK   15  A    between atoms: C21_35  and  O11_36 
REMARK   16  A    between atoms: O11_36  and  C22_37 
REMARK   17  A    between atoms: C28_45  and  O14_46 
ROOT
HETATM    1  C12 UNL     1      -7.090  -0.124   5.452  1.00  0.00     0.257 A 
HETATM    2  O8  UNL     1      -7.602   0.586   6.537  1.00  0.00    -0.303 OA
HETATM    3  C13 UNL     1      -6.918   1.203   5.549  1.00  0.00     0.258 A 
HETATM    4  O9  UNL     1      -7.558   2.202   4.926  1.00  0.00    -0.332 OA
HETATM    5  C14 UNL     1      -6.406   2.645   4.392  1.00  0.00     0.119 C 
HETATM    6  C15 UNL     1      -6.260   4.151   4.713  1.00  0.00     0.052 C 
HETATM    7  C16 UNL     1      -6.018   2.267   3.028  1.00  0.00     0.166 C 
HETATM    8  C17 UNL     1      -6.773   1.349   2.188  1.00  0.00     0.080 C 
HETATM    9  C18 UNL     1      -6.011   0.071   2.048  1.00  0.00    -0.075 C 
HETATM   10  C19 UNL     1      -4.808   0.176   1.145  1.00  0.00     0.044 C 
HETATM   11  C20 UNL     1      -6.215  -1.126   2.582  1.00  0.00     0.011 C 
HETATM   12  C21 UNL     1      -7.251  -1.616   3.490  1.00  0.00     0.189 C 
HETATM   13  C24 UNL     1      -7.954  -0.536   4.275  1.00  0.00     0.224 C 
HETATM   14  O13 UNL     1      -8.528   0.464   3.623  1.00  0.00    -0.366 OA
HETATM   15  C25 UNL     1      -8.174   1.009   2.459  1.00  0.00     0.064 C 
HETATM   16  C26 UNL     1      -8.722   0.159   1.326  1.00  0.00     0.046 C 
HETATM   17  C27 UNL     1      -8.964   2.338   2.278  1.00  0.00     0.046 C 
HETATM   18  C28 UNL     1      -5.664   1.901   5.502  1.00  0.00     0.223 C 
ENDROOT
BRANCH   1  19
HETATM   19  O7  UNL     1      -6.142  -1.050   5.955  1.00  0.00    -0.346 OA
BRANCH  19  20
HETATM   20  C11 UNL     1      -4.900  -0.512   5.647  1.00  0.00     0.206 C 
BRANCH  20  21
HETATM   21  C10 UNL     1      -3.804  -1.437   6.121  1.00  0.00     0.175 C 
BRANCH  21  22
HETATM   22  C5  UNL     1      -4.064  -2.050   7.468  1.00  0.00     0.184 C 
BRANCH  22  23
HETATM   23  C2  UNL     1      -3.794  -3.502   7.460  1.00  0.00    -0.019 C 
HETATM   24  C1  UNL     1      -3.728  -4.199   8.614  1.00  0.00     0.020 C 
BRANCH  23  25
HETATM   25  C3  UNL     1      -3.587  -4.253   6.210  1.00  0.00     0.249 C 
BRANCH  25  26
HETATM   26  O1  UNL     1      -2.216  -4.622   6.099  1.00  0.00    -0.380 OA
ATOM     27  H1  UNL     1      -2.120  -5.283   5.424  1.00  0.00     0.211 HD
ENDBRANCH  25  26
BRANCH  25  28
HETATM   28  C4  UNL     1      -4.365  -5.504   6.163  1.00  0.00     0.207 C 
HETATM   29  O2  UNL     1      -5.454  -5.571   5.569  1.00  0.00    -0.646 OA
HETATM   30  O3  UNL     1      -3.890  -6.632   6.785  1.00  0.00    -0.646 OA
ENDBRANCH  25  28
ENDBRANCH  23  25
ENDBRANCH  22  23
BRANCH  22  31
HETATM   31  O4  UNL     1      -3.200  -1.391   8.355  1.00  0.00    -0.366 OA
BRANCH  31  32
HETATM   32  C6  UNL     1      -3.812  -0.492   9.181  1.00  0.00     0.076 C 
HETATM   33  C7  UNL     1      -3.402   0.947   8.941  1.00  0.00     0.048 C 
HETATM   34  C8  UNL     1      -3.307  -0.822  10.598  1.00  0.00     0.048 C 
BRANCH  32  35
HETATM   35  C9  UNL     1      -5.299  -0.539   9.240  1.00  0.00     0.201 C 
BRANCH  35  36
HETATM   36  O5  UNL     1      -5.916   0.621   8.783  1.00  0.00    -0.398 OA
ATOM     37  H5  UNL     1      -6.204   1.200   9.478  1.00  0.00     0.209 HD
ENDBRANCH  35  36
ENDBRANCH  32  35
ENDBRANCH  31  32
ENDBRANCH  22  31
ENDBRANCH  21  22
BRANCH  21  38
HETATM   38  O6  UNL     1      -2.554  -0.911   5.934  1.00  0.00    -0.391 OA
ATOM     39  H6  UNL     1      -1.943  -1.456   5.452  1.00  0.00     0.210 HD
ENDBRANCH  21  38
ENDBRANCH  20  21
ENDBRANCH  19  20
ENDBRANCH   1  19
BRANCH  18  40
HETATM   40  O14 UNL     1      -5.417   2.661   6.645  1.00  0.00    -0.387 OA
ATOM     41  H14 UNL     1      -5.960   3.438   6.700  1.00  0.00     0.210 HD
ENDBRANCH  18  40
BRANCH  12  42
HETATM   42  O11 UNL     1      -8.173  -2.496   2.871  1.00  0.00    -0.309 OA
BRANCH  42  43
HETATM   43  C22 UNL     1      -8.039  -3.839   2.702  1.00  0.00     0.255 C 
HETATM   44  C23 UNL     1      -8.816  -4.635   1.707  1.00  0.00     0.126 C 
HETATM   45  O12 UNL     1      -7.203  -4.411   3.444  1.00  0.00    -0.266 OA
ENDBRANCH  42  43
ENDBRANCH  12  42
BRANCH   7  46
HETATM   46  O10 UNL     1      -4.671   1.828   3.110  1.00  0.00    -0.392 OA
ATOM     47  H10 UNL     1      -4.707   0.882   3.187  1.00  0.00     0.210 HD
ENDBRANCH   7  46
TORSDOF 17
ENDMDL
MODEL 5
REMARK VINA RESULT: -6.978879828      2.114      3.752
REMARK  17 active torsions:
REMARK  status: ('A' for Active; 'I' for Inactive)
REMARK    1  A    between atoms: C2_2  and  C3_3 
REMARK    2  A    between atoms: C2_2  and  C5_9 
REMARK    3  A    between atoms: C3_3  and  O1_4 
REMARK    4  A    between atoms: C3_3  and  C4_6 
REMARK    5  A    between atoms: C5_9  and  O4_10 
REMARK    6  A    between atoms: C5_9  and  C10_17 
REMARK    7  A    between atoms: O4_10  and  C6_11 
REMARK    8  A    between atoms: C6_11  and  C9_14 
REMARK    9  A    between atoms: C9_14  and  O5_15 
REMARK   10  A    between atoms: C10_17  and  O6_18 
REMARK   11  A    between atoms: C10_17  and  C11_20 
REMARK   12  A    between atoms: C11_20  and  O7_21 
REMARK   13  A    between atoms: O7_21  and  C12_22 
REMARK   14  A    between atoms: C16_28  and  O10_29 
REMARK   15  A    between atoms: C21_35  and  O11_36 
REMARK   16  A    between atoms: O11_36  and  C22_37 
REMARK   17  A    between atoms: C28_45  and  O14_46 
ROOT
HETATM    1  C12 UNL     1      -5.508  -0.665   5.524  1.00  0.00     0.257 A 
HETATM    2  O8  UNL     1      -4.537  -1.491   4.961  1.00  0.00    -0.303 OA
HETATM    3  C13 UNL     1      -5.830  -1.561   4.578  1.00  0.00     0.258 A 
HETATM    4  O9  UNL     1      -6.068  -1.384   3.271  1.00  0.00    -0.332 OA
HETATM    5  C14 UNL     1      -7.306  -1.894   3.399  1.00  0.00     0.119 C 
HETATM    6  C15 UNL     1      -7.486  -3.020   2.354  1.00  0.00     0.052 C 
HETATM    7  C16 UNL     1      -8.466  -1.010   3.557  1.00  0.00     0.166 C 
HETATM    8  C17 UNL     1      -8.382   0.438   3.669  1.00  0.00     0.080 C 
HETATM    9  C18 UNL     1      -8.718   0.844   5.068  1.00  0.00    -0.075 C 
HETATM   10  C19 UNL     1     -10.185   0.735   5.398  1.00  0.00     0.044 C 
HETATM   11  C20 UNL     1      -7.947   1.278   6.055  1.00  0.00     0.011 C 
HETATM   12  C21 UNL     1      -6.506   1.514   6.125  1.00  0.00     0.189 C 
HETATM   13  C24 UNL     1      -5.701   0.774   5.084  1.00  0.00     0.224 C 
HETATM   14  O13 UNL     1      -6.004   0.933   3.804  1.00  0.00    -0.366 OA
HETATM   15  C25 UNL     1      -7.191   1.190   3.257  1.00  0.00     0.064 C 
HETATM   16  C26 UNL     1      -7.470   2.679   3.349  1.00  0.00     0.046 C 
HETATM   17  C27 UNL     1      -7.080   0.975   1.719  1.00  0.00     0.046 C 
HETATM   18  C28 UNL     1      -6.837  -2.578   4.683  1.00  0.00     0.223 C 
ENDROOT
BRANCH   1  19
HETATM   19  O7  UNL     1      -5.576  -0.966   6.908  1.00  0.00    -0.346 OA
BRANCH  19  20
HETATM   20  C11 UNL     1      -4.360  -0.556   7.437  1.00  0.00     0.206 C 
BRANCH  20  21
HETATM   21  C10 UNL     1      -4.192  -1.104   8.833  1.00  0.00     0.175 C 
BRANCH  21  22
HETATM   22  C5  UNL     1      -4.041  -0.045   9.890  1.00  0.00     0.184 C 
BRANCH  22  23
HETATM   23  C2  UNL     1      -5.083  -0.170  10.929  1.00  0.00    -0.019 C 
HETATM   24  C1  UNL     1      -6.386  -0.273  10.592  1.00  0.00     0.020 C 
BRANCH  23  25
HETATM   25  C3  UNL     1      -4.758  -0.188  12.366  1.00  0.00     0.249 C 
BRANCH  25  26
HETATM   26  O1  UNL     1      -4.070   1.008  12.713  1.00  0.00    -0.380 OA
ATOM     27  H1  UNL     1      -4.332   1.284  13.583  1.00  0.00     0.211 HD
ENDBRANCH  25  26
BRANCH  25  28
HETATM   28  C4  UNL     1      -5.959  -0.246  13.219  1.00  0.00     0.207 C 
HETATM   29  O2  UNL     1      -6.981   0.408  12.949  1.00  0.00    -0.646 OA
HETATM   30  O3  UNL     1      -5.966  -1.034  14.343  1.00  0.00    -0.646 OA
ENDBRANCH  25  28
ENDBRANCH  23  25
ENDBRANCH  22  23
BRANCH  22  31
HETATM   31  O4  UNL     1      -2.766  -0.241  10.441  1.00  0.00    -0.366 OA
BRANCH  31  32
HETATM   32  C6  UNL     1      -1.859   0.732  10.135  1.00  0.00     0.076 C 
HETATM   33  C7  UNL     1      -0.949   0.384   8.974  1.00  0.00     0.048 C 
HETATM   34  C8  UNL     1      -0.930   0.830  11.359  1.00  0.00     0.048 C 
BRANCH  32  35
HETATM   35  C9  UNL     1      -2.397   2.100   9.900  1.00  0.00     0.201 C 
BRANCH  35  36
HETATM   36  O5  UNL     1      -2.488   2.872  11.054  1.00  0.00    -0.398 OA
ATOM     37  H5  UNL     1      -3.371   2.951  11.394  1.00  0.00     0.209 HD
ENDBRANCH  35  36
ENDBRANCH  32  35
ENDBRANCH  31  32
ENDBRANCH  22  31
ENDBRANCH  21  22
BRANCH  21  38
HETATM   38  O6  UNL     1      -3.294  -2.136   8.890  1.00  0.00    -0.391 OA
ATOM     39  H6  UNL     1      -2.432  -1.919   9.225  1.00  0.00     0.210 HD
ENDBRANCH  21  38
ENDBRANCH  20  21
ENDBRANCH  19  20
ENDBRANCH   1  19
BRANCH  18  40
HETATM   40  O14 UNL     1      -6.334  -3.867   4.503  1.00  0.00    -0.387 OA
ATOM     41  H14 UNL     1      -6.474  -4.430   5.256  1.00  0.00     0.210 HD
ENDBRANCH  18  40
BRANCH  12  42
HETATM   42  O11 UNL     1      -6.159   2.887   6.173  1.00  0.00    -0.309 OA
BRANCH  42  43
HETATM   43  C22 UNL     1      -4.943   3.436   5.906  1.00  0.00     0.255 C 
HETATM   44  C23 UNL     1      -4.701   4.434   4.823  1.00  0.00     0.126 C 
HETATM   45  O12 UNL     1      -3.991   3.058   6.631  1.00  0.00    -0.266 OA
ENDBRANCH  42  43
ENDBRANCH  12  42
BRANCH   7  46
HETATM   46  O10 UNL     1      -9.204  -1.523   4.657  1.00  0.00    -0.392 OA
ATOM     47  H10 UNL     1     -10.111  -1.296   4.494  1.00  0.00     0.210 HD
ENDBRANCH   7  46
TORSDOF 17
ENDMDL
