MODEL 1
REMARK VINA RESULT: -8.141406570      0.000      0.000
REMARK  19 active torsions:
REMARK  status: ('A' for Active; 'I' for Inactive)
REMARK    1  A    between atoms: C2_2  and  C3_3 
REMARK    2  A    between atoms: C2_2  and  C10_12 
REMARK    3  A    between atoms: C4_4  and  C5_5 
REMARK    4  A    between atoms: C6_6  and  C8_8 
REMARK    5  A    between atoms: C8_8  and  O1_10 
REMARK    6  A    between atoms: C12_14  and  O2_15 
REMARK    7  A    between atoms: C16_20  and  O3_21 
REMARK    8  A    between atoms: C16_20  and  C17_23 
REMARK    9  A    between atoms: C17_23  and  O5_25 
REMARK   10  A    between atoms: O5_25  and  C18_26 
REMARK   11  A    between atoms: C18_26  and  O6_27 
REMARK   12  A    between atoms: C18_26  and  C22_32 
REMARK   13  A    between atoms: O6_27  and  C19_28 
REMARK   14  A    between atoms: C19_28  and  C20_30 
REMARK   15  A    between atoms: C22_32  and  O8_33 
REMARK   16  A    between atoms: C22_32  and  C23_35 
REMARK   17  A    between atoms: C24_38  and  O11_39 
REMARK   18  A    between atoms: O11_39  and  C25_40 
REMARK   19  A    between atoms: C28_45  and  O14_46 
ROOT
HETATM    1  C10 UNL     1      -6.315   0.847   6.598  1.00  0.00     0.051 C 
HETATM    2  C11 UNL     1      -7.637   0.900   7.339  1.00  0.00     0.027 C 
HETATM    3  C12 UNL     1      -5.793   2.264   6.416  1.00  0.00     0.138 C 
HETATM    4  C13 UNL     1      -6.266   2.783   5.096  1.00  0.00     0.070 C 
HETATM    5  C14 UNL     1      -7.105   1.714   4.536  1.00  0.00    -0.035 C 
HETATM    6  C15 UNL     1      -8.095   1.684   3.714  1.00  0.00     0.030 C 
HETATM    7  C16 UNL     1      -8.828   0.422   3.266  1.00  0.00     0.197 C 
HETATM    8  C24 UNL     1      -7.920  -0.705   3.466  1.00  0.00     0.253 C 
HETATM    9  C27 UNL     1      -7.478  -0.645   4.915  1.00  0.00     0.199 C 
HETATM   10  O13 UNL     1      -7.875  -1.392   5.749  1.00  0.00    -0.291 OA
HETATM   11  C28 UNL     1      -6.512   0.429   5.185  1.00  0.00     0.158 C 
ENDROOT
BRANCH   7  12
HETATM   12  O3  UNL     1      -9.963   0.437   4.120  1.00  0.00    -0.373 OA
ATOM     13  H3  UNL     1     -10.669   0.547   3.493  1.00  0.00     0.211 HD
ENDBRANCH   7  12
BRANCH   7  14
HETATM   14  C17 UNL     1      -9.327   0.660   1.888  1.00  0.00     0.303 C 
HETATM   15  O4  UNL     1      -8.549   0.666   0.900  1.00  0.00    -0.261 OA
BRANCH  14  16
HETATM   16  O5  UNL     1     -10.665   0.878   1.663  1.00  0.00    -0.283 OA
BRANCH  16  17
HETATM   17  C18 UNL     1     -11.381   2.044   1.855  1.00  0.00     0.318 C 
BRANCH  17  18
HETATM   18  O6  UNL     1     -11.229   2.943   0.783  1.00  0.00    -0.286 OA
BRANCH  18  19
HETATM   19  C19 UNL     1     -10.803   4.237   0.946  1.00  0.00     0.260 C 
HETATM   20  O7  UNL     1     -11.468   5.170   0.411  1.00  0.00    -0.265 OA
BRANCH  19  21
HETATM   21  C20 UNL     1      -9.569   4.546   1.746  1.00  0.00     0.107 C 
HETATM   22  C21 UNL     1      -8.359   4.202   0.915  1.00  0.00     0.015 C 
ENDBRANCH  19  21
ENDBRANCH  18  19
ENDBRANCH  17  18
BRANCH  17  23
HETATM   23  C22 UNL     1     -12.844   1.800   2.177  1.00  0.00     0.275 C 
BRANCH  23  24
HETATM   24  O8  UNL     1     -12.825   0.837   3.210  1.00  0.00    -0.380 OA
ATOM     25  H8  UNL     1     -12.973   0.009   2.768  1.00  0.00     0.210 HD
ENDBRANCH  23  24
BRANCH  23  26
HETATM   26  C23 UNL     1     -13.578   1.148   1.068  1.00  0.00     0.208 C 
HETATM   27  O9  UNL     1     -14.121   1.852   0.190  1.00  0.00    -0.646 OA
HETATM   28  O10 UNL     1     -13.681  -0.211   0.973  1.00  0.00    -0.646 OA
ENDBRANCH  23  26
ENDBRANCH  17  23
ENDBRANCH  16  17
ENDBRANCH  14  16
ENDBRANCH   7  14
BRANCH   8  29
HETATM   29  O11 UNL     1      -8.314  -1.992   3.116  1.00  0.00    -0.304 OA
BRANCH  29  30
HETATM   30  C25 UNL     1      -7.456  -2.936   2.552  1.00  0.00     0.255 C 
HETATM   31  C26 UNL     1      -8.021  -4.177   1.996  1.00  0.00     0.126 C 
HETATM   32  O12 UNL     1      -6.240  -2.654   2.561  1.00  0.00    -0.266 OA
ENDBRANCH  29  30
ENDBRANCH   8  29
BRANCH  11  33
HETATM   33  O14 UNL     1      -5.350   0.265   4.462  1.00  0.00    -0.376 OA
ATOM     34  H14 UNL     1      -4.763  -0.404   4.794  1.00  0.00     0.211 HD
ENDBRANCH  11  33
BRANCH   3  35
HETATM   35  O2  UNL     1      -4.402   2.303   6.534  1.00  0.00    -0.394 OA
ATOM     36  H2  UNL     1      -4.116   3.124   6.917  1.00  0.00     0.210 HD
ENDBRANCH   3  35
BRANCH   1  37
HETATM   37  C2  UNL     1      -5.384   0.017   7.384  1.00  0.00    -0.053 C 
HETATM   38  C1  UNL     1      -4.740  -0.962   6.693  1.00  0.00     0.020 C 
BRANCH  37  39
HETATM   39  C3  UNL     1      -5.023   0.071   8.755  1.00  0.00     0.007 C 
HETATM   40  C4  UNL     1      -5.454  -0.082   9.942  1.00  0.00     0.001 C 
BRANCH  40  41
HETATM   41  C5  UNL     1      -6.671  -0.429  10.594  1.00  0.00     0.005 C 
HETATM   42  C6  UNL     1      -7.033  -0.453  11.821  1.00  0.00    -0.056 C 
HETATM   43  C7  UNL     1      -8.508  -0.922  12.031  1.00  0.00     0.046 C 
BRANCH  42  44
HETATM   44  C8  UNL     1      -6.404  -0.142  13.080  1.00  0.00     0.142 C 
HETATM   45  C9  UNL     1      -5.053  -0.580  13.437  1.00  0.00     0.044 C 
BRANCH  44  46
HETATM   46  O1  UNL     1      -7.259  -0.602  14.145  1.00  0.00    -0.392 OA
ATOM     47  H1  UNL     1      -8.071  -0.111  14.114  1.00  0.00     0.210 HD
ENDBRANCH  44  46
ENDBRANCH  42  44
ENDBRANCH  40  41
ENDBRANCH  37  39
ENDBRANCH   1  37
TORSDOF 19
ENDMDL
MODEL 2
REMARK VINA RESULT: -8.131970547      2.531      9.265
REMARK  19 active torsions:
REMARK  status: ('A' for Active; 'I' for Inactive)
REMARK    1  A    between atoms: C2_2  and  C3_3 
REMARK    2  A    between atoms: C2_2  and  C10_12 
REMARK    3  A    between atoms: C4_4  and  C5_5 
REMARK    4  A    between atoms: C6_6  and  C8_8 
REMARK    5  A    between atoms: C8_8  and  O1_10 
REMARK    6  A    between atoms: C12_14  and  O2_15 
REMARK    7  A    between atoms: C16_20  and  O3_21 
REMARK    8  A    between atoms: C16_20  and  C17_23 
REMARK    9  A    between atoms: C17_23  and  O5_25 
REMARK   10  A    between atoms: O5_25  and  C18_26 
REMARK   11  A    between atoms: C18_26  and  O6_27 
REMARK   12  A    between atoms: C18_26  and  C22_32 
REMARK   13  A    between atoms: O6_27  and  C19_28 
REMARK   14  A    between atoms: C19_28  and  C20_30 
REMARK   15  A    between atoms: C22_32  and  O8_33 
REMARK   16  A    between atoms: C22_32  and  C23_35 
REMARK   17  A    between atoms: C24_38  and  O11_39 
REMARK   18  A    between atoms: O11_39  and  C25_40 
REMARK   19  A    between atoms: C28_45  and  O14_46 
ROOT
HETATM    1  C10 UNL     1      -8.905   1.116   4.204  1.00  0.00     0.051 C 
HETATM    2  C11 UNL     1      -8.245   2.476   4.325  1.00  0.00     0.027 C 
HETATM    3  C12 UNL     1     -10.297   1.186   4.814  1.00  0.00     0.138 C 
HETATM    4  C13 UNL     1     -10.211   0.776   6.250  1.00  0.00     0.070 C 
HETATM    5  C14 UNL     1      -8.784   0.530   6.499  1.00  0.00    -0.035 C 
HETATM    6  C15 UNL     1      -8.029   0.583   7.541  1.00  0.00     0.030 C 
HETATM    7  C16 UNL     1      -6.534   0.275   7.561  1.00  0.00     0.197 C 
HETATM    8  C24 UNL     1      -6.249  -0.577   6.410  1.00  0.00     0.253 C 
HETATM    9  C27 UNL     1      -6.783   0.153   5.194  1.00  0.00     0.199 C 
HETATM   10  O13 UNL     1      -6.085   0.697   4.401  1.00  0.00    -0.291 OA
HETATM   11  C28 UNL     1      -8.249   0.123   5.094  1.00  0.00     0.158 C 
ENDROOT
BRANCH   7  12
HETATM   12  O3  UNL     1      -5.977   1.580   7.494  1.00  0.00    -0.373 OA
ATOM     13  H3  UNL     1      -5.639   1.595   6.607  1.00  0.00     0.211 HD
ENDBRANCH   7  12
BRANCH   7  14
HETATM   14  C17 UNL     1      -6.207  -0.260   8.906  1.00  0.00     0.303 C 
HETATM   15  O4  UNL     1      -7.108  -0.555   9.732  1.00  0.00    -0.261 OA
BRANCH  14  16
HETATM   16  O5  UNL     1      -4.897  -0.451   9.278  1.00  0.00    -0.283 OA
BRANCH  16  17
HETATM   17  C18 UNL     1      -4.214   0.146  10.318  1.00  0.00     0.318 C 
BRANCH  17  18
HETATM   18  O6  UNL     1      -4.242  -0.632  11.490  1.00  0.00    -0.286 OA
BRANCH  18  19
HETATM   19  C19 UNL     1      -4.433  -0.098  12.739  1.00  0.00     0.260 C 
HETATM   20  O7  UNL     1      -3.721   0.883  13.098  1.00  0.00    -0.265 OA
BRANCH  19  21
HETATM   21  C20 UNL     1      -5.468  -0.665  13.669  1.00  0.00     0.107 C 
HETATM   22  C21 UNL     1      -6.834  -0.284  13.156  1.00  0.00     0.015 C 
ENDBRANCH  19  21
ENDBRANCH  18  19
ENDBRANCH  17  18
BRANCH  17  23
HETATM   23  C22 UNL     1      -2.797   0.549   9.949  1.00  0.00     0.275 C 
BRANCH  23  24
HETATM   24  O8  UNL     1      -2.690   1.895  10.365  1.00  0.00    -0.380 OA
ATOM     25  H8  UNL     1      -1.863   2.192  10.004  1.00  0.00     0.210 HD
ENDBRANCH  23  24
BRANCH  23  26
HETATM   26  C23 UNL     1      -2.572   0.588   8.485  1.00  0.00     0.208 C 
HETATM   27  O9  UNL     1      -3.105   1.490   7.804  1.00  0.00    -0.646 OA
HETATM   28  O10 UNL     1      -1.793  -0.339   7.851  1.00  0.00    -0.646 OA
ENDBRANCH  23  26
ENDBRANCH  17  23
ENDBRANCH  16  17
ENDBRANCH  14  16
ENDBRANCH   7  14
BRANCH   8  29
HETATM   29  O11 UNL     1      -4.957  -1.042   6.187  1.00  0.00    -0.304 OA
BRANCH  29  30
HETATM   30  C25 UNL     1      -4.624  -2.395   6.118  1.00  0.00     0.255 C 
HETATM   31  C26 UNL     1      -3.675  -2.951   7.097  1.00  0.00     0.126 C 
HETATM   32  O12 UNL     1      -5.168  -3.053   5.207  1.00  0.00    -0.266 OA
ENDBRANCH  29  30
ENDBRANCH   8  29
BRANCH  11  33
HETATM   33  O14 UNL     1      -8.727  -1.164   4.979  1.00  0.00    -0.376 OA
ATOM     34  H14 UNL     1      -8.519  -1.735   5.708  1.00  0.00     0.211 HD
ENDBRANCH  11  33
BRANCH   3  35
HETATM   35  O2  UNL     1     -11.198   0.402   4.091  1.00  0.00    -0.394 OA
ATOM     36  H2  UNL     1     -10.798   0.070   3.296  1.00  0.00     0.210 HD
ENDBRANCH   3  35
BRANCH   1  37
HETATM   37  C2  UNL     1      -8.951   0.758   2.775  1.00  0.00    -0.053 C 
HETATM   38  C1  UNL     1      -9.658   1.605   1.977  1.00  0.00     0.020 C 
BRANCH  37  39
HETATM   39  C3  UNL     1      -8.364  -0.323   2.069  1.00  0.00     0.007 C 
HETATM   40  C4  UNL     1      -7.313  -0.714   1.468  1.00  0.00     0.001 C 
BRANCH  40  41
HETATM   41  C5  UNL     1      -6.020  -0.208   1.153  1.00  0.00     0.005 C 
HETATM   42  C6  UNL     1      -5.538   0.974   1.067  1.00  0.00    -0.056 C 
HETATM   43  C7  UNL     1      -4.026   1.009   0.678  1.00  0.00     0.046 C 
BRANCH  42  44
HETATM   44  C8  UNL     1      -6.056   2.307   1.249  1.00  0.00     0.142 C 
HETATM   45  C9  UNL     1      -6.003   3.341   0.214  1.00  0.00     0.044 C 
BRANCH  44  46
HETATM   46  O1  UNL     1      -5.434   2.886   2.413  1.00  0.00    -0.392 OA
ATOM     47  H1  UNL     1      -5.246   3.799   2.232  1.00  0.00     0.210 HD
ENDBRANCH  44  46
ENDBRANCH  42  44
ENDBRANCH  40  41
ENDBRANCH  37  39
ENDBRANCH   1  37
TORSDOF 19
ENDMDL
MODEL 3
REMARK VINA RESULT: -8.112355496      4.469      9.564
REMARK  19 active torsions:
REMARK  status: ('A' for Active; 'I' for Inactive)
REMARK    1  A    between atoms: C2_2  and  C3_3 
REMARK    2  A    between atoms: C2_2  and  C10_12 
REMARK    3  A    between atoms: C4_4  and  C5_5 
REMARK    4  A    between atoms: C6_6  and  C8_8 
REMARK    5  A    between atoms: C8_8  and  O1_10 
REMARK    6  A    between atoms: C12_14  and  O2_15 
REMARK    7  A    between atoms: C16_20  and  O3_21 
REMARK    8  A    between atoms: C16_20  and  C17_23 
REMARK    9  A    between atoms: C17_23  and  O5_25 
REMARK   10  A    between atoms: O5_25  and  C18_26 
REMARK   11  A    between atoms: C18_26  and  O6_27 
REMARK   12  A    between atoms: C18_26  and  C22_32 
REMARK   13  A    between atoms: O6_27  and  C19_28 
REMARK   14  A    between atoms: C19_28  and  C20_30 
REMARK   15  A    between atoms: C22_32  and  O8_33 
REMARK   16  A    between atoms: C22_32  and  C23_35 
REMARK   17  A    between atoms: C24_38  and  O11_39 
REMARK   18  A    between atoms: O11_39  and  C25_40 
REMARK   19  A    between atoms: C28_45  and  O14_46 
ROOT
HETATM    1  C10 UNL     1      -4.898   1.990   4.805  1.00  0.00     0.051 C 
HETATM    2  C11 UNL     1      -5.788   1.105   3.953  1.00  0.00     0.027 C 
HETATM    3  C12 UNL     1      -3.497   1.999   4.214  1.00  0.00     0.138 C 
HETATM    4  C13 UNL     1      -2.693   0.924   4.873  1.00  0.00     0.070 C 
HETATM    5  C14 UNL     1      -3.621   0.251   5.792  1.00  0.00    -0.035 C 
HETATM    6  C15 UNL     1      -3.698  -0.935   6.286  1.00  0.00     0.030 C 
HETATM    7  C16 UNL     1      -4.780  -1.419   7.247  1.00  0.00     0.197 C 
HETATM    8  C24 UNL     1      -5.337  -0.240   7.908  1.00  0.00     0.253 C 
HETATM    9  C27 UNL     1      -5.771   0.703   6.804  1.00  0.00     0.199 C 
HETATM   10  O13 UNL     1      -6.908   0.882   6.509  1.00  0.00    -0.291 OA
HETATM   11  C28 UNL     1      -4.647   1.372   6.134  1.00  0.00     0.158 C 
ENDROOT
BRANCH   7  12
HETATM   12  O3  UNL     1      -5.668  -2.085   6.361  1.00  0.00    -0.373 OA
ATOM     13  H3  UNL     1      -6.461  -2.124   6.883  1.00  0.00     0.211 HD
ENDBRANCH   7  12
BRANCH   7  14
HETATM   14  C17 UNL     1      -4.176  -2.464   8.111  1.00  0.00     0.303 C 
HETATM   15  O4  UNL     1      -3.182  -2.218   8.841  1.00  0.00    -0.261 OA
BRANCH  14  16
HETATM   16  O5  UNL     1      -4.698  -3.735   8.132  1.00  0.00    -0.283 OA
BRANCH  16  17
HETATM   17  C18 UNL     1      -4.015  -4.935   8.151  1.00  0.00     0.318 C 
BRANCH  17  18
HETATM   18  O6  UNL     1      -4.776  -5.971   8.723  1.00  0.00    -0.286 OA
BRANCH  18  19
HETATM   19  C19 UNL     1      -4.214  -7.054   9.352  1.00  0.00     0.260 C 
HETATM   20  O7  UNL     1      -3.836  -8.036   8.652  1.00  0.00    -0.265 OA
BRANCH  19  21
HETATM   21  C20 UNL     1      -4.047  -7.076  10.845  1.00  0.00     0.107 C 
HETATM   22  C21 UNL     1      -3.712  -8.483  11.270  1.00  0.00     0.015 C 
ENDBRANCH  19  21
ENDBRANCH  18  19
ENDBRANCH  17  18
BRANCH  17  23
HETATM   23  C22 UNL     1      -3.465  -5.331   6.792  1.00  0.00     0.275 C 
BRANCH  23  24
HETATM   24  O8  UNL     1      -2.408  -4.424   6.559  1.00  0.00    -0.380 OA
ATOM     25  H8  UNL     1      -2.370  -4.338   5.613  1.00  0.00     0.210 HD
ENDBRANCH  23  24
BRANCH  23  26
HETATM   26  C23 UNL     1      -4.423  -5.085   5.689  1.00  0.00     0.208 C 
HETATM   27  O9  UNL     1      -4.152  -4.232   4.817  1.00  0.00    -0.646 OA
HETATM   28  O10 UNL     1      -5.603  -5.767   5.594  1.00  0.00    -0.646 OA
ENDBRANCH  23  26
ENDBRANCH  17  23
ENDBRANCH  16  17
ENDBRANCH  14  16
ENDBRANCH   7  14
BRANCH   8  29
HETATM   29  O11 UNL     1      -6.334  -0.381   8.867  1.00  0.00    -0.304 OA
BRANCH  29  30
HETATM   30  C25 UNL     1      -6.128  -0.177  10.231  1.00  0.00     0.255 C 
HETATM   31  C26 UNL     1      -7.265  -0.312  11.156  1.00  0.00     0.126 C 
HETATM   32  O12 UNL     1      -4.964   0.114  10.577  1.00  0.00    -0.266 OA
ENDBRANCH  29  30
ENDBRANCH   8  29
BRANCH  11  33
HETATM   33  O14 UNL     1      -3.923   2.152   7.008  1.00  0.00    -0.376 OA
ATOM     34  H14 UNL     1      -3.148   1.736   7.368  1.00  0.00     0.211 HD
ENDBRANCH  11  33
BRANCH   3  35
HETATM   35  O2  UNL     1      -2.908   3.258   4.345  1.00  0.00    -0.394 OA
ATOM     36  H2  UNL     1      -1.968   3.184   4.459  1.00  0.00     0.210 HD
ENDBRANCH   3  35
BRANCH   1  37
HETATM   37  C2  UNL     1      -5.490   3.340   4.832  1.00  0.00    -0.053 C 
HETATM   38  C1  UNL     1      -6.051   3.761   3.666  1.00  0.00     0.020 C 
BRANCH  37  39
HETATM   39  C3  UNL     1      -5.594   4.288   5.882  1.00  0.00     0.007 C 
HETATM   40  C4  UNL     1      -5.016   5.271   6.446  1.00  0.00     0.001 C 
BRANCH  40  41
HETATM   41  C5  UNL     1      -3.816   6.024   6.298  1.00  0.00     0.005 C 
HETATM   42  C6  UNL     1      -3.311   6.684   5.327  1.00  0.00    -0.056 C 
HETATM   43  C7  UNL     1      -1.939   7.350   5.667  1.00  0.00     0.046 C 
BRANCH  42  44
HETATM   44  C8  UNL     1      -3.704   6.976   3.970  1.00  0.00     0.142 C 
HETATM   45  C9  UNL     1      -5.062   7.373   3.593  1.00  0.00     0.044 C 
BRANCH  44  46
HETATM   46  O1  UNL     1      -3.386   5.837   3.146  1.00  0.00    -0.392 OA
ATOM     47  H1  UNL     1      -3.412   6.107   2.236  1.00  0.00     0.210 HD
ENDBRANCH  44  46
ENDBRANCH  42  44
ENDBRANCH  40  41
ENDBRANCH  37  39
ENDBRANCH   1  37
TORSDOF 19
ENDMDL
MODEL 4
REMARK VINA RESULT: -8.051231853      3.540      9.095
REMARK  19 active torsions:
REMARK  status: ('A' for Active; 'I' for Inactive)
REMARK    1  A    between atoms: C2_2  and  C3_3 
REMARK    2  A    between atoms: C2_2  and  C10_12 
REMARK    3  A    between atoms: C4_4  and  C5_5 
REMARK    4  A    between atoms: C6_6  and  C8_8 
REMARK    5  A    between atoms: C8_8  and  O1_10 
REMARK    6  A    between atoms: C12_14  and  O2_15 
REMARK    7  A    between atoms: C16_20  and  O3_21 
REMARK    8  A    between atoms: C16_20  and  C17_23 
REMARK    9  A    between atoms: C17_23  and  O5_25 
REMARK   10  A    between atoms: O5_25  and  C18_26 
REMARK   11  A    between atoms: C18_26  and  O6_27 
REMARK   12  A    between atoms: C18_26  and  C22_32 
REMARK   13  A    between atoms: O6_27  and  C19_28 
REMARK   14  A    between atoms: C19_28  and  C20_30 
REMARK   15  A    between atoms: C22_32  and  O8_33 
REMARK   16  A    between atoms: C22_32  and  C23_35 
REMARK   17  A    between atoms: C24_38  and  O11_39 
REMARK   18  A    between atoms: O11_39  and  C25_40 
REMARK   19  A    between atoms: C28_45  and  O14_46 
ROOT
HETATM    1  C10 UNL     1      -3.673   2.509   4.784  1.00  0.00     0.051 C 
HETATM    2  C11 UNL     1      -2.894   1.630   3.824  1.00  0.00     0.027 C 
HETATM    3  C12 UNL     1      -2.697   3.212   5.715  1.00  0.00     0.138 C 
HETATM    4  C13 UNL     1      -2.530   2.382   6.948  1.00  0.00     0.070 C 
HETATM    5  C14 UNL     1      -3.346   1.181   6.722  1.00  0.00    -0.035 C 
HETATM    6  C15 UNL     1      -3.297  -0.034   7.146  1.00  0.00     0.030 C 
HETATM    7  C16 UNL     1      -4.279  -1.139   6.766  1.00  0.00     0.197 C 
HETATM    8  C24 UNL     1      -5.515  -0.493   6.329  1.00  0.00     0.253 C 
HETATM    9  C27 UNL     1      -5.125   0.485   5.239  1.00  0.00     0.199 C 
HETATM   10  O13 UNL     1      -5.341   0.295   4.086  1.00  0.00    -0.291 OA
HETATM   11  C28 UNL     1      -4.451   1.687   5.748  1.00  0.00     0.158 C 
ENDROOT
BRANCH   7  12
HETATM   12  O3  UNL     1      -3.562  -1.814   5.743  1.00  0.00    -0.373 OA
ATOM     13  H3  UNL     1      -4.269  -2.131   5.194  1.00  0.00     0.211 HD
ENDBRANCH   7  12
BRANCH   7  14
HETATM   14  C17 UNL     1      -4.366  -2.074   7.915  1.00  0.00     0.303 C 
HETATM   15  O4  UNL     1      -4.106  -1.700   9.087  1.00  0.00    -0.261 OA
BRANCH  14  16
HETATM   16  O5  UNL     1      -4.742  -3.382   7.719  1.00  0.00    -0.283 OA
BRANCH  16  17
HETATM   17  C18 UNL     1      -4.067  -4.526   8.096  1.00  0.00     0.318 C 
BRANCH  17  18
HETATM   18  O6  UNL     1      -4.887  -5.413   8.818  1.00  0.00    -0.286 OA
BRANCH  18  19
HETATM   19  C19 UNL     1      -4.441  -6.615   9.308  1.00  0.00     0.260 C 
HETATM   20  O7  UNL     1      -4.895  -7.683   8.808  1.00  0.00    -0.265 OA
BRANCH  19  21
HETATM   21  C20 UNL     1      -3.430  -6.665  10.419  1.00  0.00     0.107 C 
HETATM   22  C21 UNL     1      -3.874  -7.696  11.425  1.00  0.00     0.015 C 
ENDBRANCH  19  21
ENDBRANCH  18  19
ENDBRANCH  17  18
BRANCH  17  23
HETATM   23  C22 UNL     1      -3.375  -5.221   6.938  1.00  0.00     0.275 C 
BRANCH  23  24
HETATM   24  O8  UNL     1      -2.268  -4.396   6.639  1.00  0.00    -0.380 OA
ATOM     25  H8  UNL     1      -2.651  -3.583   6.332  1.00  0.00     0.210 HD
ENDBRANCH  23  24
BRANCH  23  26
HETATM   26  C23 UNL     1      -4.187  -5.224   5.699  1.00  0.00     0.208 C 
HETATM   27  O9  UNL     1      -3.702  -4.765   4.643  1.00  0.00    -0.646 OA
HETATM   28  O10 UNL     1      -5.462  -5.716   5.675  1.00  0.00    -0.646 OA
ENDBRANCH  23  26
ENDBRANCH  17  23
ENDBRANCH  16  17
ENDBRANCH  14  16
ENDBRANCH   7  14
BRANCH   8  29
HETATM   29  O11 UNL     1      -6.608  -1.262   5.944  1.00  0.00    -0.304 OA
BRANCH  29  30
HETATM   30  C25 UNL     1      -7.871  -0.732   5.679  1.00  0.00     0.255 C 
HETATM   31  C26 UNL     1      -8.379   0.364   6.521  1.00  0.00     0.126 C 
HETATM   32  O12 UNL     1      -8.495  -1.238   4.724  1.00  0.00    -0.266 OA
ENDBRANCH  29  30
ENDBRANCH   8  29
BRANCH  11  33
HETATM   33  O14 UNL     1      -5.262   2.405   6.600  1.00  0.00    -0.376 OA
ATOM     34  H14 UNL     1      -5.684   1.891   7.278  1.00  0.00     0.211 HD
ENDBRANCH  11  33
BRANCH   3  35
HETATM   35  O2  UNL     1      -3.126   4.509   6.001  1.00  0.00    -0.394 OA
ATOM     36  H2  UNL     1      -4.069   4.583   5.909  1.00  0.00     0.210 HD
ENDBRANCH   3  35
BRANCH   1  37
HETATM   37  C2  UNL     1      -4.458   3.469   3.988  1.00  0.00    -0.053 C 
HETATM   38  C1  UNL     1      -3.798   4.055   2.952  1.00  0.00     0.020 C 
BRANCH  37  39
HETATM   39  C3  UNL     1      -5.809   3.886   4.102  1.00  0.00     0.007 C 
HETATM   40  C4  UNL     1      -7.007   3.605   3.776  1.00  0.00     0.001 C 
BRANCH  40  41
HETATM   41  C5  UNL     1      -7.699   2.606   3.035  1.00  0.00     0.005 C 
HETATM   42  C6  UNL     1      -8.886   2.134   3.097  1.00  0.00    -0.056 C 
HETATM   43  C7  UNL     1      -9.174   1.018   2.043  1.00  0.00     0.046 C 
BRANCH  42  44
HETATM   44  C8  UNL     1     -10.048   2.388   3.913  1.00  0.00     0.142 C 
HETATM   45  C9  UNL     1     -11.126   1.415   4.105  1.00  0.00     0.044 C 
BRANCH  44  46
HETATM   46  O1  UNL     1     -10.686   3.591   3.441  1.00  0.00    -0.392 OA
ATOM     47  H1  UNL     1     -10.929   4.118   4.193  1.00  0.00     0.210 HD
ENDBRANCH  44  46
ENDBRANCH  42  44
ENDBRANCH  40  41
ENDBRANCH  37  39
ENDBRANCH   1  37
TORSDOF 19
ENDMDL
MODEL 5
REMARK VINA RESULT: -8.041940197      3.661      9.503
REMARK  19 active torsions:
REMARK  status: ('A' for Active; 'I' for Inactive)
REMARK    1  A    between atoms: C2_2  and  C3_3 
REMARK    2  A    between atoms: C2_2  and  C10_12 
REMARK    3  A    between atoms: C4_4  and  C5_5 
REMARK    4  A    between atoms: C6_6  and  C8_8 
REMARK    5  A    between atoms: C8_8  and  O1_10 
REMARK    6  A    between atoms: C12_14  and  O2_15 
REMARK    7  A    between atoms: C16_20  and  O3_21 
REMARK    8  A    between atoms: C16_20  and  C17_23 
REMARK    9  A    between atoms: C17_23  and  O5_25 
REMARK   10  A    between atoms: O5_25  and  C18_26 
REMARK   11  A    between atoms: C18_26  and  O6_27 
REMARK   12  A    between atoms: C18_26  and  C22_32 
REMARK   13  A    between atoms: O6_27  and  C19_28 
REMARK   14  A    between atoms: C19_28  and  C20_30 
REMARK   15  A    between atoms: C22_32  and  O8_33 
REMARK   16  A    between atoms: C22_32  and  C23_35 
REMARK   17  A    between atoms: C24_38  and  O11_39 
REMARK   18  A    between atoms: O11_39  and  C25_40 
REMARK   19  A    between atoms: C28_45  and  O14_46 
ROOT
HETATM    1  C10 UNL     1      -4.997   1.800   4.545  1.00  0.00     0.051 C 
HETATM    2  C11 UNL     1      -5.773   0.826   3.679  1.00  0.00     0.027 C 
HETATM    3  C12 UNL     1      -3.567   1.887   4.034  1.00  0.00     0.138 C 
HETATM    4  C13 UNL     1      -2.733   0.894   4.778  1.00  0.00     0.070 C 
HETATM    5  C14 UNL     1      -3.666   0.190   5.668  1.00  0.00    -0.035 C 
HETATM    6  C15 UNL     1      -3.691  -0.981   6.202  1.00  0.00     0.030 C 
HETATM    7  C16 UNL     1      -4.793  -1.506   7.119  1.00  0.00     0.197 C 
HETATM    8  C24 UNL     1      -5.466  -0.347   7.701  1.00  0.00     0.253 C 
HETATM    9  C27 UNL     1      -5.897   0.525   6.539  1.00  0.00     0.199 C 
HETATM   10  O13 UNL     1      -7.024   0.613   6.174  1.00  0.00    -0.291 OA
HETATM   11  C28 UNL     1      -4.783   1.247   5.909  1.00  0.00     0.158 C 
ENDROOT
BRANCH   7  12
HETATM   12  O3  UNL     1      -5.580  -2.263   6.211  1.00  0.00    -0.373 OA
ATOM     13  H3  UNL     1      -6.171  -2.712   6.802  1.00  0.00     0.211 HD
ENDBRANCH   7  12
BRANCH   7  14
HETATM   14  C17 UNL     1      -4.171  -2.476   8.055  1.00  0.00     0.303 C 
HETATM   15  O4  UNL     1      -3.196  -2.155   8.781  1.00  0.00    -0.261 OA
BRANCH  14  16
HETATM   16  O5  UNL     1      -4.656  -3.759   8.150  1.00  0.00    -0.283 OA
BRANCH  16  17
HETATM   17  C18 UNL     1      -3.939  -4.937   8.203  1.00  0.00     0.318 C 
BRANCH  17  18
HETATM   18  O6  UNL     1      -4.671  -5.979   8.802  1.00  0.00    -0.286 OA
BRANCH  18  19
HETATM   19  C19 UNL     1      -4.080  -7.067   9.393  1.00  0.00     0.260 C 
HETATM   20  O7  UNL     1      -3.816  -8.078   8.682  1.00  0.00    -0.265 OA
BRANCH  19  21
HETATM   21  C20 UNL     1      -3.748  -7.061  10.859  1.00  0.00     0.107 C 
HETATM   22  C21 UNL     1      -3.743  -8.485  11.355  1.00  0.00     0.015 C 
ENDBRANCH  19  21
ENDBRANCH  18  19
ENDBRANCH  17  18
BRANCH  17  23
HETATM   23  C22 UNL     1      -3.373  -5.354   6.857  1.00  0.00     0.275 C 
BRANCH  23  24
HETATM   24  O8  UNL     1      -2.347  -4.418   6.598  1.00  0.00    -0.380 OA
ATOM     25  H8  UNL     1      -1.574  -4.948   6.442  1.00  0.00     0.210 HD
ENDBRANCH  23  24
BRANCH  23  26
HETATM   26  C23 UNL     1      -4.336  -5.174   5.746  1.00  0.00     0.208 C 
HETATM   27  O9  UNL     1      -4.050  -4.410   4.800  1.00  0.00    -0.646 OA
HETATM   28  O10 UNL     1      -5.539  -5.822   5.724  1.00  0.00    -0.646 OA
ENDBRANCH  23  26
ENDBRANCH  17  23
ENDBRANCH  16  17
ENDBRANCH  14  16
ENDBRANCH   7  14
BRANCH   8  29
HETATM   29  O11 UNL     1      -6.506  -0.524   8.608  1.00  0.00    -0.304 OA
BRANCH  29  30
HETATM   30  C25 UNL     1      -6.414  -0.203   9.962  1.00  0.00     0.255 C 
HETATM   31  C26 UNL     1      -7.632  -0.222  10.788  1.00  0.00     0.126 C 
HETATM   32  O12 UNL     1      -5.276   0.086  10.386  1.00  0.00    -0.266 OA
ENDBRANCH  29  30
ENDBRANCH   8  29
BRANCH  11  33
HETATM   33  O14 UNL     1      -4.166   2.106   6.792  1.00  0.00    -0.376 OA
ATOM     34  H14 UNL     1      -4.236   1.858   7.706  1.00  0.00     0.211 HD
ENDBRANCH  11  33
BRANCH   3  35
HETATM   35  O2  UNL     1      -3.075   3.188   4.149  1.00  0.00    -0.394 OA
ATOM     36  H2  UNL     1      -2.630   3.455   3.353  1.00  0.00     0.210 HD
ENDBRANCH   3  35
BRANCH   1  37
HETATM   37  C2  UNL     1      -5.680   3.105   4.487  1.00  0.00    -0.053 C 
HETATM   38  C1  UNL     1      -5.226   4.047   5.358  1.00  0.00     0.020 C 
BRANCH  37  39
HETATM   39  C3  UNL     1      -6.734   3.566   3.657  1.00  0.00     0.007 C 
HETATM   40  C4  UNL     1      -7.971   3.434   3.391  1.00  0.00     0.001 C 
BRANCH  40  41
HETATM   41  C5  UNL     1      -9.078   2.660   3.844  1.00  0.00     0.005 C 
HETATM   42  C6  UNL     1      -9.966   1.964   3.240  1.00  0.00    -0.056 C 
HETATM   43  C7  UNL     1     -10.995   1.291   4.202  1.00  0.00     0.046 C 
BRANCH  42  44
HETATM   44  C8  UNL     1     -10.253   1.639   1.865  1.00  0.00     0.142 C 
HETATM   45  C9  UNL     1     -11.595   1.702   1.285  1.00  0.00     0.044 C 
BRANCH  44  46
HETATM   46  O1  UNL     1      -9.773   0.306   1.600  1.00  0.00    -0.392 OA
ATOM     47  H1  UNL     1      -8.848   0.354   1.390  1.00  0.00     0.210 HD
ENDBRANCH  44  46
ENDBRANCH  42  44
ENDBRANCH  40  41
ENDBRANCH  37  39
ENDBRANCH   1  37
TORSDOF 19
ENDMDL
