MODEL 1
REMARK VINA RESULT: -7.260363245      0.000      0.000
REMARK  16 active torsions:
REMARK  status: ('A' for Active; 'I' for Inactive)
REMARK    1  A    between atoms: O1_2  and  C2_3 
REMARK    2  A    between atoms: C2_3  and  C3_4 
REMARK    3  A    between atoms: C3_4  and  O2_5 
REMARK    4  A    between atoms: C3_4  and  C9_14 
REMARK    5  A    between atoms: O2_5  and  C4_6 
REMARK    6  A    between atoms: C4_6  and  C6_8 
REMARK    7  A    between atoms: C4_6  and  C8_11 
REMARK    8  A    between atoms: C11_16  and  O6_17 
REMARK    9  A    between atoms: O6_17  and  C12_18 
REMARK   10  A    between atoms: C20_26  and  O7_27 
REMARK   11  A    between atoms: C21_29  and  O8_30 
REMARK   12  A    between atoms: C22_32  and  O9_33 
REMARK   13  A    between atoms: O9_33  and  C23_34 
REMARK   14  A    between atoms: C25_37  and  O11_38 
REMARK   15  A    between atoms: C26_40  and  O12_41 
REMARK   16  A    between atoms: C27_43  and  O13_44 
ROOT
HETATM    1  C9  UNL     1      -3.642  -1.167   6.503  1.00  0.00     0.022 C 
HETATM    2  C10 UNL     1      -2.535  -0.399   7.141  1.00  0.00     0.042 C 
HETATM    3  C11 UNL     1      -1.763   0.461   6.201  1.00  0.00     0.153 C 
HETATM    4  C21 UNL     1      -2.474   0.946   4.993  1.00  0.00     0.176 C 
HETATM    5  C22 UNL     1      -3.724   0.266   4.577  1.00  0.00     0.156 C 
HETATM    6  C28 UNL     1      -4.552  -0.197   5.793  1.00  0.00     0.042 C 
ENDROOT
BRANCH   1   7
HETATM    7  C3  UNL     1      -4.459  -2.014   7.477  1.00  0.00     0.151 C 
BRANCH   7   8
HETATM    8  C2  UNL     1      -3.837  -1.874   8.875  1.00  0.00     0.199 C 
BRANCH   8   9
HETATM    9  O1  UNL     1      -4.550  -1.011   9.652  1.00  0.00    -0.393 OA
HETATM   10  C1  UNL     1      -5.877  -0.867   9.321  1.00  0.00     0.201 C 
ENDBRANCH   8   9
ENDBRANCH   7   8
BRANCH   7  11
HETATM   11  O2  UNL     1      -4.562  -3.265   7.150  1.00  0.00    -0.354 OA
BRANCH  11  12
HETATM   12  C4  UNL     1      -3.895  -4.301   6.813  1.00  0.00     0.205 C 
HETATM   13  C5  UNL     1      -2.367  -4.183   6.642  1.00  0.00     0.067 C 
BRANCH  12  14
HETATM   14  C6  UNL     1      -4.030  -5.582   7.588  1.00  0.00     0.168 C 
HETATM   15  C7  UNL     1      -4.646  -5.623   8.908  1.00  0.00     0.095 C 
HETATM   16  O3  UNL     1      -3.604  -6.633   7.086  1.00  0.00    -0.294 OA
ENDBRANCH  12  14
BRANCH  12  17
HETATM   17  C8  UNL     1      -4.322  -4.723   5.410  1.00  0.00     0.216 C 
HETATM   18  O4  UNL     1      -3.427  -4.894   4.575  1.00  0.00    -0.645 OA
HETATM   19  O5  UNL     1      -5.634  -4.888   5.148  1.00  0.00    -0.645 OA
ENDBRANCH  12  17
ENDBRANCH  11  12
ENDBRANCH   7  11
ENDBRANCH   1   7
BRANCH   3  20
HETATM   20  O6  UNL     1      -1.132   1.525   6.885  1.00  0.00    -0.375 OA
BRANCH  20  21
HETATM   21  C12 UNL     1      -1.386   1.483   8.278  1.00  0.00     0.152 C 
HETATM   22  C13 UNL     1      -2.035   2.780   8.644  1.00  0.00     0.039 C 
HETATM   23  C14 UNL     1      -1.260   3.730   9.474  1.00  0.00    -0.015 C 
HETATM   24  C15 UNL     1      -0.249   4.494   8.652  1.00  0.00     0.010 C 
HETATM   25  C16 UNL     1      -0.627   3.110  10.691  1.00  0.00     0.015 C 
HETATM   26  C17 UNL     1      -0.276   1.663  10.463  1.00  0.00    -0.019 C 
HETATM   27  C18 UNL     1      -1.340   0.802  11.096  1.00  0.00     0.017 C 
HETATM   28  C19 UNL     1       1.040   1.314  11.171  1.00  0.00     0.017 C 
HETATM   29  C20 UNL     1      -0.108   1.317   9.034  1.00  0.00     0.154 C 
BRANCH  29  30
HETATM   30  O7  UNL     1       0.424   0.031   8.916  1.00  0.00    -0.392 OA
ATOM     31  H7  UNL     1      -0.210  -0.599   8.594  1.00  0.00     0.210 HD
ENDBRANCH  29  30
ENDBRANCH  20  21
ENDBRANCH   3  20
BRANCH   5  32
HETATM   32  O9  UNL     1      -4.589   1.065   3.858  1.00  0.00    -0.351 OA
BRANCH  32  33
HETATM   33  C23 UNL     1      -5.664   0.385   3.316  1.00  0.00     0.291 C 
HETATM   34  O10 UNL     1      -6.878   1.025   3.570  1.00  0.00    -0.356 OA
HETATM   35  C24 UNL     1      -7.930   0.177   3.330  1.00  0.00     0.205 C 
HETATM   36  C25 UNL     1      -7.960  -0.355   1.916  1.00  0.00     0.173 C 
HETATM   37  C26 UNL     1      -6.611  -0.874   1.478  1.00  0.00     0.182 C 
HETATM   38  C27 UNL     1      -5.578   0.214   1.814  1.00  0.00     0.204 C 
BRANCH  36  39
HETATM   39  O11 UNL     1      -8.848  -1.431   1.885  1.00  0.00    -0.391 OA
ATOM     40  H11 UNL     1      -8.341  -2.229   1.977  1.00  0.00     0.210 HD
ENDBRANCH  36  39
BRANCH  37  41
HETATM   41  O12 UNL     1      -6.278  -1.968   2.255  1.00  0.00    -0.390 OA
ATOM     42  H12 UNL     1      -6.464  -1.768   3.165  1.00  0.00     0.210 HD
ENDBRANCH  37  41
BRANCH  38  43
HETATM   43  O13 UNL     1      -4.323  -0.144   1.377  1.00  0.00    -0.388 OA
ATOM     44  H13 UNL     1      -3.738   0.597   1.265  1.00  0.00     0.210 HD
ENDBRANCH  38  43
ENDBRANCH  32  33
ENDBRANCH   5  32
BRANCH   4  45
HETATM   45  O8  UNL     1      -2.791   2.304   5.172  1.00  0.00    -0.390 OA
ATOM     46  H8  UNL     1      -2.702   2.751   4.338  1.00  0.00     0.210 HD
ENDBRANCH   4  45
TORSDOF 16
ENDMDL
MODEL 2
REMARK VINA RESULT: -7.228563831      1.034      1.262
REMARK  16 active torsions:
REMARK  status: ('A' for Active; 'I' for Inactive)
REMARK    1  A    between atoms: O1_2  and  C2_3 
REMARK    2  A    between atoms: C2_3  and  C3_4 
REMARK    3  A    between atoms: C3_4  and  O2_5 
REMARK    4  A    between atoms: C3_4  and  C9_14 
REMARK    5  A    between atoms: O2_5  and  C4_6 
REMARK    6  A    between atoms: C4_6  and  C6_8 
REMARK    7  A    between atoms: C4_6  and  C8_11 
REMARK    8  A    between atoms: C11_16  and  O6_17 
REMARK    9  A    between atoms: O6_17  and  C12_18 
REMARK   10  A    between atoms: C20_26  and  O7_27 
REMARK   11  A    between atoms: C21_29  and  O8_30 
REMARK   12  A    between atoms: C22_32  and  O9_33 
REMARK   13  A    between atoms: O9_33  and  C23_34 
REMARK   14  A    between atoms: C25_37  and  O11_38 
REMARK   15  A    between atoms: C26_40  and  O12_41 
REMARK   16  A    between atoms: C27_43  and  O13_44 
ROOT
HETATM    1  C9  UNL     1      -3.908  -1.408   6.495  1.00  0.00     0.022 C 
HETATM    2  C10 UNL     1      -2.725  -0.616   6.935  1.00  0.00     0.042 C 
HETATM    3  C11 UNL     1      -2.123   0.233   5.869  1.00  0.00     0.153 C 
HETATM    4  C21 UNL     1      -3.022   0.686   4.779  1.00  0.00     0.176 C 
HETATM    5  C22 UNL     1      -4.312  -0.016   4.579  1.00  0.00     0.156 C 
HETATM    6  C28 UNL     1      -4.932  -0.463   5.919  1.00  0.00     0.042 C 
ENDROOT
BRANCH   1   7
HETATM    7  C3  UNL     1      -4.550  -2.244   7.601  1.00  0.00     0.151 C 
BRANCH   7   8
HETATM    8  C2  UNL     1      -3.770  -1.998   8.902  1.00  0.00     0.199 C 
BRANCH   8   9
HETATM    9  O1  UNL     1      -4.360  -1.031   9.659  1.00  0.00    -0.393 OA
HETATM   10  C1  UNL     1      -5.728  -0.935   9.546  1.00  0.00     0.201 C 
ENDBRANCH   8   9
ENDBRANCH   7   8
BRANCH   7  11
HETATM   11  O2  UNL     1      -4.620  -3.514   7.347  1.00  0.00    -0.354 OA
BRANCH  11  12
HETATM   12  C4  UNL     1      -3.936  -4.535   6.998  1.00  0.00     0.205 C 
HETATM   13  C5  UNL     1      -2.410  -4.390   6.825  1.00  0.00     0.067 C 
BRANCH  12  14
HETATM   14  C6  UNL     1      -4.048  -5.826   7.760  1.00  0.00     0.168 C 
HETATM   15  C7  UNL     1      -4.791  -5.922   9.009  1.00  0.00     0.095 C 
HETATM   16  O3  UNL     1      -3.489  -6.838   7.309  1.00  0.00    -0.294 OA
ENDBRANCH  12  14
BRANCH  12  17
HETATM   17  C8  UNL     1      -4.359  -4.950   5.592  1.00  0.00     0.216 C 
HETATM   18  O4  UNL     1      -3.507  -4.873   4.700  1.00  0.00    -0.645 OA
HETATM   19  O5  UNL     1      -5.623  -5.373   5.387  1.00  0.00    -0.645 OA
ENDBRANCH  12  17
ENDBRANCH  11  12
ENDBRANCH   7  11
ENDBRANCH   1   7
BRANCH   3  20
HETATM   20  O6  UNL     1      -1.406   1.317   6.425  1.00  0.00    -0.375 OA
BRANCH  20  21
HETATM   21  C12 UNL     1      -1.545   1.376   7.833  1.00  0.00     0.152 C 
HETATM   22  C13 UNL     1      -2.089   2.730   8.163  1.00  0.00     0.039 C 
HETATM   23  C14 UNL     1      -1.196   3.681   8.864  1.00  0.00    -0.015 C 
HETATM   24  C15 UNL     1      -0.218   4.330   7.915  1.00  0.00     0.010 C 
HETATM   25  C16 UNL     1      -0.498   3.100  10.064  1.00  0.00     0.015 C 
HETATM   26  C17 UNL     1      -0.247   1.623   9.905  1.00  0.00    -0.019 C 
HETATM   27  C18 UNL     1      -1.300   0.868  10.677  1.00  0.00     0.017 C 
HETATM   28  C19 UNL     1       1.103   1.240  10.527  1.00  0.00     0.017 C 
HETATM   29  C20 UNL     1      -0.218   1.180   8.493  1.00  0.00     0.154 C 
BRANCH  29  30
HETATM   30  O7  UNL     1       0.231  -0.140   8.418  1.00  0.00    -0.392 OA
ATOM     31  H7  UNL     1      -0.169  -0.700   9.073  1.00  0.00     0.210 HD
ENDBRANCH  29  30
ENDBRANCH  20  21
ENDBRANCH   3  20
BRANCH   5  32
HETATM   32  O9  UNL     1      -5.291   0.758   3.990  1.00  0.00    -0.351 OA
BRANCH  32  33
HETATM   33  C23 UNL     1      -6.580   0.337   4.259  1.00  0.00     0.291 C 
HETATM   34  O10 UNL     1      -7.448   1.404   4.496  1.00  0.00    -0.356 OA
HETATM   35  C24 UNL     1      -8.606   0.962   5.084  1.00  0.00     0.205 C 
HETATM   36  C25 UNL     1      -9.339  -0.072   4.263  1.00  0.00     0.173 C 
HETATM   37  C26 UNL     1      -8.416  -1.164   3.774  1.00  0.00     0.182 C 
HETATM   38  C27 UNL     1      -7.198  -0.475   3.140  1.00  0.00     0.204 C 
BRANCH  36  39
HETATM   39  O11 UNL     1     -10.292  -0.674   5.086  1.00  0.00    -0.391 OA
ATOM     40  H11 UNL     1     -10.390  -1.576   4.806  1.00  0.00     0.210 HD
ENDBRANCH  36  39
BRANCH  37  41
HETATM   41  O12 UNL     1      -7.933  -1.864   4.864  1.00  0.00    -0.390 OA
ATOM     42  H12 UNL     1      -7.026  -2.097   4.703  1.00  0.00     0.210 HD
ENDBRANCH  37  41
BRANCH  38  43
HETATM   43  O13 UNL     1      -6.334  -1.398   2.596  1.00  0.00    -0.388 OA
ATOM     44  H13 UNL     1      -6.587  -1.682   1.725  1.00  0.00     0.210 HD
ENDBRANCH  38  43
ENDBRANCH  32  33
ENDBRANCH   5  32
BRANCH   4  45
HETATM   45  O8  UNL     1      -3.325   2.043   4.980  1.00  0.00    -0.390 OA
ATOM     46  H8  UNL     1      -4.259   2.169   4.854  1.00  0.00     0.210 HD
ENDBRANCH   4  45
TORSDOF 16
ENDMDL
MODEL 3
REMARK VINA RESULT: -7.209441884      2.615      7.656
REMARK  16 active torsions:
REMARK  status: ('A' for Active; 'I' for Inactive)
REMARK    1  A    between atoms: O1_2  and  C2_3 
REMARK    2  A    between atoms: C2_3  and  C3_4 
REMARK    3  A    between atoms: C3_4  and  O2_5 
REMARK    4  A    between atoms: C3_4  and  C9_14 
REMARK    5  A    between atoms: O2_5  and  C4_6 
REMARK    6  A    between atoms: C4_6  and  C6_8 
REMARK    7  A    between atoms: C4_6  and  C8_11 
REMARK    8  A    between atoms: C11_16  and  O6_17 
REMARK    9  A    between atoms: O6_17  and  C12_18 
REMARK   10  A    between atoms: C20_26  and  O7_27 
REMARK   11  A    between atoms: C21_29  and  O8_30 
REMARK   12  A    between atoms: C22_32  and  O9_33 
REMARK   13  A    between atoms: O9_33  and  C23_34 
REMARK   14  A    between atoms: C25_37  and  O11_38 
REMARK   15  A    between atoms: C26_40  and  O12_41 
REMARK   16  A    between atoms: C27_43  and  O13_44 
ROOT
HETATM    1  C9  UNL     1      -5.893  -1.624   6.085  1.00  0.00     0.022 C 
HETATM    2  C10 UNL     1      -6.755  -0.664   5.339  1.00  0.00     0.042 C 
HETATM    3  C11 UNL     1      -7.211   0.505   6.142  1.00  0.00     0.153 C 
HETATM    4  C21 UNL     1      -6.347   0.925   7.273  1.00  0.00     0.176 C 
HETATM    5  C22 UNL     1      -5.332  -0.025   7.788  1.00  0.00     0.156 C 
HETATM    6  C28 UNL     1      -4.718  -0.872   6.655  1.00  0.00     0.042 C 
ENDROOT
BRANCH   1   7
HETATM    7  C3  UNL     1      -5.391  -2.798   5.247  1.00  0.00     0.151 C 
BRANCH   7   8
HETATM    8  C2  UNL     1      -6.519  -3.225   4.295  1.00  0.00     0.199 C 
BRANCH   8   9
HETATM    9  O1  UNL     1      -6.118  -3.175   2.994  1.00  0.00    -0.393 OA
HETATM   10  C1  UNL     1      -7.126  -3.130   2.059  1.00  0.00     0.201 C 
ENDBRANCH   8   9
ENDBRANCH   7   8
BRANCH   7  11
HETATM   11  O2  UNL     1      -4.970  -3.813   5.935  1.00  0.00    -0.354 OA
BRANCH  11  12
HETATM   12  C4  UNL     1      -3.929  -4.482   6.256  1.00  0.00     0.205 C 
HETATM   13  C5  UNL     1      -2.992  -4.985   5.140  1.00  0.00     0.067 C 
BRANCH  12  14
HETATM   14  C6  UNL     1      -2.958  -3.943   7.269  1.00  0.00     0.168 C 
HETATM   15  C7  UNL     1      -3.397  -3.412   8.551  1.00  0.00     0.095 C 
HETATM   16  O3  UNL     1      -1.747  -3.954   7.000  1.00  0.00    -0.294 OA
ENDBRANCH  12  14
BRANCH  12  17
HETATM   17  C8  UNL     1      -4.370  -5.796   6.894  1.00  0.00     0.216 C 
HETATM   18  O4  UNL     1      -3.539  -6.710   6.935  1.00  0.00    -0.645 OA
HETATM   19  O5  UNL     1      -5.624  -5.901   7.376  1.00  0.00    -0.645 OA
ENDBRANCH  12  17
ENDBRANCH  11  12
ENDBRANCH   7  11
ENDBRANCH   1   7
BRANCH   3  20
HETATM   20  O6  UNL     1      -7.533   1.601   5.311  1.00  0.00    -0.375 OA
BRANCH  20  21
HETATM   21  C12 UNL     1      -7.662   1.215   3.954  1.00  0.00     0.152 C 
HETATM   22  C13 UNL     1      -6.700   2.050   3.168  1.00  0.00     0.039 C 
HETATM   23  C14 UNL     1      -7.258   3.071   2.253  1.00  0.00    -0.015 C 
HETATM   24  C15 UNL     1      -7.691   4.311   2.998  1.00  0.00     0.010 C 
HETATM   25  C16 UNL     1      -8.351   2.559   1.352  1.00  0.00     0.015 C 
HETATM   26  C17 UNL     1      -9.133   1.445   1.998  1.00  0.00    -0.019 C 
HETATM   27  C18 UNL     1      -8.641   0.129   1.450  1.00  0.00     0.017 C 
HETATM   28  C19 UNL     1     -10.616   1.544   1.619  1.00  0.00     0.017 C 
HETATM   29  C20 UNL     1      -9.058   1.455   3.476  1.00  0.00     0.154 C 
BRANCH  29  30
HETATM   30  O7  UNL     1      -9.971   0.540   4.004  1.00  0.00    -0.392 OA
ATOM     31  H7  UNL     1      -9.802  -0.351   3.720  1.00  0.00     0.210 HD
ENDBRANCH  29  30
ENDBRANCH  20  21
ENDBRANCH   3  20
BRANCH   5  32
HETATM   32  O9  UNL     1      -4.248   0.579   8.391  1.00  0.00    -0.351 OA
BRANCH  32  33
HETATM   33  C23 UNL     1      -4.228   0.455   9.768  1.00  0.00     0.291 C 
HETATM   34  O10 UNL     1      -5.296  -0.307  10.247  1.00  0.00    -0.356 OA
HETATM   35  C24 UNL     1      -5.445  -0.131  11.599  1.00  0.00     0.205 C 
HETATM   36  C25 UNL     1      -4.211  -0.494  12.390  1.00  0.00     0.173 C 
HETATM   37  C26 UNL     1      -2.961   0.119  11.803  1.00  0.00     0.182 C 
HETATM   38  C27 UNL     1      -2.968  -0.197  10.299  1.00  0.00     0.204 C 
BRANCH  36  39
HETATM   39  O11 UNL     1      -4.361   0.026  13.677  1.00  0.00    -0.391 OA
ATOM     40  H11 UNL     1      -4.346   0.973  13.611  1.00  0.00     0.210 HD
ENDBRANCH  36  39
BRANCH  37  41
HETATM   41  O12 UNL     1      -3.047   1.495  11.904  1.00  0.00    -0.390 OA
ATOM     42  H12 UNL     1      -2.269   1.820  12.341  1.00  0.00     0.210 HD
ENDBRANCH  37  41
BRANCH  38  43
HETATM   43  O13 UNL     1      -1.821   0.261   9.692  1.00  0.00    -0.388 OA
ATOM     44  H13 UNL     1      -1.096  -0.351   9.747  1.00  0.00     0.210 HD
ENDBRANCH  38  43
ENDBRANCH  32  33
ENDBRANCH   5  32
BRANCH   4  45
HETATM   45  O8  UNL     1      -5.659   2.094   6.904  1.00  0.00    -0.390 OA
ATOM     46  H8  UNL     1      -4.939   2.227   7.509  1.00  0.00     0.210 HD
ENDBRANCH   4  45
TORSDOF 16
ENDMDL
MODEL 4
REMARK VINA RESULT: -7.196710073      2.620      4.458
REMARK  16 active torsions:
REMARK  status: ('A' for Active; 'I' for Inactive)
REMARK    1  A    between atoms: O1_2  and  C2_3 
REMARK    2  A    between atoms: C2_3  and  C3_4 
REMARK    3  A    between atoms: C3_4  and  O2_5 
REMARK    4  A    between atoms: C3_4  and  C9_14 
REMARK    5  A    between atoms: O2_5  and  C4_6 
REMARK    6  A    between atoms: C4_6  and  C6_8 
REMARK    7  A    between atoms: C4_6  and  C8_11 
REMARK    8  A    between atoms: C11_16  and  O6_17 
REMARK    9  A    between atoms: O6_17  and  C12_18 
REMARK   10  A    between atoms: C20_26  and  O7_27 
REMARK   11  A    between atoms: C21_29  and  O8_30 
REMARK   12  A    between atoms: C22_32  and  O9_33 
REMARK   13  A    between atoms: O9_33  and  C23_34 
REMARK   14  A    between atoms: C25_37  and  O11_38 
REMARK   15  A    between atoms: C26_40  and  O12_41 
REMARK   16  A    between atoms: C27_43  and  O13_44 
ROOT
HETATM    1  C9  UNL     1      -5.888  -1.066   5.362  1.00  0.00     0.022 C 
HETATM    2  C10 UNL     1      -5.122  -0.696   6.585  1.00  0.00     0.042 C 
HETATM    3  C11 UNL     1      -5.577   0.564   7.237  1.00  0.00     0.153 C 
HETATM    4  C21 UNL     1      -6.995   0.952   7.039  1.00  0.00     0.176 C 
HETATM    5  C22 UNL     1      -7.758   0.329   5.931  1.00  0.00     0.156 C 
HETATM    6  C28 UNL     1      -7.351  -1.143   5.715  1.00  0.00     0.042 C 
ENDROOT
BRANCH   1   7
HETATM    7  C3  UNL     1      -5.448  -2.381   4.721  1.00  0.00     0.151 C 
BRANCH   7   8
HETATM    8  C2  UNL     1      -6.543  -2.828   3.739  1.00  0.00     0.199 C 
BRANCH   8   9
HETATM    9  O1  UNL     1      -6.302  -2.365   2.481  1.00  0.00    -0.393 OA
HETATM   10  C1  UNL     1      -7.334  -1.673   1.891  1.00  0.00     0.201 C 
ENDBRANCH   8   9
ENDBRANCH   7   8
BRANCH   7  11
HETATM   11  O2  UNL     1      -5.180  -3.330   5.563  1.00  0.00    -0.354 OA
BRANCH  11  12
HETATM   12  C4  UNL     1      -4.230  -3.999   6.096  1.00  0.00     0.205 C 
HETATM   13  C5  UNL     1      -2.873  -4.078   5.369  1.00  0.00     0.067 C 
BRANCH  12  14
HETATM   14  C6  UNL     1      -3.815  -3.736   7.516  1.00  0.00     0.168 C 
HETATM   15  C7  UNL     1      -2.438  -3.422   7.871  1.00  0.00     0.095 C 
HETATM   16  O3  UNL     1      -4.673  -3.789   8.411  1.00  0.00    -0.294 OA
ENDBRANCH  12  14
BRANCH  12  17
HETATM   17  C8  UNL     1      -4.633  -5.470   6.142  1.00  0.00     0.216 C 
HETATM   18  O4  UNL     1      -5.672  -5.789   5.553  1.00  0.00    -0.645 OA
HETATM   19  O5  UNL     1      -3.852  -6.342   6.810  1.00  0.00    -0.645 OA
ENDBRANCH  12  17
ENDBRANCH  11  12
ENDBRANCH   7  11
ENDBRANCH   1   7
BRANCH   3  20
HETATM   20  O6  UNL     1      -5.227   0.584   8.607  1.00  0.00    -0.375 OA
BRANCH  20  21
HETATM   21  C12 UNL     1      -3.875   0.218   8.812  1.00  0.00     0.152 C 
HETATM   22  C13 UNL     1      -3.853  -0.751   9.953  1.00  0.00     0.039 C 
HETATM   23  C14 UNL     1      -3.246  -0.304  11.227  1.00  0.00    -0.015 C 
HETATM   24  C15 UNL     1      -4.189   0.571  12.018  1.00  0.00     0.010 C 
HETATM   25  C16 UNL     1      -1.894   0.340  11.073  1.00  0.00     0.015 C 
HETATM   26  C17 UNL     1      -1.757   1.042   9.747  1.00  0.00    -0.019 C 
HETATM   27  C18 UNL     1      -0.976   0.157   8.810  1.00  0.00     0.017 C 
HETATM   28  C19 UNL     1      -0.938   2.330   9.907  1.00  0.00     0.017 C 
HETATM   29  C20 UNL     1      -3.055   1.421   9.146  1.00  0.00     0.154 C 
BRANCH  29  30
HETATM   30  O7  UNL     1      -2.843   2.251   8.042  1.00  0.00    -0.392 OA
ATOM     31  H7  UNL     1      -3.508   2.925   7.959  1.00  0.00     0.210 HD
ENDBRANCH  29  30
ENDBRANCH  20  21
ENDBRANCH   3  20
BRANCH   5  32
HETATM   32  O9  UNL     1      -9.121   0.281   6.142  1.00  0.00    -0.351 OA
BRANCH  32  33
HETATM   33  C23 UNL     1      -9.867   0.872   5.139  1.00  0.00     0.291 C 
HETATM   34  O10 UNL     1      -9.499   0.423   3.870  1.00  0.00    -0.356 OA
HETATM   35  C24 UNL     1      -9.999   1.255   2.900  1.00  0.00     0.205 C 
HETATM   36  C25 UNL     1     -11.503   1.385   2.940  1.00  0.00     0.173 C 
HETATM   37  C26 UNL     1     -12.011   1.658   4.337  1.00  0.00     0.182 C 
HETATM   38  C27 UNL     1     -11.355   0.624   5.265  1.00  0.00     0.204 C 
BRANCH  36  39
HETATM   39  O11 UNL     1     -11.857   2.481   2.150  1.00  0.00    -0.391 OA
ATOM     40  H11 UNL     1     -12.356   3.081   2.692  1.00  0.00     0.210 HD
ENDBRANCH  36  39
BRANCH  37  41
HETATM   41  O12 UNL     1     -11.543   2.892   4.751  1.00  0.00    -0.390 OA
ATOM     42  H12 UNL     1     -10.594   2.892   4.705  1.00  0.00     0.210 HD
ENDBRANCH  37  41
BRANCH  38  43
HETATM   43  O13 UNL     1     -11.822   0.749   6.554  1.00  0.00    -0.388 OA
ATOM     44  H13 UNL     1     -12.756   0.593   6.633  1.00  0.00     0.210 HD
ENDBRANCH  38  43
ENDBRANCH  32  33
ENDBRANCH   5  32
BRANCH   4  45
HETATM   45  O8  UNL     1      -7.705   0.683   8.222  1.00  0.00    -0.390 OA
ATOM     46  H8  UNL     1      -7.848   1.501   8.684  1.00  0.00     0.210 HD
ENDBRANCH   4  45
TORSDOF 16
ENDMDL
MODEL 5
REMARK VINA RESULT: -7.024291527      2.779      4.815
REMARK  16 active torsions:
REMARK  status: ('A' for Active; 'I' for Inactive)
REMARK    1  A    between atoms: O1_2  and  C2_3 
REMARK    2  A    between atoms: C2_3  and  C3_4 
REMARK    3  A    between atoms: C3_4  and  O2_5 
REMARK    4  A    between atoms: C3_4  and  C9_14 
REMARK    5  A    between atoms: O2_5  and  C4_6 
REMARK    6  A    between atoms: C4_6  and  C6_8 
REMARK    7  A    between atoms: C4_6  and  C8_11 
REMARK    8  A    between atoms: C11_16  and  O6_17 
REMARK    9  A    between atoms: O6_17  and  C12_18 
REMARK   10  A    between atoms: C20_26  and  O7_27 
REMARK   11  A    between atoms: C21_29  and  O8_30 
REMARK   12  A    between atoms: C22_32  and  O9_33 
REMARK   13  A    between atoms: O9_33  and  C23_34 
REMARK   14  A    between atoms: C25_37  and  O11_38 
REMARK   15  A    between atoms: C26_40  and  O12_41 
REMARK   16  A    between atoms: C27_43  and  O13_44 
ROOT
HETATM    1  C9  UNL     1      -6.187  -1.017   5.587  1.00  0.00     0.022 C 
HETATM    2  C10 UNL     1      -5.846  -0.645   6.990  1.00  0.00     0.042 C 
HETATM    3  C11 UNL     1      -6.489   0.613   7.464  1.00  0.00     0.153 C 
HETATM    4  C21 UNL     1      -7.774   0.995   6.829  1.00  0.00     0.176 C 
HETATM    5  C22 UNL     1      -8.147   0.370   5.538  1.00  0.00     0.156 C 
HETATM    6  C28 UNL     1      -7.686  -1.100   5.462  1.00  0.00     0.042 C 
ENDROOT
BRANCH   1   7
HETATM    7  C3  UNL     1      -5.562  -2.330   5.119  1.00  0.00     0.151 C 
BRANCH   7   8
HETATM    8  C2  UNL     1      -6.617  -3.104   4.312  1.00  0.00     0.199 C 
BRANCH   8   9
HETATM    9  O1  UNL     1      -6.273  -3.190   2.997  1.00  0.00    -0.393 OA
HETATM   10  C1  UNL     1      -7.320  -3.192   2.105  1.00  0.00     0.201 C 
ENDBRANCH   8   9
ENDBRANCH   7   8
BRANCH   7  11
HETATM   11  O2  UNL     1      -5.085  -3.071   6.069  1.00  0.00    -0.354 OA
BRANCH  11  12
HETATM   12  C4  UNL     1      -4.013  -3.593   6.533  1.00  0.00     0.205 C 
HETATM   13  C5  UNL     1      -2.707  -2.775   6.493  1.00  0.00     0.067 C 
BRANCH  12  14
HETATM   14  C6  UNL     1      -3.984  -4.171   7.919  1.00  0.00     0.168 C 
HETATM   15  C7  UNL     1      -2.733  -4.467   8.605  1.00  0.00     0.095 C 
HETATM   16  O3  UNL     1      -5.059  -4.403   8.494  1.00  0.00    -0.294 OA
ENDBRANCH  12  14
BRANCH  12  17
HETATM   17  C8  UNL     1      -3.642  -4.795   5.670  1.00  0.00     0.216 C 
HETATM   18  O4  UNL     1      -4.477  -5.700   5.574  1.00  0.00    -0.645 OA
HETATM   19  O5  UNL     1      -2.439  -4.817   5.062  1.00  0.00    -0.645 OA
ENDBRANCH  12  17
ENDBRANCH  11  12
ENDBRANCH   7  11
ENDBRANCH   1   7
BRANCH   3  20
HETATM   20  O6  UNL     1      -6.588   0.635   8.874  1.00  0.00    -0.375 OA
BRANCH  20  21
HETATM   21  C12 UNL     1      -5.603  -0.178   9.486  1.00  0.00     0.152 C 
HETATM   22  C13 UNL     1      -6.265  -0.884  10.628  1.00  0.00     0.039 C 
HETATM   23  C14 UNL     1      -5.867  -0.499  12.001  1.00  0.00    -0.015 C 
HETATM   24  C15 UNL     1      -6.533   0.785  12.436  1.00  0.00     0.010 C 
HETATM   25  C16 UNL     1      -4.378  -0.449  12.220  1.00  0.00     0.015 C 
HETATM   26  C17 UNL     1      -3.640  -0.077  10.961  1.00  0.00    -0.019 C 
HETATM   27  C18 UNL     1      -3.083  -1.333  10.338  1.00  0.00     0.017 C 
HETATM   28  C19 UNL     1      -2.434   0.812  11.291  1.00  0.00     0.017 C 
HETATM   29  C20 UNL     1      -4.474   0.662   9.987  1.00  0.00     0.154 C 
BRANCH  29  30
HETATM   30  O7  UNL     1      -3.673   1.157   8.955  1.00  0.00    -0.392 OA
ATOM     31  H7  UNL     1      -2.777   1.314   9.230  1.00  0.00     0.210 HD
ENDBRANCH  29  30
ENDBRANCH  20  21
ENDBRANCH   3  20
BRANCH   5  32
HETATM   32  O9  UNL     1      -9.506   0.316   5.309  1.00  0.00    -0.351 OA
BRANCH  32  33
HETATM   33  C23 UNL     1      -9.923   1.055   4.217  1.00  0.00     0.291 C 
HETATM   34  O10 UNL     1      -9.573   0.455   3.006  1.00  0.00    -0.356 OA
HETATM   35  C24 UNL     1      -9.687   1.351   1.973  1.00  0.00     0.205 C 
HETATM   36  C25 UNL     1     -11.076   1.928   1.832  1.00  0.00     0.173 C 
HETATM   37  C26 UNL     1     -11.626   2.407   3.155  1.00  0.00     0.182 C 
HETATM   38  C27 UNL     1     -11.421   1.270   4.168  1.00  0.00     0.204 C 
BRANCH  36  39
HETATM   39  O11 UNL     1     -10.992   3.040   0.991  1.00  0.00    -0.391 OA
ATOM     40  H11 UNL     1     -11.866   3.226   0.669  1.00  0.00     0.210 HD
ENDBRANCH  36  39
BRANCH  37  41
HETATM   41  O12 UNL     1     -10.855   3.463   3.606  1.00  0.00    -0.390 OA
ATOM     42  H12 UNL     1     -10.270   3.148   4.286  1.00  0.00     0.210 HD
ENDBRANCH  37  41
BRANCH  38  43
HETATM   43  O13 UNL     1     -11.966   1.592   5.390  1.00  0.00    -0.388 OA
ATOM     44  H13 UNL     1     -12.447   0.876   5.788  1.00  0.00     0.210 HD
ENDBRANCH  38  43
ENDBRANCH  32  33
ENDBRANCH   5  32
BRANCH   4  45
HETATM   45  O8  UNL     1      -8.819   0.723   7.729  1.00  0.00    -0.390 OA
ATOM     46  H8  UNL     1      -9.414   1.464   7.738  1.00  0.00     0.210 HD
ENDBRANCH   4  45
TORSDOF 16
ENDMDL
