MODEL 1
REMARK VINA RESULT: -6.827802762      0.000      0.000
REMARK  18 active torsions:
REMARK  status: ('A' for Active; 'I' for Inactive)
REMARK    1  A    between atoms: C2_2  and  C3_3 
REMARK    2  A    between atoms: C2_2  and  O2_5 
REMARK    3  A    between atoms: O2_5  and  C4_6 
REMARK    4  A    between atoms: C4_6  and  C5_7 
REMARK    5  A    between atoms: C4_6  and  C8_14 
REMARK    6  A    between atoms: C5_7  and  O3_8 
REMARK    7  A    between atoms: C5_7  and  C6_10 
REMARK    8  A    between atoms: C6_10  and  C7_12 
REMARK    9  A    between atoms: C8_14  and  C10_16 
REMARK   10  A    between atoms: C11_17  and  O5_18 
REMARK   11  A    between atoms: C12_20  and  C13_21 
REMARK   12  A    between atoms: C13_21  and  O7_23 
REMARK   13  A    between atoms: C21_32  and  O9_33 
REMARK   14  A    between atoms: C21_32  and  C22_35 
REMARK   15  A    between atoms: C22_35  and  C23_37 
REMARK   16  A    between atoms: C23_37  and  O11_38 
REMARK   17  A    between atoms: O11_38  and  C24_39 
REMARK   18  A    between atoms: C26_42  and  O13_44 
ROOT
HETATM    1  C10 UNL     1      -5.140  -1.010   4.656  1.00  0.00     0.059 C 
HETATM    2  C11 UNL     1      -5.534  -2.060   5.647  1.00  0.00     0.173 C 
HETATM    3  C12 UNL     1      -4.352  -1.988   6.586  1.00  0.00     0.209 C 
HETATM    4  O8  UNL     1      -3.435  -1.121   6.007  1.00  0.00    -0.352 OA
HETATM    5  C15 UNL     1      -4.250  -0.127   5.346  1.00  0.00     0.077 C 
HETATM    6  C16 UNL     1      -3.204   0.405   4.345  1.00  0.00     0.047 C 
HETATM    7  C17 UNL     1      -4.556   0.811   6.423  1.00  0.00     0.036 A 
HETATM    8  C18 UNL     1      -3.520   1.984   6.450  1.00  0.00     0.021 A 
HETATM    9  C19 UNL     1      -5.017   2.194   6.385  1.00  0.00    -0.003 A 
HETATM   10  C20 UNL     1      -5.415   3.030   5.238  1.00  0.00     0.011 C 
HETATM   11  C21 UNL     1      -4.601   0.170   7.808  1.00  0.00     0.165 C 
HETATM   12  C26 UNL     1      -4.773  -1.301   7.856  1.00  0.00     0.136 C 
HETATM   13  C27 UNL     1      -3.928  -1.953   8.942  1.00  0.00     0.053 C 
ENDROOT
BRANCH   1  14
HETATM   14  C8  UNL     1      -6.184  -0.609   3.698  1.00  0.00     0.024 C 
HETATM   15  C9  UNL     1      -6.118   0.878   3.365  1.00  0.00     0.013 C 
BRANCH  14  16
HETATM   16  C4  UNL     1      -7.586  -0.840   4.273  1.00  0.00     0.169 C 
BRANCH  16  17
HETATM   17  O2  UNL     1      -8.366  -1.291   3.225  1.00  0.00    -0.340 OA
BRANCH  17  18
HETATM   18  C2  UNL     1      -8.206  -2.001   2.105  1.00  0.00     0.097 C 
HETATM   19  C1  UNL     1      -8.203  -1.317   0.949  1.00  0.00     0.054 C 
BRANCH  18  20
HETATM   20  C3  UNL     1      -8.030  -3.443   1.953  1.00  0.00     0.294 C 
HETATM   21  O1  UNL     1      -7.249  -4.099   2.708  1.00  0.00    -0.299 OA
ENDBRANCH  18  20
ENDBRANCH  17  18
ENDBRANCH  16  17
BRANCH  16  22
HETATM   22  C5  UNL     1      -8.168   0.375   4.947  1.00  0.00     0.218 C 
BRANCH  22  23
HETATM   23  O3  UNL     1      -7.945   0.406   6.311  1.00  0.00    -0.385 OA
ATOM     24  H3  UNL     1      -8.417   1.101   6.756  1.00  0.00     0.210 HD
ENDBRANCH  22  23
BRANCH  22  25
HETATM   25  C6  UNL     1      -9.626   0.402   4.718  1.00  0.00     0.167 C 
HETATM   26  O4  UNL     1     -10.337  -0.526   5.151  1.00  0.00    -0.294 OA
BRANCH  25  27
HETATM   27  C7  UNL     1     -10.373   1.450   4.000  1.00  0.00     0.167 C 
HETATM   28  S1  UNL     1      -9.671   1.963   2.436  1.00  0.00    -0.090 SA
ENDBRANCH  25  27
ENDBRANCH  22  25
ENDBRANCH  16  22
ENDBRANCH  14  16
ENDBRANCH   1  14
BRANCH   2  29
HETATM   29  O5  UNL     1      -5.547  -3.357   5.143  1.00  0.00    -0.391 OA
ATOM     30  H5  UNL     1      -6.100  -3.963   5.622  1.00  0.00     0.210 HD
ENDBRANCH   2  29
BRANCH   3  31
HETATM   31  C13 UNL     1      -3.747  -3.329   6.802  1.00  0.00     0.299 C 
HETATM   32  O6  UNL     1      -2.584  -3.587   6.390  1.00  0.00    -0.262 OA
BRANCH  31  33
HETATM   33  O7  UNL     1      -4.463  -4.289   7.453  1.00  0.00    -0.324 OA
HETATM   34  C14 UNL     1      -4.214  -5.680   7.277  1.00  0.00     0.213 C 
ENDBRANCH  31  33
ENDBRANCH   3  31
BRANCH  12  35
HETATM   35  O13 UNL     1      -6.104  -1.666   8.188  1.00  0.00    -0.383 OA
ATOM     36  H13 UNL     1      -6.388  -1.193   8.961  1.00  0.00     0.210 HD
ENDBRANCH  12  35
BRANCH  11  37
HETATM   37  O9  UNL     1      -5.711   0.724   8.458  1.00  0.00    -0.378 OA
ATOM     38  H9  UNL     1      -5.514   0.696   9.388  1.00  0.00     0.211 HD
ENDBRANCH  11  37
BRANCH  11  39
HETATM   39  C22 UNL     1      -3.413   0.504   8.665  1.00  0.00     0.189 C 
HETATM   40  O10 UNL     1      -2.300   0.111   8.356  1.00  0.00    -0.292 OA
BRANCH  39  41
HETATM   41  C23 UNL     1      -3.538   1.305   9.905  1.00  0.00     0.260 C 
BRANCH  41  42
HETATM   42  O11 UNL     1      -4.451   0.912  10.840  1.00  0.00    -0.314 OA
BRANCH  42  43
HETATM   43  C24 UNL     1      -4.213   0.072  11.887  1.00  0.00     0.255 C 
HETATM   44  C25 UNL     1      -5.270  -0.281  12.893  1.00  0.00     0.126 C 
HETATM   45  O12 UNL     1      -3.103  -0.474  12.097  1.00  0.00    -0.266 OA
ENDBRANCH  42  43
ENDBRANCH  41  42
ENDBRANCH  39  41
ENDBRANCH  11  39
TORSDOF 18
ENDMDL
MODEL 2
REMARK VINA RESULT: -6.323536806      2.853      7.638
REMARK  18 active torsions:
REMARK  status: ('A' for Active; 'I' for Inactive)
REMARK    1  A    between atoms: C2_2  and  C3_3 
REMARK    2  A    between atoms: C2_2  and  O2_5 
REMARK    3  A    between atoms: O2_5  and  C4_6 
REMARK    4  A    between atoms: C4_6  and  C5_7 
REMARK    5  A    between atoms: C4_6  and  C8_14 
REMARK    6  A    between atoms: C5_7  and  O3_8 
REMARK    7  A    between atoms: C5_7  and  C6_10 
REMARK    8  A    between atoms: C6_10  and  C7_12 
REMARK    9  A    between atoms: C8_14  and  C10_16 
REMARK   10  A    between atoms: C11_17  and  O5_18 
REMARK   11  A    between atoms: C12_20  and  C13_21 
REMARK   12  A    between atoms: C13_21  and  O7_23 
REMARK   13  A    between atoms: C21_32  and  O9_33 
REMARK   14  A    between atoms: C21_32  and  C22_35 
REMARK   15  A    between atoms: C22_35  and  C23_37 
REMARK   16  A    between atoms: C23_37  and  O11_38 
REMARK   17  A    between atoms: O11_38  and  C24_39 
REMARK   18  A    between atoms: C26_42  and  O13_44 
ROOT
HETATM    1  C10 UNL     1      -5.401   0.065   5.817  1.00  0.00     0.059 C 
HETATM    2  C11 UNL     1      -5.420   1.480   6.304  1.00  0.00     0.173 C 
HETATM    3  C12 UNL     1      -5.375   2.210   4.982  1.00  0.00     0.209 C 
HETATM    4  O8  UNL     1      -5.189   1.245   4.000  1.00  0.00    -0.352 OA
HETATM    5  C15 UNL     1      -5.919   0.097   4.484  1.00  0.00     0.077 C 
HETATM    6  C16 UNL     1      -5.214  -0.995   3.652  1.00  0.00     0.047 C 
HETATM    7  C17 UNL     1      -7.285   0.371   4.047  1.00  0.00     0.036 A 
HETATM    8  C18 UNL     1      -7.570  -0.296   2.659  1.00  0.00     0.021 A 
HETATM    9  C19 UNL     1      -8.433  -0.512   3.883  1.00  0.00    -0.003 A 
HETATM   10  C20 UNL     1      -8.586  -1.941   4.213  1.00  0.00     0.011 C 
HETATM   11  C21 UNL     1      -7.616   1.859   3.948  1.00  0.00     0.165 C 
HETATM   12  C26 UNL     1      -6.733   2.788   4.692  1.00  0.00     0.136 C 
HETATM   13  C27 UNL     1      -6.447   4.067   3.917  1.00  0.00     0.053 C 
ENDROOT
BRANCH   1  14
HETATM   14  C8  UNL     1      -5.686  -0.966   6.830  1.00  0.00     0.024 C 
HETATM   15  C9  UNL     1      -6.220  -0.365   8.127  1.00  0.00     0.013 C 
BRANCH  14  16
HETATM   16  C4  UNL     1      -4.414  -1.727   7.224  1.00  0.00     0.169 C 
BRANCH  16  17
HETATM   17  O2  UNL     1      -3.399  -0.789   7.265  1.00  0.00    -0.340 OA
BRANCH  17  18
HETATM   18  C2  UNL     1      -2.558  -0.278   8.168  1.00  0.00     0.097 C 
HETATM   19  C1  UNL     1      -1.290  -0.079   7.772  1.00  0.00     0.054 C 
BRANCH  18  20
HETATM   20  C3  UNL     1      -2.826   0.106   9.552  1.00  0.00     0.294 C 
HETATM   21  O1  UNL     1      -3.395   1.204   9.838  1.00  0.00    -0.299 OA
ENDBRANCH  18  20
ENDBRANCH  17  18
ENDBRANCH  16  17
BRANCH  16  22
HETATM   22  C5  UNL     1      -4.098  -2.883   6.313  1.00  0.00     0.218 C 
BRANCH  22  23
HETATM   23  O3  UNL     1      -5.223  -3.509   5.808  1.00  0.00    -0.385 OA
ATOM     24  H3  UNL     1      -5.027  -4.166   5.151  1.00  0.00     0.210 HD
ENDBRANCH  22  23
BRANCH  22  25
HETATM   25  C6  UNL     1      -3.311  -3.884   7.060  1.00  0.00     0.167 C 
HETATM   26  O4  UNL     1      -2.211  -4.264   6.612  1.00  0.00    -0.294 OA
BRANCH  25  27
HETATM   27  C7  UNL     1      -3.696  -4.519   8.332  1.00  0.00     0.167 C 
HETATM   28  S1  UNL     1      -4.385  -6.164   8.197  1.00  0.00    -0.090 SA
ENDBRANCH  25  27
ENDBRANCH  22  25
ENDBRANCH  16  22
ENDBRANCH  14  16
ENDBRANCH   1  14
BRANCH   2  29
HETATM   29  O5  UNL     1      -4.279   1.870   6.998  1.00  0.00    -0.391 OA
ATOM     30  H5  UNL     1      -4.265   1.614   7.913  1.00  0.00     0.210 HD
ENDBRANCH   2  29
BRANCH   3  31
HETATM   31  C13 UNL     1      -4.277   3.213   4.952  1.00  0.00     0.299 C 
HETATM   32  O6  UNL     1      -3.290   3.067   4.182  1.00  0.00    -0.262 OA
BRANCH  31  33
HETATM   33  O7  UNL     1      -4.344   4.301   5.769  1.00  0.00    -0.324 OA
HETATM   34  C14 UNL     1      -3.221   5.138   6.022  1.00  0.00     0.213 C 
ENDBRANCH  31  33
ENDBRANCH   3  31
BRANCH  12  35
HETATM   35  O13 UNL     1      -7.336   3.240   5.894  1.00  0.00    -0.383 OA
ATOM     36  H13 UNL     1      -8.232   2.927   5.947  1.00  0.00     0.210 HD
ENDBRANCH  12  35
BRANCH  11  37
HETATM   37  O9  UNL     1      -8.900   2.009   4.488  1.00  0.00    -0.378 OA
ATOM     38  H9  UNL     1      -8.806   2.588   5.235  1.00  0.00     0.211 HD
ENDBRANCH  11  37
BRANCH  11  39
HETATM   39  C22 UNL     1      -7.702   2.365   2.536  1.00  0.00     0.189 C 
HETATM   40  O10 UNL     1      -6.707   2.387   1.828  1.00  0.00    -0.292 OA
BRANCH  39  41
HETATM   41  C23 UNL     1      -8.971   2.856   1.952  1.00  0.00     0.260 C 
BRANCH  41  42
HETATM   42  O11 UNL     1      -9.829   1.944   1.408  1.00  0.00    -0.314 OA
BRANCH  42  43
HETATM   43  C24 UNL     1     -11.066   1.626   1.885  1.00  0.00     0.255 C 
HETATM   44  C25 UNL     1     -12.301   1.712   1.038  1.00  0.00     0.126 C 
HETATM   45  O12 UNL     1     -11.275   1.236   3.059  1.00  0.00    -0.266 OA
ENDBRANCH  42  43
ENDBRANCH  41  42
ENDBRANCH  39  41
ENDBRANCH  11  39
TORSDOF 18
ENDMDL
MODEL 3
REMARK VINA RESULT: -6.187856671      1.855      2.325
REMARK  18 active torsions:
REMARK  status: ('A' for Active; 'I' for Inactive)
REMARK    1  A    between atoms: C2_2  and  C3_3 
REMARK    2  A    between atoms: C2_2  and  O2_5 
REMARK    3  A    between atoms: O2_5  and  C4_6 
REMARK    4  A    between atoms: C4_6  and  C5_7 
REMARK    5  A    between atoms: C4_6  and  C8_14 
REMARK    6  A    between atoms: C5_7  and  O3_8 
REMARK    7  A    between atoms: C5_7  and  C6_10 
REMARK    8  A    between atoms: C6_10  and  C7_12 
REMARK    9  A    between atoms: C8_14  and  C10_16 
REMARK   10  A    between atoms: C11_17  and  O5_18 
REMARK   11  A    between atoms: C12_20  and  C13_21 
REMARK   12  A    between atoms: C13_21  and  O7_23 
REMARK   13  A    between atoms: C21_32  and  O9_33 
REMARK   14  A    between atoms: C21_32  and  C22_35 
REMARK   15  A    between atoms: C22_35  and  C23_37 
REMARK   16  A    between atoms: C23_37  and  O11_38 
REMARK   17  A    between atoms: O11_38  and  C24_39 
REMARK   18  A    between atoms: C26_42  and  O13_44 
ROOT
HETATM    1  C10 UNL     1      -5.439   0.212   5.217  1.00  0.00     0.059 C 
HETATM    2  C11 UNL     1      -5.731  -0.494   6.504  1.00  0.00     0.173 C 
HETATM    3  C12 UNL     1      -4.336  -0.937   6.880  1.00  0.00     0.209 C 
HETATM    4  O8  UNL     1      -3.514  -0.617   5.807  1.00  0.00    -0.352 OA
HETATM    5  C15 UNL     1      -4.067   0.612   5.286  1.00  0.00     0.077 C 
HETATM    6  C16 UNL     1      -3.462   0.557   3.868  1.00  0.00     0.047 C 
HETATM    7  C17 UNL     1      -3.460   1.630   6.139  1.00  0.00     0.036 A 
HETATM    8  C18 UNL     1      -2.150   2.191   5.490  1.00  0.00     0.021 A 
HETATM    9  C19 UNL     1      -3.297   3.066   5.947  1.00  0.00    -0.003 A 
HETATM   10  C20 UNL     1      -3.794   3.943   4.872  1.00  0.00     0.011 C 
HETATM   11  C21 UNL     1      -3.133   1.142   7.549  1.00  0.00     0.165 C 
HETATM   12  C26 UNL     1      -3.835  -0.080   8.010  1.00  0.00     0.136 C 
HETATM   13  C27 UNL     1      -2.932  -1.002   8.818  1.00  0.00     0.053 C 
ENDROOT
BRANCH   1  14
HETATM   14  C8  UNL     1      -6.544   1.009   4.658  1.00  0.00     0.024 C 
HETATM   15  C9  UNL     1      -7.101   2.008   5.668  1.00  0.00     0.013 C 
BRANCH  14  16
HETATM   16  C4  UNL     1      -7.729   0.119   4.265  1.00  0.00     0.169 C 
BRANCH  16  17
HETATM   17  O2  UNL     1      -7.272  -0.715   3.262  1.00  0.00    -0.340 OA
BRANCH  17  18
HETATM   18  C2  UNL     1      -7.200  -2.027   3.020  1.00  0.00     0.097 C 
HETATM   19  C1  UNL     1      -8.113  -2.539   2.179  1.00  0.00     0.054 C 
BRANCH  18  20
HETATM   20  C3  UNL     1      -6.250  -3.003   3.548  1.00  0.00     0.294 C 
HETATM   21  O1  UNL     1      -6.605  -3.884   4.391  1.00  0.00    -0.299 OA
ENDBRANCH  18  20
ENDBRANCH  17  18
ENDBRANCH  16  17
BRANCH  16  22
HETATM   22  C5  UNL     1      -8.956   0.892   3.860  1.00  0.00     0.218 C 
BRANCH  22  23
HETATM   23  O3  UNL     1     -10.139   0.245   4.165  1.00  0.00    -0.385 OA
ATOM     24  H3  UNL     1     -10.235  -0.594   3.728  1.00  0.00     0.210 HD
ENDBRANCH  22  23
BRANCH  22  25
HETATM   25  C6  UNL     1      -8.921   1.125   2.403  1.00  0.00     0.167 C 
HETATM   26  O4  UNL     1      -9.598   0.403   1.645  1.00  0.00    -0.294 OA
BRANCH  25  27
HETATM   27  C7  UNL     1      -8.138   2.162   1.708  1.00  0.00     0.167 C 
HETATM   28  S1  UNL     1      -6.790   1.562   0.696  1.00  0.00    -0.090 SA
ENDBRANCH  25  27
ENDBRANCH  22  25
ENDBRANCH  16  22
ENDBRANCH  14  16
ENDBRANCH   1  14
BRANCH   2  29
HETATM   29  O5  UNL     1      -6.481  -1.658   6.370  1.00  0.00    -0.391 OA
ATOM     30  H5  UNL     1      -6.109  -2.420   6.798  1.00  0.00     0.210 HD
ENDBRANCH   2  29
BRANCH   3  31
HETATM   31  C13 UNL     1      -4.287  -2.395   7.166  1.00  0.00     0.299 C 
HETATM   32  O6  UNL     1      -4.836  -2.870   8.197  1.00  0.00    -0.262 OA
BRANCH  31  33
HETATM   33  O7  UNL     1      -3.639  -3.225   6.301  1.00  0.00    -0.324 OA
HETATM   34  C14 UNL     1      -3.795  -4.639   6.336  1.00  0.00     0.213 C 
ENDBRANCH  31  33
ENDBRANCH   3  31
BRANCH  12  35
HETATM   35  O13 UNL     1      -4.899   0.227   8.896  1.00  0.00    -0.383 OA
ATOM     36  H13 UNL     1      -4.631   0.904   9.506  1.00  0.00     0.210 HD
ENDBRANCH  12  35
BRANCH  11  37
HETATM   37  O9  UNL     1      -3.514   2.173   8.417  1.00  0.00    -0.378 OA
ATOM     38  H9  UNL     1      -3.219   2.981   8.013  1.00  0.00     0.211 HD
ENDBRANCH  11  37
BRANCH  11  39
HETATM   39  C22 UNL     1      -1.665   0.925   7.786  1.00  0.00     0.189 C 
HETATM   40  O10 UNL     1      -1.059   0.074   7.157  1.00  0.00    -0.292 OA
BRANCH  39  41
HETATM   41  C23 UNL     1      -0.905   1.716   8.781  1.00  0.00     0.260 C 
BRANCH  41  42
HETATM   42  O11 UNL     1      -1.399   1.808  10.050  1.00  0.00    -0.314 OA
BRANCH  42  43
HETATM   43  C24 UNL     1      -0.914   1.159  11.147  1.00  0.00     0.255 C 
HETATM   44  C25 UNL     1       0.545   1.143  11.494  1.00  0.00     0.126 C 
HETATM   45  O12 UNL     1      -1.640   0.527  11.952  1.00  0.00    -0.266 OA
ENDBRANCH  42  43
ENDBRANCH  41  42
ENDBRANCH  39  41
ENDBRANCH  11  39
TORSDOF 18
ENDMDL
MODEL 4
REMARK VINA RESULT: -6.175219196      1.847      2.218
REMARK  18 active torsions:
REMARK  status: ('A' for Active; 'I' for Inactive)
REMARK    1  A    between atoms: C2_2  and  C3_3 
REMARK    2  A    between atoms: C2_2  and  O2_5 
REMARK    3  A    between atoms: O2_5  and  C4_6 
REMARK    4  A    between atoms: C4_6  and  C5_7 
REMARK    5  A    between atoms: C4_6  and  C8_14 
REMARK    6  A    between atoms: C5_7  and  O3_8 
REMARK    7  A    between atoms: C5_7  and  C6_10 
REMARK    8  A    between atoms: C6_10  and  C7_12 
REMARK    9  A    between atoms: C8_14  and  C10_16 
REMARK   10  A    between atoms: C11_17  and  O5_18 
REMARK   11  A    between atoms: C12_20  and  C13_21 
REMARK   12  A    between atoms: C13_21  and  O7_23 
REMARK   13  A    between atoms: C21_32  and  O9_33 
REMARK   14  A    between atoms: C21_32  and  C22_35 
REMARK   15  A    between atoms: C22_35  and  C23_37 
REMARK   16  A    between atoms: C23_37  and  O11_38 
REMARK   17  A    between atoms: O11_38  and  C24_39 
REMARK   18  A    between atoms: C26_42  and  O13_44 
ROOT
HETATM    1  C10 UNL     1      -5.349   0.436   5.409  1.00  0.00     0.059 C 
HETATM    2  C11 UNL     1      -5.710  -0.344   6.634  1.00  0.00     0.173 C 
HETATM    3  C12 UNL     1      -4.353  -0.898   6.998  1.00  0.00     0.209 C 
HETATM    4  O8  UNL     1      -3.490  -0.551   5.967  1.00  0.00    -0.352 OA
HETATM    5  C15 UNL     1      -3.957   0.745   5.530  1.00  0.00     0.077 C 
HETATM    6  C16 UNL     1      -3.327   0.759   4.123  1.00  0.00     0.047 C 
HETATM    7  C17 UNL     1      -3.309   1.657   6.468  1.00  0.00     0.036 A 
HETATM    8  C18 UNL     1      -1.955   2.184   5.885  1.00  0.00     0.021 A 
HETATM    9  C19 UNL     1      -3.056   3.091   6.388  1.00  0.00    -0.003 A 
HETATM   10  C20 UNL     1      -3.477   4.074   5.373  1.00  0.00     0.011 C 
HETATM   11  C21 UNL     1      -3.042   1.047   7.842  1.00  0.00     0.165 C 
HETATM   12  C26 UNL     1      -3.825  -0.160   8.198  1.00  0.00     0.136 C 
HETATM   13  C27 UNL     1      -2.997  -1.193   8.949  1.00  0.00     0.053 C 
ENDROOT
BRANCH   1  14
HETATM   14  C8  UNL     1      -6.392   1.339   4.893  1.00  0.00     0.024 C 
HETATM   15  C9  UNL     1      -7.167   2.023   6.015  1.00  0.00     0.013 C 
BRANCH  14  16
HETATM   16  C4  UNL     1      -7.441   0.570   4.079  1.00  0.00     0.169 C 
BRANCH  16  17
HETATM   17  O2  UNL     1      -6.755  -0.413   3.392  1.00  0.00    -0.340 OA
BRANCH  17  18
HETATM   18  C2  UNL     1      -6.986  -1.645   2.930  1.00  0.00     0.097 C 
HETATM   19  C1  UNL     1      -7.867  -1.758   1.922  1.00  0.00     0.054 C 
BRANCH  18  20
HETATM   20  C3  UNL     1      -6.408  -2.911   3.370  1.00  0.00     0.294 C 
HETATM   21  O1  UNL     1      -6.709  -3.423   4.492  1.00  0.00    -0.299 OA
ENDBRANCH  18  20
ENDBRANCH  17  18
ENDBRANCH  16  17
BRANCH  16  22
HETATM   22  C5  UNL     1      -8.260   1.447   3.170  1.00  0.00     0.218 C 
BRANCH  22  23
HETATM   23  O3  UNL     1      -7.982   2.795   3.311  1.00  0.00    -0.385 OA
ATOM     24  H3  UNL     1      -8.757   3.345   3.287  1.00  0.00     0.210 HD
ENDBRANCH  22  23
BRANCH  22  25
HETATM   25  C6  UNL     1      -9.692   1.240   3.459  1.00  0.00     0.167 C 
HETATM   26  O4  UNL     1     -10.054   0.234   4.100  1.00  0.00    -0.294 OA
BRANCH  25  27
HETATM   27  C7  UNL     1     -10.797   2.127   3.054  1.00  0.00     0.167 C 
HETATM   28  S1  UNL     1     -12.294   1.988   4.024  1.00  0.00    -0.090 SA
ENDBRANCH  25  27
ENDBRANCH  22  25
ENDBRANCH  16  22
ENDBRANCH  14  16
ENDBRANCH   1  14
BRANCH   2  29
HETATM   29  O5  UNL     1      -6.526  -1.447   6.399  1.00  0.00    -0.391 OA
ATOM     30  H5  UNL     1      -6.083  -2.190   6.004  1.00  0.00     0.210 HD
ENDBRANCH   2  29
BRANCH   3  31
HETATM   31  C13 UNL     1      -4.398  -2.374   7.175  1.00  0.00     0.299 C 
HETATM   32  O6  UNL     1      -4.964  -2.888   8.176  1.00  0.00    -0.262 OA
BRANCH  31  33
HETATM   33  O7  UNL     1      -3.817  -3.177   6.239  1.00  0.00    -0.324 OA
HETATM   34  C14 UNL     1      -3.793  -4.596   6.357  1.00  0.00     0.213 C 
ENDBRANCH  31  33
ENDBRANCH   3  31
BRANCH  12  35
HETATM   35  O13 UNL     1      -4.888   0.144   9.087  1.00  0.00    -0.383 OA
ATOM     36  H13 UNL     1      -5.175  -0.644   9.534  1.00  0.00     0.210 HD
ENDBRANCH  12  35
BRANCH  11  37
HETATM   37  O9  UNL     1      -3.379   2.032   8.779  1.00  0.00    -0.378 OA
ATOM     38  H9  UNL     1      -2.749   1.952   9.486  1.00  0.00     0.211 HD
ENDBRANCH  11  37
BRANCH  11  39
HETATM   39  C22 UNL     1      -1.595   0.724   8.087  1.00  0.00     0.189 C 
HETATM   40  O10 UNL     1      -1.056  -0.185   7.478  1.00  0.00    -0.292 OA
BRANCH  39  41
HETATM   41  C23 UNL     1      -0.777   1.475   9.067  1.00  0.00     0.260 C 
BRANCH  41  42
HETATM   42  O11 UNL     1      -1.320   1.751  10.288  1.00  0.00    -0.314 OA
BRANCH  42  43
HETATM   43  C24 UNL     1      -1.156   1.013  11.423  1.00  0.00     0.255 C 
HETATM   44  C25 UNL     1       0.158   0.921  12.140  1.00  0.00     0.126 C 
HETATM   45  O12 UNL     1      -2.081   0.355  11.958  1.00  0.00    -0.266 OA
ENDBRANCH  42  43
ENDBRANCH  41  42
ENDBRANCH  39  41
ENDBRANCH  11  39
TORSDOF 18
ENDMDL
MODEL 5
REMARK VINA RESULT: -6.119448841      1.921      2.468
REMARK  18 active torsions:
REMARK  status: ('A' for Active; 'I' for Inactive)
REMARK    1  A    between atoms: C2_2  and  C3_3 
REMARK    2  A    between atoms: C2_2  and  O2_5 
REMARK    3  A    between atoms: O2_5  and  C4_6 
REMARK    4  A    between atoms: C4_6  and  C5_7 
REMARK    5  A    between atoms: C4_6  and  C8_14 
REMARK    6  A    between atoms: C5_7  and  O3_8 
REMARK    7  A    between atoms: C5_7  and  C6_10 
REMARK    8  A    between atoms: C6_10  and  C7_12 
REMARK    9  A    between atoms: C8_14  and  C10_16 
REMARK   10  A    between atoms: C11_17  and  O5_18 
REMARK   11  A    between atoms: C12_20  and  C13_21 
REMARK   12  A    between atoms: C13_21  and  O7_23 
REMARK   13  A    between atoms: C21_32  and  O9_33 
REMARK   14  A    between atoms: C21_32  and  C22_35 
REMARK   15  A    between atoms: C22_35  and  C23_37 
REMARK   16  A    between atoms: C23_37  and  O11_38 
REMARK   17  A    between atoms: O11_38  and  C24_39 
REMARK   18  A    between atoms: C26_42  and  O13_44 
ROOT
HETATM    1  C10 UNL     1      -5.567   0.307   5.009  1.00  0.00     0.059 C 
HETATM    2  C11 UNL     1      -5.822  -0.313   6.348  1.00  0.00     0.173 C 
HETATM    3  C12 UNL     1      -4.429  -0.797   6.679  1.00  0.00     0.209 C 
HETATM    4  O8  UNL     1      -3.651  -0.575   5.550  1.00  0.00    -0.352 OA
HETATM    5  C15 UNL     1      -4.178   0.647   4.987  1.00  0.00     0.077 C 
HETATM    6  C16 UNL     1      -3.651   0.486   3.546  1.00  0.00     0.047 C 
HETATM    7  C17 UNL     1      -3.484   1.682   5.749  1.00  0.00     0.036 A 
HETATM    8  C18 UNL     1      -2.188   2.146   5.005  1.00  0.00     0.021 A 
HETATM    9  C19 UNL     1      -3.270   3.096   5.467  1.00  0.00    -0.003 A 
HETATM   10  C20 UNL     1      -3.785   3.933   4.368  1.00  0.00     0.011 C 
HETATM   11  C21 UNL     1      -3.106   1.258   7.167  1.00  0.00     0.165 C 
HETATM   12  C26 UNL     1      -3.834   0.097   7.731  1.00  0.00     0.136 C 
HETATM   13  C27 UNL     1      -2.930  -0.819   8.546  1.00  0.00     0.053 C 
ENDROOT
BRANCH   1  14
HETATM   14  C8  UNL     1      -6.665   1.121   4.461  1.00  0.00     0.024 C 
HETATM   15  C9  UNL     1      -7.586   1.655   5.553  1.00  0.00     0.013 C 
BRANCH  14  16
HETATM   16  C4  UNL     1      -7.564   0.292   3.535  1.00  0.00     0.169 C 
BRANCH  16  17
HETATM   17  O2  UNL     1      -6.900  -0.899   3.314  1.00  0.00    -0.340 OA
BRANCH  17  18
HETATM   18  C2  UNL     1      -7.193  -2.137   2.908  1.00  0.00     0.097 C 
HETATM   19  C1  UNL     1      -6.476  -3.138   3.445  1.00  0.00     0.054 C 
BRANCH  18  20
HETATM   20  C3  UNL     1      -8.203  -2.568   1.943  1.00  0.00     0.294 C 
HETATM   21  O1  UNL     1      -8.326  -3.787   1.612  1.00  0.00    -0.299 OA
ENDBRANCH  18  20
ENDBRANCH  17  18
ENDBRANCH  16  17
BRANCH  16  22
HETATM   22  C5  UNL     1      -7.926   0.999   2.255  1.00  0.00     0.218 C 
BRANCH  22  23
HETATM   23  O3  UNL     1      -7.341   2.247   2.133  1.00  0.00    -0.385 OA
ATOM     24  H3  UNL     1      -7.575   2.696   1.329  1.00  0.00     0.210 HD
ENDBRANCH  22  23
BRANCH  22  25
HETATM   25  C6  UNL     1      -9.390   1.168   2.194  1.00  0.00     0.167 C 
HETATM   26  O4  UNL     1     -10.072   0.401   1.486  1.00  0.00    -0.294 OA
BRANCH  25  27
HETATM   27  C7  UNL     1     -10.177   2.191   2.906  1.00  0.00     0.167 C 
HETATM   28  S1  UNL     1     -11.372   1.567   4.081  1.00  0.00    -0.090 SA
ENDBRANCH  25  27
ENDBRANCH  22  25
ENDBRANCH  16  22
ENDBRANCH  14  16
ENDBRANCH   1  14
BRANCH   2  29
HETATM   29  O5  UNL     1      -6.627  -1.447   6.318  1.00  0.00    -0.391 OA
ATOM     30  H5  UNL     1      -7.470  -1.324   5.897  1.00  0.00     0.210 HD
ENDBRANCH   2  29
BRANCH   3  31
HETATM   31  C13 UNL     1      -4.428  -2.238   7.046  1.00  0.00     0.299 C 
HETATM   32  O6  UNL     1      -4.902  -2.624   8.148  1.00  0.00    -0.262 OA
BRANCH  31  33
HETATM   33  O7  UNL     1      -3.906  -3.149   6.177  1.00  0.00    -0.324 OA
HETATM   34  C14 UNL     1      -3.728  -4.519   6.521  1.00  0.00     0.213 C 
ENDBRANCH  31  33
ENDBRANCH   3  31
BRANCH  12  35
HETATM   35  O13 UNL     1      -4.837   0.501   8.651  1.00  0.00    -0.383 OA
ATOM     36  H13 UNL     1      -4.820  -0.060   9.418  1.00  0.00     0.210 HD
ENDBRANCH  12  35
BRANCH  11  37
HETATM   37  O9  UNL     1      -3.396   2.352   7.991  1.00  0.00    -0.378 OA
ATOM     38  H9  UNL     1      -3.054   2.134   8.851  1.00  0.00     0.211 HD
ENDBRANCH  11  37
BRANCH  11  39
HETATM   39  C22 UNL     1      -1.638   0.989   7.343  1.00  0.00     0.189 C 
HETATM   40  O10 UNL     1      -1.117   0.033   6.791  1.00  0.00    -0.292 OA
BRANCH  39  41
HETATM   41  C23 UNL     1      -0.776   1.849   8.185  1.00  0.00     0.260 C 
BRANCH  41  42
HETATM   42  O11 UNL     1      -0.352   1.362   9.387  1.00  0.00    -0.314 OA
BRANCH  42  43
HETATM   43  C24 UNL     1      -1.014   1.470  10.574  1.00  0.00     0.255 C 
HETATM   44  C25 UNL     1      -0.403   1.052  11.878  1.00  0.00     0.126 C 
HETATM   45  O12 UNL     1      -2.180   1.925  10.675  1.00  0.00    -0.266 OA
ENDBRANCH  42  43
ENDBRANCH  41  42
ENDBRANCH  39  41
ENDBRANCH  11  39
TORSDOF 18
ENDMDL
