MODEL 1
REMARK VINA RESULT: -7.571843131      0.000      0.000
REMARK  19 active torsions:
REMARK  status: ('A' for Active; 'I' for Inactive)
REMARK    1  A    between atoms: C2_2  and  O1_3 
REMARK    2  A    between atoms: O1_3  and  C3_4 
REMARK    3  A    between atoms: C3_4  and  C4_6 
REMARK    4  A    between atoms: C4_6  and  C5_7 
REMARK    5  A    between atoms: C5_7  and  O3_8 
REMARK    6  A    between atoms: C5_7  and  C6_10 
REMARK    7  A    between atoms: C6_10  and  O5_12 
REMARK    8  A    between atoms: O5_12  and  C7_13 
REMARK    9  A    between atoms: C10_16  and  O6_18 
REMARK   10  A    between atoms: C13_21  and  O7_22 
REMARK   11  A    between atoms: O7_22  and  C14_23 
REMARK   12  A    between atoms: C16_26  and  O9_27 
REMARK   13  A    between atoms: O9_27  and  C17_28 
REMARK   14  A    between atoms: C21_33  and  C22_34 
REMARK   15  A    between atoms: C22_34  and  O11_35 
REMARK   16  A    between atoms: O11_35  and  C23_36 
REMARK       I    between atoms: C23_36  and  N1_38 
REMARK   17  A    between atoms: N1_38  and  C24_40 
REMARK   18  A    between atoms: C24_40  and  C25_41 
REMARK   19  A    between atoms: C24_40  and  C27_43 
ROOT
HETATM    1  C7  UNL     1      -8.421   0.964   5.872  1.00  0.00     0.137 C 
HETATM    2  C8  UNL     1      -7.164   1.841   5.750  1.00  0.00     0.041 C 
HETATM    3  C9  UNL     1      -6.202   0.861   5.318  1.00  0.00     0.036 C 
HETATM    4  C10 UNL     1      -4.782   0.942   5.294  1.00  0.00     0.062 C 
HETATM    5  C11 UNL     1      -4.053   1.720   6.335  1.00  0.00     0.046 C 
HETATM    6  C12 UNL     1      -4.391  -0.522   5.243  1.00  0.00     0.080 C 
HETATM    7  C13 UNL     1      -5.659  -1.347   5.489  1.00  0.00     0.110 C 
HETATM    8  C16 UNL     1      -6.476  -1.668   4.320  1.00  0.00     0.168 C 
HETATM    9  C19 UNL     1      -7.909  -1.156   4.592  1.00  0.00     0.043 C 
HETATM   10  C20 UNL     1      -7.920  -0.490   5.914  1.00  0.00     0.032 C 
HETATM   11  C21 UNL     1      -6.485  -0.310   6.201  1.00  0.00     0.029 C 
ENDROOT
BRANCH   1  12
HETATM   12  O5  UNL     1      -9.314   1.178   4.833  1.00  0.00    -0.314 OA
BRANCH  12  13
HETATM   13  C6  UNL     1     -10.686   1.087   5.051  1.00  0.00     0.288 C 
HETATM   14  O4  UNL     1     -11.097   0.486   6.079  1.00  0.00    -0.262 OA
BRANCH  13  15
HETATM   15  C5  UNL     1     -11.619   1.695   4.074  1.00  0.00     0.226 C 
BRANCH  15  16
HETATM   16  C4  UNL     1     -10.942   2.214   2.825  1.00  0.00     0.153 C 
BRANCH  16  17
HETATM   17  C3  UNL     1     -11.679   1.769   1.631  1.00  0.00     0.261 C 
HETATM   18  O2  UNL     1     -11.389   0.690   1.075  1.00  0.00    -0.265 OA
BRANCH  17  19
HETATM   19  O1  UNL     1     -12.705   2.561   1.127  1.00  0.00    -0.322 OA
BRANCH  19  20
HETATM   20  C2  UNL     1     -13.847   1.858   0.616  1.00  0.00     0.174 C 
HETATM   21  C1  UNL     1     -15.032   2.102   1.509  1.00  0.00     0.034 C 
ENDBRANCH  19  20
ENDBRANCH  17  19
ENDBRANCH  16  17
ENDBRANCH  15  16
BRANCH  15  22
HETATM   22  O3  UNL     1     -12.584   0.769   3.737  1.00  0.00    -0.385 OA
ATOM     23  H3  UNL     1     -13.325   0.843   4.327  1.00  0.00     0.210 HD
ENDBRANCH  15  22
ENDBRANCH  13  15
ENDBRANCH  12  13
ENDBRANCH   1  12
BRANCH  11  24
HETATM   24  C22 UNL     1      -6.173  -0.250   7.613  1.00  0.00     0.194 C 
BRANCH  24  25
HETATM   25  O11 UNL     1      -7.205  -0.718   8.476  1.00  0.00    -0.303 OA
BRANCH  25  26
HETATM   26  C23 UNL     1      -7.422  -0.064   9.711  1.00  0.00     0.361 C 
HETATM   27  O12 UNL     1      -8.376   0.724   9.761  1.00  0.00    -0.238 OA
HETATM   28  N1  UNL     1      -6.549  -0.355  10.770  1.00  0.00    -0.322 N 
ATOM     29  H1  UNL     1      -5.804  -1.017  10.555  1.00  0.00     0.165 HD
BRANCH  28  30
HETATM   30  C24 UNL     1      -6.559   0.146  12.103  1.00  0.00     0.187 C 
BRANCH  30  31
HETATM   31  C25 UNL     1      -5.200   0.399  12.744  1.00  0.00     0.032 C 
HETATM   32  C26 UNL     1      -4.157  -0.313  11.948  1.00  0.00     0.007 C 
ENDBRANCH  30  31
BRANCH  30  33
HETATM   33  C27 UNL     1      -7.507  -0.574  12.937  1.00  0.00     0.196 C 
HETATM   34  O13 UNL     1      -8.610  -0.946  12.470  1.00  0.00    -0.646 OA
HETATM   35  O14 UNL     1      -7.197  -0.862  14.273  1.00  0.00    -0.646 OA
ENDBRANCH  30  33
ENDBRANCH  28  30
ENDBRANCH  25  26
ENDBRANCH  24  25
ENDBRANCH  11  24
BRANCH   4  36
HETATM   36  O6  UNL     1      -4.369   1.488   4.048  1.00  0.00    -0.390 OA
ATOM     37  H6  UNL     1      -4.097   2.389   4.179  1.00  0.00     0.210 HD
ENDBRANCH   4  36
BRANCH   8  38
HETATM   38  O9  UNL     1      -6.578  -3.046   3.987  1.00  0.00    -0.313 OA
BRANCH  38  39
HETATM   39  C17 UNL     1      -7.201  -3.500   2.818  1.00  0.00     0.255 C 
HETATM   40  C18 UNL     1      -7.865  -2.522   1.883  1.00  0.00     0.126 C 
HETATM   41  O10 UNL     1      -7.176  -4.731   2.602  1.00  0.00    -0.266 OA
ENDBRANCH  38  39
ENDBRANCH   8  38
BRANCH   7  42
HETATM   42  O7  UNL     1      -5.385  -2.421   6.373  1.00  0.00    -0.307 OA
BRANCH  42  43
HETATM   43  C14 UNL     1      -4.175  -3.029   6.553  1.00  0.00     0.255 C 
HETATM   44  C15 UNL     1      -3.231  -2.694   7.648  1.00  0.00     0.126 C 
HETATM   45  O8  UNL     1      -3.815  -3.928   5.762  1.00  0.00    -0.266 OA
ENDBRANCH  42  43
ENDBRANCH   7  42
TORSDOF 19
ENDMDL
MODEL 2
REMARK VINA RESULT: -7.538564013      2.914      6.849
REMARK  19 active torsions:
REMARK  status: ('A' for Active; 'I' for Inactive)
REMARK    1  A    between atoms: C2_2  and  O1_3 
REMARK    2  A    between atoms: O1_3  and  C3_4 
REMARK    3  A    between atoms: C3_4  and  C4_6 
REMARK    4  A    between atoms: C4_6  and  C5_7 
REMARK    5  A    between atoms: C5_7  and  O3_8 
REMARK    6  A    between atoms: C5_7  and  C6_10 
REMARK    7  A    between atoms: C6_10  and  O5_12 
REMARK    8  A    between atoms: O5_12  and  C7_13 
REMARK    9  A    between atoms: C10_16  and  O6_18 
REMARK   10  A    between atoms: C13_21  and  O7_22 
REMARK   11  A    between atoms: O7_22  and  C14_23 
REMARK   12  A    between atoms: C16_26  and  O9_27 
REMARK   13  A    between atoms: O9_27  and  C17_28 
REMARK   14  A    between atoms: C21_33  and  C22_34 
REMARK   15  A    between atoms: C22_34  and  O11_35 
REMARK   16  A    between atoms: O11_35  and  C23_36 
REMARK       I    between atoms: C23_36  and  N1_38 
REMARK   17  A    between atoms: N1_38  and  C24_40 
REMARK   18  A    between atoms: C24_40  and  C25_41 
REMARK   19  A    between atoms: C24_40  and  C27_43 
ROOT
HETATM    1  C7  UNL     1      -6.704  -0.107   6.285  1.00  0.00     0.137 C 
HETATM    2  C8  UNL     1      -5.737  -1.298   6.177  1.00  0.00     0.041 C 
HETATM    3  C9  UNL     1      -5.332  -1.432   7.552  1.00  0.00     0.036 C 
HETATM    4  C10 UNL     1      -4.238  -2.154   8.102  1.00  0.00     0.062 C 
HETATM    5  C11 UNL     1      -2.963  -2.287   7.343  1.00  0.00     0.046 C 
HETATM    6  C12 UNL     1      -4.075  -1.484   9.453  1.00  0.00     0.080 C 
HETATM    7  C13 UNL     1      -4.968  -0.239   9.461  1.00  0.00     0.110 C 
HETATM    8  C16 UNL     1      -6.358  -0.425   9.877  1.00  0.00     0.168 C 
HETATM    9  C19 UNL     1      -7.264   0.106   8.741  1.00  0.00     0.043 C 
HETATM   10  C20 UNL     1      -6.396   0.566   7.634  1.00  0.00     0.032 C 
HETATM   11  C21 UNL     1      -5.088  -0.021   7.977  1.00  0.00     0.029 C 
ENDROOT
BRANCH   1  12
HETATM   12  O5  UNL     1      -8.031  -0.497   6.187  1.00  0.00    -0.314 OA
BRANCH  12  13
HETATM   13  C6  UNL     1      -8.569  -0.864   4.956  1.00  0.00     0.288 C 
HETATM   14  O4  UNL     1      -9.366  -1.838   4.911  1.00  0.00    -0.262 OA
BRANCH  13  15
HETATM   15  C5  UNL     1      -8.194  -0.102   3.743  1.00  0.00     0.226 C 
BRANCH  15  16
HETATM   16  C4  UNL     1      -7.228  -0.833   2.837  1.00  0.00     0.153 C 
BRANCH  16  17
HETATM   17  C3  UNL     1      -7.939  -1.352   1.657  1.00  0.00     0.261 C 
HETATM   18  O2  UNL     1      -7.958  -0.701   0.593  1.00  0.00    -0.265 OA
BRANCH  17  19
HETATM   19  O1  UNL     1      -8.589  -2.579   1.737  1.00  0.00    -0.322 OA
BRANCH  19  20
HETATM   20  C2  UNL     1      -7.807  -3.671   2.242  1.00  0.00     0.174 C 
HETATM   21  C1  UNL     1      -8.323  -4.966   1.677  1.00  0.00     0.034 C 
ENDBRANCH  19  20
ENDBRANCH  17  19
ENDBRANCH  16  17
ENDBRANCH  15  16
BRANCH  15  22
HETATM   22  O3  UNL     1      -9.339   0.224   3.045  1.00  0.00    -0.385 OA
ATOM     23  H3  UNL     1     -10.093  -0.191   3.447  1.00  0.00     0.210 HD
ENDBRANCH  15  22
ENDBRANCH  13  15
ENDBRANCH  12  13
ENDBRANCH   1  12
BRANCH  11  24
HETATM   24  C22 UNL     1      -3.959   0.714   7.448  1.00  0.00     0.194 C 
BRANCH  24  25
HETATM   25  O11 UNL     1      -4.295   1.917   6.763  1.00  0.00    -0.303 OA
BRANCH  25  26
HETATM   26  C23 UNL     1      -3.758   2.152   5.476  1.00  0.00     0.361 C 
HETATM   27  O12 UNL     1      -2.634   2.668   5.430  1.00  0.00    -0.238 OA
HETATM   28  N1  UNL     1      -4.533   1.787   4.365  1.00  0.00    -0.322 N 
ATOM     29  H1  UNL     1      -5.446   1.387   4.579  1.00  0.00     0.165 HD
BRANCH  28  30
HETATM   30  C24 UNL     1      -4.221   1.898   2.980  1.00  0.00     0.187 C 
BRANCH  30  31
HETATM   31  C25 UNL     1      -5.371   2.276   2.053  1.00  0.00     0.032 C 
HETATM   32  C26 UNL     1      -6.372   3.063   2.831  1.00  0.00     0.007 C 
ENDBRANCH  30  31
BRANCH  30  33
HETATM   33  C27 UNL     1      -3.407   0.784   2.525  1.00  0.00     0.196 C 
HETATM   34  O13 UNL     1      -3.944  -0.236   2.029  1.00  0.00    -0.646 OA
HETATM   35  O14 UNL     1      -2.010   0.837   2.634  1.00  0.00    -0.646 OA
ENDBRANCH  30  33
ENDBRANCH  28  30
ENDBRANCH  25  26
ENDBRANCH  24  25
ENDBRANCH  11  24
BRANCH   4  36
HETATM   36  O6  UNL     1      -4.654  -3.483   8.387  1.00  0.00    -0.390 OA
ATOM     37  H6  UNL     1      -4.726  -3.592   9.328  1.00  0.00     0.210 HD
ENDBRANCH   4  36
BRANCH   8  38
HETATM   38  O9  UNL     1      -6.747   0.238  11.071  1.00  0.00    -0.313 OA
BRANCH  38  39
HETATM   39  C17 UNL     1      -7.397  -0.417  12.126  1.00  0.00     0.255 C 
HETATM   40  C18 UNL     1      -6.711  -0.572  13.459  1.00  0.00     0.126 C 
HETATM   41  O10 UNL     1      -8.546  -0.852  11.902  1.00  0.00    -0.266 OA
ENDBRANCH  38  39
ENDBRANCH   8  38
BRANCH   7  42
HETATM   42  O7  UNL     1      -4.284   0.856  10.046  1.00  0.00    -0.307 OA
BRANCH  42  43
HETATM   43  C14 UNL     1      -3.299   0.780  10.990  1.00  0.00     0.255 C 
HETATM   44  C15 UNL     1      -1.876   1.114  10.736  1.00  0.00     0.126 C 
HETATM   45  O8  UNL     1      -3.587   0.412  12.150  1.00  0.00    -0.266 OA
ENDBRANCH  42  43
ENDBRANCH   7  42
TORSDOF 19
ENDMDL
MODEL 3
REMARK VINA RESULT: -7.504836908      3.111      6.512
REMARK  19 active torsions:
REMARK  status: ('A' for Active; 'I' for Inactive)
REMARK    1  A    between atoms: C2_2  and  O1_3 
REMARK    2  A    between atoms: O1_3  and  C3_4 
REMARK    3  A    between atoms: C3_4  and  C4_6 
REMARK    4  A    between atoms: C4_6  and  C5_7 
REMARK    5  A    between atoms: C5_7  and  O3_8 
REMARK    6  A    between atoms: C5_7  and  C6_10 
REMARK    7  A    between atoms: C6_10  and  O5_12 
REMARK    8  A    between atoms: O5_12  and  C7_13 
REMARK    9  A    between atoms: C10_16  and  O6_18 
REMARK   10  A    between atoms: C13_21  and  O7_22 
REMARK   11  A    between atoms: O7_22  and  C14_23 
REMARK   12  A    between atoms: C16_26  and  O9_27 
REMARK   13  A    between atoms: O9_27  and  C17_28 
REMARK   14  A    between atoms: C21_33  and  C22_34 
REMARK   15  A    between atoms: C22_34  and  O11_35 
REMARK   16  A    between atoms: O11_35  and  C23_36 
REMARK       I    between atoms: C23_36  and  N1_38 
REMARK   17  A    between atoms: N1_38  and  C24_40 
REMARK   18  A    between atoms: C24_40  and  C25_41 
REMARK   19  A    between atoms: C24_40  and  C27_43 
ROOT
HETATM    1  C7  UNL     1      -6.146  -0.124   6.192  1.00  0.00     0.137 C 
HETATM    2  C8  UNL     1      -5.266  -1.385   6.152  1.00  0.00     0.041 C 
HETATM    3  C9  UNL     1      -4.985  -1.552   7.554  1.00  0.00     0.036 C 
HETATM    4  C10 UNL     1      -3.996  -2.356   8.185  1.00  0.00     0.062 C 
HETATM    5  C11 UNL     1      -2.677  -2.583   7.529  1.00  0.00     0.046 C 
HETATM    6  C12 UNL     1      -3.892  -1.703   9.550  1.00  0.00     0.080 C 
HETATM    7  C13 UNL     1      -4.688  -0.395   9.496  1.00  0.00     0.110 C 
HETATM    8  C16 UNL     1      -6.116  -0.475   9.797  1.00  0.00     0.168 C 
HETATM    9  C19 UNL     1      -6.885   0.125   8.597  1.00  0.00     0.043 C 
HETATM   10  C20 UNL     1      -5.898   0.521   7.566  1.00  0.00     0.032 C 
HETATM   11  C21 UNL     1      -4.671  -0.165   8.009  1.00  0.00     0.029 C 
ENDROOT
BRANCH   1  12
HETATM   12  O5  UNL     1      -7.486  -0.412   5.984  1.00  0.00    -0.314 OA
BRANCH  12  13
HETATM   13  C6  UNL     1      -8.032  -0.349   4.704  1.00  0.00     0.288 C 
HETATM   14  O4  UNL     1      -8.062   0.763   4.114  1.00  0.00    -0.262 OA
BRANCH  13  15
HETATM   15  C5  UNL     1      -8.556  -1.584   4.077  1.00  0.00     0.226 C 
BRANCH  15  16
HETATM   16  C4  UNL     1      -7.877  -1.942   2.773  1.00  0.00     0.153 C 
BRANCH  16  17
HETATM   17  C3  UNL     1      -6.642  -2.696   3.040  1.00  0.00     0.261 C 
HETATM   18  O2  UNL     1      -6.689  -3.915   3.304  1.00  0.00    -0.265 OA
BRANCH  17  19
HETATM   19  O1  UNL     1      -5.416  -2.039   2.994  1.00  0.00    -0.322 OA
BRANCH  19  20
HETATM   20  C2  UNL     1      -5.400  -0.793   2.282  1.00  0.00     0.174 C 
HETATM   21  C1  UNL     1      -4.349   0.110   2.867  1.00  0.00     0.034 C 
ENDBRANCH  19  20
ENDBRANCH  17  19
ENDBRANCH  16  17
ENDBRANCH  15  16
BRANCH  15  22
HETATM   22  O3  UNL     1      -8.438  -2.627   4.971  1.00  0.00    -0.385 OA
ATOM     23  H3  UNL     1      -9.193  -2.647   5.547  1.00  0.00     0.210 HD
ENDBRANCH  15  22
ENDBRANCH  13  15
ENDBRANCH  12  13
ENDBRANCH   1  12
BRANCH  11  24
HETATM   24  C22 UNL     1      -3.450   0.484   7.579  1.00  0.00     0.194 C 
BRANCH  24  25
HETATM   25  O11 UNL     1      -3.625   1.789   7.035  1.00  0.00    -0.303 OA
BRANCH  25  26
HETATM   26  C23 UNL     1      -2.639   2.775   7.276  1.00  0.00     0.361 C 
HETATM   27  O12 UNL     1      -2.094   3.268   6.280  1.00  0.00    -0.238 OA
HETATM   28  N1  UNL     1      -2.359   3.112   8.608  1.00  0.00    -0.322 N 
ATOM     29  H1  UNL     1      -2.889   2.598   9.312  1.00  0.00     0.165 HD
BRANCH  28  30
HETATM   30  C24 UNL     1      -1.438   4.072   9.115  1.00  0.00     0.187 C 
BRANCH  30  31
HETATM   31  C25 UNL     1       0.019   3.634   9.205  1.00  0.00     0.032 C 
HETATM   32  C26 UNL     1       0.794   4.329   8.136  1.00  0.00     0.007 C 
ENDBRANCH  30  31
BRANCH  30  33
HETATM   33  C27 UNL     1      -1.954   4.733  10.301  1.00  0.00     0.196 C 
HETATM   34  O13 UNL     1      -1.403   4.563  11.415  1.00  0.00    -0.646 OA
HETATM   35  O14 UNL     1      -3.075   5.571  10.214  1.00  0.00    -0.646 OA
ENDBRANCH  30  33
ENDBRANCH  28  30
ENDBRANCH  25  26
ENDBRANCH  24  25
ENDBRANCH  11  24
BRANCH   4  36
HETATM   36  O6  UNL     1      -4.533  -3.651   8.423  1.00  0.00    -0.390 OA
ATOM     37  H6  UNL     1      -4.124  -4.018   9.198  1.00  0.00     0.210 HD
ENDBRANCH   4  36
BRANCH   8  38
HETATM   38  O9  UNL     1      -6.550   0.213  10.962  1.00  0.00    -0.313 OA
BRANCH  38  39
HETATM   39  C17 UNL     1      -7.386  -0.372  11.922  1.00  0.00     0.255 C 
HETATM   40  C18 UNL     1      -6.921  -0.512  13.349  1.00  0.00     0.126 C 
HETATM   41  O10 UNL     1      -8.509  -0.760  11.536  1.00  0.00    -0.266 OA
ENDBRANCH  38  39
ENDBRANCH   8  38
BRANCH   7  42
HETATM   42  O7  UNL     1      -3.972   0.644  10.143  1.00  0.00    -0.307 OA
BRANCH  42  43
HETATM   43  C14 UNL     1      -3.155   0.506  11.229  1.00  0.00     0.255 C 
HETATM   44  C15 UNL     1      -1.713   0.857  11.236  1.00  0.00     0.126 C 
HETATM   45  O8  UNL     1      -3.626   0.060  12.299  1.00  0.00    -0.266 OA
ENDBRANCH  42  43
ENDBRANCH   7  42
TORSDOF 19
ENDMDL
MODEL 4
REMARK VINA RESULT: -7.458197529      3.041      6.857
REMARK  19 active torsions:
REMARK  status: ('A' for Active; 'I' for Inactive)
REMARK    1  A    between atoms: C2_2  and  O1_3 
REMARK    2  A    between atoms: O1_3  and  C3_4 
REMARK    3  A    between atoms: C3_4  and  C4_6 
REMARK    4  A    between atoms: C4_6  and  C5_7 
REMARK    5  A    between atoms: C5_7  and  O3_8 
REMARK    6  A    between atoms: C5_7  and  C6_10 
REMARK    7  A    between atoms: C6_10  and  O5_12 
REMARK    8  A    between atoms: O5_12  and  C7_13 
REMARK    9  A    between atoms: C10_16  and  O6_18 
REMARK   10  A    between atoms: C13_21  and  O7_22 
REMARK   11  A    between atoms: O7_22  and  C14_23 
REMARK   12  A    between atoms: C16_26  and  O9_27 
REMARK   13  A    between atoms: O9_27  and  C17_28 
REMARK   14  A    between atoms: C21_33  and  C22_34 
REMARK   15  A    between atoms: C22_34  and  O11_35 
REMARK   16  A    between atoms: O11_35  and  C23_36 
REMARK       I    between atoms: C23_36  and  N1_38 
REMARK   17  A    between atoms: N1_38  and  C24_40 
REMARK   18  A    between atoms: C24_40  and  C25_41 
REMARK   19  A    between atoms: C24_40  and  C27_43 
ROOT
HETATM    1  C7  UNL     1      -6.408  -0.042   6.281  1.00  0.00     0.137 C 
HETATM    2  C8  UNL     1      -5.450  -1.244   6.213  1.00  0.00     0.041 C 
HETATM    3  C9  UNL     1      -5.141  -1.412   7.609  1.00  0.00     0.036 C 
HETATM    4  C10 UNL     1      -4.096  -2.160   8.216  1.00  0.00     0.062 C 
HETATM    5  C11 UNL     1      -2.774  -2.294   7.542  1.00  0.00     0.046 C 
HETATM    6  C12 UNL     1      -4.017  -1.521   9.590  1.00  0.00     0.080 C 
HETATM    7  C13 UNL     1      -4.895  -0.265   9.564  1.00  0.00     0.110 C 
HETATM    8  C16 UNL     1      -6.311  -0.441   9.880  1.00  0.00     0.168 C 
HETATM    9  C19 UNL     1      -7.131   0.126   8.697  1.00  0.00     0.043 C 
HETATM   10  C20 UNL     1      -6.185   0.598   7.662  1.00  0.00     0.032 C 
HETATM   11  C21 UNL     1      -4.910  -0.014   8.081  1.00  0.00     0.029 C 
ENDROOT
BRANCH   1  12
HETATM   12  O5  UNL     1      -7.729  -0.412   6.084  1.00  0.00    -0.314 OA
BRANCH  12  13
HETATM   13  C6  UNL     1      -8.334  -0.237   4.842  1.00  0.00     0.288 C 
HETATM   14  O4  UNL     1      -8.435   0.930   4.378  1.00  0.00    -0.262 OA
BRANCH  13  15
HETATM   15  C5  UNL     1      -8.837  -1.419   4.106  1.00  0.00     0.226 C 
BRANCH  15  16
HETATM   16  C4  UNL     1      -7.751  -2.218   3.418  1.00  0.00     0.153 C 
BRANCH  16  17
HETATM   17  C3  UNL     1      -8.069  -2.373   1.989  1.00  0.00     0.261 C 
HETATM   18  O2  UNL     1      -8.452  -3.473   1.542  1.00  0.00    -0.265 OA
BRANCH  17  19
HETATM   19  O1  UNL     1      -7.939  -1.280   1.138  1.00  0.00    -0.322 OA
BRANCH  19  20
HETATM   20  C2  UNL     1      -6.855  -0.386   1.428  1.00  0.00     0.174 C 
HETATM   21  C1  UNL     1      -6.630   0.532   0.258  1.00  0.00     0.034 C 
ENDBRANCH  19  20
ENDBRANCH  17  19
ENDBRANCH  16  17
ENDBRANCH  15  16
BRANCH  15  22
HETATM   22  O3  UNL     1      -9.536  -2.228   4.978  1.00  0.00    -0.385 OA
ATOM     23  H3  UNL     1      -9.549  -1.836   5.844  1.00  0.00     0.210 HD
ENDBRANCH  15  22
ENDBRANCH  13  15
ENDBRANCH  12  13
ENDBRANCH   1  12
BRANCH  11  24
HETATM   24  C22 UNL     1      -3.739   0.717   7.646  1.00  0.00     0.194 C 
BRANCH  24  25
HETATM   25  O11 UNL     1      -4.010   1.855   6.833  1.00  0.00    -0.303 OA
BRANCH  25  26
HETATM   26  C23 UNL     1      -3.353   1.987   5.588  1.00  0.00     0.361 C 
HETATM   27  O12 UNL     1      -2.132   2.190   5.625  1.00  0.00    -0.238 OA
HETATM   28  N1  UNL     1      -4.126   1.882   4.423  1.00  0.00    -0.322 N 
ATOM     29  H1  UNL     1      -5.123   1.729   4.570  1.00  0.00     0.165 HD
BRANCH  28  30
HETATM   30  C24 UNL     1      -3.712   1.958   3.062  1.00  0.00     0.187 C 
BRANCH  30  31
HETATM   31  C25 UNL     1      -4.497   2.907   2.165  1.00  0.00     0.032 C 
HETATM   32  C26 UNL     1      -5.754   3.299   2.868  1.00  0.00     0.007 C 
ENDBRANCH  30  31
BRANCH  30  33
HETATM   33  C27 UNL     1      -3.475   0.638   2.502  1.00  0.00     0.196 C 
HETATM   34  O13 UNL     1      -2.948   0.513   1.371  1.00  0.00    -0.646 OA
HETATM   35  O14 UNL     1      -3.833  -0.511   3.221  1.00  0.00    -0.646 OA
ENDBRANCH  30  33
ENDBRANCH  28  30
ENDBRANCH  25  26
ENDBRANCH  24  25
ENDBRANCH  11  24
BRANCH   4  36
HETATM   36  O6  UNL     1      -4.547  -3.490   8.442  1.00  0.00    -0.390 OA
ATOM     37  H6  UNL     1      -5.076  -3.768   7.704  1.00  0.00     0.210 HD
ENDBRANCH   4  36
BRANCH   8  38
HETATM   38  O9  UNL     1      -6.774   0.202  11.059  1.00  0.00    -0.313 OA
BRANCH  38  39
HETATM   39  C17 UNL     1      -7.565  -0.446  12.017  1.00  0.00     0.255 C 
HETATM   40  C18 UNL     1      -7.082  -0.574  13.439  1.00  0.00     0.126 C 
HETATM   41  O10 UNL     1      -8.664  -0.899  11.633  1.00  0.00    -0.266 OA
ENDBRANCH  38  39
ENDBRANCH   8  38
BRANCH   7  42
HETATM   42  O7  UNL     1      -4.239   0.808  10.218  1.00  0.00    -0.307 OA
BRANCH  42  43
HETATM   43  C14 UNL     1      -3.365   0.703  11.263  1.00  0.00     0.255 C 
HETATM   44  C15 UNL     1      -1.905   0.947  11.155  1.00  0.00     0.126 C 
HETATM   45  O8  UNL     1      -3.795   0.384  12.393  1.00  0.00    -0.266 OA
ENDBRANCH  42  43
ENDBRANCH   7  42
TORSDOF 19
ENDMDL
MODEL 5
REMARK VINA RESULT: -7.401664670      2.385      6.450
REMARK  19 active torsions:
REMARK  status: ('A' for Active; 'I' for Inactive)
REMARK    1  A    between atoms: C2_2  and  O1_3 
REMARK    2  A    between atoms: O1_3  and  C3_4 
REMARK    3  A    between atoms: C3_4  and  C4_6 
REMARK    4  A    between atoms: C4_6  and  C5_7 
REMARK    5  A    between atoms: C5_7  and  O3_8 
REMARK    6  A    between atoms: C5_7  and  C6_10 
REMARK    7  A    between atoms: C6_10  and  O5_12 
REMARK    8  A    between atoms: O5_12  and  C7_13 
REMARK    9  A    between atoms: C10_16  and  O6_18 
REMARK   10  A    between atoms: C13_21  and  O7_22 
REMARK   11  A    between atoms: O7_22  and  C14_23 
REMARK   12  A    between atoms: C16_26  and  O9_27 
REMARK   13  A    between atoms: O9_27  and  C17_28 
REMARK   14  A    between atoms: C21_33  and  C22_34 
REMARK   15  A    between atoms: C22_34  and  O11_35 
REMARK   16  A    between atoms: O11_35  and  C23_36 
REMARK       I    between atoms: C23_36  and  N1_38 
REMARK   17  A    between atoms: N1_38  and  C24_40 
REMARK   18  A    between atoms: C24_40  and  C25_41 
REMARK   19  A    between atoms: C24_40  and  C27_43 
ROOT
HETATM    1  C7  UNL     1      -6.674  -0.165   6.312  1.00  0.00     0.137 C 
HETATM    2  C8  UNL     1      -5.686  -1.341   6.230  1.00  0.00     0.041 C 
HETATM    3  C9  UNL     1      -5.305  -1.458   7.613  1.00  0.00     0.036 C 
HETATM    4  C10 UNL     1      -4.210  -2.158   8.190  1.00  0.00     0.062 C 
HETATM    5  C11 UNL     1      -2.919  -2.275   7.455  1.00  0.00     0.046 C 
HETATM    6  C12 UNL     1      -4.083  -1.477   9.539  1.00  0.00     0.080 C 
HETATM    7  C13 UNL     1      -4.997  -0.247   9.521  1.00  0.00     0.110 C 
HETATM    8  C16 UNL     1      -6.391  -0.453   9.911  1.00  0.00     0.168 C 
HETATM    9  C19 UNL     1      -7.284   0.055   8.755  1.00  0.00     0.043 C 
HETATM   10  C20 UNL     1      -6.403   0.522   7.661  1.00  0.00     0.032 C 
HETATM   11  C21 UNL     1      -5.093  -0.041   8.034  1.00  0.00     0.029 C 
ENDROOT
BRANCH   1  12
HETATM   12  O5  UNL     1      -7.992  -0.577   6.191  1.00  0.00    -0.314 OA
BRANCH  12  13
HETATM   13  C6  UNL     1      -8.740  -0.231   5.068  1.00  0.00     0.288 C 
HETATM   14  O4  UNL     1      -9.854  -0.790   4.888  1.00  0.00    -0.262 OA
BRANCH  13  15
HETATM   15  C5  UNL     1      -8.208   0.779   4.124  1.00  0.00     0.226 C 
BRANCH  15  16
HETATM   16  C4  UNL     1      -8.225   0.333   2.679  1.00  0.00     0.153 C 
BRANCH  16  17
HETATM   17  C3  UNL     1      -9.179   1.149   1.911  1.00  0.00     0.261 C 
HETATM   18  O2  UNL     1      -8.784   2.137   1.259  1.00  0.00    -0.265 OA
BRANCH  17  19
HETATM   19  O1  UNL     1     -10.527   0.809   1.916  1.00  0.00    -0.322 OA
BRANCH  19  20
HETATM   20  C2  UNL     1     -11.423   1.792   1.376  1.00  0.00     0.174 C 
HETATM   21  C1  UNL     1     -12.714   1.133   0.973  1.00  0.00     0.034 C 
ENDBRANCH  19  20
ENDBRANCH  17  19
ENDBRANCH  16  17
ENDBRANCH  15  16
BRANCH  15  22
HETATM   22  O3  UNL     1      -8.928   1.948   4.265  1.00  0.00    -0.385 OA
ATOM     23  H3  UNL     1      -8.363   2.640   4.588  1.00  0.00     0.210 HD
ENDBRANCH  15  22
ENDBRANCH  13  15
ENDBRANCH  12  13
ENDBRANCH   1  12
BRANCH  11  24
HETATM   24  C22 UNL     1      -3.965   0.709   7.521  1.00  0.00     0.194 C 
BRANCH  24  25
HETATM   25  O11 UNL     1      -4.305   1.760   6.621  1.00  0.00    -0.303 OA
BRANCH  25  26
HETATM   26  C23 UNL     1      -3.742   1.766   5.323  1.00  0.00     0.361 C 
HETATM   27  O12 UNL     1      -2.508   1.828   5.254  1.00  0.00    -0.238 OA
HETATM   28  N1  UNL     1      -4.617   1.704   4.228  1.00  0.00    -0.322 N 
ATOM     29  H1  UNL     1      -5.609   1.673   4.460  1.00  0.00     0.165 HD
BRANCH  28  30
HETATM   30  C24 UNL     1      -4.311   1.678   2.838  1.00  0.00     0.187 C 
BRANCH  30  31
HETATM   31  C25 UNL     1      -5.221   2.493   1.926  1.00  0.00     0.032 C 
HETATM   32  C26 UNL     1      -5.935   3.511   2.752  1.00  0.00     0.007 C 
ENDBRANCH  30  31
BRANCH  30  33
HETATM   33  C27 UNL     1      -4.031   0.328   2.378  1.00  0.00     0.196 C 
HETATM   34  O13 UNL     1      -3.179   0.126   1.480  1.00  0.00    -0.646 OA
HETATM   35  O14 UNL     1      -4.711  -0.764   2.934  1.00  0.00    -0.646 OA
ENDBRANCH  30  33
ENDBRANCH  28  30
ENDBRANCH  25  26
ENDBRANCH  24  25
ENDBRANCH  11  24
BRANCH   4  36
HETATM   36  O6  UNL     1      -4.610  -3.493   8.475  1.00  0.00    -0.390 OA
ATOM     37  H6  UNL     1      -5.558  -3.548   8.437  1.00  0.00     0.210 HD
ENDBRANCH   4  36
BRANCH   8  38
HETATM   38  O9  UNL     1      -6.814   0.212  11.093  1.00  0.00    -0.313 OA
BRANCH  38  39
HETATM   39  C17 UNL     1      -7.483  -0.444  12.135  1.00  0.00     0.255 C 
HETATM   40  C18 UNL     1      -6.829  -0.586  13.486  1.00  0.00     0.126 C 
HETATM   41  O10 UNL     1      -8.622  -0.893  11.885  1.00  0.00    -0.266 OA
ENDBRANCH  38  39
ENDBRANCH   8  38
BRANCH   7  42
HETATM   42  O7  UNL     1      -4.342   0.863  10.111  1.00  0.00    -0.307 OA
BRANCH  42  43
HETATM   43  C14 UNL     1      -3.384   0.811  11.083  1.00  0.00     0.255 C 
HETATM   44  C15 UNL     1      -1.951   1.123  10.857  1.00  0.00     0.126 C 
HETATM   45  O8  UNL     1      -3.707   0.483  12.247  1.00  0.00    -0.266 OA
ENDBRANCH  42  43
ENDBRANCH   7  42
TORSDOF 19
ENDMDL
