MODEL 1
REMARK VINA RESULT: -7.210449699      0.000      0.000
REMARK  20 active torsions:
REMARK  status: ('A' for Active; 'I' for Inactive)
REMARK    1  A    between atoms: C2_2  and  O2_4 
REMARK    2  A    between atoms: O2_4  and  C3_5 
REMARK    3  A    between atoms: C7_9  and  C8_10 
REMARK    4  A    between atoms: C8_10  and  O3_11 
REMARK    5  A    between atoms: O3_11  and  C9_12 
REMARK    6  A    between atoms: C15_22  and  C16_23 
REMARK    7  A    between atoms: C16_23  and  O8_24 
REMARK    8  A    between atoms: C16_23  and  C19_28 
REMARK    9  A    between atoms: O8_24  and  C17_25 
REMARK   10  A    between atoms: C19_28  and  O10_29 
REMARK   11  A    between atoms: C19_28  and  O11_31 
REMARK   12  A    between atoms: C19_28  and  C22_35 
REMARK   13  A    between atoms: O11_31  and  C20_32 
REMARK   14  A    between atoms: C22_35  and  O13_36 
REMARK   15  A    between atoms: C22_35  and  C23_38 
REMARK   16  A    between atoms: C23_38  and  O14_39 
REMARK   17  A    between atoms: C23_38  and  C24_41 
REMARK   18  A    between atoms: C24_41  and  C25_42 
REMARK   19  A    between atoms: C25_42  and  C26_43 
REMARK   20  A    between atoms: C26_43  and  O15_44 
ROOT
HETATM    1  C3  UNL     1      -7.451  -1.729   5.018  1.00  0.00     0.170 C 
HETATM    2  C4  UNL     1      -8.475  -1.107   4.077  1.00  0.00     0.052 C 
HETATM    3  C5  UNL     1      -9.126  -0.023   4.876  1.00  0.00     0.010 C 
HETATM    4  C6  UNL     1     -10.579  -0.174   5.001  1.00  0.00    -0.009 C 
HETATM    5  C7  UNL     1     -11.206   0.936   4.641  1.00  0.00    -0.056 C 
HETATM    6  C10 UNL     1     -10.214   1.958   4.235  1.00  0.00     0.069 C 
HETATM    7  C11 UNL     1      -8.897   1.281   4.197  1.00  0.00     0.141 C 
HETATM    8  O6  UNL     1      -7.968   2.000   4.935  1.00  0.00    -0.349 OA
HETATM    9  C12 UNL     1      -6.669   1.567   4.727  1.00  0.00     0.158 C 
HETATM   10  C13 UNL     1      -6.387   1.879   3.239  1.00  0.00     0.078 C 
HETATM   11  C14 UNL     1      -5.795   2.581   5.460  1.00  0.00     0.078 C 
HETATM   12  O7  UNL     1      -6.398   0.288   4.910  1.00  0.00    -0.339 OA
HETATM   13  C15 UNL     1      -7.035  -0.506   5.836  1.00  0.00     0.124 C 
HETATM   14  C27 UNL     1      -8.419  -0.090   6.224  1.00  0.00     0.060 C 
ENDROOT
BRANCH  13  15
HETATM   15  C16 UNL     1      -6.082  -0.772   6.919  1.00  0.00     0.234 C 
BRANCH  15  16
HETATM   16  O8  UNL     1      -6.168   0.323   7.897  1.00  0.00    -0.307 OA
BRANCH  16  17
HETATM   17  C17 UNL     1      -6.446   0.173   9.202  1.00  0.00     0.255 C 
HETATM   18  C18 UNL     1      -7.848   0.187   9.680  1.00  0.00     0.126 C 
HETATM   19  O9  UNL     1      -5.508   0.026   9.983  1.00  0.00    -0.266 OA
ENDBRANCH  16  17
ENDBRANCH  15  16
BRANCH  15  20
HETATM   20  C19 UNL     1      -4.632  -1.047   6.650  1.00  0.00     0.229 C 
BRANCH  20  21
HETATM   21  O10 UNL     1      -4.194  -1.176   5.393  1.00  0.00    -0.361 OA
ATOM     22  H10 UNL     1      -4.507  -1.891   4.851  1.00  0.00     0.213 HD
ENDBRANCH  20  21
BRANCH  20  23
HETATM   23  O11 UNL     1      -3.972   0.194   7.069  1.00  0.00    -0.278 OA
BRANCH  23  24
HETATM   24  C20 UNL     1      -2.770   0.627   6.623  1.00  0.00     0.257 C 
HETATM   25  C21 UNL     1      -1.563   0.547   7.485  1.00  0.00     0.126 C 
HETATM   26  O12 UNL     1      -2.620   1.106   5.488  1.00  0.00    -0.266 OA
ENDBRANCH  23  24
ENDBRANCH  20  23
BRANCH  20  27
HETATM   27  C22 UNL     1      -4.070  -2.087   7.575  1.00  0.00     0.212 C 
BRANCH  27  28
HETATM   28  O13 UNL     1      -4.971  -2.543   8.525  1.00  0.00    -0.387 OA
ATOM     29  H13 UNL     1      -4.983  -3.487   8.626  1.00  0.00     0.210 HD
ENDBRANCH  27  28
BRANCH  27  30
HETATM   30  C23 UNL     1      -3.683  -3.381   6.818  1.00  0.00     0.152 C 
BRANCH  30  31
HETATM   31  O14 UNL     1      -4.656  -3.799   5.955  1.00  0.00    -0.393 OA
ATOM     32  H14 UNL     1      -4.303  -4.162   5.152  1.00  0.00     0.210 HD
ENDBRANCH  30  31
BRANCH  30  33
HETATM   33  C24 UNL     1      -3.536  -4.509   7.856  1.00  0.00     0.036 C 
BRANCH  33  34
HETATM   34  C25 UNL     1      -4.231  -5.752   7.345  1.00  0.00     0.029 C 
BRANCH  34  35
HETATM   35  C26 UNL     1      -4.861  -6.421   8.565  1.00  0.00     0.164 C 
BRANCH  35  36
HETATM   36  O15 UNL     1      -5.410  -7.638   8.236  1.00  0.00    -0.401 OA
ATOM     37  H15 UNL     1      -4.784  -8.342   8.362  1.00  0.00     0.209 HD
ENDBRANCH  35  36
ENDBRANCH  34  35
ENDBRANCH  33  34
ENDBRANCH  30  33
ENDBRANCH  27  30
ENDBRANCH  20  27
ENDBRANCH  15  20
ENDBRANCH  13  15
BRANCH   1  38
HETATM   38  O2  UNL     1      -6.458  -2.213   4.183  1.00  0.00    -0.313 OA
BRANCH  38  39
HETATM   39  C2  UNL     1      -6.660  -3.337   3.443  1.00  0.00     0.255 C 
HETATM   40  C1  UNL     1      -7.601  -3.325   2.308  1.00  0.00     0.126 C 
HETATM   41  O1  UNL     1      -6.051  -4.389   3.720  1.00  0.00    -0.266 OA
ENDBRANCH  38  39
ENDBRANCH   1  38
BRANCH   5  42
HETATM   42  C8  UNL     1     -12.706   1.090   4.661  1.00  0.00     0.216 C 
BRANCH  42  43
HETATM   43  O3  UNL     1     -13.291   0.124   3.774  1.00  0.00    -0.292 OA
BRANCH  43  44
HETATM   44  C9  UNL     1     -14.210   0.496   2.811  1.00  0.00     0.333 C 
HETATM   45  O4  UNL     1     -14.318  -0.258   1.805  1.00  0.00    -0.624 OA
HETATM   46  O5  UNL     1     -14.996   1.654   2.926  1.00  0.00    -0.624 OA
ENDBRANCH  43  44
ENDBRANCH  42  43
ENDBRANCH   5  42
TORSDOF 20
ENDMDL
MODEL 2
REMARK VINA RESULT: -7.075479516      2.542      8.292
REMARK  20 active torsions:
REMARK  status: ('A' for Active; 'I' for Inactive)
REMARK    1  A    between atoms: C2_2  and  O2_4 
REMARK    2  A    between atoms: O2_4  and  C3_5 
REMARK    3  A    between atoms: C7_9  and  C8_10 
REMARK    4  A    between atoms: C8_10  and  O3_11 
REMARK    5  A    between atoms: O3_11  and  C9_12 
REMARK    6  A    between atoms: C15_22  and  C16_23 
REMARK    7  A    between atoms: C16_23  and  O8_24 
REMARK    8  A    between atoms: C16_23  and  C19_28 
REMARK    9  A    between atoms: O8_24  and  C17_25 
REMARK   10  A    between atoms: C19_28  and  O10_29 
REMARK   11  A    between atoms: C19_28  and  O11_31 
REMARK   12  A    between atoms: C19_28  and  C22_35 
REMARK   13  A    between atoms: O11_31  and  C20_32 
REMARK   14  A    between atoms: C22_35  and  O13_36 
REMARK   15  A    between atoms: C22_35  and  C23_38 
REMARK   16  A    between atoms: C23_38  and  O14_39 
REMARK   17  A    between atoms: C23_38  and  C24_41 
REMARK   18  A    between atoms: C24_41  and  C25_42 
REMARK   19  A    between atoms: C25_42  and  C26_43 
REMARK   20  A    between atoms: C26_43  and  O15_44 
ROOT
HETATM    1  C3  UNL     1      -4.110  -2.540   6.104  1.00  0.00     0.170 C 
HETATM    2  C4  UNL     1      -3.429  -2.290   7.444  1.00  0.00     0.052 C 
HETATM    3  C5  UNL     1      -3.164  -0.818   7.473  1.00  0.00     0.010 C 
HETATM    4  C6  UNL     1      -1.748  -0.478   7.643  1.00  0.00    -0.009 C 
HETATM    5  C7  UNL     1      -1.578   0.371   8.645  1.00  0.00    -0.056 C 
HETATM    6  C10 UNL     1      -2.889   0.690   9.254  1.00  0.00     0.069 C 
HETATM    7  C11 UNL     1      -3.879  -0.221   8.634  1.00  0.00     0.141 C 
HETATM    8  O6  UNL     1      -4.960   0.503   8.153  1.00  0.00    -0.349 OA
HETATM    9  C12 UNL     1      -6.029  -0.303   7.799  1.00  0.00     0.158 C 
HETATM   10  C13 UNL     1      -6.487  -0.950   9.126  1.00  0.00     0.078 C 
HETATM   11  C14 UNL     1      -7.164   0.667   7.484  1.00  0.00     0.078 C 
HETATM   12  O7  UNL     1      -5.817  -1.287   6.944  1.00  0.00    -0.339 OA
HETATM   13  C15 UNL     1      -4.888  -1.234   5.931  1.00  0.00     0.124 C 
HETATM   14  C27 UNL     1      -3.724  -0.320   6.146  1.00  0.00     0.060 C 
ENDROOT
BRANCH  13  15
HETATM   15  C16 UNL     1      -5.622  -1.106   4.668  1.00  0.00     0.234 C 
BRANCH  15  16
HETATM   16  O8  UNL     1      -5.946   0.314   4.457  1.00  0.00    -0.307 OA
BRANCH  16  17
HETATM   17  C17 UNL     1      -5.313   1.132   3.601  1.00  0.00     0.255 C 
HETATM   18  C18 UNL     1      -5.582   2.589   3.613  1.00  0.00     0.126 C 
HETATM   19  O9  UNL     1      -4.511   0.638   2.811  1.00  0.00    -0.266 OA
ENDBRANCH  16  17
ENDBRANCH  15  16
BRANCH  15  20
HETATM   20  C19 UNL     1      -6.852  -1.914   4.378  1.00  0.00     0.229 C 
BRANCH  20  21
HETATM   21  O10 UNL     1      -7.322  -2.772   5.289  1.00  0.00    -0.361 OA
ATOM     22  H10 UNL     1      -8.146  -2.597   5.729  1.00  0.00     0.213 HD
ENDBRANCH  20  21
BRANCH  20  23
HETATM   23  O11 UNL     1      -7.916  -0.906   4.342  1.00  0.00    -0.278 OA
BRANCH  23  24
HETATM   24  C20 UNL     1      -9.119  -1.019   4.951  1.00  0.00     0.257 C 
HETATM   25  C21 UNL     1      -9.748   0.148   5.620  1.00  0.00     0.126 C 
HETATM   26  O12 UNL     1      -9.746  -2.090   4.982  1.00  0.00    -0.266 OA
ENDBRANCH  23  24
ENDBRANCH  20  23
BRANCH  20  27
HETATM   27  C22 UNL     1      -6.843  -2.483   2.989  1.00  0.00     0.212 C 
BRANCH  27  28
HETATM   28  O13 UNL     1      -7.052  -3.852   2.938  1.00  0.00    -0.387 OA
ATOM     29  H13 UNL     1      -7.897  -4.127   3.275  1.00  0.00     0.210 HD
ENDBRANCH  27  28
BRANCH  27  30
HETATM   30  C23 UNL     1      -8.006  -1.924   2.131  1.00  0.00     0.152 C 
BRANCH  30  31
HETATM   31  O14 UNL     1      -8.693  -2.904   1.473  1.00  0.00    -0.393 OA
ATOM     32  H14 UNL     1      -9.596  -2.973   1.759  1.00  0.00     0.210 HD
ENDBRANCH  30  31
BRANCH  30  33
HETATM   33  C24 UNL     1      -7.395  -1.035   1.033  1.00  0.00     0.036 C 
BRANCH  33  34
HETATM   34  C25 UNL     1      -7.944   0.369   1.165  1.00  0.00     0.029 C 
BRANCH  34  35
HETATM   35  C26 UNL     1      -6.978   1.279   0.407  1.00  0.00     0.164 C 
BRANCH  35  36
HETATM   36  O15 UNL     1      -5.812   0.619   0.099  1.00  0.00    -0.401 OA
ATOM     37  H15 UNL     1      -5.621   0.674  -0.830  1.00  0.00     0.209 HD
ENDBRANCH  35  36
ENDBRANCH  34  35
ENDBRANCH  33  34
ENDBRANCH  30  33
ENDBRANCH  27  30
ENDBRANCH  20  27
ENDBRANCH  15  20
ENDBRANCH  13  15
BRANCH   1  38
HETATM   38  O2  UNL     1      -4.912  -3.648   6.320  1.00  0.00    -0.313 OA
BRANCH  38  39
HETATM   39  C2  UNL     1      -4.446  -4.901   6.064  1.00  0.00     0.255 C 
HETATM   40  C1  UNL     1      -4.230  -5.857   7.165  1.00  0.00     0.126 C 
HETATM   41  O1  UNL     1      -4.196  -5.251   4.894  1.00  0.00    -0.266 OA
ENDBRANCH  38  39
ENDBRANCH   1  38
BRANCH   5  42
HETATM   42  C8  UNL     1      -0.232   0.907   9.065  1.00  0.00     0.216 C 
BRANCH  42  43
HETATM   43  O3  UNL     1      -0.351   1.520  10.358  1.00  0.00    -0.292 OA
BRANCH  43  44
HETATM   44  C9  UNL     1       0.272   0.982  11.469  1.00  0.00     0.333 C 
HETATM   45  O4  UNL     1      -0.477   0.511  12.369  1.00  0.00    -0.624 OA
HETATM   46  O5  UNL     1       1.669   0.952  11.609  1.00  0.00    -0.624 OA
ENDBRANCH  43  44
ENDBRANCH  42  43
ENDBRANCH   5  42
TORSDOF 20
ENDMDL
MODEL 3
REMARK VINA RESULT: -7.059875420      2.595      8.105
REMARK  20 active torsions:
REMARK  status: ('A' for Active; 'I' for Inactive)
REMARK    1  A    between atoms: C2_2  and  O2_4 
REMARK    2  A    between atoms: O2_4  and  C3_5 
REMARK    3  A    between atoms: C7_9  and  C8_10 
REMARK    4  A    between atoms: C8_10  and  O3_11 
REMARK    5  A    between atoms: O3_11  and  C9_12 
REMARK    6  A    between atoms: C15_22  and  C16_23 
REMARK    7  A    between atoms: C16_23  and  O8_24 
REMARK    8  A    between atoms: C16_23  and  C19_28 
REMARK    9  A    between atoms: O8_24  and  C17_25 
REMARK   10  A    between atoms: C19_28  and  O10_29 
REMARK   11  A    between atoms: C19_28  and  O11_31 
REMARK   12  A    between atoms: C19_28  and  C22_35 
REMARK   13  A    between atoms: O11_31  and  C20_32 
REMARK   14  A    between atoms: C22_35  and  O13_36 
REMARK   15  A    between atoms: C22_35  and  C23_38 
REMARK   16  A    between atoms: C23_38  and  O14_39 
REMARK   17  A    between atoms: C23_38  and  C24_41 
REMARK   18  A    between atoms: C24_41  and  C25_42 
REMARK   19  A    between atoms: C25_42  and  C26_43 
REMARK   20  A    between atoms: C26_43  and  O15_44 
ROOT
HETATM    1  C3  UNL     1      -3.871  -1.993   6.879  1.00  0.00     0.170 C 
HETATM    2  C4  UNL     1      -3.464  -1.843   8.340  1.00  0.00     0.052 C 
HETATM    3  C5  UNL     1      -3.429  -0.367   8.581  1.00  0.00     0.010 C 
HETATM    4  C6  UNL     1      -2.127   0.124   9.042  1.00  0.00    -0.009 C 
HETATM    5  C7  UNL     1      -2.252   0.843  10.147  1.00  0.00    -0.056 C 
HETATM    6  C10 UNL     1      -3.679   0.906  10.540  1.00  0.00     0.069 C 
HETATM    7  C11 UNL     1      -4.406  -0.030   9.652  1.00  0.00     0.141 C 
HETATM    8  O6  UNL     1      -5.490   0.609   9.067  1.00  0.00    -0.349 OA
HETATM    9  C12 UNL     1      -6.354  -0.271   8.438  1.00  0.00     0.158 C 
HETATM   10  C13 UNL     1      -6.921  -1.146   9.579  1.00  0.00     0.078 C 
HETATM   11  C14 UNL     1      -7.554   0.580   8.033  1.00  0.00     0.078 C 
HETATM   12  O7  UNL     1      -5.860  -1.094   7.531  1.00  0.00    -0.339 OA
HETATM   13  C15 UNL     1      -4.796  -0.786   6.715  1.00  0.00     0.124 C 
HETATM   14  C27 UNL     1      -3.832   0.231   7.239  1.00  0.00     0.060 C 
ENDROOT
BRANCH  13  15
HETATM   15  C16 UNL     1      -5.324  -0.581   5.362  1.00  0.00     0.234 C 
BRANCH  15  16
HETATM   16  O8  UNL     1      -5.394   0.865   5.102  1.00  0.00    -0.307 OA
BRANCH  16  17
HETATM   17  C17 UNL     1      -4.799   1.494   4.075  1.00  0.00     0.255 C 
HETATM   18  C18 UNL     1      -5.267   2.831   3.639  1.00  0.00     0.126 C 
HETATM   19  O9  UNL     1      -3.863   0.931   3.512  1.00  0.00    -0.266 OA
ENDBRANCH  16  17
ENDBRANCH  15  16
BRANCH  15  20
HETATM   20  C19 UNL     1      -6.613  -1.201   4.911  1.00  0.00     0.229 C 
BRANCH  20  21
HETATM   21  O10 UNL     1      -7.274  -2.039   5.717  1.00  0.00    -0.361 OA
ATOM     22  H10 UNL     1      -7.384  -2.950   5.470  1.00  0.00     0.213 HD
ENDBRANCH  20  21
BRANCH  20  23
HETATM   23  O11 UNL     1      -7.532  -0.059   4.850  1.00  0.00    -0.278 OA
BRANCH  23  24
HETATM   24  C20 UNL     1      -8.802  -0.105   4.387  1.00  0.00     0.257 C 
HETATM   25  C21 UNL     1      -9.274   0.859   3.360  1.00  0.00     0.126 C 
HETATM   26  O12 UNL     1      -9.624  -0.942   4.792  1.00  0.00    -0.266 OA
ENDBRANCH  23  24
ENDBRANCH  20  23
BRANCH  20  27
HETATM   27  C22 UNL     1      -6.543  -1.687   3.492  1.00  0.00     0.212 C 
BRANCH  27  28
HETATM   28  O13 UNL     1      -5.262  -1.704   2.964  1.00  0.00    -0.387 OA
ATOM     29  H13 UNL     1      -5.097  -1.020   2.325  1.00  0.00     0.210 HD
ENDBRANCH  27  28
BRANCH  27  30
HETATM   30  C23 UNL     1      -6.990  -3.165   3.367  1.00  0.00     0.152 C 
BRANCH  30  31
HETATM   31  O14 UNL     1      -5.942  -4.039   3.440  1.00  0.00    -0.393 OA
ATOM     32  H14 UNL     1      -6.068  -4.706   4.104  1.00  0.00     0.210 HD
ENDBRANCH  30  31
BRANCH  30  33
HETATM   33  C24 UNL     1      -7.595  -3.357   1.965  1.00  0.00     0.036 C 
BRANCH  33  34
HETATM   34  C25 UNL     1      -8.744  -4.338   2.048  1.00  0.00     0.029 C 
BRANCH  34  35
HETATM   35  C26 UNL     1      -8.294  -5.587   1.290  1.00  0.00     0.164 C 
BRANCH  35  36
HETATM   36  O15 UNL     1      -7.009  -5.938   1.629  1.00  0.00    -0.401 OA
ATOM     37  H15 UNL     1      -6.964  -6.844   1.911  1.00  0.00     0.209 HD
ENDBRANCH  35  36
ENDBRANCH  34  35
ENDBRANCH  33  34
ENDBRANCH  30  33
ENDBRANCH  27  30
ENDBRANCH  20  27
ENDBRANCH  15  20
ENDBRANCH  13  15
BRANCH   1  38
HETATM   38  O2  UNL     1      -4.523  -3.213   6.821  1.00  0.00    -0.313 OA
BRANCH  38  39
HETATM   39  C2  UNL     1      -3.816  -4.372   6.717  1.00  0.00     0.255 C 
HETATM   40  C1  UNL     1      -4.284  -5.596   7.393  1.00  0.00     0.126 C 
HETATM   41  O1  UNL     1      -2.764  -4.408   6.049  1.00  0.00    -0.266 OA
ENDBRANCH  38  39
ENDBRANCH   1  38
BRANCH   5  42
HETATM   42  C8  UNL     1      -1.089   1.484  10.861  1.00  0.00     0.216 C 
BRANCH  42  43
HETATM   43  O3  UNL     1      -0.747   0.693  12.010  1.00  0.00    -0.292 OA
BRANCH  43  44
HETATM   44  C9  UNL     1       0.428   0.908  12.707  1.00  0.00     0.333 C 
HETATM   45  O4  UNL     1       0.972   2.039  12.570  1.00  0.00    -0.624 OA
HETATM   46  O5  UNL     1       1.004  -0.070  13.533  1.00  0.00    -0.624 OA
ENDBRANCH  43  44
ENDBRANCH  42  43
ENDBRANCH   5  42
TORSDOF 20
ENDMDL
MODEL 4
REMARK VINA RESULT: -7.029937522      2.745      8.206
REMARK  20 active torsions:
REMARK  status: ('A' for Active; 'I' for Inactive)
REMARK    1  A    between atoms: C2_2  and  O2_4 
REMARK    2  A    between atoms: O2_4  and  C3_5 
REMARK    3  A    between atoms: C7_9  and  C8_10 
REMARK    4  A    between atoms: C8_10  and  O3_11 
REMARK    5  A    between atoms: O3_11  and  C9_12 
REMARK    6  A    between atoms: C15_22  and  C16_23 
REMARK    7  A    between atoms: C16_23  and  O8_24 
REMARK    8  A    between atoms: C16_23  and  C19_28 
REMARK    9  A    between atoms: O8_24  and  C17_25 
REMARK   10  A    between atoms: C19_28  and  O10_29 
REMARK   11  A    between atoms: C19_28  and  O11_31 
REMARK   12  A    between atoms: C19_28  and  C22_35 
REMARK   13  A    between atoms: O11_31  and  C20_32 
REMARK   14  A    between atoms: C22_35  and  O13_36 
REMARK   15  A    between atoms: C22_35  and  C23_38 
REMARK   16  A    between atoms: C23_38  and  O14_39 
REMARK   17  A    between atoms: C23_38  and  C24_41 
REMARK   18  A    between atoms: C24_41  and  C25_42 
REMARK   19  A    between atoms: C25_42  and  C26_43 
REMARK   20  A    between atoms: C26_43  and  O15_44 
ROOT
HETATM    1  C3  UNL     1      -4.139  -1.603   7.452  1.00  0.00     0.170 C 
HETATM    2  C4  UNL     1      -3.760  -1.623   8.928  1.00  0.00     0.052 C 
HETATM    3  C5  UNL     1      -3.817  -0.192   9.360  1.00  0.00     0.010 C 
HETATM    4  C6  UNL     1      -2.553   0.309   9.908  1.00  0.00    -0.009 C 
HETATM    5  C7  UNL     1      -2.735   0.868  11.095  1.00  0.00    -0.056 C 
HETATM    6  C10 UNL     1      -4.168   0.796  11.463  1.00  0.00     0.069 C 
HETATM    7  C11 UNL     1      -4.826  -0.056  10.446  1.00  0.00     0.141 C 
HETATM    8  O6  UNL     1      -5.939   0.591   9.928  1.00  0.00    -0.349 OA
HETATM    9  C12 UNL     1      -6.741  -0.247   9.171  1.00  0.00     0.158 C 
HETATM   10  C13 UNL     1      -7.269  -1.297  10.177  1.00  0.00     0.078 C 
HETATM   11  C14 UNL     1      -7.985   0.579   8.856  1.00  0.00     0.078 C 
HETATM   12  O7  UNL     1      -6.187  -0.914   8.175  1.00  0.00    -0.339 OA
HETATM   13  C15 UNL     1      -5.133  -0.441   7.429  1.00  0.00     0.124 C 
HETATM   14  C27 UNL     1      -4.239   0.553   8.100  1.00  0.00     0.060 C 
ENDROOT
BRANCH  13  15
HETATM   15  C16 UNL     1      -5.655  -0.090   6.104  1.00  0.00     0.234 C 
BRANCH  15  16
HETATM   16  O8  UNL     1      -6.151   1.294   6.147  1.00  0.00    -0.307 OA
BRANCH  16  17
HETATM   17  C17 UNL     1      -5.608   2.330   5.488  1.00  0.00     0.255 C 
HETATM   18  C18 UNL     1      -4.405   2.138   4.645  1.00  0.00     0.126 C 
HETATM   19  O9  UNL     1      -6.134   3.434   5.606  1.00  0.00    -0.266 OA
ENDBRANCH  16  17
ENDBRANCH  15  16
BRANCH  15  20
HETATM   20  C19 UNL     1      -6.682  -0.933   5.406  1.00  0.00     0.229 C 
BRANCH  20  21
HETATM   21  O10 UNL     1      -7.535  -1.677   6.118  1.00  0.00    -0.361 OA
ATOM     22  H10 UNL     1      -8.340  -1.295   6.448  1.00  0.00     0.213 HD
ENDBRANCH  20  21
BRANCH  20  23
HETATM   23  O11 UNL     1      -7.580   0.059   4.806  1.00  0.00    -0.278 OA
BRANCH  23  24
HETATM   24  C20 UNL     1      -8.932   0.005   4.837  1.00  0.00     0.257 C 
HETATM   25  C21 UNL     1      -9.730   1.163   5.317  1.00  0.00     0.126 C 
HETATM   26  O12 UNL     1      -9.562  -0.999   4.470  1.00  0.00    -0.266 OA
ENDBRANCH  23  24
ENDBRANCH  20  23
BRANCH  20  27
HETATM   27  C22 UNL     1      -6.110  -1.665   4.227  1.00  0.00     0.212 C 
BRANCH  27  28
HETATM   28  O13 UNL     1      -4.748  -1.907   4.319  1.00  0.00    -0.387 OA
ATOM     29  H13 UNL     1      -4.514  -2.565   4.962  1.00  0.00     0.210 HD
ENDBRANCH  27  28
BRANCH  27  30
HETATM   30  C23 UNL     1      -6.704  -3.089   4.090  1.00  0.00     0.152 C 
BRANCH  30  31
HETATM   31  O14 UNL     1      -5.859  -4.059   4.548  1.00  0.00    -0.393 OA
ATOM     32  H14 UNL     1      -5.712  -4.748   3.910  1.00  0.00     0.210 HD
ENDBRANCH  30  31
BRANCH  30  33
HETATM   33  C24 UNL     1      -6.894  -3.378   2.589  1.00  0.00     0.036 C 
BRANCH  33  34
HETATM   34  C25 UNL     1      -8.257  -2.884   2.155  1.00  0.00     0.029 C 
BRANCH  34  35
HETATM   35  C26 UNL     1      -8.017  -1.570   1.410  1.00  0.00     0.164 C 
BRANCH  35  36
HETATM   36  O15 UNL     1      -9.125  -0.759   1.466  1.00  0.00    -0.401 OA
ATOM     37  H15 UNL     1      -8.946   0.033   1.960  1.00  0.00     0.209 HD
ENDBRANCH  35  36
ENDBRANCH  34  35
ENDBRANCH  33  34
ENDBRANCH  30  33
ENDBRANCH  27  30
ENDBRANCH  20  27
ENDBRANCH  15  20
ENDBRANCH  13  15
BRANCH   1  38
HETATM   38  O2  UNL     1      -4.716  -2.841   7.222  1.00  0.00    -0.313 OA
BRANCH  38  39
HETATM   39  C2  UNL     1      -3.939  -3.943   7.034  1.00  0.00     0.255 C 
HETATM   40  C1  UNL     1      -3.979  -5.059   7.997  1.00  0.00     0.126 C 
HETATM   41  O1  UNL     1      -3.184  -4.017   6.044  1.00  0.00    -0.266 OA
ENDBRANCH  38  39
ENDBRANCH   1  38
BRANCH   5  42
HETATM   42  C8  UNL     1      -1.622   1.475  11.910  1.00  0.00     0.216 C 
BRANCH  42  43
HETATM   43  O3  UNL     1      -0.644   0.464  12.201  1.00  0.00    -0.292 OA
BRANCH  43  44
HETATM   44  C9  UNL     1       0.581   0.787  12.754  1.00  0.00     0.333 C 
HETATM   45  O4  UNL     1       0.971   1.980  12.617  1.00  0.00    -0.624 OA
HETATM   46  O5  UNL     1       1.371  -0.151  13.438  1.00  0.00    -0.624 OA
ENDBRANCH  43  44
ENDBRANCH  42  43
ENDBRANCH   5  42
TORSDOF 20
ENDMDL
MODEL 5
REMARK VINA RESULT: -6.937743822      2.072      8.024
REMARK  20 active torsions:
REMARK  status: ('A' for Active; 'I' for Inactive)
REMARK    1  A    between atoms: C2_2  and  O2_4 
REMARK    2  A    between atoms: O2_4  and  C3_5 
REMARK    3  A    between atoms: C7_9  and  C8_10 
REMARK    4  A    between atoms: C8_10  and  O3_11 
REMARK    5  A    between atoms: O3_11  and  C9_12 
REMARK    6  A    between atoms: C15_22  and  C16_23 
REMARK    7  A    between atoms: C16_23  and  O8_24 
REMARK    8  A    between atoms: C16_23  and  C19_28 
REMARK    9  A    between atoms: O8_24  and  C17_25 
REMARK   10  A    between atoms: C19_28  and  O10_29 
REMARK   11  A    between atoms: C19_28  and  O11_31 
REMARK   12  A    between atoms: C19_28  and  C22_35 
REMARK   13  A    between atoms: O11_31  and  C20_32 
REMARK   14  A    between atoms: C22_35  and  O13_36 
REMARK   15  A    between atoms: C22_35  and  C23_38 
REMARK   16  A    between atoms: C23_38  and  O14_39 
REMARK   17  A    between atoms: C23_38  and  C24_41 
REMARK   18  A    between atoms: C24_41  and  C25_42 
REMARK   19  A    between atoms: C25_42  and  C26_43 
REMARK   20  A    between atoms: C26_43  and  O15_44 
ROOT
HETATM    1  C3  UNL     1      -4.189  -2.344   6.302  1.00  0.00     0.170 C 
HETATM    2  C4  UNL     1      -3.273  -1.902   7.438  1.00  0.00     0.052 C 
HETATM    3  C5  UNL     1      -3.284  -0.408   7.383  1.00  0.00     0.010 C 
HETATM    4  C6  UNL     1      -1.955   0.186   7.205  1.00  0.00    -0.009 C 
HETATM    5  C7  UNL     1      -1.717   1.106   8.127  1.00  0.00    -0.056 C 
HETATM    6  C10 UNL     1      -2.887   1.223   9.027  1.00  0.00     0.069 C 
HETATM    7  C11 UNL     1      -3.808   0.119   8.673  1.00  0.00     0.141 C 
HETATM    8  O6  UNL     1      -5.086   0.614   8.454  1.00  0.00    -0.349 OA
HETATM    9  C12 UNL     1      -6.040  -0.387   8.376  1.00  0.00     0.158 C 
HETATM   10  C13 UNL     1      -6.050  -1.028   9.783  1.00  0.00     0.078 C 
HETATM   11  C14 UNL     1      -7.377   0.349   8.328  1.00  0.00     0.078 C 
HETATM   12  O7  UNL     1      -5.855  -1.365   7.509  1.00  0.00    -0.339 OA
HETATM   13  C15 UNL     1      -5.212  -1.208   6.303  1.00  0.00     0.124 C 
HETATM   14  C27 UNL     1      -4.219  -0.092   6.222  1.00  0.00     0.060 C 
ENDROOT
BRANCH  13  15
HETATM   15  C16 UNL     1      -6.230  -1.282   5.249  1.00  0.00     0.234 C 
BRANCH  15  16
HETATM   16  O8  UNL     1      -5.796  -2.268   4.247  1.00  0.00    -0.307 OA
BRANCH  16  17
HETATM   17  C17 UNL     1      -6.487  -3.363   3.891  1.00  0.00     0.255 C 
HETATM   18  C18 UNL     1      -7.120  -3.452   2.555  1.00  0.00     0.126 C 
HETATM   19  O9  UNL     1      -6.578  -4.282   4.703  1.00  0.00    -0.266 OA
ENDBRANCH  16  17
ENDBRANCH  15  16
BRANCH  15  20
HETATM   20  C19 UNL     1      -6.713  -0.060   4.525  1.00  0.00     0.229 C 
BRANCH  20  21
HETATM   21  O10 UNL     1      -6.311   1.154   4.914  1.00  0.00    -0.361 OA
ATOM     22  H10 UNL     1      -6.518   1.917   4.387  1.00  0.00     0.213 HD
ENDBRANCH  20  21
BRANCH  20  23
HETATM   23  O11 UNL     1      -6.077  -0.177   3.209  1.00  0.00    -0.278 OA
BRANCH  23  24
HETATM   24  C20 UNL     1      -5.247   0.740   2.660  1.00  0.00     0.257 C 
HETATM   25  C21 UNL     1      -3.782   0.502   2.597  1.00  0.00     0.126 C 
HETATM   26  O12 UNL     1      -5.663   1.811   2.191  1.00  0.00    -0.266 OA
ENDBRANCH  23  24
ENDBRANCH  20  23
BRANCH  20  27
HETATM   27  C22 UNL     1      -8.183  -0.122   4.224  1.00  0.00     0.212 C 
BRANCH  27  28
HETATM   28  O13 UNL     1      -8.492  -0.798   3.054  1.00  0.00    -0.387 OA
ATOM     29  H13 UNL     1      -8.161  -0.381   2.267  1.00  0.00     0.210 HD
ENDBRANCH  27  28
BRANCH  27  30
HETATM   30  C23 UNL     1      -8.957  -0.923   5.301  1.00  0.00     0.152 C 
BRANCH  30  31
HETATM   31  O14 UNL     1      -9.556  -2.041   4.796  1.00  0.00    -0.393 OA
ATOM     32  H14 UNL     1      -9.887  -2.618   5.475  1.00  0.00     0.210 HD
ENDBRANCH  30  31
BRANCH  30  33
HETATM   33  C24 UNL     1     -10.103  -0.033   5.816  1.00  0.00     0.036 C 
BRANCH  33  34
HETATM   34  C25 UNL     1     -11.403  -0.804   5.745  1.00  0.00     0.029 C 
BRANCH  34  35
HETATM   35  C26 UNL     1     -12.501   0.233   5.508  1.00  0.00     0.164 C 
BRANCH  35  36
HETATM   36  O15 UNL     1     -12.715   0.996   6.630  1.00  0.00    -0.401 OA
ATOM     37  H15 UNL     1     -13.240   1.762   6.430  1.00  0.00     0.209 HD
ENDBRANCH  35  36
ENDBRANCH  34  35
ENDBRANCH  33  34
ENDBRANCH  30  33
ENDBRANCH  27  30
ENDBRANCH  20  27
ENDBRANCH  15  20
ENDBRANCH  13  15
BRANCH   1  38
HETATM   38  O2  UNL     1      -4.700  -3.562   6.719  1.00  0.00    -0.313 OA
BRANCH  38  39
HETATM   39  C2  UNL     1      -3.960  -4.699   6.606  1.00  0.00     0.255 C 
HETATM   40  C1  UNL     1      -4.277  -5.881   7.428  1.00  0.00     0.126 C 
HETATM   41  O1  UNL     1      -3.006  -4.750   5.805  1.00  0.00    -0.266 OA
ENDBRANCH  38  39
ENDBRANCH   1  38
BRANCH   5  42
HETATM   42  C8  UNL     1      -0.433   1.893   8.206  1.00  0.00     0.216 C 
BRANCH  42  43
HETATM   43  O3  UNL     1       0.409   1.536   7.099  1.00  0.00    -0.292 OA
BRANCH  43  44
HETATM   44  C9  UNL     1       1.624   0.906   7.294  1.00  0.00     0.333 C 
HETATM   45  O4  UNL     1       1.871   0.494   8.461  1.00  0.00    -0.624 OA
HETATM   46  O5  UNL     1       2.553   0.723   6.257  1.00  0.00    -0.624 OA
ENDBRANCH  43  44
ENDBRANCH  42  43
ENDBRANCH   5  42
TORSDOF 20
ENDMDL
