MODEL 1
REMARK VINA RESULT: -8.029920516      0.000      0.000
REMARK  14 active torsions:
REMARK  status: ('A' for Active; 'I' for Inactive)
REMARK    1  A    between atoms: C2_2  and  N1_4 
REMARK    2  A    between atoms: C8_9  and  N2_10 
REMARK    3  A    between atoms: C13_17  and  O1_18 
REMARK    4  A    between atoms: O1_18  and  C14_19 
REMARK    5  A    between atoms: C14_19  and  C15_20 
REMARK    6  A    between atoms: C15_20  and  O2_21 
REMARK    7  A    between atoms: C18_29  and  N6_30 
REMARK    8  A    between atoms: N6_30  and  C19_31 
REMARK    9  A    between atoms: N6_30  and  C21_35 
REMARK   10  A    between atoms: C19_31  and  C20_32 
REMARK   11  A    between atoms: C20_32  and  O3_33 
REMARK   12  A    between atoms: C21_35  and  C22_36 
REMARK   13  A    between atoms: C22_36  and  O4_37 
REMARK   14  A    between atoms: C23_41  and  N8_42 
ROOT
HETATM    1  N1  UNL     1      -6.954  -0.140   4.036  1.00  0.00    -0.314 N 
HETATM    2  C4  UNL     1      -7.722   0.771   4.596  1.00  0.00     0.121 A 
HETATM    3  C5  UNL     1      -8.712   1.582   3.923  1.00  0.00     0.011 A 
HETATM    4  C6  UNL     1      -8.579   2.449   2.894  1.00  0.00     0.017 A 
HETATM    5  C7  UNL     1      -9.650   3.045   2.271  1.00  0.00     0.033 A 
HETATM    6  C8  UNL     1     -10.950   2.766   2.692  1.00  0.00     0.064 A 
HETATM    7  C13 UNL     1     -11.103   1.892   3.730  1.00  0.00     0.096 A 
HETATM    8  C16 UNL     1     -10.033   1.320   4.331  1.00  0.00     0.054 A 
HETATM    9  N4  UNL     1      -7.724   0.912   5.959  1.00  0.00    -0.326 N 
ATOM     10  H4  UNL     1      -8.323   1.619   6.385  1.00  0.00     0.169 HD
HETATM   11  C17 UNL     1      -6.959   0.146   6.745  1.00  0.00     0.140 A 
HETATM   12  N5  UNL     1      -6.996   0.338   8.098  1.00  0.00    -0.175 N 
ATOM     13  H5  UNL     1      -7.602   1.052   8.502  1.00  0.00     0.186 HD
HETATM   14  C18 UNL     1      -6.222  -0.429   8.892  1.00  0.00     0.683 A 
HETATM   15  N7  UNL     1      -5.452  -1.343   8.346  1.00  0.00    -0.176 N 
ATOM     16  H7  UNL     1      -4.872  -1.915   8.960  1.00  0.00     0.186 HD
HETATM   17  C23 UNL     1      -5.383  -1.573   6.974  1.00  0.00     0.137 A 
HETATM   18  C29 UNL     1      -6.160  -0.803   6.151  1.00  0.00     0.097 A 
HETATM   19  C30 UNL     1      -6.121  -0.996   4.760  1.00  0.00     0.121 A 
HETATM   20  N10 UNL     1      -5.537  -1.876   4.216  1.00  0.00    -0.384 N 
ATOM     21 1H10 UNL     1      -4.929  -2.501   4.745  1.00  0.00     0.157 HD
ATOM     22 2H10 UNL     1      -5.509  -2.016   3.206  1.00  0.00     0.157 HD
ENDROOT
BRANCH   1  23
HETATM   23  C2  UNL     1      -6.938  -0.325   2.602  1.00  0.00     0.085 C 
HETATM   24  C1  UNL     1      -7.589  -1.624   2.162  1.00  0.00     0.032 C 
HETATM   25  C3  UNL     1      -5.529  -0.179   2.095  1.00  0.00     0.032 C 
ENDBRANCH   1  23
BRANCH   7  26
HETATM   26  O1  UNL     1     -12.429   1.603   4.149  1.00  0.00    -0.347 OA
BRANCH  26  27
HETATM   27  C14 UNL     1     -12.677   0.221   4.399  1.00  0.00     0.201 C 
BRANCH  27  28
HETATM   28  C15 UNL     1     -12.801  -0.090   5.868  1.00  0.00     0.190 C 
BRANCH  28  29
HETATM   29  O2  UNL     1     -12.755   1.040   6.669  1.00  0.00    -0.399 OA
ATOM     30  H2  UNL     1     -13.159   0.912   7.519  1.00  0.00     0.209 HD
ENDBRANCH  28  29
ENDBRANCH  27  28
ENDBRANCH  26  27
ENDBRANCH   7  26
BRANCH  17  31
HETATM   31  N8  UNL     1      -4.473  -2.558   6.546  1.00  0.00    -0.360 N 
HETATM   32  C24 UNL     1      -3.080  -2.470   6.937  1.00  0.00     0.144 C 
HETATM   33  C25 UNL     1      -2.744  -3.690   7.794  1.00  0.00     0.141 C 
HETATM   34  N9  UNL     1      -3.533  -4.830   7.519  1.00  0.00    -0.394 N 
HETATM   35  C26 UNL     1      -4.163  -5.436   8.628  1.00  0.00     0.148 C 
HETATM   36  C27 UNL     1      -4.151  -4.958   6.263  1.00  0.00     0.077 C 
HETATM   37  C28 UNL     1      -4.885  -3.712   5.793  1.00  0.00     0.168 C 
ENDBRANCH  17  31
BRANCH   6  38
HETATM   38  N2  UNL     1     -12.078   3.353   2.032  1.00  0.00    -0.376 N 
HETATM   39  C9  UNL     1     -12.800   2.707   0.966  1.00  0.00     0.142 C 
HETATM   40  C10 UNL     1     -14.278   2.907   1.177  1.00  0.00     0.133 C 
HETATM   41  N3  UNL     1     -14.653   4.275   1.391  1.00  0.00    -0.418 N 
HETATM   42  C11 UNL     1     -13.562   5.191   1.580  1.00  0.00     0.133 C 
ATOM     43  H3  UNL     1     -15.627   4.577   1.409  1.00  0.00     0.153 HD
HETATM   44  C12 UNL     1     -12.488   4.638   2.479  1.00  0.00     0.142 C 
ENDBRANCH   6  38
BRANCH  14  45
HETATM   45  N6  UNL     1      -6.242  -0.167  10.331  1.00  0.00    -0.213 N 
BRANCH  45  46
HETATM   46  C19 UNL     1      -7.418   0.189  11.052  1.00  0.00     0.167 C 
BRANCH  46  47
HETATM   47  C20 UNL     1      -8.393  -0.957  11.117  1.00  0.00     0.184 C 
BRANCH  47  48
HETATM   48  O3  UNL     1      -9.178  -0.960  12.267  1.00  0.00    -0.399 OA
ATOM     49  H3  UNL     1      -8.794  -1.441  12.990  1.00  0.00     0.209 HD
ENDBRANCH  47  48
ENDBRANCH  46  47
ENDBRANCH  45  46
BRANCH  45  50
HETATM   50  C21 UNL     1      -4.933  -0.285  10.982  1.00  0.00     0.167 C 
BRANCH  50  51
HETATM   51  C22 UNL     1      -5.094   0.277  12.387  1.00  0.00     0.184 C 
BRANCH  51  52
HETATM   52  O4  UNL     1      -4.641  -0.695  13.291  1.00  0.00    -0.399 OA
ATOM     53  H4  UNL     1      -4.319  -0.246  14.063  1.00  0.00     0.209 HD
ENDBRANCH  51  52
ENDBRANCH  50  51
ENDBRANCH  45  50
ENDBRANCH  14  45
TORSDOF 14
ENDMDL
MODEL 2
REMARK VINA RESULT: -7.961150451      0.666      1.582
REMARK  14 active torsions:
REMARK  status: ('A' for Active; 'I' for Inactive)
REMARK    1  A    between atoms: C2_2  and  N1_4 
REMARK    2  A    between atoms: C8_9  and  N2_10 
REMARK    3  A    between atoms: C13_17  and  O1_18 
REMARK    4  A    between atoms: O1_18  and  C14_19 
REMARK    5  A    between atoms: C14_19  and  C15_20 
REMARK    6  A    between atoms: C15_20  and  O2_21 
REMARK    7  A    between atoms: C18_29  and  N6_30 
REMARK    8  A    between atoms: N6_30  and  C19_31 
REMARK    9  A    between atoms: N6_30  and  C21_35 
REMARK   10  A    between atoms: C19_31  and  C20_32 
REMARK   11  A    between atoms: C20_32  and  O3_33 
REMARK   12  A    between atoms: C21_35  and  C22_36 
REMARK   13  A    between atoms: C22_36  and  O4_37 
REMARK   14  A    between atoms: C23_41  and  N8_42 
ROOT
HETATM    1  N1  UNL     1      -7.134  -0.068   3.907  1.00  0.00    -0.314 N 
HETATM    2  C4  UNL     1      -7.927   0.814   4.476  1.00  0.00     0.121 A 
HETATM    3  C5  UNL     1      -8.936   1.609   3.811  1.00  0.00     0.011 A 
HETATM    4  C6  UNL     1      -8.821   2.494   2.796  1.00  0.00     0.017 A 
HETATM    5  C7  UNL     1      -9.906   3.071   2.177  1.00  0.00     0.033 A 
HETATM    6  C8  UNL     1     -11.199   2.753   2.590  1.00  0.00     0.064 A 
HETATM    7  C13 UNL     1     -11.333   1.861   3.615  1.00  0.00     0.096 A 
HETATM    8  C16 UNL     1     -10.250   1.308   4.212  1.00  0.00     0.054 A 
HETATM    9  N4  UNL     1      -7.937   0.936   5.841  1.00  0.00    -0.326 N 
ATOM     10  H4  UNL     1      -8.556   1.621   6.275  1.00  0.00     0.169 HD
HETATM   11  C17 UNL     1      -7.155   0.179   6.620  1.00  0.00     0.140 A 
HETATM   12  N5  UNL     1      -7.201   0.350   7.974  1.00  0.00    -0.175 N 
ATOM     13  H5  UNL     1      -7.826   1.043   8.386  1.00  0.00     0.186 HD
HETATM   14  C18 UNL     1      -6.411  -0.408   8.760  1.00  0.00     0.683 A 
HETATM   15  N7  UNL     1      -5.615  -1.294   8.204  1.00  0.00    -0.176 N 
ATOM     16  H7  UNL     1      -5.023  -1.860   8.812  1.00  0.00     0.186 HD
HETATM   17  C23 UNL     1      -5.536  -1.503   6.829  1.00  0.00     0.137 A 
HETATM   18  C29 UNL     1      -6.330  -0.742   6.015  1.00  0.00     0.097 A 
HETATM   19  C30 UNL     1      -6.282  -0.913   4.621  1.00  0.00     0.121 A 
HETATM   20  N10 UNL     1      -5.674  -1.771   4.067  1.00  0.00    -0.384 N 
ATOM     21 1H10 UNL     1      -5.052  -2.388   4.589  1.00  0.00     0.157 HD
ATOM     22 2H10 UNL     1      -5.639  -1.896   3.055  1.00  0.00     0.157 HD
ENDROOT
BRANCH   1  23
HETATM   23  C2  UNL     1      -7.109  -0.233   2.470  1.00  0.00     0.085 C 
HETATM   24  C1  UNL     1      -7.763  -1.523   2.006  1.00  0.00     0.032 C 
HETATM   25  C3  UNL     1      -5.696  -0.085   1.975  1.00  0.00     0.032 C 
ENDBRANCH   1  23
BRANCH   7  26
HETATM   26  O1  UNL     1     -12.653   1.532   4.026  1.00  0.00    -0.347 OA
BRANCH  26  27
HETATM   27  C14 UNL     1     -12.827   0.168   4.399  1.00  0.00     0.201 C 
BRANCH  27  28
HETATM   28  C15 UNL     1     -12.842  -0.027   5.894  1.00  0.00     0.190 C 
BRANCH  28  29
HETATM   29  O2  UNL     1     -12.829   1.166   6.598  1.00  0.00    -0.399 OA
ATOM     30  H2  UNL     1     -12.597   1.057   7.512  1.00  0.00     0.209 HD
ENDBRANCH  28  29
ENDBRANCH  27  28
ENDBRANCH  26  27
ENDBRANCH   7  26
BRANCH  17  31
HETATM   31  N8  UNL     1      -4.600  -2.458   6.391  1.00  0.00    -0.360 N 
HETATM   32  C24 UNL     1      -3.195  -2.285   6.702  1.00  0.00     0.144 C 
HETATM   33  C25 UNL     1      -2.752  -3.451   7.585  1.00  0.00     0.141 C 
HETATM   34  N9  UNL     1      -3.494  -4.639   7.397  1.00  0.00    -0.394 N 
HETATM   35  C26 UNL     1      -4.034  -5.229   8.561  1.00  0.00     0.148 C 
HETATM   36  C27 UNL     1      -4.170  -4.849   6.183  1.00  0.00     0.077 C 
HETATM   37  C28 UNL     1      -4.991  -3.661   5.705  1.00  0.00     0.168 C 
ENDBRANCH  17  31
BRANCH   6  38
HETATM   38  N2  UNL     1     -12.340   3.320   1.935  1.00  0.00    -0.376 N 
HETATM   39  C9  UNL     1     -13.052   2.664   0.867  1.00  0.00     0.142 C 
HETATM   40  C10 UNL     1     -14.533   2.835   1.083  1.00  0.00     0.133 C 
HETATM   41  N3  UNL     1     -14.934   4.194   1.302  1.00  0.00    -0.418 N 
HETATM   42  C11 UNL     1     -13.860   5.131   1.491  1.00  0.00     0.133 C 
ATOM     43  H3  UNL     1     -15.914   4.478   1.323  1.00  0.00     0.153 HD
HETATM   44  C12 UNL     1     -12.774   4.596   2.386  1.00  0.00     0.142 C 
ENDBRANCH   6  38
BRANCH  14  45
HETATM   45  N6  UNL     1      -6.441  -0.167  10.203  1.00  0.00    -0.213 N 
BRANCH  45  46
HETATM   46  C19 UNL     1      -5.302  -0.300  11.048  1.00  0.00     0.167 C 
BRANCH  46  47
HETATM   47  C20 UNL     1      -4.110   0.430  10.486  1.00  0.00     0.184 C 
BRANCH  47  48
HETATM   48  O3  UNL     1      -3.132  -0.412   9.964  1.00  0.00    -0.399 OA
ATOM     49  H3  UNL     1      -3.392  -0.849   9.162  1.00  0.00     0.209 HD
ENDBRANCH  47  48
ENDBRANCH  46  47
ENDBRANCH  45  46
BRANCH  45  50
HETATM   50  C21 UNL     1      -7.760   0.210  10.722  1.00  0.00     0.167 C 
BRANCH  50  51
HETATM   51  C22 UNL     1      -7.957  -0.570  12.015  1.00  0.00     0.184 C 
BRANCH  51  52
HETATM   52  O4  UNL     1      -9.224  -1.167  11.966  1.00  0.00    -0.399 OA
ATOM     53  H4  UNL     1      -9.872  -0.473  11.985  1.00  0.00     0.209 HD
ENDBRANCH  51  52
ENDBRANCH  50  51
ENDBRANCH  45  50
ENDBRANCH  14  45
TORSDOF 14
ENDMDL
MODEL 3
REMARK VINA RESULT: -7.426694297      6.043     11.495
REMARK  14 active torsions:
REMARK  status: ('A' for Active; 'I' for Inactive)
REMARK    1  A    between atoms: C2_2  and  N1_4 
REMARK    2  A    between atoms: C8_9  and  N2_10 
REMARK    3  A    between atoms: C13_17  and  O1_18 
REMARK    4  A    between atoms: O1_18  and  C14_19 
REMARK    5  A    between atoms: C14_19  and  C15_20 
REMARK    6  A    between atoms: C15_20  and  O2_21 
REMARK    7  A    between atoms: C18_29  and  N6_30 
REMARK    8  A    between atoms: N6_30  and  C19_31 
REMARK    9  A    between atoms: N6_30  and  C21_35 
REMARK   10  A    between atoms: C19_31  and  C20_32 
REMARK   11  A    between atoms: C20_32  and  O3_33 
REMARK   12  A    between atoms: C21_35  and  C22_36 
REMARK   13  A    between atoms: C22_36  and  O4_37 
REMARK   14  A    between atoms: C23_41  and  N8_42 
ROOT
HETATM    1  N1  UNL     1      -0.601   2.015  10.358  1.00  0.00    -0.314 N 
HETATM    2  C4  UNL     1      -0.988   2.317  11.579  1.00  0.00     0.121 A 
HETATM    3  C5  UNL     1      -0.264   3.138  12.524  1.00  0.00     0.011 A 
HETATM    4  C6  UNL     1       0.974   2.987  13.045  1.00  0.00     0.017 A 
HETATM    5  C7  UNL     1       1.579   3.937  13.835  1.00  0.00     0.033 A 
HETATM    6  C8  UNL     1       0.913   5.126  14.132  1.00  0.00     0.064 A 
HETATM    7  C13 UNL     1      -0.338   5.297  13.613  1.00  0.00     0.096 A 
HETATM    8  C16 UNL     1      -0.915   4.345  12.842  1.00  0.00     0.054 A 
HETATM    9  N4  UNL     1      -2.242   1.962  12.000  1.00  0.00    -0.326 N 
ATOM     10  H4  UNL     1      -2.535   2.202  12.947  1.00  0.00     0.169 HD
HETATM   11  C17 UNL     1      -3.093   1.309  11.201  1.00  0.00     0.140 A 
HETATM   12  N5  UNL     1      -4.329   0.973  11.678  1.00  0.00    -0.175 N 
ATOM     13  H5  UNL     1      -4.599   1.221  12.630  1.00  0.00     0.186 HD
HETATM   14  C18 UNL     1      -5.185   0.310  10.876  1.00  0.00     0.683 A 
HETATM   15  N7  UNL     1      -4.812   0.004   9.654  1.00  0.00    -0.176 N 
ATOM     16  H7  UNL     1      -5.472  -0.498   9.059  1.00  0.00     0.186 HD
HETATM   17  C23 UNL     1      -3.564   0.326   9.125  1.00  0.00     0.137 A 
HETATM   18  C29 UNL     1      -2.680   0.998   9.925  1.00  0.00     0.097 A 
HETATM   19  C30 UNL     1      -1.407   1.341   9.439  1.00  0.00     0.121 A 
HETATM   20  N10 UNL     1      -1.053   1.196   8.313  1.00  0.00    -0.384 N 
ATOM     21 1H10 UNL     1      -1.642   0.704   7.642  1.00  0.00     0.157 HD
ATOM     22 2H10 UNL     1      -0.130   1.445   7.960  1.00  0.00     0.157 HD
ENDROOT
BRANCH   1  23
HETATM   23  C2  UNL     1       0.711   2.387   9.876  1.00  0.00     0.085 C 
HETATM   24  C1  UNL     1       0.666   3.227   8.612  1.00  0.00     0.032 C 
HETATM   25  C3  UNL     1       1.557   1.152   9.725  1.00  0.00     0.032 C 
ENDBRANCH   1  23
BRANCH   7  26
HETATM   26  O1  UNL     1      -1.008   6.513  13.911  1.00  0.00    -0.347 OA
BRANCH  26  27
HETATM   27  C14 UNL     1      -2.369   6.352  14.305  1.00  0.00     0.201 C 
BRANCH  27  28
HETATM   28  C15 UNL     1      -3.298   7.293  13.583  1.00  0.00     0.190 C 
BRANCH  28  29
HETATM   29  O2  UNL     1      -4.600   7.241  14.054  1.00  0.00    -0.399 OA
ATOM     30  H2  UNL     1      -5.245   7.173  13.360  1.00  0.00     0.209 HD
ENDBRANCH  28  29
ENDBRANCH  27  28
ENDBRANCH  26  27
ENDBRANCH   7  26
BRANCH  17  31
HETATM   31  N8  UNL     1      -3.302  -0.115   7.815  1.00  0.00    -0.360 N 
HETATM   32  C24 UNL     1      -2.923  -1.493   7.581  1.00  0.00     0.144 C 
HETATM   33  C25 UNL     1      -4.000  -2.148   6.716  1.00  0.00     0.141 C 
HETATM   34  N9  UNL     1      -4.697  -1.250   5.877  1.00  0.00    -0.394 N 
HETATM   35  C26 UNL     1      -6.107  -1.289   5.953  1.00  0.00     0.148 C 
HETATM   36  C27 UNL     1      -4.095  -0.034   5.510  1.00  0.00     0.077 C 
HETATM   37  C28 UNL     1      -3.477   0.736   6.667  1.00  0.00     0.168 C 
ENDBRANCH  17  31
BRANCH   6  38
HETATM   38  N2  UNL     1       1.541   6.141  14.925  1.00  0.00    -0.376 N 
HETATM   39  C9  UNL     1       2.304   7.229  14.367  1.00  0.00     0.142 C 
HETATM   40  C10 UNL     1       1.953   8.502  15.090  1.00  0.00     0.133 C 
HETATM   41  N3  UNL     1       2.041   8.400  16.518  1.00  0.00    -0.418 N 
HETATM   42  C11 UNL     1       2.238   7.071  17.031  1.00  0.00     0.133 C 
ATOM     43  H3  UNL     1       1.969   9.214  17.129  1.00  0.00     0.153 HD
HETATM   44  C12 UNL     1       1.382   6.048  16.334  1.00  0.00     0.142 C 
ENDBRANCH   6  38
BRANCH  14  45
HETATM   45  N6  UNL     1      -6.482  -0.083  11.429  1.00  0.00    -0.213 N 
BRANCH  45  46
HETATM   46  C19 UNL     1      -6.846   0.106  12.793  1.00  0.00     0.167 C 
BRANCH  46  47
HETATM   47  C20 UNL     1      -6.072  -0.812  13.703  1.00  0.00     0.184 C 
BRANCH  47  48
HETATM   48  O3  UNL     1      -6.681  -1.022  14.937  1.00  0.00    -0.399 OA
ATOM     49  H3  UNL     1      -6.268  -0.553  15.652  1.00  0.00     0.209 HD
ENDBRANCH  47  48
ENDBRANCH  46  47
ENDBRANCH  45  46
BRANCH  45  50
HETATM   50  C21 UNL     1      -7.383  -0.713  10.460  1.00  0.00     0.167 C 
BRANCH  50  51
HETATM   51  C22 UNL     1      -8.276   0.393   9.913  1.00  0.00     0.184 C 
BRANCH  51  52
HETATM   52  O4  UNL     1      -7.885   0.644   8.591  1.00  0.00    -0.399 OA
ATOM     53  H4  UNL     1      -8.546   1.199   8.194  1.00  0.00     0.209 HD
ENDBRANCH  51  52
ENDBRANCH  50  51
ENDBRANCH  45  50
ENDBRANCH  14  45
TORSDOF 14
ENDMDL
MODEL 4
REMARK VINA RESULT: -7.321783090      6.097     11.544
REMARK  14 active torsions:
REMARK  status: ('A' for Active; 'I' for Inactive)
REMARK    1  A    between atoms: C2_2  and  N1_4 
REMARK    2  A    between atoms: C8_9  and  N2_10 
REMARK    3  A    between atoms: C13_17  and  O1_18 
REMARK    4  A    between atoms: O1_18  and  C14_19 
REMARK    5  A    between atoms: C14_19  and  C15_20 
REMARK    6  A    between atoms: C15_20  and  O2_21 
REMARK    7  A    between atoms: C18_29  and  N6_30 
REMARK    8  A    between atoms: N6_30  and  C19_31 
REMARK    9  A    between atoms: N6_30  and  C21_35 
REMARK   10  A    between atoms: C19_31  and  C20_32 
REMARK   11  A    between atoms: C20_32  and  O3_33 
REMARK   12  A    between atoms: C21_35  and  C22_36 
REMARK   13  A    between atoms: C22_36  and  O4_37 
REMARK   14  A    between atoms: C23_41  and  N8_42 
ROOT
HETATM    1  N1  UNL     1      -0.419   1.983  10.377  1.00  0.00    -0.314 N 
HETATM    2  C4  UNL     1      -0.812   2.293  11.594  1.00  0.00     0.121 A 
HETATM    3  C5  UNL     1      -0.084   3.106  12.544  1.00  0.00     0.011 A 
HETATM    4  C6  UNL     1       1.147   2.938  13.075  1.00  0.00     0.017 A 
HETATM    5  C7  UNL     1       1.759   3.881  13.868  1.00  0.00     0.033 A 
HETATM    6  C8  UNL     1       1.108   5.081  14.157  1.00  0.00     0.064 A 
HETATM    7  C13 UNL     1      -0.137   5.267  13.628  1.00  0.00     0.096 A 
HETATM    8  C16 UNL     1      -0.721   4.322  12.854  1.00  0.00     0.054 A 
HETATM    9  N4  UNL     1      -2.074   1.957  12.006  1.00  0.00    -0.326 N 
ATOM     10  H4  UNL     1      -2.371   2.202  12.950  1.00  0.00     0.169 HD
HETATM   11  C17 UNL     1      -2.928   1.314  11.201  1.00  0.00     0.140 A 
HETATM   12  N5  UNL     1      -4.172   0.996  11.669  1.00  0.00    -0.175 N 
ATOM     13  H5  UNL     1      -4.447   1.250  12.618  1.00  0.00     0.186 HD
HETATM   14  C18 UNL     1      -5.031   0.344  10.861  1.00  0.00     0.683 A 
HETATM   15  N7  UNL     1      -4.653   0.030   9.643  1.00  0.00    -0.176 N 
ATOM     16  H7  UNL     1      -5.315  -0.463   9.044  1.00  0.00     0.186 HD
HETATM   17  C23 UNL     1      -3.396   0.334   9.124  1.00  0.00     0.137 A 
HETATM   18  C29 UNL     1      -2.509   0.995   9.930  1.00  0.00     0.097 A 
HETATM   19  C30 UNL     1      -1.228   1.319   9.452  1.00  0.00     0.121 A 
HETATM   20  N10 UNL     1      -0.867   1.167   8.330  1.00  0.00    -0.384 N 
ATOM     21 1H10 UNL     1      -1.458   0.682   7.655  1.00  0.00     0.157 HD
ATOM     22 2H10 UNL     1       0.063   1.403   7.984  1.00  0.00     0.157 HD
ENDROOT
BRANCH   1  23
HETATM   23  C2  UNL     1       0.901   2.336   9.905  1.00  0.00     0.085 C 
HETATM   24  C1  UNL     1       0.884   3.416   8.837  1.00  0.00     0.032 C 
HETATM   25  C3  UNL     1       1.623   1.092   9.464  1.00  0.00     0.032 C 
ENDBRANCH   1  23
BRANCH   7  26
HETATM   26  O1  UNL     1      -0.792   6.494  13.919  1.00  0.00    -0.347 OA
BRANCH  26  27
HETATM   27  C14 UNL     1      -2.138   6.347  14.367  1.00  0.00     0.201 C 
BRANCH  27  28
HETATM   28  C15 UNL     1      -3.089   7.278  13.659  1.00  0.00     0.190 C 
BRANCH  28  29
HETATM   29  O2  UNL     1      -4.362   7.274  14.207  1.00  0.00    -0.399 OA
ATOM     30  H2  UNL     1      -5.035   7.526  13.587  1.00  0.00     0.209 HD
ENDBRANCH  28  29
ENDBRANCH  27  28
ENDBRANCH  26  27
ENDBRANCH   7  26
BRANCH  17  31
HETATM   31  N8  UNL     1      -3.130  -0.113   7.816  1.00  0.00    -0.360 N 
HETATM   32  C24 UNL     1      -2.800  -1.505   7.584  1.00  0.00     0.144 C 
HETATM   33  C25 UNL     1      -3.886  -2.116   6.700  1.00  0.00     0.141 C 
HETATM   34  N9  UNL     1      -4.535  -1.190   5.852  1.00  0.00    -0.394 N 
HETATM   35  C26 UNL     1      -5.947  -1.176   5.906  1.00  0.00     0.148 C 
HETATM   36  C27 UNL     1      -3.882   0.004   5.500  1.00  0.00     0.077 C 
HETATM   37  C28 UNL     1      -3.254   0.746   6.669  1.00  0.00     0.168 C 
ENDBRANCH  17  31
BRANCH   6  38
HETATM   38  N2  UNL     1       1.744   6.087  14.954  1.00  0.00    -0.376 N 
HETATM   39  C9  UNL     1       2.533   7.159  14.400  1.00  0.00     0.142 C 
HETATM   40  C10 UNL     1       2.196   8.441  15.113  1.00  0.00     0.133 C 
HETATM   41  N3  UNL     1       2.264   8.345  16.542  1.00  0.00    -0.418 N 
HETATM   42  C11 UNL     1       2.430   7.016  17.064  1.00  0.00     0.133 C 
ATOM     43  H3  UNL     1       2.198   9.164  17.148  1.00  0.00     0.153 HD
HETATM   44  C12 UNL     1       1.564   6.004  16.361  1.00  0.00     0.142 C 
ENDBRANCH   6  38
BRANCH  14  45
HETATM   45  N6  UNL     1      -6.337  -0.030  11.405  1.00  0.00    -0.213 N 
BRANCH  45  46
HETATM   46  C19 UNL     1      -7.320  -0.752  10.669  1.00  0.00     0.167 C 
BRANCH  46  47
HETATM   47  C20 UNL     1      -8.712  -0.431  11.146  1.00  0.00     0.184 C 
BRANCH  47  48
HETATM   48  O3  UNL     1      -9.253  -1.399  11.988  1.00  0.00    -0.399 OA
ATOM     49  H3  UNL     1      -9.894  -1.058  12.600  1.00  0.00     0.209 HD
ENDBRANCH  47  48
ENDBRANCH  46  47
ENDBRANCH  45  46
BRANCH  45  50
HETATM   50  C21 UNL     1      -6.566   0.419  12.782  1.00  0.00     0.167 C 
BRANCH  50  51
HETATM   51  C22 UNL     1      -6.218  -0.756  13.686  1.00  0.00     0.184 C 
BRANCH  51  52
HETATM   52  O4  UNL     1      -7.338  -1.029  14.484  1.00  0.00    -0.399 OA
ATOM     53  H4  UNL     1      -7.304  -1.946  14.728  1.00  0.00     0.209 HD
ENDBRANCH  51  52
ENDBRANCH  50  51
ENDBRANCH  45  50
ENDBRANCH  14  45
TORSDOF 14
ENDMDL
MODEL 5
REMARK VINA RESULT: -7.203446774      6.195     12.529
REMARK  14 active torsions:
REMARK  status: ('A' for Active; 'I' for Inactive)
REMARK    1  A    between atoms: C2_2  and  N1_4 
REMARK    2  A    between atoms: C8_9  and  N2_10 
REMARK    3  A    between atoms: C13_17  and  O1_18 
REMARK    4  A    between atoms: O1_18  and  C14_19 
REMARK    5  A    between atoms: C14_19  and  C15_20 
REMARK    6  A    between atoms: C15_20  and  O2_21 
REMARK    7  A    between atoms: C18_29  and  N6_30 
REMARK    8  A    between atoms: N6_30  and  C19_31 
REMARK    9  A    between atoms: N6_30  and  C21_35 
REMARK   10  A    between atoms: C19_31  and  C20_32 
REMARK   11  A    between atoms: C20_32  and  O3_33 
REMARK   12  A    between atoms: C21_35  and  C22_36 
REMARK   13  A    between atoms: C22_36  and  O4_37 
REMARK   14  A    between atoms: C23_41  and  N8_42 
ROOT
HETATM    1  N1  UNL     1       0.100   1.195   9.915  1.00  0.00    -0.314 N 
HETATM    2  C4  UNL     1      -0.075   0.966  11.199  1.00  0.00     0.121 A 
HETATM    3  C5  UNL     1       0.930   1.084  12.232  1.00  0.00     0.011 A 
HETATM    4  C6  UNL     1       2.120   0.458  12.369  1.00  0.00     0.017 A 
HETATM    5  C7  UNL     1       3.034   0.785  13.344  1.00  0.00     0.033 A 
HETATM    6  C8  UNL     1       2.753   1.806  14.251  1.00  0.00     0.064 A 
HETATM    7  C13 UNL     1       1.556   2.450  14.127  1.00  0.00     0.096 A 
HETATM    8  C16 UNL     1       0.670   2.108  13.161  1.00  0.00     0.054 A 
HETATM    9  N4  UNL     1      -1.335   0.720  11.678  1.00  0.00    -0.326 N 
ATOM     10  H4  UNL     1      -1.463   0.545  12.675  1.00  0.00     0.169 HD
HETATM   11  C17 UNL     1      -2.402   0.704  10.872  1.00  0.00     0.140 A 
HETATM   12  N5  UNL     1      -3.634   0.445  11.404  1.00  0.00    -0.175 N 
ATOM     13  H5  UNL     1      -3.737   0.271  12.404  1.00  0.00     0.186 HD
HETATM   14  C18 UNL     1      -4.710   0.423  10.593  1.00  0.00     0.683 A 
HETATM   15  N7  UNL     1      -4.549   0.653   9.309  1.00  0.00    -0.176 N 
ATOM     16  H7  UNL     1      -5.373   0.633   8.709  1.00  0.00     0.186 HD
HETATM   17  C23 UNL     1      -3.314   0.921   8.723  1.00  0.00     0.137 A 
HETATM   18  C29 UNL     1      -2.209   0.946   9.531  1.00  0.00     0.097 A 
HETATM   19  C30 UNL     1      -0.942   1.208   8.985  1.00  0.00     0.121 A 
HETATM   20  N10 UNL     1      -0.745   1.536   7.860  1.00  0.00    -0.384 N 
ATOM     21 1H10 UNL     1      -1.506   1.545   7.181  1.00  0.00     0.157 HD
ATOM     22 2H10 UNL     1       0.175   1.726   7.463  1.00  0.00     0.157 HD
ENDROOT
BRANCH   1  23
HETATM   23  C2  UNL     1       1.414   1.472   9.378  1.00  0.00     0.085 C 
HETATM   24  C1  UNL     1       1.693   2.956   9.220  1.00  0.00     0.032 C 
HETATM   25  C3  UNL     1       1.602   0.704   8.098  1.00  0.00     0.032 C 
ENDBRANCH   1  23
BRANCH   7  26
HETATM   26  O1  UNL     1       1.278   3.496  15.048  1.00  0.00    -0.347 OA
BRANCH  26  27
HETATM   27  C14 UNL     1       0.488   4.554  14.511  1.00  0.00     0.201 C 
BRANCH  27  28
HETATM   28  C15 UNL     1      -0.701   4.886  15.376  1.00  0.00     0.190 C 
BRANCH  28  29
HETATM   29  O2  UNL     1      -1.914   4.657  14.744  1.00  0.00    -0.399 OA
ATOM     30  H2  UNL     1      -2.643   5.090  15.171  1.00  0.00     0.209 HD
ENDBRANCH  28  29
ENDBRANCH  27  28
ENDBRANCH  26  27
ENDBRANCH   7  26
BRANCH  17  31
HETATM   31  N8  UNL     1      -3.305   1.099   7.327  1.00  0.00    -0.360 N 
HETATM   32  C24 UNL     1      -3.281  -0.057   6.454  1.00  0.00     0.144 C 
HETATM   33  C25 UNL     1      -4.567  -0.063   5.628  1.00  0.00     0.141 C 
HETATM   34  N9  UNL     1      -5.126   1.218   5.414  1.00  0.00    -0.394 N 
HETATM   35  C26 UNL     1      -6.490   1.368   5.748  1.00  0.00     0.148 C 
HETATM   36  C27 UNL     1      -4.304   2.355   5.491  1.00  0.00     0.077 C 
HETATM   37  C28 UNL     1      -3.403   2.398   6.716  1.00  0.00     0.168 C 
ENDBRANCH  17  31
BRANCH   6  38
HETATM   38  N2  UNL     1       3.707   2.182  15.253  1.00  0.00    -0.376 N 
HETATM   39  C9  UNL     1       4.654   3.255  15.086  1.00  0.00     0.142 C 
HETATM   40  C10 UNL     1       4.726   4.053  16.361  1.00  0.00     0.133 C 
HETATM   41  N3  UNL     1       4.948   3.256  17.533  1.00  0.00    -0.418 N 
HETATM   42  C11 UNL     1       4.854   1.834  17.338  1.00  0.00     0.133 C 
ATOM     43  H3  UNL     1       5.157   3.668  18.442  1.00  0.00     0.153 HD
HETATM   44  C12 UNL     1       3.690   1.443  16.467  1.00  0.00     0.142 C 
ENDBRANCH   6  38
BRANCH  14  45
HETATM   45  N6  UNL     1      -6.008   0.092  11.181  1.00  0.00    -0.213 N 
BRANCH  45  46
HETATM   46  C19 UNL     1      -6.380   0.432  12.513  1.00  0.00     0.167 C 
BRANCH  46  47
HETATM   47  C20 UNL     1      -6.117  -0.704  13.466  1.00  0.00     0.184 C 
BRANCH  47  48
HETATM   48  O3  UNL     1      -4.774  -0.854  13.803  1.00  0.00    -0.399 OA
ATOM     49  H3  UNL     1      -4.633  -1.123  14.703  1.00  0.00     0.209 HD
ENDBRANCH  47  48
ENDBRANCH  46  47
ENDBRANCH  45  46
BRANCH  45  50
HETATM   50  C21 UNL     1      -6.904  -0.645  10.284  1.00  0.00     0.167 C 
BRANCH  50  51
HETATM   51  C22 UNL     1      -8.259   0.045  10.359  1.00  0.00     0.184 C 
BRANCH  51  52
HETATM   52  O4  UNL     1      -8.406   0.826   9.204  1.00  0.00    -0.399 OA
ATOM     53  H4  UNL     1      -8.804   1.650   9.460  1.00  0.00     0.209 HD
ENDBRANCH  51  52
ENDBRANCH  50  51
ENDBRANCH  45  50
ENDBRANCH  14  45
TORSDOF 14
ENDMDL
