MODEL 1
REMARK VINA RESULT: -7.300448135      0.000      0.000
REMARK  16 active torsions:
REMARK  status: ('A' for Active; 'I' for Inactive)
REMARK    1  A    between atoms: O1_2  and  C2_3 
REMARK    2  A    between atoms: C3_4  and  O2_5 
REMARK    3  A    between atoms: C4_7  and  O3_8 
REMARK    4  A    between atoms: O3_8  and  C5_9 
REMARK    5  A    between atoms: C8_13  and  S1_14 
REMARK    6  A    between atoms: C10_16  and  O5_17 
REMARK    7  A    between atoms: C11_19  and  O6_20 
REMARK    8  A    between atoms: O6_20  and  C12_21 
REMARK    9  A    between atoms: C17_26  and  C18_27 
REMARK   10  A    between atoms: C18_27  and  O7_28 
REMARK   11  A    between atoms: O7_28  and  C19_29 
REMARK   12  A    between atoms: C22_33  and  O9_34 
REMARK   13  A    between atoms: C23_36  and  O10_37 
REMARK   14  A    between atoms: C24_39  and  O11_40 
REMARK   15  A    between atoms: O11_40  and  C25_41 
REMARK   16  A    between atoms: C25_41  and  C26_43 
ROOT
HETATM    1  C2  UNL     1      -8.041  -1.212   3.329  1.00  0.00     0.158 C 
HETATM    2  C3  UNL     1      -7.182  -1.851   4.450  1.00  0.00     0.176 C 
HETATM    3  C4  UNL     1      -6.991  -0.695   5.402  1.00  0.00     0.160 C 
HETATM    4  C15 UNL     1      -8.317   0.026   5.350  1.00  0.00     0.022 C 
HETATM    5  C16 UNL     1      -8.166   1.501   5.624  1.00  0.00     0.013 C 
HETATM    6  C17 UNL     1      -8.937  -0.225   4.025  1.00  0.00     0.047 C 
ENDROOT
BRANCH   6   7
HETATM    7  C18 UNL     1      -9.062   1.060   3.201  1.00  0.00     0.178 C 
BRANCH   7   8
HETATM    8  O7  UNL     1      -9.945   0.857   2.132  1.00  0.00    -0.358 OA
BRANCH   8   9
HETATM    9  C19 UNL     1     -10.992   1.808   2.189  1.00  0.00     0.292 C 
HETATM   10  O8  UNL     1     -10.641   2.832   1.385  1.00  0.00    -0.351 OA
HETATM   11  C20 UNL     1     -11.596   3.776   1.100  1.00  0.00     0.152 C 
HETATM   12  C21 UNL     1     -11.573   4.835   2.181  1.00  0.00     0.042 C 
HETATM   13  C22 UNL     1     -12.963   3.209   0.853  1.00  0.00     0.178 C 
HETATM   14  C23 UNL     1     -12.964   1.706   0.776  1.00  0.00     0.183 C 
HETATM   15  C24 UNL     1     -12.272   1.109   1.954  1.00  0.00     0.218 C 
BRANCH  13  16
HETATM   16  O9  UNL     1     -13.781   3.575   1.920  1.00  0.00    -0.390 OA
ATOM     17  H9  UNL     1     -14.683   3.550   1.621  1.00  0.00     0.210 HD
ENDBRANCH  13  16
BRANCH  14  18
HETATM   18  O10 UNL     1     -14.244   1.187   0.612  1.00  0.00    -0.390 OA
ATOM     19  H10 UNL     1     -14.281   0.255   0.794  1.00  0.00     0.210 HD
ENDBRANCH  14  18
BRANCH  15  20
HETATM   20  O11 UNL     1     -13.102   1.039   3.101  1.00  0.00    -0.303 OA
BRANCH  20  21
HETATM   21  C25 UNL     1     -12.742   1.528   4.327  1.00  0.00     0.321 C 
HETATM   22  O12 UNL     1     -12.928   2.750   4.552  1.00  0.00    -0.257 OA
BRANCH  21  23
HETATM   23  C26 UNL     1     -12.157   0.705   5.368  1.00  0.00     0.340 C 
HETATM   24  O13 UNL     1     -12.217  -0.546   5.290  1.00  0.00    -0.296 OA
ENDBRANCH  21  23
ENDBRANCH  20  21
ENDBRANCH  15  20
ENDBRANCH   8   9
ENDBRANCH   7   8
ENDBRANCH   6   7
BRANCH   1  25
HETATM   25  O1  UNL     1      -8.762  -2.254   2.761  1.00  0.00    -0.388 OA
HETATM   26  C1  UNL     1      -8.057  -2.998   1.849  1.00  0.00     0.202 C 
ENDBRANCH   1  25
BRANCH   2  27
HETATM   27  O2  UNL     1      -7.941  -2.865   4.983  1.00  0.00    -0.390 OA
ATOM     28  H2  UNL     1      -8.190  -2.579   5.854  1.00  0.00     0.210 HD
ENDBRANCH   2  27
BRANCH   3  29
HETATM   29  O3  UNL     1      -6.753  -1.122   6.677  1.00  0.00    -0.350 OA
BRANCH  29  30
HETATM   30  C5  UNL     1      -5.621  -0.582   7.255  1.00  0.00     0.292 C 
HETATM   31  O4  UNL     1      -4.947   0.302   6.463  1.00  0.00    -0.352 OA
HETATM   32  C6  UNL     1      -4.006   1.104   7.022  1.00  0.00     0.137 C 
HETATM   33  C7  UNL     1      -2.777   0.994   6.093  1.00  0.00     0.041 C 
HETATM   34  C8  UNL     1      -3.550   0.859   8.401  1.00  0.00     0.107 C 
HETATM   35  C10 UNL     1      -4.381  -0.100   9.232  1.00  0.00     0.168 C 
HETATM   36  C11 UNL     1      -5.803  -0.019   8.632  1.00  0.00     0.207 C 
BRANCH  34  37
HETATM   37  S1  UNL     1      -1.781   0.504   8.588  1.00  0.00    -0.163 SA
HETATM   38  C9  UNL     1      -1.021   1.240  10.023  1.00  0.00     0.090 C 
ENDBRANCH  34  37
BRANCH  35  39
HETATM   39  O5  UNL     1      -4.365   0.163  10.577  1.00  0.00    -0.392 OA
ATOM     40  H5  UNL     1      -4.886  -0.437  11.098  1.00  0.00     0.210 HD
ENDBRANCH  35  39
BRANCH  36  41
HETATM   41  O6  UNL     1      -6.632  -0.685   9.471  1.00  0.00    -0.374 OA
BRANCH  41  42
HETATM   42  C12 UNL     1      -7.516   0.075  10.207  1.00  0.00     0.114 C 
HETATM   43  C13 UNL     1      -8.241  -0.724  11.267  1.00  0.00     0.039 C 
HETATM   44  C14 UNL     1      -8.569   0.614   9.263  1.00  0.00     0.039 C 
ENDBRANCH  41  42
ENDBRANCH  36  41
ENDBRANCH  29  30
ENDBRANCH   3  29
TORSDOF 16
ENDMDL
MODEL 2
REMARK VINA RESULT: -7.204822509      2.364      4.034
REMARK  16 active torsions:
REMARK  status: ('A' for Active; 'I' for Inactive)
REMARK    1  A    between atoms: O1_2  and  C2_3 
REMARK    2  A    between atoms: C3_4  and  O2_5 
REMARK    3  A    between atoms: C4_7  and  O3_8 
REMARK    4  A    between atoms: O3_8  and  C5_9 
REMARK    5  A    between atoms: C8_13  and  S1_14 
REMARK    6  A    between atoms: C10_16  and  O5_17 
REMARK    7  A    between atoms: C11_19  and  O6_20 
REMARK    8  A    between atoms: O6_20  and  C12_21 
REMARK    9  A    between atoms: C17_26  and  C18_27 
REMARK   10  A    between atoms: C18_27  and  O7_28 
REMARK   11  A    between atoms: O7_28  and  C19_29 
REMARK   12  A    between atoms: C22_33  and  O9_34 
REMARK   13  A    between atoms: C23_36  and  O10_37 
REMARK   14  A    between atoms: C24_39  and  O11_40 
REMARK   15  A    between atoms: O11_40  and  C25_41 
REMARK   16  A    between atoms: C25_41  and  C26_43 
ROOT
HETATM    1  C2  UNL     1      -5.323  -1.408   5.135  1.00  0.00     0.158 C 
HETATM    2  C3  UNL     1      -4.515  -1.719   6.421  1.00  0.00     0.176 C 
HETATM    3  C4  UNL     1      -5.115  -0.754   7.415  1.00  0.00     0.160 C 
HETATM    4  C15 UNL     1      -6.580  -0.739   7.049  1.00  0.00     0.022 C 
HETATM    5  C16 UNL     1      -7.229   0.580   7.384  1.00  0.00     0.013 C 
HETATM    6  C17 UNL     1      -6.709  -1.064   5.607  1.00  0.00     0.047 C 
ENDROOT
BRANCH   6   7
HETATM    7  C18 UNL     1      -7.272   0.113   4.805  1.00  0.00     0.178 C 
BRANCH   7   8
HETATM    8  O7  UNL     1      -6.234   0.981   4.439  1.00  0.00    -0.358 OA
BRANCH   8   9
HETATM    9  C19 UNL     1      -6.320   1.273   3.056  1.00  0.00     0.292 C 
HETATM   10  O8  UNL     1      -5.108   1.020   2.522  1.00  0.00    -0.351 OA
HETATM   11  C20 UNL     1      -5.003   1.015   1.153  1.00  0.00     0.152 C 
HETATM   12  C21 UNL     1      -4.733   2.427   0.679  1.00  0.00     0.042 C 
HETATM   13  C22 UNL     1      -6.160   0.365   0.452  1.00  0.00     0.178 C 
HETATM   14  C23 UNL     1      -7.104  -0.322   1.401  1.00  0.00     0.183 C 
HETATM   15  C24 UNL     1      -7.511   0.592   2.507  1.00  0.00     0.218 C 
BRANCH  13  16
HETATM   16  O9  UNL     1      -6.878   1.359  -0.208  1.00  0.00    -0.390 OA
ATOM     17  H9  UNL     1      -7.464   0.937  -0.826  1.00  0.00     0.210 HD
ENDBRANCH  13  16
BRANCH  14  18
HETATM   18  O10 UNL     1      -8.205  -0.866   0.750  1.00  0.00    -0.390 OA
ATOM     19  H10 UNL     1      -9.007  -0.393   0.941  1.00  0.00     0.210 HD
ENDBRANCH  14  18
BRANCH  15  20
HETATM   20  O11 UNL     1      -8.552   1.478   2.132  1.00  0.00    -0.303 OA
BRANCH  20  21
HETATM   21  C25 UNL     1      -9.872   1.258   2.414  1.00  0.00     0.321 C 
HETATM   22  O12 UNL     1     -10.592   0.759   1.513  1.00  0.00    -0.257 OA
BRANCH  21  23
HETATM   23  C26 UNL     1     -10.471   1.575   3.695  1.00  0.00     0.340 C 
HETATM   24  O13 UNL     1     -10.907   0.658   4.432  1.00  0.00    -0.296 OA
ENDBRANCH  21  23
ENDBRANCH  20  21
ENDBRANCH  15  20
ENDBRANCH   8   9
ENDBRANCH   7   8
ENDBRANCH   6   7
BRANCH   1  25
HETATM   25  O1  UNL     1      -5.308  -2.575   4.384  1.00  0.00    -0.388 OA
HETATM   26  C1  UNL     1      -6.534  -2.950   3.895  1.00  0.00     0.202 C 
ENDBRANCH   1  25
BRANCH   2  27
HETATM   27  O2  UNL     1      -4.773  -3.034   6.726  1.00  0.00    -0.390 OA
ATOM     28  H2  UNL     1      -4.054  -3.537   6.362  1.00  0.00     0.210 HD
ENDBRANCH   2  27
BRANCH   3  29
HETATM   29  O3  UNL     1      -4.969  -1.193   8.699  1.00  0.00    -0.350 OA
BRANCH  29  30
HETATM   30  C5  UNL     1      -4.137  -0.411   9.476  1.00  0.00     0.292 C 
HETATM   31  O4  UNL     1      -3.450   0.545   8.786  1.00  0.00    -0.352 OA
HETATM   32  C6  UNL     1      -2.841   1.545   9.470  1.00  0.00     0.137 C 
HETATM   33  C7  UNL     1      -1.416   1.630   8.881  1.00  0.00     0.041 C 
HETATM   34  C8  UNL     1      -2.718   1.469  10.936  1.00  0.00     0.107 C 
HETATM   35  C10 UNL     1      -3.550   0.410  11.635  1.00  0.00     0.168 C 
HETATM   36  C11 UNL     1      -4.762   0.177  10.705  1.00  0.00     0.207 C 
BRANCH  34  37
HETATM   37  S1  UNL     1      -1.022   1.479  11.579  1.00  0.00    -0.163 SA
HETATM   38  C9  UNL     1      -0.553   2.980  12.421  1.00  0.00     0.090 C 
ENDBRANCH  34  37
BRANCH  35  39
HETATM   39  O5  UNL     1      -3.926   0.742  12.911  1.00  0.00    -0.392 OA
ATOM     40  H5  UNL     1      -3.327   0.440  13.584  1.00  0.00     0.210 HD
ENDBRANCH  35  39
BRANCH  36  41
HETATM   41  O6  UNL     1      -5.647  -0.593  11.382  1.00  0.00    -0.374 OA
BRANCH  41  42
HETATM   42  C12 UNL     1      -6.853  -0.013  11.713  1.00  0.00     0.114 C 
HETATM   43  C13 UNL     1      -7.278  -0.306  13.135  1.00  0.00     0.039 C 
HETATM   44  C14 UNL     1      -7.917  -0.591  10.806  1.00  0.00     0.039 C 
ENDBRANCH  41  42
ENDBRANCH  36  41
ENDBRANCH  29  30
ENDBRANCH   3  29
TORSDOF 16
ENDMDL
MODEL 3
REMARK VINA RESULT: -7.181227534      2.141      2.984
REMARK  16 active torsions:
REMARK  status: ('A' for Active; 'I' for Inactive)
REMARK    1  A    between atoms: O1_2  and  C2_3 
REMARK    2  A    between atoms: C3_4  and  O2_5 
REMARK    3  A    between atoms: C4_7  and  O3_8 
REMARK    4  A    between atoms: O3_8  and  C5_9 
REMARK    5  A    between atoms: C8_13  and  S1_14 
REMARK    6  A    between atoms: C10_16  and  O5_17 
REMARK    7  A    between atoms: C11_19  and  O6_20 
REMARK    8  A    between atoms: O6_20  and  C12_21 
REMARK    9  A    between atoms: C17_26  and  C18_27 
REMARK   10  A    between atoms: C18_27  and  O7_28 
REMARK   11  A    between atoms: O7_28  and  C19_29 
REMARK   12  A    between atoms: C22_33  and  O9_34 
REMARK   13  A    between atoms: C23_36  and  O10_37 
REMARK   14  A    between atoms: C24_39  and  O11_40 
REMARK   15  A    between atoms: O11_40  and  C25_41 
REMARK   16  A    between atoms: C25_41  and  C26_43 
ROOT
HETATM    1  C2  UNL     1      -4.935  -1.759   5.187  1.00  0.00     0.158 C 
HETATM    2  C3  UNL     1      -4.321  -2.097   6.570  1.00  0.00     0.176 C 
HETATM    3  C4  UNL     1      -4.748  -0.914   7.405  1.00  0.00     0.160 C 
HETATM    4  C15 UNL     1      -6.137  -0.608   6.897  1.00  0.00     0.022 C 
HETATM    5  C16 UNL     1      -6.479   0.853   7.041  1.00  0.00     0.013 C 
HETATM    6  C17 UNL     1      -6.231  -1.058   5.486  1.00  0.00     0.047 C 
ENDROOT
BRANCH   6   7
HETATM    7  C18 UNL     1      -6.439   0.117   4.526  1.00  0.00     0.178 C 
BRANCH   7   8
HETATM    8  O7  UNL     1      -7.547  -0.128   3.705  1.00  0.00    -0.358 OA
BRANCH   8   9
HETATM    9  C19 UNL     1      -8.225   1.087   3.440  1.00  0.00     0.292 C 
HETATM   10  O8  UNL     1      -7.630   1.647   2.368  1.00  0.00    -0.351 OA
HETATM   11  C20 UNL     1      -8.250   2.722   1.783  1.00  0.00     0.152 C 
HETATM   12  C21 UNL     1      -7.802   3.986   2.485  1.00  0.00     0.042 C 
HETATM   13  C22 UNL     1      -9.743   2.592   1.690  1.00  0.00     0.178 C 
HETATM   14  C23 UNL     1     -10.233   1.224   2.080  1.00  0.00     0.183 C 
HETATM   15  C24 UNL     1      -9.677   0.813   3.401  1.00  0.00     0.218 C 
BRANCH  13  16
HETATM   16  O9  UNL     1     -10.311   3.509   2.571  1.00  0.00    -0.390 OA
ATOM     17  H9  UNL     1     -11.206   3.668   2.293  1.00  0.00     0.210 HD
ENDBRANCH  13  16
BRANCH  14  18
HETATM   18  O10 UNL     1     -11.620   1.133   2.053  1.00  0.00    -0.390 OA
ATOM     19  H10 UNL     1     -11.923   0.233   2.097  1.00  0.00     0.210 HD
ENDBRANCH  14  18
BRANCH  15  20
HETATM   20  O11 UNL     1     -10.390   1.368   4.494  1.00  0.00    -0.303 OA
BRANCH  20  21
HETATM   21  C25 UNL     1     -10.844   0.632   5.554  1.00  0.00     0.321 C 
HETATM   22  O12 UNL     1     -10.026   0.339   6.462  1.00  0.00    -0.257 OA
BRANCH  21  23
HETATM   23  C26 UNL     1     -12.216   0.177   5.673  1.00  0.00     0.340 C 
HETATM   24  O13 UNL     1     -12.910  -0.010   4.644  1.00  0.00    -0.296 OA
ENDBRANCH  21  23
ENDBRANCH  20  21
ENDBRANCH  15  20
ENDBRANCH   8   9
ENDBRANCH   7   8
ENDBRANCH   6   7
BRANCH   1  25
HETATM   25  O1  UNL     1      -5.140  -2.977   4.554  1.00  0.00    -0.388 OA
HETATM   26  C1  UNL     1      -6.408  -3.150   4.058  1.00  0.00     0.202 C 
ENDBRANCH   1  25
BRANCH   2  27
HETATM   27  O2  UNL     1      -4.905  -3.275   6.970  1.00  0.00    -0.390 OA
ATOM     28  H2  UNL     1      -4.637  -3.410   7.872  1.00  0.00     0.210 HD
ENDBRANCH   2  27
BRANCH   3  29
HETATM   29  O3  UNL     1      -4.806  -1.225   8.733  1.00  0.00    -0.350 OA
BRANCH  29  30
HETATM   30  C5  UNL     1      -3.989  -0.451   9.534  1.00  0.00     0.292 C 
HETATM   31  O4  UNL     1      -3.235   0.464   8.859  1.00  0.00    -0.352 OA
HETATM   32  C6  UNL     1      -2.629   1.460   9.551  1.00  0.00     0.137 C 
HETATM   33  C7  UNL     1      -1.173   1.484   9.037  1.00  0.00     0.041 C 
HETATM   34  C8  UNL     1      -2.585   1.418  11.022  1.00  0.00     0.107 C 
HETATM   35  C10 UNL     1      -3.489   0.405  11.701  1.00  0.00     0.168 C 
HETATM   36  C11 UNL     1      -4.658   0.188  10.713  1.00  0.00     0.207 C 
BRANCH  34  37
HETATM   37  S1  UNL     1      -0.926   1.390  11.754  1.00  0.00    -0.163 SA
HETATM   38  C9  UNL     1      -0.417   2.924  12.507  1.00  0.00     0.090 C 
ENDBRANCH  34  37
BRANCH  35  39
HETATM   39  O5  UNL     1      -3.919   0.782  12.947  1.00  0.00    -0.392 OA
ATOM     40  H5  UNL     1      -3.276   0.657  13.635  1.00  0.00     0.210 HD
ENDBRANCH  35  39
BRANCH  36  41
HETATM   41  O6  UNL     1      -5.602  -0.535  11.361  1.00  0.00    -0.374 OA
BRANCH  41  42
HETATM   42  C12 UNL     1      -6.803   0.093  11.614  1.00  0.00     0.114 C 
HETATM   43  C13 UNL     1      -7.406  -0.301  12.945  1.00  0.00     0.039 C 
HETATM   44  C14 UNL     1      -7.787  -0.326  10.543  1.00  0.00     0.039 C 
ENDBRANCH  41  42
ENDBRANCH  36  41
ENDBRANCH  29  30
ENDBRANCH   3  29
TORSDOF 16
ENDMDL
MODEL 4
REMARK VINA RESULT: -6.959087975      1.765      2.734
REMARK  16 active torsions:
REMARK  status: ('A' for Active; 'I' for Inactive)
REMARK    1  A    between atoms: O1_2  and  C2_3 
REMARK    2  A    between atoms: C3_4  and  O2_5 
REMARK    3  A    between atoms: C4_7  and  O3_8 
REMARK    4  A    between atoms: O3_8  and  C5_9 
REMARK    5  A    between atoms: C8_13  and  S1_14 
REMARK    6  A    between atoms: C10_16  and  O5_17 
REMARK    7  A    between atoms: C11_19  and  O6_20 
REMARK    8  A    between atoms: O6_20  and  C12_21 
REMARK    9  A    between atoms: C17_26  and  C18_27 
REMARK   10  A    between atoms: C18_27  and  O7_28 
REMARK   11  A    between atoms: O7_28  and  C19_29 
REMARK   12  A    between atoms: C22_33  and  O9_34 
REMARK   13  A    between atoms: C23_36  and  O10_37 
REMARK   14  A    between atoms: C24_39  and  O11_40 
REMARK   15  A    between atoms: O11_40  and  C25_41 
REMARK   16  A    between atoms: C25_41  and  C26_43 
ROOT
HETATM    1  C2  UNL     1      -7.815  -0.717   3.730  1.00  0.00     0.158 C 
HETATM    2  C3  UNL     1      -6.863  -1.652   4.518  1.00  0.00     0.176 C 
HETATM    3  C4  UNL     1      -6.669  -0.894   5.809  1.00  0.00     0.160 C 
HETATM    4  C15 UNL     1      -8.028  -0.287   6.067  1.00  0.00     0.022 C 
HETATM    5  C16 UNL     1      -7.930   1.004   6.839  1.00  0.00     0.013 C 
HETATM    6  C17 UNL     1      -8.713  -0.097   4.764  1.00  0.00     0.047 C 
ENDROOT
BRANCH   6   7
HETATM    7  C18 UNL     1      -8.946   1.385   4.453  1.00  0.00     0.178 C 
BRANCH   7   8
HETATM    8  O7  UNL     1      -9.035   1.573   3.068  1.00  0.00    -0.358 OA
BRANCH   8   9
HETATM    9  C19 UNL     1     -10.077   2.486   2.774  1.00  0.00     0.292 C 
HETATM   10  O8  UNL     1      -9.615   3.320   1.821  1.00  0.00    -0.351 OA
HETATM   11  C20 UNL     1     -10.519   4.154   1.212  1.00  0.00     0.152 C 
HETATM   12  C21 UNL     1     -10.641   5.423   2.029  1.00  0.00     0.042 C 
HETATM   13  C22 UNL     1     -11.841   3.511   0.911  1.00  0.00     0.178 C 
HETATM   14  C23 UNL     1     -11.837   2.028   1.164  1.00  0.00     0.183 C 
HETATM   15  C24 UNL     1     -11.315   1.718   2.526  1.00  0.00     0.218 C 
BRANCH  13  16
HETATM   16  O9  UNL     1     -12.797   4.078   1.752  1.00  0.00    -0.390 OA
ATOM     17  H9  UNL     1     -13.172   3.383   2.281  1.00  0.00     0.210 HD
ENDBRANCH  13  16
BRANCH  14  18
HETATM   18  O10 UNL     1     -13.083   1.452   0.946  1.00  0.00    -0.390 OA
ATOM     19  H10 UNL     1     -13.380   0.942   1.690  1.00  0.00     0.210 HD
ENDBRANCH  14  18
BRANCH  15  20
HETATM   20  O11 UNL     1     -12.295   1.876   3.538  1.00  0.00    -0.303 OA
BRANCH  20  21
HETATM   21  C25 UNL     1     -12.887   0.829   4.190  1.00  0.00     0.321 C 
HETATM   22  O12 UNL     1     -13.850   0.252   3.626  1.00  0.00    -0.257 OA
BRANCH  21  23
HETATM   23  C26 UNL     1     -12.455   0.361   5.492  1.00  0.00     0.340 C 
HETATM   24  O13 UNL     1     -11.960  -0.786   5.618  1.00  0.00    -0.296 OA
ENDBRANCH  21  23
ENDBRANCH  20  21
ENDBRANCH  15  20
ENDBRANCH   8   9
ENDBRANCH   7   8
ENDBRANCH   6   7
BRANCH   1  25
HETATM   25  O1  UNL     1      -8.520  -1.537   2.859  1.00  0.00    -0.388 OA
HETATM   26  C1  UNL     1      -8.106  -1.464   1.553  1.00  0.00     0.202 C 
ENDBRANCH   1  25
BRANCH   2  27
HETATM   27  O2  UNL     1      -7.541  -2.835   4.687  1.00  0.00    -0.390 OA
ATOM     28  H2  UNL     1      -7.418  -3.083   5.596  1.00  0.00     0.210 HD
ENDBRANCH   2  27
BRANCH   3  29
HETATM   29  O3  UNL     1      -6.338  -1.724   6.840  1.00  0.00    -0.350 OA
BRANCH  29  30
HETATM   30  C5  UNL     1      -5.344  -1.236   7.666  1.00  0.00     0.292 C 
HETATM   31  O4  UNL     1      -5.754  -0.942   8.933  1.00  0.00    -0.352 OA
HETATM   32  C6  UNL     1      -4.823  -0.741   9.899  1.00  0.00     0.137 C 
HETATM   33  C7  UNL     1      -5.256   0.557  10.615  1.00  0.00     0.041 C 
HETATM   34  C8  UNL     1      -3.402  -0.602   9.538  1.00  0.00     0.107 C 
HETATM   35  C10 UNL     1      -3.018  -0.994   8.124  1.00  0.00     0.168 C 
HETATM   36  C11 UNL     1      -4.077  -2.036   7.697  1.00  0.00     0.207 C 
BRANCH  34  37
HETATM   37  S1  UNL     1      -2.628   0.972  10.001  1.00  0.00    -0.163 SA
HETATM   38  C9  UNL     1      -1.654   0.913  11.492  1.00  0.00     0.090 C 
ENDBRANCH  34  37
BRANCH  35  39
HETATM   39  O5  UNL     1      -1.737  -1.468   8.000  1.00  0.00    -0.392 OA
ATOM     40  H5  UNL     1      -1.490  -1.694   7.111  1.00  0.00     0.210 HD
ENDBRANCH  35  39
BRANCH  36  41
HETATM   41  O6  UNL     1      -3.657  -2.581   6.530  1.00  0.00    -0.374 OA
BRANCH  41  42
HETATM   42  C12 UNL     1      -3.526  -3.954   6.495  1.00  0.00     0.114 C 
HETATM   43  C13 UNL     1      -4.585  -4.626   5.650  1.00  0.00     0.039 C 
HETATM   44  C14 UNL     1      -3.689  -4.477   7.906  1.00  0.00     0.039 C 
ENDBRANCH  41  42
ENDBRANCH  36  41
ENDBRANCH  29  30
ENDBRANCH   3  29
TORSDOF 16
ENDMDL
MODEL 5
REMARK VINA RESULT: -6.912020965      3.134      4.499
REMARK  16 active torsions:
REMARK  status: ('A' for Active; 'I' for Inactive)
REMARK    1  A    between atoms: O1_2  and  C2_3 
REMARK    2  A    between atoms: C3_4  and  O2_5 
REMARK    3  A    between atoms: C4_7  and  O3_8 
REMARK    4  A    between atoms: O3_8  and  C5_9 
REMARK    5  A    between atoms: C8_13  and  S1_14 
REMARK    6  A    between atoms: C10_16  and  O5_17 
REMARK    7  A    between atoms: C11_19  and  O6_20 
REMARK    8  A    between atoms: O6_20  and  C12_21 
REMARK    9  A    between atoms: C17_26  and  C18_27 
REMARK   10  A    between atoms: C18_27  and  O7_28 
REMARK   11  A    between atoms: O7_28  and  C19_29 
REMARK   12  A    between atoms: C22_33  and  O9_34 
REMARK   13  A    between atoms: C23_36  and  O10_37 
REMARK   14  A    between atoms: C24_39  and  O11_40 
REMARK   15  A    between atoms: O11_40  and  C25_41 
REMARK   16  A    between atoms: C25_41  and  C26_43 
ROOT
HETATM    1  C2  UNL     1      -5.042  -1.841   5.374  1.00  0.00     0.158 C 
HETATM    2  C3  UNL     1      -4.253  -2.112   6.680  1.00  0.00     0.176 C 
HETATM    3  C4  UNL     1      -4.751  -1.013   7.587  1.00  0.00     0.160 C 
HETATM    4  C15 UNL     1      -6.213  -0.894   7.225  1.00  0.00     0.022 C 
HETATM    5  C16 UNL     1      -6.734   0.503   7.443  1.00  0.00     0.013 C 
HETATM    6  C17 UNL     1      -6.385  -1.331   5.817  1.00  0.00     0.047 C 
ENDROOT
BRANCH   6   7
HETATM    7  C18 UNL     1      -6.846  -0.181   4.916  1.00  0.00     0.178 C 
BRANCH   7   8
HETATM    8  O7  UNL     1      -5.770   0.283   4.148  1.00  0.00    -0.358 OA
BRANCH   8   9
HETATM    9  C19 UNL     1      -6.124   1.500   3.514  1.00  0.00     0.292 C 
HETATM   10  O8  UNL     1      -5.228   2.427   3.909  1.00  0.00    -0.351 OA
HETATM   11  C20 UNL     1      -5.229   3.633   3.255  1.00  0.00     0.152 C 
HETATM   12  C21 UNL     1      -6.228   4.552   3.926  1.00  0.00     0.042 C 
HETATM   13  C22 UNL     1      -5.424   3.526   1.771  1.00  0.00     0.178 C 
HETATM   14  C23 UNL     1      -5.384   2.104   1.281  1.00  0.00     0.183 C 
HETATM   15  C24 UNL     1      -6.307   1.239   2.071  1.00  0.00     0.218 C 
BRANCH  13  16
HETATM   16  O9  UNL     1      -6.682   4.041   1.463  1.00  0.00    -0.390 OA
ATOM     17  H9  UNL     1      -6.630   4.989   1.508  1.00  0.00     0.210 HD
ENDBRANCH  13  16
BRANCH  14  18
HETATM   18  O10 UNL     1      -5.630   2.008  -0.084  1.00  0.00    -0.390 OA
ATOM     19  H10 UNL     1      -6.245   1.314  -0.292  1.00  0.00     0.210 HD
ENDBRANCH  14  18
BRANCH  15  20
HETATM   20  O11 UNL     1      -7.654   1.337   1.641  1.00  0.00    -0.303 OA
BRANCH  20  21
HETATM   21  C25 UNL     1      -8.514   0.274   1.596  1.00  0.00     0.321 C 
HETATM   22  O12 UNL     1      -9.747   0.510   1.643  1.00  0.00    -0.257 OA
BRANCH  21  23
HETATM   23  C26 UNL     1      -8.067  -1.102   1.498  1.00  0.00     0.340 C 
HETATM   24  O13 UNL     1      -8.740  -2.022   2.023  1.00  0.00    -0.296 OA
ENDBRANCH  21  23
ENDBRANCH  20  21
ENDBRANCH  15  20
ENDBRANCH   8   9
ENDBRANCH   7   8
ENDBRANCH   6   7
BRANCH   1  25
HETATM   25  O1  UNL     1      -5.142  -3.066   4.728  1.00  0.00    -0.388 OA
HETATM   26  C1  UNL     1      -6.330  -3.264   4.071  1.00  0.00     0.202 C 
ENDBRANCH   1  25
BRANCH   2  27
HETATM   27  O2  UNL     1      -4.628  -3.365   7.101  1.00  0.00    -0.390 OA
ATOM     28  H2  UNL     1      -5.220  -3.233   7.832  1.00  0.00     0.210 HD
ENDBRANCH   2  27
BRANCH   3  29
HETATM   29  O3  UNL     1      -4.633  -1.349   8.904  1.00  0.00    -0.350 OA
BRANCH  29  30
HETATM   30  C5  UNL     1      -3.867  -0.473   9.648  1.00  0.00     0.292 C 
HETATM   31  O4  UNL     1      -3.194   0.458   8.911  1.00  0.00    -0.352 OA
HETATM   32  C6  UNL     1      -2.657   1.534   9.538  1.00  0.00     0.137 C 
HETATM   33  C7  UNL     1      -1.214   1.638   8.998  1.00  0.00     0.041 C 
HETATM   34  C8  UNL     1      -2.590   1.576  11.009  1.00  0.00     0.107 C 
HETATM   35  C10 UNL     1      -3.405   0.537  11.756  1.00  0.00     0.168 C 
HETATM   36  C11 UNL     1      -4.567   0.179  10.803  1.00  0.00     0.207 C 
BRANCH  34  37
HETATM   37  S1  UNL     1      -0.924   1.713  11.712  1.00  0.00    -0.163 SA
HETATM   38  C9  UNL     1      -0.488   3.345  12.282  1.00  0.00     0.090 C 
ENDBRANCH  34  37
BRANCH  35  39
HETATM   39  O5  UNL     1      -3.846   0.948  12.988  1.00  0.00    -0.392 OA
ATOM     40  H5  UNL     1      -3.742   0.300  13.675  1.00  0.00     0.210 HD
ENDBRANCH  35  39
BRANCH  36  41
HETATM   41  O6  UNL     1      -5.444  -0.577  11.504  1.00  0.00    -0.374 OA
BRANCH  41  42
HETATM   42  C12 UNL     1      -6.676  -0.017  11.771  1.00  0.00     0.114 C 
HETATM   43  C13 UNL     1      -7.198  -0.366  13.147  1.00  0.00     0.039 C 
HETATM   44  C14 UNL     1      -7.668  -0.567  10.769  1.00  0.00     0.039 C 
ENDBRANCH  41  42
ENDBRANCH  36  41
ENDBRANCH  29  30
ENDBRANCH   3  29
TORSDOF 16
ENDMDL
