MODEL 1
REMARK VINA RESULT: -7.191147245      0.000      0.000
REMARK  17 active torsions:
REMARK  status: ('A' for Active; 'I' for Inactive)
REMARK    1  A    between atoms: C5_7  and  C6_8 
REMARK    2  A    between atoms: C6_8  and  C7_9 
REMARK    3  A    between atoms: C10_12  and  O1_13 
REMARK    4  A    between atoms: N2_15  and  C11_16 
REMARK    5  A    between atoms: C11_16  and  N3_17 
REMARK    6  A    between atoms: N4_20  and  C14_21 
REMARK    7  A    between atoms: C14_21  and  C15_22 
REMARK    8  A    between atoms: C15_22  and  O2_23 
REMARK    9  A    between atoms: C15_22  and  C16_25 
REMARK   10  A    between atoms: C16_25  and  O3_26 
REMARK   11  A    between atoms: O3_26  and  C17_27 
REMARK   12  A    between atoms: C18_28  and  O4_29 
REMARK   13  A    between atoms: C21_32  and  C22_33 
REMARK   14  A    between atoms: C22_33  and  O5_34 
REMARK   15  A    between atoms: C22_33  and  O6_36 
REMARK   16  A    between atoms: C25_39  and  N5_40 
REMARK   17  A    between atoms: C28_45  and  O9_46 
ROOT
HETATM    1  N3  UNL     1      -2.337   2.223   6.024  1.00  0.00    -0.374 N 
HETATM    2  C12 UNL     1      -3.723   2.309   5.870  1.00  0.00     0.074 C 
HETATM    3  C13 UNL     1      -4.019   2.883   4.504  1.00  0.00     0.139 C 
HETATM    4  N4  UNL     1      -3.676   1.861   3.501  1.00  0.00    -0.284 NA
HETATM    5  C26 UNL     1      -2.448   1.273   3.736  1.00  0.00     0.115 C 
HETATM    6  C27 UNL     1      -1.628   1.978   4.839  1.00  0.00     0.138 C 
ENDROOT
BRANCH   4   7
HETATM    7  C14 UNL     1      -4.031   2.382   2.259  1.00  0.00     0.094 C 
BRANCH   7   8
HETATM    8  C15 UNL     1      -4.860   1.721   1.267  1.00  0.00     0.077 C 
BRANCH   8   9
HETATM    9  O2  UNL     1      -4.901   2.222   0.009  1.00  0.00    -0.362 OA
ATOM     10  H2  UNL     1      -5.698   2.124  -0.499  1.00  0.00     0.217 HD
ENDBRANCH   8   9
BRANCH   8  11
HETATM   11  C16 UNL     1      -4.834   0.168   1.312  1.00  0.00     0.241 C 
BRANCH  11  12
HETATM   12  O3  UNL     1      -6.081  -0.233   1.634  1.00  0.00    -0.339 OA
BRANCH  12  13
HETATM   13  C17 UNL     1      -6.943  -0.176   2.663  1.00  0.00     0.135 A 
HETATM   14  C18 UNL     1      -8.096   0.627   2.589  1.00  0.00     0.105 A 
HETATM   15  C20 UNL     1      -8.977   0.734   3.630  1.00  0.00     0.056 A 
HETATM   16  C21 UNL     1      -8.827   0.080   4.820  1.00  0.00     0.027 A 
HETATM   17  C24 UNL     1      -7.714  -0.727   4.927  1.00  0.00     0.055 A 
HETATM   18  C25 UNL     1      -6.801  -0.841   3.858  1.00  0.00     0.140 A 
BRANCH  14  19
HETATM   19  O4  UNL     1      -8.279   1.317   1.398  1.00  0.00    -0.353 OA
HETATM   20  C19 UNL     1      -8.441   2.713   1.340  1.00  0.00     0.210 C 
ENDBRANCH  14  19
BRANCH  16  21
HETATM   21  C22 UNL     1      -9.758   0.291   5.928  1.00  0.00     0.188 C 
BRANCH  21  22
HETATM   22  O5  UNL     1      -9.277   0.635   7.089  1.00  0.00    -0.340 OA
ATOM     23  H5  UNL     1      -9.745   1.286   7.599  1.00  0.00     0.220 HD
ENDBRANCH  21  22
BRANCH  21  24
HETATM   24  O6  UNL     1     -11.049   0.176   5.922  1.00  0.00    -0.335 OA
HETATM   25  C23 UNL     1     -12.329   0.289   5.811  1.00  0.00     0.212 C 
ENDBRANCH  21  24
ENDBRANCH  16  21
BRANCH  18  26
HETATM   26  N5  UNL     1      -5.696  -1.722   4.047  1.00  0.00    -0.113 N 
HETATM   27  O7  UNL     1      -4.612  -1.333   4.504  1.00  0.00    -0.532 OA
HETATM   28  O8  UNL     1      -5.791  -3.075   3.743  1.00  0.00    -0.532 OA
ENDBRANCH  18  26
ENDBRANCH  12  13
ENDBRANCH  11  12
ENDBRANCH   8  11
ENDBRANCH   7   8
ENDBRANCH   4   7
BRANCH   1  29
HETATM   29  C11 UNL     1      -1.788   1.697   7.206  1.00  0.00     0.258 C 
BRANCH  29  30
HETATM   30  N2  UNL     1      -2.718   0.876   7.985  1.00  0.00    -0.290 N 
HETATM   31  C10 UNL     1      -3.090  -0.354   7.637  1.00  0.00     0.153 A 
HETATM   32  C8  UNL     1      -3.932  -0.811   8.627  1.00  0.00     0.012 A 
HETATM   33  C7  UNL     1      -4.057   0.200   9.607  1.00  0.00     0.073 A 
HETATM   34  C9  UNL     1      -4.620  -2.115   8.610  1.00  0.00     0.054 C 
HETATM   35  C28 UNL     1      -3.284   1.227   9.162  1.00  0.00     0.165 A 
BRANCH  31  36
HETATM   36  O1  UNL     1      -2.746  -1.124   6.518  1.00  0.00    -0.345 OA
ATOM     37  H1  UNL     1      -1.859  -1.176   6.181  1.00  0.00     0.219 HD
ENDBRANCH  31  36
BRANCH  33  38
HETATM   38  C6  UNL     1      -4.876   0.020  10.761  1.00  0.00    -0.080 C 
BRANCH  38  39
HETATM   39  C5  UNL     1      -5.564  -0.146  11.730  1.00  0.00     0.103 A 
HETATM   40  C3  UNL     1      -6.995  -0.198  11.460  1.00  0.00     0.042 A 
HETATM   41  N1  UNL     1      -7.581  -0.478  12.602  1.00  0.00    -0.344 N 
HETATM   42  C4  UNL     1      -7.650  -0.006  10.147  1.00  0.00     0.071 C 
HETATM   43  C2  UNL     1      -6.697  -0.614  13.563  1.00  0.00     0.096 A 
ATOM     44  H1  UNL     1      -8.588  -0.578  12.725  1.00  0.00     0.167 HD
HETATM   45  C1  UNL     1      -6.867  -0.973  14.852  1.00  0.00     0.063 C 
HETATM   46  N6  UNL     1      -5.453  -0.415  13.058  1.00  0.00    -0.335 N 
ATOM     47  H6  UNL     1      -4.582  -0.460  13.586  1.00  0.00     0.168 HD
ENDBRANCH  38  39
ENDBRANCH  33  38
BRANCH  35  48
HETATM   48  O9  UNL     1      -3.110   2.428   9.795  1.00  0.00    -0.345 OA
ATOM     49  H9  UNL     1      -3.702   3.170   9.746  1.00  0.00     0.219 HD
ENDBRANCH  35  48
ENDBRANCH  29  30
ENDBRANCH   1  29
TORSDOF 17
ENDMDL
MODEL 2
REMARK VINA RESULT: -7.182238173      1.730      3.253
REMARK  17 active torsions:
REMARK  status: ('A' for Active; 'I' for Inactive)
REMARK    1  A    between atoms: C5_7  and  C6_8 
REMARK    2  A    between atoms: C6_8  and  C7_9 
REMARK    3  A    between atoms: C10_12  and  O1_13 
REMARK    4  A    between atoms: N2_15  and  C11_16 
REMARK    5  A    between atoms: C11_16  and  N3_17 
REMARK    6  A    between atoms: N4_20  and  C14_21 
REMARK    7  A    between atoms: C14_21  and  C15_22 
REMARK    8  A    between atoms: C15_22  and  O2_23 
REMARK    9  A    between atoms: C15_22  and  C16_25 
REMARK   10  A    between atoms: C16_25  and  O3_26 
REMARK   11  A    between atoms: O3_26  and  C17_27 
REMARK   12  A    between atoms: C18_28  and  O4_29 
REMARK   13  A    between atoms: C21_32  and  C22_33 
REMARK   14  A    between atoms: C22_33  and  O5_34 
REMARK   15  A    between atoms: C22_33  and  O6_36 
REMARK   16  A    between atoms: C25_39  and  N5_40 
REMARK   17  A    between atoms: C28_45  and  O9_46 
ROOT
HETATM    1  N3  UNL     1      -2.563   2.261   6.120  1.00  0.00    -0.374 N 
HETATM    2  C12 UNL     1      -2.673   3.621   6.424  1.00  0.00     0.074 C 
HETATM    3  C13 UNL     1      -3.400   4.308   5.292  1.00  0.00     0.139 C 
HETATM    4  N4  UNL     1      -4.810   3.883   5.337  1.00  0.00    -0.284 NA
HETATM    5  C26 UNL     1      -4.950   2.518   5.501  1.00  0.00     0.115 C 
HETATM    6  C27 UNL     1      -3.623   1.741   5.364  1.00  0.00     0.138 C 
ENDROOT
BRANCH   4   7
HETATM    7  C14 UNL     1      -5.475   4.588   4.337  1.00  0.00     0.094 C 
BRANCH   7   8
HETATM    8  C15 UNL     1      -5.915   4.044   3.065  1.00  0.00     0.077 C 
BRANCH   8   9
HETATM    9  O2  UNL     1      -4.989   3.549   2.208  1.00  0.00    -0.362 OA
ATOM     10  H2  UNL     1      -4.714   2.645   2.300  1.00  0.00     0.217 HD
ENDBRANCH   8   9
BRANCH   8  11
HETATM   11  C16 UNL     1      -7.216   3.197   3.122  1.00  0.00     0.241 C 
BRANCH  11  12
HETATM   12  O3  UNL     1      -6.927   2.000   2.572  1.00  0.00    -0.339 OA
BRANCH  12  13
HETATM   13  C17 UNL     1      -6.823   0.707   2.925  1.00  0.00     0.135 A 
HETATM   14  C18 UNL     1      -5.612   0.012   2.750  1.00  0.00     0.105 A 
HETATM   15  C20 UNL     1      -5.481  -1.313   3.068  1.00  0.00     0.056 A 
HETATM   16  C21 UNL     1      -6.494  -2.073   3.579  1.00  0.00     0.027 A 
HETATM   17  C24 UNL     1      -7.695  -1.422   3.776  1.00  0.00     0.055 A 
HETATM   18  C25 UNL     1      -7.837  -0.058   3.450  1.00  0.00     0.140 A 
BRANCH  14  19
HETATM   19  O4  UNL     1      -4.559   0.748   2.222  1.00  0.00    -0.353 OA
HETATM   20  C19 UNL     1      -3.909   0.400   1.025  1.00  0.00     0.210 C 
ENDBRANCH  14  19
BRANCH  16  21
HETATM   21  C22 UNL     1      -6.322  -3.504   3.829  1.00  0.00     0.188 C 
BRANCH  21  22
HETATM   22  O5  UNL     1      -6.918  -4.350   3.038  1.00  0.00    -0.340 OA
ATOM     23  H5  UNL     1      -6.531  -4.528   2.189  1.00  0.00     0.220 HD
ENDBRANCH  21  22
BRANCH  21  24
HETATM   24  O6  UNL     1      -5.635  -4.076   4.767  1.00  0.00    -0.335 OA
HETATM   25  C23 UNL     1      -4.752  -4.557   5.575  1.00  0.00     0.212 C 
ENDBRANCH  21  24
ENDBRANCH  16  21
BRANCH  18  26
HETATM   26  N5  UNL     1      -9.104   0.538   3.716  1.00  0.00    -0.113 N 
HETATM   27  O7  UNL     1     -10.018   0.545   2.880  1.00  0.00    -0.532 OA
HETATM   28  O8  UNL     1      -9.382   1.127   4.943  1.00  0.00    -0.532 OA
ENDBRANCH  18  26
ENDBRANCH  12  13
ENDBRANCH  11  12
ENDBRANCH   8  11
ENDBRANCH   7   8
ENDBRANCH   4   7
BRANCH   1  29
HETATM   29  C11 UNL     1      -1.942   1.383   7.023  1.00  0.00     0.258 C 
BRANCH  29  30
HETATM   30  N2  UNL     1      -2.877   0.615   7.850  1.00  0.00    -0.290 N 
HETATM   31  C10 UNL     1      -3.315  -0.601   7.535  1.00  0.00     0.153 A 
HETATM   32  C8  UNL     1      -4.138  -1.007   8.564  1.00  0.00     0.012 A 
HETATM   33  C7  UNL     1      -4.180   0.022   9.532  1.00  0.00     0.073 A 
HETATM   34  C9  UNL     1      -4.883  -2.279   8.594  1.00  0.00     0.054 C 
HETATM   35  C28 UNL     1      -3.381   1.007   9.042  1.00  0.00     0.165 A 
BRANCH  31  36
HETATM   36  O1  UNL     1      -3.050  -1.402   6.416  1.00  0.00    -0.345 OA
ATOM     37  H1  UNL     1      -2.640  -1.065   5.628  1.00  0.00     0.219 HD
ENDBRANCH  31  36
BRANCH  33  38
HETATM   38  C6  UNL     1      -4.961  -0.105  10.719  1.00  0.00    -0.080 C 
BRANCH  38  39
HETATM   39  C5  UNL     1      -5.620  -0.227  11.715  1.00  0.00     0.103 A 
HETATM   40  C3  UNL     1      -7.061  -0.204  11.501  1.00  0.00     0.042 A 
HETATM   41  N1  UNL     1      -7.616  -0.444  12.667  1.00  0.00    -0.344 N 
HETATM   42  C4  UNL     1      -7.755   0.013  10.212  1.00  0.00     0.071 C 
HETATM   43  C2  UNL     1      -6.704  -0.619  13.595  1.00  0.00     0.096 A 
ATOM     44  H1  UNL     1      -8.622  -0.488  12.830  1.00  0.00     0.167 HD
HETATM   45  C1  UNL     1      -6.843  -0.959  14.892  1.00  0.00     0.063 C 
HETATM   46  N6  UNL     1      -5.472  -0.491  13.041  1.00  0.00    -0.335 N 
ATOM     47  H6  UNL     1      -4.584  -0.579  13.535  1.00  0.00     0.168 HD
ENDBRANCH  38  39
ENDBRANCH  33  38
BRANCH  35  48
HETATM   48  O9  UNL     1      -3.131   2.208   9.649  1.00  0.00    -0.345 OA
ATOM     49  H9  UNL     1      -3.768   2.736  10.117  1.00  0.00     0.219 HD
ENDBRANCH  35  48
ENDBRANCH  29  30
ENDBRANCH   1  29
TORSDOF 17
ENDMDL
MODEL 3
REMARK VINA RESULT: -6.906911602      1.823      3.542
REMARK  17 active torsions:
REMARK  status: ('A' for Active; 'I' for Inactive)
REMARK    1  A    between atoms: C5_7  and  C6_8 
REMARK    2  A    between atoms: C6_8  and  C7_9 
REMARK    3  A    between atoms: C10_12  and  O1_13 
REMARK    4  A    between atoms: N2_15  and  C11_16 
REMARK    5  A    between atoms: C11_16  and  N3_17 
REMARK    6  A    between atoms: N4_20  and  C14_21 
REMARK    7  A    between atoms: C14_21  and  C15_22 
REMARK    8  A    between atoms: C15_22  and  O2_23 
REMARK    9  A    between atoms: C15_22  and  C16_25 
REMARK   10  A    between atoms: C16_25  and  O3_26 
REMARK   11  A    between atoms: O3_26  and  C17_27 
REMARK   12  A    between atoms: C18_28  and  O4_29 
REMARK   13  A    between atoms: C21_32  and  C22_33 
REMARK   14  A    between atoms: C22_33  and  O5_34 
REMARK   15  A    between atoms: C22_33  and  O6_36 
REMARK   16  A    between atoms: C25_39  and  N5_40 
REMARK   17  A    between atoms: C28_45  and  O9_46 
ROOT
HETATM    1  N3  UNL     1      -4.063   0.650   5.126  1.00  0.00    -0.374 N 
HETATM    2  C12 UNL     1      -3.284   1.665   4.563  1.00  0.00     0.074 C 
HETATM    3  C13 UNL     1      -4.174   2.526   3.696  1.00  0.00     0.139 C 
HETATM    4  N4  UNL     1      -5.061   3.296   4.584  1.00  0.00    -0.284 NA
HETATM    5  C26 UNL     1      -5.631   2.518   5.574  1.00  0.00     0.115 C 
HETATM    6  C27 UNL     1      -5.395   1.004   5.381  1.00  0.00     0.138 C 
ENDROOT
BRANCH   4   7
HETATM    7  C14 UNL     1      -5.814   4.137   3.769  1.00  0.00     0.094 C 
BRANCH   7   8
HETATM    8  C15 UNL     1      -7.005   3.759   3.029  1.00  0.00     0.077 C 
BRANCH   8   9
HETATM    9  O2  UNL     1      -8.058   4.611   3.003  1.00  0.00    -0.362 OA
ATOM     10  H2  UNL     1      -8.934   4.257   2.898  1.00  0.00     0.217 HD
ENDBRANCH   8   9
BRANCH   8  11
HETATM   11  C16 UNL     1      -6.744   3.060   1.666  1.00  0.00     0.241 C 
BRANCH  11  12
HETATM   12  O3  UNL     1      -7.322   1.844   1.734  1.00  0.00    -0.339 OA
BRANCH  12  13
HETATM   13  C17 UNL     1      -7.125   0.645   2.309  1.00  0.00     0.135 A 
HETATM   14  C18 UNL     1      -6.014  -0.144   1.958  1.00  0.00     0.105 A 
HETATM   15  C20 UNL     1      -5.800  -1.382   2.499  1.00  0.00     0.056 A 
HETATM   16  C21 UNL     1      -6.629  -1.960   3.419  1.00  0.00     0.027 A 
HETATM   17  C24 UNL     1      -7.724  -1.211   3.797  1.00  0.00     0.055 A 
HETATM   18  C25 UNL     1      -7.950   0.065   3.243  1.00  0.00     0.140 A 
BRANCH  14  19
HETATM   19  O4  UNL     1      -5.152   0.405   1.017  1.00  0.00    -0.353 OA
HETATM   20  C19 UNL     1      -3.758   0.232   1.066  1.00  0.00     0.210 C 
ENDBRANCH  14  19
BRANCH  16  21
HETATM   21  C22 UNL     1      -6.395  -3.319   3.907  1.00  0.00     0.188 C 
BRANCH  21  22
HETATM   22  O5  UNL     1      -7.142  -4.283   3.448  1.00  0.00    -0.340 OA
ATOM     23  H5  UNL     1      -6.927  -4.660   2.603  1.00  0.00     0.220 HD
ENDBRANCH  21  22
BRANCH  21  24
HETATM   24  O6  UNL     1      -5.517  -3.719   4.772  1.00  0.00    -0.335 OA
HETATM   25  C23 UNL     1      -4.782  -4.327   5.640  1.00  0.00     0.212 C 
ENDBRANCH  21  24
ENDBRANCH  16  21
BRANCH  18  26
HETATM   26  N5  UNL     1      -9.090   0.779   3.716  1.00  0.00    -0.113 N 
HETATM   27  O7  UNL     1      -9.068   1.436   4.765  1.00  0.00    -0.532 OA
HETATM   28  O8  UNL     1     -10.284   0.787   3.004  1.00  0.00    -0.532 OA
ENDBRANCH  18  26
ENDBRANCH  12  13
ENDBRANCH  11  12
ENDBRANCH   8  11
ENDBRANCH   7   8
ENDBRANCH   4   7
BRANCH   1  29
HETATM   29  C11 UNL     1      -3.481  -0.285   5.999  1.00  0.00     0.258 C 
BRANCH  29  30
HETATM   30  N2  UNL     1      -3.659   0.031   7.419  1.00  0.00    -0.290 N 
HETATM   31  C10 UNL     1      -2.907   0.909   8.080  1.00  0.00     0.153 A 
HETATM   32  C8  UNL     1      -3.397   0.962   9.368  1.00  0.00     0.012 A 
HETATM   33  C7  UNL     1      -4.492   0.075   9.464  1.00  0.00     0.073 A 
HETATM   34  C9  UNL     1      -2.817   1.771  10.455  1.00  0.00     0.054 C 
HETATM   35  C28 UNL     1      -4.614  -0.478   8.227  1.00  0.00     0.165 A 
BRANCH  31  36
HETATM   36  O1  UNL     1      -1.821   1.683   7.650  1.00  0.00    -0.345 OA
ATOM     37  H1  UNL     1      -0.970   1.309   7.451  1.00  0.00     0.219 HD
ENDBRANCH  31  36
BRANCH  33  38
HETATM   38  C6  UNL     1      -5.207  -0.094  10.687  1.00  0.00    -0.080 C 
BRANCH  38  39
HETATM   39  C5  UNL     1      -5.813  -0.222  11.715  1.00  0.00     0.103 A 
HETATM   40  C3  UNL     1      -7.263  -0.185  11.578  1.00  0.00     0.042 A 
HETATM   41  N1  UNL     1      -7.757  -0.434  12.770  1.00  0.00    -0.344 N 
HETATM   42  C4  UNL     1      -8.023   0.054  10.330  1.00  0.00     0.071 C 
HETATM   43  C2  UNL     1      -6.799  -0.628  13.645  1.00  0.00     0.096 A 
ATOM     44  H1  UNL     1      -8.754  -0.472  12.985  1.00  0.00     0.167 HD
HETATM   45  C1  UNL     1      -6.872  -0.983  14.944  1.00  0.00     0.063 C 
HETATM   46  N6  UNL     1      -5.597  -0.504  13.028  1.00  0.00    -0.335 N 
ATOM     47  H6  UNL     1      -4.685  -0.605  13.474  1.00  0.00     0.168 HD
ENDBRANCH  38  39
ENDBRANCH  33  38
BRANCH  35  48
HETATM   48  O9  UNL     1      -5.548  -1.409   7.858  1.00  0.00    -0.345 OA
ATOM     49  H9  UNL     1      -6.189  -1.306   7.164  1.00  0.00     0.219 HD
ENDBRANCH  35  48
ENDBRANCH  29  30
ENDBRANCH   1  29
TORSDOF 17
ENDMDL
MODEL 4
REMARK VINA RESULT: -6.871296026      1.545      3.039
REMARK  17 active torsions:
REMARK  status: ('A' for Active; 'I' for Inactive)
REMARK    1  A    between atoms: C5_7  and  C6_8 
REMARK    2  A    between atoms: C6_8  and  C7_9 
REMARK    3  A    between atoms: C10_12  and  O1_13 
REMARK    4  A    between atoms: N2_15  and  C11_16 
REMARK    5  A    between atoms: C11_16  and  N3_17 
REMARK    6  A    between atoms: N4_20  and  C14_21 
REMARK    7  A    between atoms: C14_21  and  C15_22 
REMARK    8  A    between atoms: C15_22  and  O2_23 
REMARK    9  A    between atoms: C15_22  and  C16_25 
REMARK   10  A    between atoms: C16_25  and  O3_26 
REMARK   11  A    between atoms: O3_26  and  C17_27 
REMARK   12  A    between atoms: C18_28  and  O4_29 
REMARK   13  A    between atoms: C21_32  and  C22_33 
REMARK   14  A    between atoms: C22_33  and  O5_34 
REMARK   15  A    between atoms: C22_33  and  O6_36 
REMARK   16  A    between atoms: C25_39  and  N5_40 
REMARK   17  A    between atoms: C28_45  and  O9_46 
ROOT
HETATM    1  N3  UNL     1      -2.318   2.308   6.044  1.00  0.00    -0.374 N 
HETATM    2  C12 UNL     1      -3.448   3.097   6.277  1.00  0.00     0.074 C 
HETATM    3  C13 UNL     1      -3.743   3.894   5.028  1.00  0.00     0.139 C 
HETATM    4  N4  UNL     1      -4.243   2.961   4.004  1.00  0.00    -0.284 NA
HETATM    5  C26 UNL     1      -3.480   1.813   3.909  1.00  0.00     0.115 C 
HETATM    6  C27 UNL     1      -2.165   1.878   4.718  1.00  0.00     0.138 C 
ENDROOT
BRANCH   4   7
HETATM    7  C14 UNL     1      -4.582   3.728   2.892  1.00  0.00     0.094 C 
BRANCH   7   8
HETATM    8  C15 UNL     1      -5.930   4.054   2.465  1.00  0.00     0.077 C 
BRANCH   8   9
HETATM    9  O2  UNL     1      -6.164   5.264   1.901  1.00  0.00    -0.362 OA
ATOM     10  H2  UNL     1      -6.680   5.308   1.105  1.00  0.00     0.217 HD
ENDBRANCH   8   9
BRANCH   8  11
HETATM   11  C16 UNL     1      -6.707   2.895   1.782  1.00  0.00     0.241 C 
BRANCH  11  12
HETATM   12  O3  UNL     1      -7.058   2.033   2.758  1.00  0.00    -0.339 OA
BRANCH  12  13
HETATM   13  C17 UNL     1      -6.844   0.758   3.126  1.00  0.00     0.135 A 
HETATM   14  C18 UNL     1      -7.209   0.312   4.410  1.00  0.00     0.105 A 
HETATM   15  C20 UNL     1      -6.976  -0.970   4.829  1.00  0.00     0.056 A 
HETATM   16  C21 UNL     1      -6.379  -1.923   4.054  1.00  0.00     0.027 A 
HETATM   17  C24 UNL     1      -6.017  -1.526   2.783  1.00  0.00     0.055 A 
HETATM   18  C25 UNL     1      -6.253  -0.207   2.346  1.00  0.00     0.140 A 
BRANCH  14  19
HETATM   19  O4  UNL     1      -7.811   1.255   5.233  1.00  0.00    -0.353 OA
HETATM   20  C19 UNL     1      -8.220   0.972   6.547  1.00  0.00     0.210 C 
ENDBRANCH  14  19
BRANCH  16  21
HETATM   21  C22 UNL     1      -6.084  -3.256   4.578  1.00  0.00     0.188 C 
BRANCH  21  22
HETATM   22  O5  UNL     1      -6.932  -4.218   4.349  1.00  0.00    -0.340 OA
ATOM     23  H5  UNL     1      -6.779  -4.791   3.607  1.00  0.00     0.220 HD
ENDBRANCH  21  22
BRANCH  21  24
HETATM   24  O6  UNL     1      -5.057  -3.634   5.272  1.00  0.00    -0.335 OA
HETATM   25  C23 UNL     1      -4.156  -4.231   5.977  1.00  0.00     0.212 C 
ENDBRANCH  21  24
ENDBRANCH  16  21
BRANCH  18  26
HETATM   26  N5  UNL     1      -5.874   0.105   1.007  1.00  0.00    -0.113 N 
HETATM   27  O7  UNL     1      -6.676   0.057   0.065  1.00  0.00    -0.532 OA
HETATM   28  O8  UNL     1      -4.577   0.500   0.697  1.00  0.00    -0.532 OA
ENDBRANCH  18  26
ENDBRANCH  12  13
ENDBRANCH  11  12
ENDBRANCH   8  11
ENDBRANCH   7   8
ENDBRANCH   4   7
BRANCH   1  29
HETATM   29  C11 UNL     1      -1.839   1.446   7.044  1.00  0.00     0.258 C 
BRANCH  29  30
HETATM   30  N2  UNL     1      -2.890   0.748   7.789  1.00  0.00    -0.290 N 
HETATM   31  C10 UNL     1      -3.553  -0.306   7.319  1.00  0.00     0.153 A 
HETATM   32  C8  UNL     1      -4.424  -0.703   8.311  1.00  0.00     0.012 A 
HETATM   33  C7  UNL     1      -4.260   0.159   9.418  1.00  0.00     0.073 A 
HETATM   34  C9  UNL     1      -5.394  -1.806   8.186  1.00  0.00     0.054 C 
HETATM   35  C28 UNL     1      -3.296   1.043   9.044  1.00  0.00     0.165 A 
BRANCH  31  36
HETATM   36  O1  UNL     1      -3.458  -0.965   6.086  1.00  0.00    -0.345 OA
ATOM     37  H1  UNL     1      -2.989  -0.601   5.343  1.00  0.00     0.219 HD
ENDBRANCH  31  36
BRANCH  33  38
HETATM   38  C6  UNL     1      -5.035   0.001  10.605  1.00  0.00    -0.080 C 
BRANCH  38  39
HETATM   39  C5  UNL     1      -5.680  -0.144  11.607  1.00  0.00     0.103 A 
HETATM   40  C3  UNL     1      -7.123  -0.130  11.411  1.00  0.00     0.042 A 
HETATM   41  N1  UNL     1      -7.662  -0.395  12.580  1.00  0.00    -0.344 N 
HETATM   42  C4  UNL     1      -7.836   0.104  10.135  1.00  0.00     0.071 C 
HETATM   43  C2  UNL     1      -6.737  -0.579  13.493  1.00  0.00     0.096 A 
ATOM     44  H1  UNL     1      -8.665  -0.451  12.755  1.00  0.00     0.167 HD
HETATM   45  C1  UNL     1      -6.856  -0.943  14.786  1.00  0.00     0.063 C 
HETATM   46  N6  UNL     1      -5.513  -0.430  12.926  1.00  0.00    -0.335 N 
ATOM     47  H6  UNL     1      -4.618  -0.519  13.408  1.00  0.00     0.168 HD
ENDBRANCH  38  39
ENDBRANCH  33  38
BRANCH  35  48
HETATM   48  O9  UNL     1      -2.816   2.073   9.808  1.00  0.00    -0.345 OA
ATOM     49  H9  UNL     1      -3.056   2.987   9.718  1.00  0.00     0.219 HD
ENDBRANCH  35  48
ENDBRANCH  29  30
ENDBRANCH   1  29
TORSDOF 17
ENDMDL
MODEL 5
REMARK VINA RESULT: -6.600676140      2.117      3.627
REMARK  17 active torsions:
REMARK  status: ('A' for Active; 'I' for Inactive)
REMARK    1  A    between atoms: C5_7  and  C6_8 
REMARK    2  A    between atoms: C6_8  and  C7_9 
REMARK    3  A    between atoms: C10_12  and  O1_13 
REMARK    4  A    between atoms: N2_15  and  C11_16 
REMARK    5  A    between atoms: C11_16  and  N3_17 
REMARK    6  A    between atoms: N4_20  and  C14_21 
REMARK    7  A    between atoms: C14_21  and  C15_22 
REMARK    8  A    between atoms: C15_22  and  O2_23 
REMARK    9  A    between atoms: C15_22  and  C16_25 
REMARK   10  A    between atoms: C16_25  and  O3_26 
REMARK   11  A    between atoms: O3_26  and  C17_27 
REMARK   12  A    between atoms: C18_28  and  O4_29 
REMARK   13  A    between atoms: C21_32  and  C22_33 
REMARK   14  A    between atoms: C22_33  and  O5_34 
REMARK   15  A    between atoms: C22_33  and  O6_36 
REMARK   16  A    between atoms: C25_39  and  N5_40 
REMARK   17  A    between atoms: C28_45  and  O9_46 
ROOT
HETATM    1  N3  UNL     1      -4.033   2.049   3.357  1.00  0.00    -0.374 N 
HETATM    2  C12 UNL     1      -3.804   0.820   2.732  1.00  0.00     0.074 C 
HETATM    3  C13 UNL     1      -5.122   0.290   2.219  1.00  0.00     0.139 C 
HETATM    4  N4  UNL     1      -5.532   1.127   1.078  1.00  0.00    -0.284 NA
HETATM    5  C26 UNL     1      -5.400   2.478   1.333  1.00  0.00     0.115 C 
HETATM    6  C27 UNL     1      -5.084   2.799   2.810  1.00  0.00     0.138 C 
ENDROOT
BRANCH   4   7
HETATM    7  C14 UNL     1      -6.706   0.572   0.574  1.00  0.00     0.094 C 
BRANCH   7   8
HETATM    8  C15 UNL     1      -7.873   0.203   1.355  1.00  0.00     0.077 C 
BRANCH   8   9
HETATM    9  O2  UNL     1      -9.003   0.941   1.232  1.00  0.00    -0.362 OA
ATOM     10  H2  UNL     1      -9.409   1.021   0.378  1.00  0.00     0.217 HD
ENDBRANCH   8   9
BRANCH   8  11
HETATM   11  C16 UNL     1      -8.142  -1.323   1.462  1.00  0.00     0.241 C 
BRANCH  11  12
HETATM   12  O3  UNL     1      -8.516  -1.565   2.735  1.00  0.00    -0.339 OA
BRANCH  12  13
HETATM   13  C17 UNL     1      -8.212  -1.175   3.985  1.00  0.00     0.135 A 
HETATM   14  C18 UNL     1      -8.992  -0.207   4.643  1.00  0.00     0.105 A 
HETATM   15  C20 UNL     1      -8.692   0.236   5.903  1.00  0.00     0.056 A 
HETATM   16  C21 UNL     1      -7.627  -0.213   6.630  1.00  0.00     0.027 A 
HETATM   17  C24 UNL     1      -6.845  -1.173   6.022  1.00  0.00     0.055 A 
HETATM   18  C25 UNL     1      -7.148  -1.633   4.725  1.00  0.00     0.140 A 
BRANCH  14  19
HETATM   19  O4  UNL     1     -10.079   0.284   3.932  1.00  0.00    -0.353 OA
HETATM   20  C19 UNL     1     -10.717   1.495   4.252  1.00  0.00     0.210 C 
ENDBRANCH  14  19
BRANCH  16  21
HETATM   21  C22 UNL     1      -7.307   0.350   7.941  1.00  0.00     0.188 C 
BRANCH  21  22
HETATM   22  O5  UNL     1      -6.113   0.833   8.137  1.00  0.00    -0.340 OA
ATOM     23  H5  UNL     1      -5.720   1.365   7.455  1.00  0.00     0.220 HD
ENDBRANCH  21  22
BRANCH  21  24
HETATM   24  O6  UNL     1      -8.073   0.440   8.983  1.00  0.00    -0.335 OA
HETATM   25  C23 UNL     1      -8.631   0.450  10.146  1.00  0.00     0.212 C 
ENDBRANCH  21  24
ENDBRANCH  16  21
BRANCH  18  26
HETATM   26  N5  UNL     1      -6.303  -2.648   4.188  1.00  0.00    -0.113 N 
HETATM   27  O7  UNL     1      -5.386  -2.393   3.395  1.00  0.00    -0.532 OA
HETATM   28  O8  UNL     1      -6.457  -3.982   4.549  1.00  0.00    -0.532 OA
ENDBRANCH  18  26
ENDBRANCH  12  13
ENDBRANCH  11  12
ENDBRANCH   8  11
ENDBRANCH   7   8
ENDBRANCH   4   7
BRANCH   1  29
HETATM   29  C11 UNL     1      -2.962   2.774   3.906  1.00  0.00     0.258 C 
BRANCH  29  30
HETATM   30  N2  UNL     1      -2.528   2.296   5.221  1.00  0.00    -0.290 N 
HETATM   31  C10 UNL     1      -1.264   2.005   5.522  1.00  0.00     0.153 A 
HETATM   32  C8  UNL     1      -1.246   1.631   6.848  1.00  0.00     0.012 A 
HETATM   33  C7  UNL     1      -2.564   1.711   7.351  1.00  0.00     0.073 A 
HETATM   34  C9  UNL     1      -0.049   1.172   7.576  1.00  0.00     0.054 C 
HETATM   35  C28 UNL     1      -3.322   2.129   6.302  1.00  0.00     0.165 A 
BRANCH  31  36
HETATM   36  O1  UNL     1      -0.108   2.046   4.730  1.00  0.00    -0.345 OA
ATOM     37  H1  UNL     1       0.643   1.485   4.886  1.00  0.00     0.219 HD
ENDBRANCH  31  36
BRANCH  33  38
HETATM   38  C6  UNL     1      -2.865   1.376   8.705  1.00  0.00    -0.080 C 
BRANCH  38  39
HETATM   39  C5  UNL     1      -3.131   1.088   9.839  1.00  0.00     0.103 A 
HETATM   40  C3  UNL     1      -2.343   1.785  10.847  1.00  0.00     0.042 A 
HETATM   41  N1  UNL     1      -2.828   1.425  12.014  1.00  0.00    -0.344 N 
HETATM   42  C4  UNL     1      -1.238   2.736  10.596  1.00  0.00     0.071 C 
HETATM   43  C2  UNL     1      -3.828   0.588  11.870  1.00  0.00     0.096 A 
ATOM     44  H1  UNL     1      -2.473   1.754  12.912  1.00  0.00     0.167 HD
HETATM   45  C1  UNL     1      -4.643   0.046  12.798  1.00  0.00     0.063 C 
HETATM   46  N6  UNL     1      -4.037   0.363  10.548  1.00  0.00    -0.335 N 
ATOM     47  H6  UNL     1      -4.752  -0.248  10.154  1.00  0.00     0.168 HD
ENDBRANCH  38  39
ENDBRANCH  33  38
BRANCH  35  48
HETATM   48  O9  UNL     1      -4.675   2.339   6.328  1.00  0.00    -0.345 OA
ATOM     49  H9  UNL     1      -5.111   3.163   6.146  1.00  0.00     0.219 HD
ENDBRANCH  35  48
ENDBRANCH  29  30
ENDBRANCH   1  29
TORSDOF 17
ENDMDL
