MODEL 1
REMARK VINA RESULT: -7.561894566      0.000      0.000
REMARK  12 active torsions:
REMARK  status: ('A' for Active; 'I' for Inactive)
REMARK    1  A    between atoms: O1_2  and  N1_3 
REMARK    2  A    between atoms: C2_5  and  C3_6 
REMARK    3  A    between atoms: C4_7  and  S1_8 
REMARK    4  A    between atoms: S1_8  and  C5_9 
REMARK    5  A    between atoms: C5_9  and  C6_10 
REMARK       I    between atoms: N2_16  and  C10_17 
REMARK       I    between atoms: C10_17  and  N3_19 
REMARK    6  A    between atoms: N3_19  and  N4_21 
REMARK    7  A    between atoms: N4_21  and  C11_23 
REMARK    8  A    between atoms: C12_27  and  C13_28 
REMARK    9  A    between atoms: C14_31  and  C15_32 
REMARK   10  A    between atoms: C15_32  and  S3_33 
REMARK   11  A    between atoms: S3_33  and  C16_34 
REMARK   12  A    between atoms: C17_37  and  O5_38 
ROOT
HETATM    1  C3  UNL     1      -7.012   0.535   5.369  1.00  0.00     0.024 C 
HETATM    2  C4  UNL     1      -6.350  -0.370   6.122  1.00  0.00     0.090 C 
HETATM    3  N2  UNL     1      -6.248  -1.600   5.359  1.00  0.00    -0.272 N 
HETATM    4  C10 UNL     1      -5.260  -2.561   5.534  1.00  0.00     0.343 C 
HETATM    5  O2  UNL     1      -4.186  -2.244   6.193  1.00  0.00    -0.245 OA
HETATM    6  N3  UNL     1      -5.278  -3.887   5.083  1.00  0.00    -0.250 N 
ATOM      7  H3  UNL     1      -6.093  -4.226   4.571  1.00  0.00     0.192 HD
HETATM    8  C12 UNL     1      -7.334  -1.522   4.332  1.00  0.00     0.230 C 
HETATM    9  C14 UNL     1      -7.180  -0.052   4.045  1.00  0.00    -0.004 C 
ENDROOT
BRANCH   9  10
HETATM   10  C15 UNL     1      -7.125   0.586   2.904  1.00  0.00     0.064 C 
BRANCH  10  11
HETATM   11  S3  UNL     1      -8.475   0.893   1.803  1.00  0.00    -0.064 SA
BRANCH  11  12
HETATM   12  C16 UNL     1      -9.798   1.783   2.597  1.00  0.00     0.168 A 
HETATM   13  N6  UNL     1     -10.476   1.309   3.659  1.00  0.00    -0.301 N 
HETATM   14  C17 UNL     1     -11.475   2.015   4.240  1.00  0.00     0.239 A 
ATOM     15  H6  UNL     1     -10.231   0.394   4.036  1.00  0.00     0.171 HD
HETATM   16  N7  UNL     1     -11.775   3.218   3.720  1.00  0.00    -0.155 N 
HETATM   17  C19 UNL     1     -11.124   3.730   2.660  1.00  0.00     0.682 A 
ATOM     18  H7  UNL     1     -12.524   3.764   4.146  1.00  0.00     0.188 HD
HETATM   19  N8  UNL     1     -11.438   4.891   2.183  1.00  0.00    -0.234 N 
HETATM   20  N9  UNL     1     -10.134   2.988   2.115  1.00  0.00    -0.166 N 
ATOM     21  H82 UNL     1     -12.186   5.451   2.595  1.00  0.00     0.174 HD
ATOM     22  H81 UNL     1     -10.946   5.280   1.379  1.00  0.00     0.174 HD
HETATM   23  C20 UNL     1      -9.407   3.500   0.973  1.00  0.00     0.177 C 
BRANCH  14  24
HETATM   24  O5  UNL     1     -12.177   1.528   5.336  1.00  0.00    -0.327 OA
HETATM   25  C18 UNL     1     -12.140   0.178   5.711  1.00  0.00     0.213 C 
ENDBRANCH  14  24
ENDBRANCH  11  12
ENDBRANCH  10  11
ENDBRANCH   9  10
BRANCH   1  26
HETATM   26  C2  UNL     1      -7.453   1.874   5.821  1.00  0.00     0.128 C 
HETATM   27  N1  UNL     1      -6.802   2.901   5.934  1.00  0.00    -0.278 N 
ATOM     28  H1  UNL     1      -7.488   3.574   6.276  1.00  0.00     0.193 HD
BRANCH  27  29
HETATM   29  O1  UNL     1      -5.734   3.591   5.858  1.00  0.00    -0.286 OA
HETATM   30  C1  UNL     1      -4.393   3.186   5.660  1.00  0.00     0.237 C 
ENDBRANCH  27  29
ENDBRANCH   1  26
BRANCH   8  31
HETATM   31  C13 UNL     1      -7.055  -2.299   3.129  1.00  0.00     0.202 C 
HETATM   32  O3  UNL     1      -8.038  -2.938   2.594  1.00  0.00    -0.646 OA
HETATM   33  O4  UNL     1      -5.858  -2.430   2.476  1.00  0.00    -0.646 OA
ENDBRANCH   8  31
BRANCH   2  34
HETATM   34  S1  UNL     1      -5.898  -0.064   7.807  1.00  0.00    -0.106 SA
BRANCH  34  35
HETATM   35  C5  UNL     1      -7.232  -0.269   8.947  1.00  0.00     0.127 C 
BRANCH  35  36
HETATM   36  C6  UNL     1      -6.751  -0.277  10.388  1.00  0.00    -0.005 A 
HETATM   37  C7  UNL     1      -7.495  -0.323  11.528  1.00  0.00     0.019 A 
HETATM   38  C8  UNL     1      -6.843  -0.317  12.697  1.00  0.00     0.051 A 
HETATM   39  C9  UNL     1      -5.473  -0.263  12.650  1.00  0.00     0.157 A 
HETATM   40  F1  UNL     1      -4.603  -0.247  13.719  1.00  0.00    -0.198 F 
HETATM   41  S2  UNL     1      -5.150  -0.225  10.977  1.00  0.00    -0.064 SA
ENDBRANCH  35  36
ENDBRANCH  34  35
ENDBRANCH   2  34
BRANCH   6  42
HETATM   42  N4  UNL     1      -4.193  -4.769   5.318  1.00  0.00    -0.293 N 
ATOM     43  H4  UNL     1      -3.415  -4.823   4.662  1.00  0.00     0.187 HD
BRANCH  42  44
HETATM   44  C11 UNL     1      -4.212  -5.581   6.493  1.00  0.00     0.190 C 
HETATM   45  N5  UNL     1      -3.814  -5.031   7.580  1.00  0.00    -0.394 N 
ATOM     46  H52 UNL     1      -3.502  -4.059   7.589  1.00  0.00     0.156 HD
ATOM     47  H51 UNL     1      -3.827  -5.611   8.419  1.00  0.00     0.156 HD
ENDBRANCH  42  44
ENDBRANCH   6  42
TORSDOF 12
ENDMDL
MODEL 2
REMARK VINA RESULT: -7.354659544      3.445      7.330
REMARK  12 active torsions:
REMARK  status: ('A' for Active; 'I' for Inactive)
REMARK    1  A    between atoms: O1_2  and  N1_3 
REMARK    2  A    between atoms: C2_5  and  C3_6 
REMARK    3  A    between atoms: C4_7  and  S1_8 
REMARK    4  A    between atoms: S1_8  and  C5_9 
REMARK    5  A    between atoms: C5_9  and  C6_10 
REMARK       I    between atoms: N2_16  and  C10_17 
REMARK       I    between atoms: C10_17  and  N3_19 
REMARK    6  A    between atoms: N3_19  and  N4_21 
REMARK    7  A    between atoms: N4_21  and  C11_23 
REMARK    8  A    between atoms: C12_27  and  C13_28 
REMARK    9  A    between atoms: C14_31  and  C15_32 
REMARK   10  A    between atoms: C15_32  and  S3_33 
REMARK   11  A    between atoms: S3_33  and  C16_34 
REMARK   12  A    between atoms: C17_37  and  O5_38 
ROOT
HETATM    1  C3  UNL     1      -6.068   0.480   5.462  1.00  0.00     0.024 C 
HETATM    2  C4  UNL     1      -5.879  -0.663   4.767  1.00  0.00     0.090 C 
HETATM    3  N2  UNL     1      -5.074  -1.554   5.581  1.00  0.00    -0.272 N 
HETATM    4  C10 UNL     1      -5.075  -2.940   5.476  1.00  0.00     0.343 C 
HETATM    5  O2  UNL     1      -6.050  -3.519   4.841  1.00  0.00    -0.245 OA
HETATM    6  N3  UNL     1      -4.116  -3.828   5.978  1.00  0.00    -0.250 N 
ATOM      7  H3  UNL     1      -3.306  -3.456   6.475  1.00  0.00     0.192 HD
HETATM    8  C12 UNL     1      -4.376  -0.671   6.567  1.00  0.00     0.230 C 
HETATM    9  C14 UNL     1      -5.537   0.259   6.801  1.00  0.00    -0.004 C 
ENDROOT
BRANCH   9  10
HETATM   10  C15 UNL     1      -6.037   0.722   7.918  1.00  0.00     0.064 C 
BRANCH  10  11
HETATM   11  S3  UNL     1      -6.999  -0.182   9.095  1.00  0.00    -0.064 SA
BRANCH  11  12
HETATM   12  C16 UNL     1      -6.202  -0.271  10.685  1.00  0.00     0.168 A 
HETATM   13  N6  UNL     1      -4.875  -0.135  10.856  1.00  0.00    -0.301 N 
HETATM   14  C17 UNL     1      -4.302  -0.206  12.082  1.00  0.00     0.239 A 
ATOM     15  H6  UNL     1      -4.283   0.026  10.041  1.00  0.00     0.171 HD
HETATM   16  N7  UNL     1      -5.108  -0.419  13.136  1.00  0.00    -0.155 N 
HETATM   17  C19 UNL     1      -6.439  -0.562  13.012  1.00  0.00     0.682 A 
ATOM     18  H7  UNL     1      -4.694  -0.474  14.067  1.00  0.00     0.188 HD
HETATM   19  N8  UNL     1      -7.187  -0.767  14.048  1.00  0.00    -0.234 N 
HETATM   20  N9  UNL     1      -6.963  -0.483  11.768  1.00  0.00    -0.166 N 
ATOM     21  H82 UNL     1      -6.791  -0.827  14.987  1.00  0.00     0.174 HD
ATOM     22  H81 UNL     1      -8.196  -0.876  13.954  1.00  0.00     0.174 HD
HETATM   23  C20 UNL     1      -8.392  -0.630  11.587  1.00  0.00     0.177 C 
BRANCH  14  24
HETATM   24  O5  UNL     1      -2.931  -0.065  12.261  1.00  0.00    -0.327 OA
HETATM   25  C18 UNL     1      -2.154   0.787  11.465  1.00  0.00     0.213 C 
ENDBRANCH  14  24
ENDBRANCH  11  12
ENDBRANCH  10  11
ENDBRANCH   9  10
BRANCH   1  26
HETATM   26  C2  UNL     1      -6.716   1.707   4.943  1.00  0.00     0.128 C 
HETATM   27  N1  UNL     1      -6.470   2.875   5.201  1.00  0.00    -0.278 N 
ATOM     28  H1  UNL     1      -7.148   3.384   4.636  1.00  0.00     0.193 HD
BRANCH  27  29
HETATM   29  O1  UNL     1      -5.828   3.804   5.791  1.00  0.00    -0.286 OA
HETATM   30  C1  UNL     1      -4.457   4.150   5.735  1.00  0.00     0.237 C 
ENDBRANCH  27  29
ENDBRANCH   1  26
BRANCH   8  31
HETATM   31  C13 UNL     1      -4.021  -1.351   7.807  1.00  0.00     0.202 C 
HETATM   32  O3  UNL     1      -3.003  -0.904   8.459  1.00  0.00    -0.646 OA
HETATM   33  O4  UNL     1      -4.651  -2.421   8.386  1.00  0.00    -0.646 OA
ENDBRANCH   8  31
BRANCH   2  34
HETATM   34  S1  UNL     1      -6.405  -0.858   3.088  1.00  0.00    -0.106 SA
BRANCH  34  35
HETATM   35  C5  UNL     1      -8.073  -1.416   2.926  1.00  0.00     0.127 C 
BRANCH  35  36
HETATM   36  C6  UNL     1      -9.035  -0.579   3.752  1.00  0.00    -0.005 A 
HETATM   37  C7  UNL     1      -9.561   0.641   3.457  1.00  0.00     0.019 A 
HETATM   38  C8  UNL     1     -10.394   1.192   4.348  1.00  0.00     0.051 A 
HETATM   39  C9  UNL     1     -10.650   0.478   5.491  1.00  0.00     0.157 A 
HETATM   40  F1  UNL     1     -11.468   0.845   6.538  1.00  0.00    -0.198 F 
HETATM   41  S2  UNL     1      -9.719  -0.933   5.276  1.00  0.00    -0.064 SA
ENDBRANCH  35  36
ENDBRANCH  34  35
ENDBRANCH   2  34
BRANCH   6  42
HETATM   42  N4  UNL     1      -4.242  -5.231   5.812  1.00  0.00    -0.293 N 
ATOM     43  H4  UNL     1      -4.345  -5.637   4.883  1.00  0.00     0.187 HD
BRANCH  42  44
HETATM   44  C11 UNL     1      -4.221  -6.063   6.973  1.00  0.00     0.190 C 
HETATM   45  N5  UNL     1      -4.101  -5.472   8.104  1.00  0.00    -0.394 N 
ATOM     46  H52 UNL     1      -4.025  -4.456   8.155  1.00  0.00     0.156 HD
ATOM     47  H51 UNL     1      -4.086  -6.067   8.932  1.00  0.00     0.156 HD
ENDBRANCH  42  44
ENDBRANCH   6  42
TORSDOF 12
ENDMDL
MODEL 3
REMARK VINA RESULT: -7.353805747      3.714      7.932
REMARK  12 active torsions:
REMARK  status: ('A' for Active; 'I' for Inactive)
REMARK    1  A    between atoms: O1_2  and  N1_3 
REMARK    2  A    between atoms: C2_5  and  C3_6 
REMARK    3  A    between atoms: C4_7  and  S1_8 
REMARK    4  A    between atoms: S1_8  and  C5_9 
REMARK    5  A    between atoms: C5_9  and  C6_10 
REMARK       I    between atoms: N2_16  and  C10_17 
REMARK       I    between atoms: C10_17  and  N3_19 
REMARK    6  A    between atoms: N3_19  and  N4_21 
REMARK    7  A    between atoms: N4_21  and  C11_23 
REMARK    8  A    between atoms: C12_27  and  C13_28 
REMARK    9  A    between atoms: C14_31  and  C15_32 
REMARK   10  A    between atoms: C15_32  and  S3_33 
REMARK   11  A    between atoms: S3_33  and  C16_34 
REMARK   12  A    between atoms: C17_37  and  O5_38 
ROOT
HETATM    1  C3  UNL     1      -6.678   0.077   5.368  1.00  0.00     0.024 C 
HETATM    2  C4  UNL     1      -6.447  -1.093   4.733  1.00  0.00     0.090 C 
HETATM    3  N2  UNL     1      -5.386  -1.785   5.441  1.00  0.00    -0.272 N 
HETATM    4  C10 UNL     1      -5.199  -3.162   5.438  1.00  0.00     0.343 C 
HETATM    5  O2  UNL     1      -6.173  -3.926   5.042  1.00  0.00    -0.245 OA
HETATM    6  N3  UNL     1      -4.045  -3.861   5.810  1.00  0.00    -0.250 N 
ATOM      7  H3  UNL     1      -3.224  -3.337   6.118  1.00  0.00     0.192 HD
HETATM    8  C12 UNL     1      -4.665  -0.725   6.212  1.00  0.00     0.230 C 
HETATM    9  C14 UNL     1      -5.890   0.061   6.595  1.00  0.00    -0.004 C 
ENDROOT
BRANCH   9  10
HETATM   10  C15 UNL     1      -6.248   0.560   7.750  1.00  0.00     0.064 C 
BRANCH  10  11
HETATM   11  S3  UNL     1      -7.129  -0.281   9.033  1.00  0.00    -0.064 SA
BRANCH  11  12
HETATM   12  C16 UNL     1      -6.210  -0.327  10.557  1.00  0.00     0.168 A 
HETATM   13  N6  UNL     1      -4.873  -0.187  10.621  1.00  0.00    -0.301 N 
HETATM   14  C17 UNL     1      -4.207  -0.224  11.800  1.00  0.00     0.239 A 
ATOM     15  H6  UNL     1      -4.347  -0.050   9.759  1.00  0.00     0.171 HD
HETATM   16  N7  UNL     1      -4.928  -0.406  12.920  1.00  0.00    -0.155 N 
HETATM   17  C19 UNL     1      -6.265  -0.551  12.904  1.00  0.00     0.682 A 
ATOM     18  H7  UNL     1      -4.443  -0.435  13.816  1.00  0.00     0.188 HD
HETATM   19  N8  UNL     1      -6.929  -0.726  14.000  1.00  0.00    -0.234 N 
HETATM   20  N9  UNL     1      -6.884  -0.507  11.702  1.00  0.00    -0.166 N 
ATOM     21  H82 UNL     1      -6.461  -0.759  14.906  1.00  0.00     0.174 HD
ATOM     22  H81 UNL     1      -7.943  -0.836  13.988  1.00  0.00     0.174 HD
HETATM   23  C20 UNL     1      -8.323  -0.657  11.638  1.00  0.00     0.177 C 
BRANCH  14  24
HETATM   24  O5  UNL     1      -2.826  -0.079  11.868  1.00  0.00    -0.327 OA
HETATM   25  C18 UNL     1      -2.127   0.834  11.067  1.00  0.00     0.213 C 
ENDBRANCH  14  24
ENDBRANCH  11  12
ENDBRANCH  10  11
ENDBRANCH   9  10
BRANCH   1  26
HETATM   26  C2  UNL     1      -7.583   1.150   4.896  1.00  0.00     0.128 C 
HETATM   27  N1  UNL     1      -8.798   1.229   4.992  1.00  0.00    -0.278 N 
ATOM     28  H1  UNL     1      -9.009   2.116   4.535  1.00  0.00     0.193 HD
BRANCH  27  29
HETATM   29  O1  UNL     1      -9.945   0.809   5.353  1.00  0.00    -0.286 OA
HETATM   30  C1  UNL     1     -10.409  -0.507   5.583  1.00  0.00     0.237 C 
ENDBRANCH  27  29
ENDBRANCH   1  26
BRANCH   8  31
HETATM   31  C13 UNL     1      -3.997  -1.227   7.408  1.00  0.00     0.202 C 
HETATM   32  O3  UNL     1      -2.945  -0.599   7.809  1.00  0.00    -0.646 OA
HETATM   33  O4  UNL     1      -4.360  -2.297   8.182  1.00  0.00    -0.646 OA
ENDBRANCH   8  31
BRANCH   2  34
HETATM   34  S1  UNL     1      -7.227  -1.519   3.202  1.00  0.00    -0.106 SA
BRANCH  34  35
HETATM   35  C5  UNL     1      -6.322  -1.001   1.776  1.00  0.00     0.127 C 
BRANCH  35  36
HETATM   36  C6  UNL     1      -6.333   0.509   1.613  1.00  0.00    -0.005 A 
HETATM   37  C7  UNL     1      -7.338   1.303   1.151  1.00  0.00     0.019 A 
HETATM   38  C8  UNL     1      -7.113   2.621   1.094  1.00  0.00     0.051 A 
HETATM   39  C9  UNL     1      -5.883   3.065   1.508  1.00  0.00     0.157 A 
HETATM   40  F1  UNL     1      -5.434   4.369   1.538  1.00  0.00    -0.198 F 
HETATM   41  S2  UNL     1      -5.090   1.627   1.961  1.00  0.00    -0.064 SA
ENDBRANCH  35  36
ENDBRANCH  34  35
ENDBRANCH   2  34
BRANCH   6  42
HETATM   42  N4  UNL     1      -3.987  -5.277   5.772  1.00  0.00    -0.293 N 
ATOM     43  H4  UNL     1      -3.793  -5.766   4.899  1.00  0.00     0.187 HD
BRANCH  42  44
HETATM   44  C11 UNL     1      -4.205  -6.006   6.981  1.00  0.00     0.190 C 
HETATM   45  N5  UNL     1      -4.017  -5.371   8.078  1.00  0.00    -0.394 N 
ATOM     46  H52 UNL     1      -3.725  -4.393   8.072  1.00  0.00     0.156 HD
ATOM     47  H51 UNL     1      -4.173  -5.892   8.942  1.00  0.00     0.156 HD
ENDBRANCH  42  44
ENDBRANCH   6  42
TORSDOF 12
ENDMDL
MODEL 4
REMARK VINA RESULT: -7.293082462      3.044      4.232
REMARK  12 active torsions:
REMARK  status: ('A' for Active; 'I' for Inactive)
REMARK    1  A    between atoms: O1_2  and  N1_3 
REMARK    2  A    between atoms: C2_5  and  C3_6 
REMARK    3  A    between atoms: C4_7  and  S1_8 
REMARK    4  A    between atoms: S1_8  and  C5_9 
REMARK    5  A    between atoms: C5_9  and  C6_10 
REMARK       I    between atoms: N2_16  and  C10_17 
REMARK       I    between atoms: C10_17  and  N3_19 
REMARK    6  A    between atoms: N3_19  and  N4_21 
REMARK    7  A    between atoms: N4_21  and  C11_23 
REMARK    8  A    between atoms: C12_27  and  C13_28 
REMARK    9  A    between atoms: C14_31  and  C15_32 
REMARK   10  A    between atoms: C15_32  and  S3_33 
REMARK   11  A    between atoms: S3_33  and  C16_34 
REMARK   12  A    between atoms: C17_37  and  O5_38 
ROOT
HETATM    1  C3  UNL     1      -6.312   0.758   6.703  1.00  0.00     0.024 C 
HETATM    2  C4  UNL     1      -5.525   0.092   7.576  1.00  0.00     0.090 C 
HETATM    3  N2  UNL     1      -4.147   0.257   7.153  1.00  0.00    -0.272 N 
HETATM    4  C10 UNL     1      -3.044   0.178   7.996  1.00  0.00     0.343 C 
HETATM    5  O2  UNL     1      -3.230   0.260   9.279  1.00  0.00    -0.245 OA
HETATM    6  N3  UNL     1      -1.706   0.001   7.625  1.00  0.00    -0.250 N 
ATOM      7  H3  UNL     1      -1.472  -0.092   6.636  1.00  0.00     0.192 HD
HETATM    8  C12 UNL     1      -4.217   0.621   5.703  1.00  0.00     0.230 C 
HETATM    9  C14 UNL     1      -5.430   1.505   5.816  1.00  0.00    -0.004 C 
ENDROOT
BRANCH   9  10
HETATM   10  C15 UNL     1      -5.656   2.696   5.325  1.00  0.00     0.064 C 
BRANCH  10  11
HETATM   11  S3  UNL     1      -6.034   3.087   3.642  1.00  0.00    -0.064 SA
BRANCH  11  12
HETATM   12  C16 UNL     1      -7.494   2.243   3.070  1.00  0.00     0.168 A 
HETATM   13  N6  UNL     1      -8.739   2.573   3.459  1.00  0.00    -0.301 N 
HETATM   14  C17 UNL     1      -9.829   1.911   3.001  1.00  0.00     0.239 A 
ATOM     15  H6  UNL     1      -8.867   3.341   4.116  1.00  0.00     0.171 HD
HETATM   16  N7  UNL     1      -9.629   0.902   2.135  1.00  0.00    -0.155 N 
HETATM   17  C19 UNL     1      -8.403   0.538   1.719  1.00  0.00     0.682 A 
ATOM     18  H7  UNL     1     -10.438   0.394   1.779  1.00  0.00     0.188 HD
HETATM   19  N8  UNL     1      -8.245  -0.439   0.886  1.00  0.00    -0.234 N 
HETATM   20  N9  UNL     1      -7.347   1.230   2.205  1.00  0.00    -0.166 N 
ATOM     21  H82 UNL     1      -9.042  -0.960   0.519  1.00  0.00     0.174 HD
ATOM     22  H81 UNL     1      -7.315  -0.715   0.571  1.00  0.00     0.174 HD
HETATM   23  C20 UNL     1      -6.009   0.872   1.784  1.00  0.00     0.177 C 
BRANCH  14  24
HETATM   24  O5  UNL     1     -11.116   2.249   3.401  1.00  0.00    -0.327 OA
HETATM   25  C18 UNL     1     -11.757   1.617   4.477  1.00  0.00     0.213 C 
ENDBRANCH  14  24
ENDBRANCH  11  12
ENDBRANCH  10  11
ENDBRANCH   9  10
BRANCH   1  26
HETATM   26  C2  UNL     1      -7.793   0.733   6.686  1.00  0.00     0.128 C 
HETATM   27  N1  UNL     1      -8.543   0.104   5.956  1.00  0.00    -0.278 N 
ATOM     28  H1  UNL     1      -9.469   0.381   6.282  1.00  0.00     0.193 HD
BRANCH  27  29
HETATM   29  O1  UNL     1      -8.801  -0.710   5.011  1.00  0.00    -0.286 OA
HETATM   30  C1  UNL     1      -7.972  -1.656   4.363  1.00  0.00     0.237 C 
ENDBRANCH  27  29
ENDBRANCH   1  26
BRANCH   8  31
HETATM   31  C13 UNL     1      -3.072   1.397   5.242  1.00  0.00     0.202 C 
HETATM   32  O3  UNL     1      -2.644   1.171   4.047  1.00  0.00    -0.646 OA
HETATM   33  O4  UNL     1      -2.385   2.363   5.927  1.00  0.00    -0.646 OA
ENDBRANCH   8  31
BRANCH   2  34
HETATM   34  S1  UNL     1      -6.179  -0.929   8.866  1.00  0.00    -0.106 SA
BRANCH  34  35
HETATM   35  C5  UNL     1      -7.143  -0.043  10.053  1.00  0.00     0.127 C 
BRANCH  35  36
HETATM   36  C6  UNL     1      -6.654  -0.280  11.472  1.00  0.00    -0.005 A 
HETATM   37  C7  UNL     1      -5.374  -0.290  11.935  1.00  0.00     0.019 A 
HETATM   38  C8  UNL     1      -5.185  -0.526  13.239  1.00  0.00     0.051 A 
HETATM   39  C9  UNL     1      -6.303  -0.739  14.005  1.00  0.00     0.157 A 
HETATM   40  F1  UNL     1      -6.349  -0.999  15.358  1.00  0.00    -0.198 F 
HETATM   41  S2  UNL     1      -7.571  -0.601  12.876  1.00  0.00    -0.064 SA
ENDBRANCH  35  36
ENDBRANCH  34  35
ENDBRANCH   2  34
BRANCH   6  42
HETATM   42  N4  UNL     1      -0.667  -0.052   8.588  1.00  0.00    -0.293 N 
ATOM     43  H4  UNL     1      -0.567  -0.861   9.201  1.00  0.00     0.187 HD
BRANCH  42  44
HETATM   44  C11 UNL     1       0.237   1.049   8.684  1.00  0.00     0.190 C 
HETATM   45  N5  UNL     1       0.010   2.049   7.915  1.00  0.00    -0.394 N 
ATOM     46  H52 UNL     1      -0.782   2.043   7.272  1.00  0.00     0.156 HD
ATOM     47  H51 UNL     1       0.655   2.836   7.984  1.00  0.00     0.156 HD
ENDBRANCH  42  44
ENDBRANCH   6  42
TORSDOF 12
ENDMDL
MODEL 5
REMARK VINA RESULT: -7.256963498      1.744      2.492
REMARK  12 active torsions:
REMARK  status: ('A' for Active; 'I' for Inactive)
REMARK    1  A    between atoms: O1_2  and  N1_3 
REMARK    2  A    between atoms: C2_5  and  C3_6 
REMARK    3  A    between atoms: C4_7  and  S1_8 
REMARK    4  A    between atoms: S1_8  and  C5_9 
REMARK    5  A    between atoms: C5_9  and  C6_10 
REMARK       I    between atoms: N2_16  and  C10_17 
REMARK       I    between atoms: C10_17  and  N3_19 
REMARK    6  A    between atoms: N3_19  and  N4_21 
REMARK    7  A    between atoms: N4_21  and  C11_23 
REMARK    8  A    between atoms: C12_27  and  C13_28 
REMARK    9  A    between atoms: C14_31  and  C15_32 
REMARK   10  A    between atoms: C15_32  and  S3_33 
REMARK   11  A    between atoms: S3_33  and  C16_34 
REMARK   12  A    between atoms: C17_37  and  O5_38 
ROOT
HETATM    1  C3  UNL     1      -7.829  -0.142   5.090  1.00  0.00     0.024 C 
HETATM    2  C4  UNL     1      -6.881  -0.467   5.996  1.00  0.00     0.090 C 
HETATM    3  N2  UNL     1      -6.280  -1.721   5.584  1.00  0.00    -0.272 N 
HETATM    4  C10 UNL     1      -4.996  -2.132   5.922  1.00  0.00     0.343 C 
HETATM    5  O2  UNL     1      -4.154  -1.251   6.373  1.00  0.00    -0.245 OA
HETATM    6  N3  UNL     1      -4.475  -3.429   5.846  1.00  0.00    -0.250 N 
ATOM      7  H3  UNL     1      -5.074  -4.188   5.519  1.00  0.00     0.192 HD
HETATM    8  C12 UNL     1      -7.280  -2.363   4.675  1.00  0.00     0.230 C 
HETATM    9  C14 UNL     1      -7.717  -1.094   3.993  1.00  0.00    -0.004 C 
ENDROOT
BRANCH   9  10
HETATM   10  C15 UNL     1      -7.890  -0.835   2.722  1.00  0.00     0.064 C 
BRANCH  10  11
HETATM   11  S3  UNL     1      -7.534   0.691   1.901  1.00  0.00    -0.064 SA
BRANCH  11  12
HETATM   12  C16 UNL     1      -8.970   1.738   1.782  1.00  0.00     0.168 A 
HETATM   13  N6  UNL     1     -10.183   1.292   1.408  1.00  0.00    -0.301 N 
HETATM   14  C17 UNL     1     -11.254   2.117   1.331  1.00  0.00     0.239 A 
ATOM     15  H6  UNL     1     -10.299   0.306   1.177  1.00  0.00     0.171 HD
HETATM   16  N7  UNL     1     -11.070   3.411   1.642  1.00  0.00    -0.155 N 
HETATM   17  C19 UNL     1      -9.876   3.901   2.020  1.00  0.00     0.682 A 
ATOM     18  H7  UNL     1     -11.866   4.046   1.591  1.00  0.00     0.188 HD
HETATM   19  N8  UNL     1      -9.732   5.154   2.312  1.00  0.00    -0.234 N 
HETATM   20  N9  UNL     1      -8.837   3.038   2.082  1.00  0.00    -0.166 N 
ATOM     21  H82 UNL     1     -10.516   5.805   2.265  1.00  0.00     0.174 HD
ATOM     22  H81 UNL     1      -8.826   5.526   2.598  1.00  0.00     0.174 HD
HETATM   23  C20 UNL     1      -7.533   3.522   2.484  1.00  0.00     0.177 C 
BRANCH  14  24
HETATM   24  O5  UNL     1     -12.508   1.658   0.945  1.00  0.00    -0.327 OA
HETATM   25  C18 UNL     1     -13.695   2.270   1.373  1.00  0.00     0.213 C 
ENDBRANCH  14  24
ENDBRANCH  11  12
ENDBRANCH  10  11
ENDBRANCH   9  10
BRANCH   1  26
HETATM   26  C2  UNL     1      -8.778   0.990   5.204  1.00  0.00     0.128 C 
HETATM   27  N1  UNL     1      -9.957   1.040   4.892  1.00  0.00    -0.278 N 
ATOM     28  H1  UNL     1     -10.220   1.995   5.133  1.00  0.00     0.193 HD
BRANCH  27  29
HETATM   29  O1  UNL     1     -11.038   0.549   4.430  1.00  0.00    -0.286 OA
HETATM   30  C1  UNL     1     -12.386   0.837   4.749  1.00  0.00     0.237 C 
ENDBRANCH  27  29
ENDBRANCH   1  26
BRANCH   8  31
HETATM   31  C13 UNL     1      -6.685  -3.275   3.705  1.00  0.00     0.202 C 
HETATM   32  O3  UNL     1      -7.183  -4.461   3.621  1.00  0.00    -0.646 OA
HETATM   33  O4  UNL     1      -5.648  -3.023   2.846  1.00  0.00    -0.646 OA
ENDBRANCH   8  31
BRANCH   2  34
HETATM   34  S1  UNL     1      -6.632   0.451   7.489  1.00  0.00    -0.106 SA
BRANCH  34  35
HETATM   35  C5  UNL     1      -7.775   0.041   8.773  1.00  0.00     0.127 C 
BRANCH  35  36
HETATM   36  C6  UNL     1      -7.084  -0.123  10.117  1.00  0.00    -0.005 A 
HETATM   37  C7  UNL     1      -7.649  -0.221  11.351  1.00  0.00     0.019 A 
HETATM   38  C8  UNL     1      -6.831  -0.358  12.401  1.00  0.00     0.051 A 
HETATM   39  C9  UNL     1      -5.483  -0.388  12.145  1.00  0.00     0.157 A 
HETATM   40  F1  UNL     1      -4.463  -0.521  13.063  1.00  0.00    -0.198 F 
HETATM   41  S2  UNL     1      -5.413  -0.225  10.451  1.00  0.00    -0.064 SA
ENDBRANCH  35  36
ENDBRANCH  34  35
ENDBRANCH   2  34
BRANCH   6  42
HETATM   42  N4  UNL     1      -3.135  -3.716   6.212  1.00  0.00    -0.293 N 
ATOM     43  H4  UNL     1      -2.377  -3.607   5.538  1.00  0.00     0.187 HD
BRANCH  42  44
HETATM   44  C11 UNL     1      -2.867  -4.162   7.543  1.00  0.00     0.190 C 
HETATM   45  N5  UNL     1      -3.043  -3.309   8.482  1.00  0.00    -0.394 N 
ATOM     46  H52 UNL     1      -3.359  -2.361   8.274  1.00  0.00     0.156 HD
ATOM     47  H51 UNL     1      -2.852  -3.627   9.432  1.00  0.00     0.156 HD
ENDBRANCH  42  44
ENDBRANCH   6  42
TORSDOF 12
ENDMDL
