MODEL 1
REMARK VINA RESULT: -7.109731996      0.000      0.000
REMARK  17 active torsions:
REMARK  status: ('A' for Active; 'I' for Inactive)
REMARK    1  A    between atoms: C2_2  and  C3_3 
REMARK    2  A    between atoms: C3_3  and  O1_4 
REMARK    3  A    between atoms: C3_3  and  C6_8 
REMARK    4  A    between atoms: O1_4  and  C4_5 
REMARK    5  A    between atoms: C6_8  and  N1_9 
REMARK    6  A    between atoms: C6_8  and  C11_15 
REMARK    7  A    between atoms: N1_9  and  O3_10 
REMARK    8  A    between atoms: O3_10  and  C7_11 
REMARK       I    between atoms: C11_15  and  N2_17 
REMARK    9  A    between atoms: C12_19  and  C13_20 
REMARK   10  A    between atoms: C18_27  and  C19_28 
REMARK   11  A    between atoms: C19_28  and  O7_29 
REMARK   12  A    between atoms: C19_28  and  C20_31 
REMARK   13  A    between atoms: C20_31  and  O8_32 
REMARK   14  A    between atoms: C20_31  and  C21_34 
REMARK   15  A    between atoms: C21_34  and  O9_35 
REMARK   16  A    between atoms: C21_34  and  C22_37 
REMARK   17  A    between atoms: C22_37  and  O10_38 
ROOT
HETATM    1  C13 UNL     1      -3.372   0.100   6.641  1.00  0.00     0.019 C 
HETATM    2  C14 UNL     1      -3.972  -0.755   5.893  1.00  0.00     0.167 C 
HETATM    3  O5  UNL     1      -4.571  -0.290   4.711  1.00  0.00    -0.309 OA
HETATM    4  C15 UNL     1      -5.955  -0.089   5.255  1.00  0.00     0.150 C 
HETATM    5  C16 UNL     1      -6.250  -1.137   6.323  1.00  0.00     0.108 C 
HETATM    6  C17 UNL     1      -5.613  -2.363   5.543  1.00  0.00     0.246 C 
HETATM    7  O6  UNL     1      -6.060  -2.045   4.318  1.00  0.00    -0.353 OA
HETATM    8  C18 UNL     1      -6.600  -0.771   4.178  1.00  0.00     0.201 C 
HETATM    9  N3  UNL     1      -4.237  -2.116   5.960  1.00  0.00    -0.240 N 
HETATM   10 CL1  UNL     1      -3.033  -3.092   6.577  1.00  0.00     0.018 Cl
HETATM   11  S1  UNL     1      -5.667   1.421   5.909  1.00  0.00    -0.123 SA
HETATM   12  C23 UNL     1      -3.785   1.525   6.235  1.00  0.00     0.121 C 
ENDROOT
BRANCH   1  13
HETATM   13  C12 UNL     1      -2.764  -0.418   7.793  1.00  0.00     0.103 C 
HETATM   14  N2  UNL     1      -3.186  -0.700   8.894  1.00  0.00    -0.335 N 
HETATM   15  C11 UNL     1      -4.347  -0.687   9.589  1.00  0.00     0.245 C 
ATOM     16  H2  UNL     1      -2.432  -1.060   9.479  1.00  0.00     0.168 HD
HETATM   17  O4  UNL     1      -5.346  -1.436   9.297  1.00  0.00    -0.271 OA
BRANCH  15  18
HETATM   18  C6  UNL     1      -4.609   0.197  10.784  1.00  0.00     0.228 C 
BRANCH  18  19
HETATM   19  C3  UNL     1      -5.445  -0.442  11.835  1.00  0.00     0.162 C 
BRANCH  19  20
HETATM   20  C2  UNL     1      -4.876  -0.316  13.234  1.00  0.00     0.030 C 
HETATM   21  C1  UNL     1      -5.961  -0.866  14.171  1.00  0.00     0.007 C 
ENDBRANCH  19  20
BRANCH  19  22
HETATM   22  O1  UNL     1      -6.727   0.219  11.917  1.00  0.00    -0.314 OA
BRANCH  22  23
HETATM   23  C4  UNL     1      -7.824  -0.231  11.237  1.00  0.00     0.255 C 
HETATM   24  C5  UNL     1      -8.249   0.318   9.919  1.00  0.00     0.126 C 
HETATM   25  O2  UNL     1      -8.531  -1.157  11.724  1.00  0.00    -0.266 OA
ENDBRANCH  22  23
ENDBRANCH  19  22
ENDBRANCH  18  19
BRANCH  18  26
HETATM   26  N1  UNL     1      -3.375   0.663  11.365  1.00  0.00    -0.083 NA
BRANCH  26  27
HETATM   27  O3  UNL     1      -2.915   1.782  10.784  1.00  0.00    -0.276 OA
BRANCH  27  28
HETATM   28  C7  UNL     1      -1.538   1.834  10.959  1.00  0.00     0.073 C 
HETATM   29  C8  UNL     1      -0.908   1.981   9.593  1.00  0.00     0.047 C 
HETATM   30  C9  UNL     1      -1.103   3.016  11.798  1.00  0.00     0.047 C 
HETATM   31  C10 UNL     1      -1.061   0.575  11.634  1.00  0.00     0.047 C 
ENDBRANCH  27  28
ENDBRANCH  26  27
ENDBRANCH  18  26
ENDBRANCH  15  18
ENDBRANCH   1  13
BRANCH   8  32
HETATM   32  C19 UNL     1      -7.991  -0.562   3.805  1.00  0.00     0.182 C 
BRANCH  32  33
HETATM   33  O7  UNL     1      -8.640  -1.865   3.677  1.00  0.00    -0.390 OA
ATOM     34  H7  UNL     1      -8.278  -2.309   2.919  1.00  0.00     0.210 HD
ENDBRANCH  32  33
BRANCH  32  35
HETATM   35  C20 UNL     1      -8.415   0.288   2.674  1.00  0.00     0.180 C 
BRANCH  35  36
HETATM   36  O8  UNL     1      -9.030  -0.587   1.671  1.00  0.00    -0.390 OA
ATOM     37  H8  UNL     1      -8.507  -0.528   0.881  1.00  0.00     0.210 HD
ENDBRANCH  35  36
BRANCH  35  38
HETATM   38  C21 UNL     1      -9.567   1.220   2.975  1.00  0.00     0.173 C 
BRANCH  38  39
HETATM   39  O9  UNL     1      -9.103   2.281   3.776  1.00  0.00    -0.391 OA
ATOM     40  H9  UNL     1      -9.648   2.344   4.551  1.00  0.00     0.210 HD
ENDBRANCH  38  39
BRANCH  38  41
HETATM   41  C22 UNL     1     -10.090   1.793   1.658  1.00  0.00     0.198 C 
BRANCH  41  42
HETATM   42  O10 UNL     1     -11.239   1.072   1.256  1.00  0.00    -0.398 OA
ATOM     43  H10 UNL     1     -11.072   0.654   0.420  1.00  0.00     0.209 HD
ENDBRANCH  41  42
ENDBRANCH  38  41
ENDBRANCH  35  38
ENDBRANCH  32  35
ENDBRANCH   8  32
TORSDOF 17
ENDMDL
MODEL 2
REMARK VINA RESULT: -7.062823068      1.581      2.144
REMARK  17 active torsions:
REMARK  status: ('A' for Active; 'I' for Inactive)
REMARK    1  A    between atoms: C2_2  and  C3_3 
REMARK    2  A    between atoms: C3_3  and  O1_4 
REMARK    3  A    between atoms: C3_3  and  C6_8 
REMARK    4  A    between atoms: O1_4  and  C4_5 
REMARK    5  A    between atoms: C6_8  and  N1_9 
REMARK    6  A    between atoms: C6_8  and  C11_15 
REMARK    7  A    between atoms: N1_9  and  O3_10 
REMARK    8  A    between atoms: O3_10  and  C7_11 
REMARK       I    between atoms: C11_15  and  N2_17 
REMARK    9  A    between atoms: C12_19  and  C13_20 
REMARK   10  A    between atoms: C18_27  and  C19_28 
REMARK   11  A    between atoms: C19_28  and  O7_29 
REMARK   12  A    between atoms: C19_28  and  C20_31 
REMARK   13  A    between atoms: C20_31  and  O8_32 
REMARK   14  A    between atoms: C20_31  and  C21_34 
REMARK   15  A    between atoms: C21_34  and  O9_35 
REMARK   16  A    between atoms: C21_34  and  C22_37 
REMARK   17  A    between atoms: C22_37  and  O10_38 
ROOT
HETATM    1  C13 UNL     1      -2.866   0.311   6.957  1.00  0.00     0.019 C 
HETATM    2  C14 UNL     1      -3.361  -0.672   6.293  1.00  0.00     0.167 C 
HETATM    3  O5  UNL     1      -3.987  -0.390   5.069  1.00  0.00    -0.309 OA
HETATM    4  C15 UNL     1      -5.393  -0.288   5.583  1.00  0.00     0.150 C 
HETATM    5  C16 UNL     1      -5.591  -1.253   6.749  1.00  0.00     0.108 C 
HETATM    6  C17 UNL     1      -4.816  -2.473   6.096  1.00  0.00     0.246 C 
HETATM    7  O6  UNL     1      -5.275  -2.325   4.843  1.00  0.00    -0.353 OA
HETATM    8  C18 UNL     1      -5.945  -1.136   4.576  1.00  0.00     0.201 C 
HETATM    9  N3  UNL     1      -3.480  -2.040   6.492  1.00  0.00    -0.240 N 
HETATM   10 CL1  UNL     1      -2.188  -2.816   7.208  1.00  0.00     0.018 Cl
HETATM   11  S1  UNL     1      -5.277   1.301   6.088  1.00  0.00    -0.123 SA
HETATM   12  C23 UNL     1      -3.422   1.638   6.410  1.00  0.00     0.121 C 
ENDROOT
BRANCH   1  13
HETATM   13  C12 UNL     1      -2.223  -0.023   8.157  1.00  0.00     0.103 C 
HETATM   14  N2  UNL     1      -2.634  -0.335   9.254  1.00  0.00    -0.335 N 
HETATM   15  C11 UNL     1      -3.807  -0.520   9.903  1.00  0.00     0.245 C 
ATOM     16  H2  UNL     1      -1.852  -0.512   9.885  1.00  0.00     0.168 HD
HETATM   17  O4  UNL     1      -4.624  -1.464   9.614  1.00  0.00    -0.271 OA
BRANCH  15  18
HETATM   18  C6  UNL     1      -4.293   0.346  11.039  1.00  0.00     0.228 C 
BRANCH  18  19
HETATM   19  C3  UNL     1      -5.202  -0.353  11.985  1.00  0.00     0.162 C 
BRANCH  19  20
HETATM   20  C2  UNL     1      -4.783  -0.238  13.438  1.00  0.00     0.030 C 
HETATM   21  C1  UNL     1      -5.920  -0.880  14.246  1.00  0.00     0.007 C 
ENDBRANCH  19  20
BRANCH  19  22
HETATM   22  O1  UNL     1      -6.513   0.250  11.949  1.00  0.00    -0.314 OA
BRANCH  22  23
HETATM   23  C4  UNL     1      -7.527  -0.253  11.183  1.00  0.00     0.255 C 
HETATM   24  C5  UNL     1      -7.693   0.065   9.737  1.00  0.00     0.126 C 
HETATM   25  O2  UNL     1      -8.380  -1.029  11.698  1.00  0.00    -0.266 OA
ENDBRANCH  22  23
ENDBRANCH  19  22
ENDBRANCH  18  19
BRANCH  18  26
HETATM   26  N1  UNL     1      -3.188   0.919  11.764  1.00  0.00    -0.083 NA
BRANCH  26  27
HETATM   27  O3  UNL     1      -2.669   1.999  11.158  1.00  0.00    -0.276 OA
BRANCH  27  28
HETATM   28  C7  UNL     1      -1.309   2.050  11.438  1.00  0.00     0.073 C 
HETATM   29  C8  UNL     1      -0.594   2.450  10.167  1.00  0.00     0.047 C 
HETATM   30  C9  UNL     1      -0.973   3.074  12.499  1.00  0.00     0.047 C 
HETATM   31  C10 UNL     1      -0.835   0.702  11.915  1.00  0.00     0.047 C 
ENDBRANCH  27  28
ENDBRANCH  26  27
ENDBRANCH  18  26
ENDBRANCH  15  18
ENDBRANCH   1  13
BRANCH   8  32
HETATM   32  C19 UNL     1      -7.346  -1.115   4.179  1.00  0.00     0.182 C 
BRANCH  32  33
HETATM   33  O7  UNL     1      -8.113  -1.913   5.133  1.00  0.00    -0.390 OA
ATOM     34  H7  UNL     1      -8.788  -2.384   4.659  1.00  0.00     0.210 HD
ENDBRANCH  32  33
BRANCH  32  35
HETATM   35  C20 UNL     1      -7.812  -1.437   2.814  1.00  0.00     0.180 C 
BRANCH  35  36
HETATM   36  O8  UNL     1      -6.641  -1.420   1.932  1.00  0.00    -0.390 OA
ATOM     37  H8  UNL     1      -6.914  -1.757   1.088  1.00  0.00     0.210 HD
ENDBRANCH  35  36
BRANCH  35  38
HETATM   38  C21 UNL     1      -8.283  -2.861   2.623  1.00  0.00     0.173 C 
BRANCH  38  39
HETATM   39  O9  UNL     1      -8.859  -2.987   1.344  1.00  0.00    -0.391 OA
ATOM     40  H9  UNL     1      -8.724  -3.873   1.029  1.00  0.00     0.210 HD
ENDBRANCH  38  39
BRANCH  38  41
HETATM   41  C22 UNL     1      -7.074  -3.792   2.710  1.00  0.00     0.198 C 
BRANCH  41  42
HETATM   42  O10 UNL     1      -7.106  -4.490   3.940  1.00  0.00    -0.398 OA
ATOM     43  H10 UNL     1      -6.948  -5.413   3.782  1.00  0.00     0.209 HD
ENDBRANCH  41  42
ENDBRANCH  38  41
ENDBRANCH  35  38
ENDBRANCH  32  35
ENDBRANCH   8  32
TORSDOF 17
ENDMDL
MODEL 3
REMARK VINA RESULT: -7.044186634      1.483      1.958
REMARK  17 active torsions:
REMARK  status: ('A' for Active; 'I' for Inactive)
REMARK    1  A    between atoms: C2_2  and  C3_3 
REMARK    2  A    between atoms: C3_3  and  O1_4 
REMARK    3  A    between atoms: C3_3  and  C6_8 
REMARK    4  A    between atoms: O1_4  and  C4_5 
REMARK    5  A    between atoms: C6_8  and  N1_9 
REMARK    6  A    between atoms: C6_8  and  C11_15 
REMARK    7  A    between atoms: N1_9  and  O3_10 
REMARK    8  A    between atoms: O3_10  and  C7_11 
REMARK       I    between atoms: C11_15  and  N2_17 
REMARK    9  A    between atoms: C12_19  and  C13_20 
REMARK   10  A    between atoms: C18_27  and  C19_28 
REMARK   11  A    between atoms: C19_28  and  O7_29 
REMARK   12  A    between atoms: C19_28  and  C20_31 
REMARK   13  A    between atoms: C20_31  and  O8_32 
REMARK   14  A    between atoms: C20_31  and  C21_34 
REMARK   15  A    between atoms: C21_34  and  O9_35 
REMARK   16  A    between atoms: C21_34  and  C22_37 
REMARK   17  A    between atoms: C22_37  and  O10_38 
ROOT
HETATM    1  C13 UNL     1      -4.134  -0.170   5.906  1.00  0.00     0.019 C 
HETATM    2  C14 UNL     1      -4.983  -0.864   5.236  1.00  0.00     0.167 C 
HETATM    3  O5  UNL     1      -5.629  -0.247   4.153  1.00  0.00    -0.309 OA
HETATM    4  C15 UNL     1      -6.863   0.194   4.884  1.00  0.00     0.150 C 
HETATM    5  C16 UNL     1      -7.214  -0.818   5.970  1.00  0.00     0.108 C 
HETATM    6  C17 UNL     1      -6.938  -2.113   5.095  1.00  0.00     0.246 C 
HETATM    7  O6  UNL     1      -7.472  -1.667   3.947  1.00  0.00    -0.353 OA
HETATM    8  C18 UNL     1      -7.765  -0.309   3.898  1.00  0.00     0.201 C 
HETATM    9  N3  UNL     1      -5.497  -2.150   5.322  1.00  0.00    -0.240 N 
HETATM   10 CL1  UNL     1      -4.436  -3.362   5.757  1.00  0.00     0.018 Cl
HETATM   11  S1  UNL     1      -6.202   1.594   5.511  1.00  0.00    -0.123 SA
HETATM   12  C23 UNL     1      -4.310   1.323   5.577  1.00  0.00     0.121 C 
ENDROOT
BRANCH   1  13
HETATM   13  C12 UNL     1      -3.491  -0.839   6.957  1.00  0.00     0.103 C 
HETATM   14  N2  UNL     1      -3.801  -1.056   8.109  1.00  0.00    -0.335 N 
HETATM   15  C11 UNL     1      -4.819  -0.815   8.966  1.00  0.00     0.245 C 
ATOM     16  H2  UNL     1      -3.066  -1.586   8.577  1.00  0.00     0.168 HD
HETATM   17  O4  UNL     1      -5.987  -1.325   8.827  1.00  0.00    -0.271 OA
BRANCH  15  18
HETATM   18  C6  UNL     1      -4.709   0.069  10.185  1.00  0.00     0.228 C 
BRANCH  18  19
HETATM   19  C3  UNL     1      -5.401  -0.470  11.386  1.00  0.00     0.162 C 
BRANCH  19  20
HETATM   20  C2  UNL     1      -4.601  -0.337  12.667  1.00  0.00     0.030 C 
HETATM   21  C1  UNL     1      -5.547  -0.785  13.790  1.00  0.00     0.007 C 
ENDBRANCH  19  20
BRANCH  19  22
HETATM   22  O1  UNL     1      -6.604   0.285  11.644  1.00  0.00    -0.314 OA
BRANCH  22  23
HETATM   23  C4  UNL     1      -7.829  -0.118  11.190  1.00  0.00     0.255 C 
HETATM   24  C5  UNL     1      -8.629  -1.192  11.844  1.00  0.00     0.126 C 
HETATM   25  O2  UNL     1      -8.334   0.428  10.170  1.00  0.00    -0.266 OA
ENDBRANCH  22  23
ENDBRANCH  19  22
ENDBRANCH  18  19
BRANCH  18  26
HETATM   26  N1  UNL     1      -3.331   0.344  10.504  1.00  0.00    -0.083 NA
BRANCH  26  27
HETATM   27  O3  UNL     1      -2.769   1.232   9.668  1.00  0.00    -0.276 OA
BRANCH  27  28
HETATM   28  C7  UNL     1      -1.426   1.357   9.998  1.00  0.00     0.073 C 
HETATM   29  C8  UNL     1      -1.097   2.833  10.029  1.00  0.00     0.047 C 
HETATM   30  C9  UNL     1      -1.106   0.783  11.360  1.00  0.00     0.047 C 
HETATM   31  C10 UNL     1      -0.580   0.645   8.975  1.00  0.00     0.047 C 
ENDBRANCH  27  28
ENDBRANCH  26  27
ENDBRANCH  18  26
ENDBRANCH  15  18
ENDBRANCH   1  13
BRANCH   8  32
HETATM   32  C19 UNL     1      -9.126   0.177   3.722  1.00  0.00     0.182 C 
BRANCH  32  33
HETATM   33  O7  UNL     1      -9.390   0.315   2.291  1.00  0.00    -0.390 OA
ATOM     34  H7  UNL     1     -10.257  -0.028   2.109  1.00  0.00     0.210 HD
ENDBRANCH  32  33
BRANCH  32  35
HETATM   35  C20 UNL     1      -9.665   1.365   4.416  1.00  0.00     0.180 C 
BRANCH  35  36
HETATM   36  O8  UNL     1      -9.596   2.492   3.481  1.00  0.00    -0.390 OA
ATOM     37  H8  UNL     1      -8.897   3.064   3.775  1.00  0.00     0.210 HD
ENDBRANCH  35  36
BRANCH  35  38
HETATM   38  C21 UNL     1     -11.152   1.321   4.690  1.00  0.00     0.173 C 
BRANCH  38  39
HETATM   39  O9  UNL     1     -11.823   0.917   3.519  1.00  0.00    -0.391 OA
ATOM     40  H9  UNL     1     -12.757   1.030   3.643  1.00  0.00     0.210 HD
ENDBRANCH  38  39
BRANCH  38  41
HETATM   41  C22 UNL     1     -11.418   0.291   5.787  1.00  0.00     0.198 C 
BRANCH  41  42
HETATM   42  O10 UNL     1     -12.453   0.760   6.629  1.00  0.00    -0.398 OA
ATOM     43  H10 UNL     1     -12.496   0.217   7.408  1.00  0.00     0.209 HD
ENDBRANCH  41  42
ENDBRANCH  38  41
ENDBRANCH  35  38
ENDBRANCH  32  35
ENDBRANCH   8  32
TORSDOF 17
ENDMDL
MODEL 4
REMARK VINA RESULT: -6.749186351      3.017      5.375
REMARK  17 active torsions:
REMARK  status: ('A' for Active; 'I' for Inactive)
REMARK    1  A    between atoms: C2_2  and  C3_3 
REMARK    2  A    between atoms: C3_3  and  O1_4 
REMARK    3  A    between atoms: C3_3  and  C6_8 
REMARK    4  A    between atoms: O1_4  and  C4_5 
REMARK    5  A    between atoms: C6_8  and  N1_9 
REMARK    6  A    between atoms: C6_8  and  C11_15 
REMARK    7  A    between atoms: N1_9  and  O3_10 
REMARK    8  A    between atoms: O3_10  and  C7_11 
REMARK       I    between atoms: C11_15  and  N2_17 
REMARK    9  A    between atoms: C12_19  and  C13_20 
REMARK   10  A    between atoms: C18_27  and  C19_28 
REMARK   11  A    between atoms: C19_28  and  O7_29 
REMARK   12  A    between atoms: C19_28  and  C20_31 
REMARK   13  A    between atoms: C20_31  and  O8_32 
REMARK   14  A    between atoms: C20_31  and  C21_34 
REMARK   15  A    between atoms: C21_34  and  O9_35 
REMARK   16  A    between atoms: C21_34  and  C22_37 
REMARK   17  A    between atoms: C22_37  and  O10_38 
ROOT
HETATM    1  C13 UNL     1      -6.474   1.808   5.824  1.00  0.00     0.019 C 
HETATM    2  C14 UNL     1      -6.840   1.785   4.592  1.00  0.00     0.167 C 
HETATM    3  O5  UNL     1      -7.867   0.901   4.227  1.00  0.00    -0.309 OA
HETATM    4  C15 UNL     1      -7.000  -0.240   3.785  1.00  0.00     0.150 C 
HETATM    5  C16 UNL     1      -5.710   0.295   3.171  1.00  0.00     0.108 C 
HETATM    6  C17 UNL     1      -6.388   1.462   2.336  1.00  0.00     0.246 C 
HETATM    7  O6  UNL     1      -7.471   0.781   1.928  1.00  0.00    -0.353 OA
HETATM    8  C18 UNL     1      -7.694  -0.441   2.553  1.00  0.00     0.201 C 
HETATM    9  N3  UNL     1      -6.439   2.427   3.429  1.00  0.00    -0.240 N 
HETATM   10 CL1  UNL     1      -6.016   4.035   3.558  1.00  0.00     0.018 Cl
HETATM   11  S1  UNL     1      -6.759  -0.876   5.312  1.00  0.00    -0.123 SA
HETATM   12  C23 UNL     1      -7.013   0.561   6.547  1.00  0.00     0.121 C 
ENDROOT
BRANCH   1  13
HETATM   13  C12 UNL     1      -5.467   2.729   6.146  1.00  0.00     0.103 C 
HETATM   14  N2  UNL     1      -4.265   2.627   6.272  1.00  0.00    -0.335 N 
HETATM   15  C11 UNL     1      -3.295   1.688   6.194  1.00  0.00     0.245 C 
ATOM     16  H2  UNL     1      -3.860   3.532   6.513  1.00  0.00     0.168 HD
HETATM   17  O4  UNL     1      -2.969   1.110   5.097  1.00  0.00    -0.271 OA
BRANCH  15  18
HETATM   18  C6  UNL     1      -2.480   1.211   7.371  1.00  0.00     0.228 C 
BRANCH  18  19
HETATM   19  C3  UNL     1      -2.139   2.284   8.342  1.00  0.00     0.162 C 
BRANCH  19  20
HETATM   20  C2  UNL     1      -1.126   1.865   9.390  1.00  0.00     0.030 C 
HETATM   21  C1  UNL     1      -1.716   2.311  10.735  1.00  0.00     0.007 C 
ENDBRANCH  19  20
BRANCH  19  22
HETATM   22  O1  UNL     1      -1.502   3.386   7.660  1.00  0.00    -0.314 OA
BRANCH  22  23
HETATM   23  C4  UNL     1      -1.874   4.684   7.866  1.00  0.00     0.255 C 
HETATM   24  C5  UNL     1      -1.219   5.573   8.867  1.00  0.00     0.126 C 
HETATM   25  O2  UNL     1      -2.817   5.184   7.190  1.00  0.00    -0.266 OA
ENDBRANCH  22  23
ENDBRANCH  19  22
ENDBRANCH  18  19
BRANCH  18  26
HETATM   26  N1  UNL     1      -3.142   0.131   8.057  1.00  0.00    -0.083 NA
BRANCH  26  27
HETATM   27  O3  UNL     1      -4.289   0.510   8.644  1.00  0.00    -0.276 OA
BRANCH  27  28
HETATM   28  C7  UNL     1      -4.741  -0.534   9.440  1.00  0.00     0.073 C 
HETATM   29  C8  UNL     1      -3.788  -0.668  10.606  1.00  0.00     0.047 C 
HETATM   30  C9  UNL     1      -6.123  -0.282  10.001  1.00  0.00     0.047 C 
HETATM   31  C10 UNL     1      -4.783  -1.808   8.638  1.00  0.00     0.047 C 
ENDBRANCH  27  28
ENDBRANCH  26  27
ENDBRANCH  18  26
ENDBRANCH  15  18
ENDBRANCH   1  13
BRANCH   8  32
HETATM   32  C19 UNL     1      -7.686  -1.695   1.814  1.00  0.00     0.182 C 
BRANCH  32  33
HETATM   33  O7  UNL     1      -8.260  -1.460   0.491  1.00  0.00    -0.390 OA
ATOM     34  H7  UNL     1      -8.503  -2.297   0.114  1.00  0.00     0.210 HD
ENDBRANCH  32  33
BRANCH  32  35
HETATM   35  C20 UNL     1      -8.232  -2.960   2.346  1.00  0.00     0.180 C 
BRANCH  35  36
HETATM   36  O8  UNL     1      -9.048  -3.567   1.289  1.00  0.00    -0.390 OA
ATOM     37  H8  UNL     1      -9.117  -4.495   1.480  1.00  0.00     0.210 HD
ENDBRANCH  35  36
BRANCH  35  38
HETATM   38  C21 UNL     1      -7.209  -4.051   2.569  1.00  0.00     0.173 C 
BRANCH  38  39
HETATM   39  O9  UNL     1      -7.215  -4.416   3.929  1.00  0.00    -0.391 OA
ATOM     40  H9  UNL     1      -6.344  -4.292   4.286  1.00  0.00     0.210 HD
ENDBRANCH  38  39
BRANCH  38  41
HETATM   41  C22 UNL     1      -7.602  -5.269   1.733  1.00  0.00     0.198 C 
BRANCH  41  42
HETATM   42  O10 UNL     1      -6.495  -6.143   1.628  1.00  0.00    -0.398 OA
ATOM     43  H10 UNL     1      -6.329  -6.331   0.712  1.00  0.00     0.209 HD
ENDBRANCH  41  42
ENDBRANCH  38  41
ENDBRANCH  35  38
ENDBRANCH  32  35
ENDBRANCH   8  32
TORSDOF 17
ENDMDL
MODEL 5
REMARK VINA RESULT: -6.700541278      2.802      4.827
REMARK  17 active torsions:
REMARK  status: ('A' for Active; 'I' for Inactive)
REMARK    1  A    between atoms: C2_2  and  C3_3 
REMARK    2  A    between atoms: C3_3  and  O1_4 
REMARK    3  A    between atoms: C3_3  and  C6_8 
REMARK    4  A    between atoms: O1_4  and  C4_5 
REMARK    5  A    between atoms: C6_8  and  N1_9 
REMARK    6  A    between atoms: C6_8  and  C11_15 
REMARK    7  A    between atoms: N1_9  and  O3_10 
REMARK    8  A    between atoms: O3_10  and  C7_11 
REMARK       I    between atoms: C11_15  and  N2_17 
REMARK    9  A    between atoms: C12_19  and  C13_20 
REMARK   10  A    between atoms: C18_27  and  C19_28 
REMARK   11  A    between atoms: C19_28  and  O7_29 
REMARK   12  A    between atoms: C19_28  and  C20_31 
REMARK   13  A    between atoms: C20_31  and  O8_32 
REMARK   14  A    between atoms: C20_31  and  C21_34 
REMARK   15  A    between atoms: C21_34  and  O9_35 
REMARK   16  A    between atoms: C21_34  and  C22_37 
REMARK   17  A    between atoms: C22_37  and  O10_38 
ROOT
HETATM    1  C13 UNL     1      -6.838   1.608   5.685  1.00  0.00     0.019 C 
HETATM    2  C14 UNL     1      -6.532   1.448   4.447  1.00  0.00     0.167 C 
HETATM    3  O5  UNL     1      -7.559   1.103   3.555  1.00  0.00    -0.309 OA
HETATM    4  C15 UNL     1      -7.364  -0.383   3.591  1.00  0.00     0.150 C 
HETATM    5  C16 UNL     1      -5.884  -0.708   3.778  1.00  0.00     0.108 C 
HETATM    6  C17 UNL     1      -5.339   0.382   2.762  1.00  0.00     0.246 C 
HETATM    7  O6  UNL     1      -6.275   0.224   1.813  1.00  0.00    -0.353 OA
HETATM    8  C18 UNL     1      -7.383  -0.536   2.171  1.00  0.00     0.201 C 
HETATM    9  N3  UNL     1      -5.362   1.497   3.702  1.00  0.00    -0.240 N 
HETATM   10 CL1  UNL     1      -4.257   2.679   4.106  1.00  0.00     0.018 Cl
HETATM   11  S1  UNL     1      -8.250  -0.641   4.984  1.00  0.00    -0.123 SA
HETATM   12  C23 UNL     1      -8.227   1.004   5.958  1.00  0.00     0.121 C 
ENDROOT
BRANCH   1  13
HETATM   13  C12 UNL     1      -5.785   1.983   6.531  1.00  0.00     0.103 C 
HETATM   14  N2  UNL     1      -4.870   1.366   7.033  1.00  0.00    -0.335 N 
HETATM   15  C11 UNL     1      -4.376   0.107   7.079  1.00  0.00     0.245 C 
ATOM     16  H2  UNL     1      -4.293   1.990   7.597  1.00  0.00     0.168 HD
HETATM   17  O4  UNL     1      -3.874  -0.484   6.059  1.00  0.00    -0.271 OA
BRANCH  15  18
HETATM   18  C6  UNL     1      -4.349  -0.747   8.322  1.00  0.00     0.228 C 
BRANCH  18  19
HETATM   19  C3  UNL     1      -5.140  -0.194   9.453  1.00  0.00     0.162 C 
BRANCH  19  20
HETATM   20  C2  UNL     1      -6.574  -0.684   9.499  1.00  0.00     0.030 C 
HETATM   21  C1  UNL     1      -7.105  -0.278  10.881  1.00  0.00     0.007 C 
ENDBRANCH  19  20
BRANCH  19  22
HETATM   22  O1  UNL     1      -4.580  -0.630  10.710  1.00  0.00    -0.314 OA
BRANCH  22  23
HETATM   23  C4  UNL     1      -3.809   0.187  11.488  1.00  0.00     0.255 C 
HETATM   24  C5  UNL     1      -2.974   1.290  10.936  1.00  0.00     0.126 C 
HETATM   25  O2  UNL     1      -3.783   0.024  12.740  1.00  0.00    -0.266 OA
ENDBRANCH  22  23
ENDBRANCH  19  22
ENDBRANCH  18  19
BRANCH  18  26
HETATM   26  N1  UNL     1      -4.787  -2.091   8.039  1.00  0.00    -0.083 NA
BRANCH  26  27
HETATM   27  O3  UNL     1      -3.945  -3.024   8.510  1.00  0.00    -0.276 OA
BRANCH  27  28
HETATM   28  C7  UNL     1      -3.613  -3.882   7.469  1.00  0.00     0.073 C 
HETATM   29  C8  UNL     1      -3.856  -5.296   7.946  1.00  0.00     0.047 C 
HETATM   30  C9  UNL     1      -4.462  -3.657   6.238  1.00  0.00     0.047 C 
HETATM   31  C10 UNL     1      -2.168  -3.690   7.089  1.00  0.00     0.047 C 
ENDBRANCH  27  28
ENDBRANCH  26  27
ENDBRANCH  18  26
ENDBRANCH  15  18
ENDBRANCH   1  13
BRANCH   8  32
HETATM   32  C19 UNL     1      -7.711  -1.783   1.495  1.00  0.00     0.182 C 
BRANCH  32  33
HETATM   33  O7  UNL     1      -8.562  -1.480   0.346  1.00  0.00    -0.390 OA
ATOM     34  H7  UNL     1      -8.020  -1.460  -0.434  1.00  0.00     0.210 HD
ENDBRANCH  32  33
BRANCH  32  35
HETATM   35  C20 UNL     1      -8.260  -2.967   2.187  1.00  0.00     0.180 C 
BRANCH  35  36
HETATM   36  O8  UNL     1      -9.143  -3.660   1.244  1.00  0.00    -0.390 OA
ATOM     37  H8  UNL     1      -9.981  -3.212   1.255  1.00  0.00     0.210 HD
ENDBRANCH  35  36
BRANCH  35  38
HETATM   38  C21 UNL     1      -7.253  -4.057   2.477  1.00  0.00     0.173 C 
BRANCH  38  39
HETATM   39  O9  UNL     1      -7.313  -4.387   3.844  1.00  0.00    -0.391 OA
ATOM     40  H9  UNL     1      -8.119  -4.858   4.014  1.00  0.00     0.210 HD
ENDBRANCH  38  39
BRANCH  38  41
HETATM   41  C22 UNL     1      -7.621  -5.294   1.658  1.00  0.00     0.198 C 
BRANCH  41  42
HETATM   42  O10 UNL     1      -6.528  -6.192   1.645  1.00  0.00    -0.398 OA
ATOM     43  H10 UNL     1      -6.574  -6.733   0.866  1.00  0.00     0.209 HD
ENDBRANCH  41  42
ENDBRANCH  38  41
ENDBRANCH  35  38
ENDBRANCH  32  35
ENDBRANCH   8  32
TORSDOF 17
ENDMDL
