MODEL 1
REMARK VINA RESULT: -7.979055620      0.000      0.000
REMARK  16 active torsions:
REMARK  status: ('A' for Active; 'I' for Inactive)
REMARK    1  A    between atoms: O1_2  and  C2_3 
REMARK    2  A    between atoms: C3_4  and  O2_5 
REMARK    3  A    between atoms: O2_5  and  C4_6 
REMARK    4  A    between atoms: C4_6  and  C5_7 
REMARK    5  A    between atoms: C6_8  and  O3_9 
REMARK    6  A    between atoms: C7_11  and  O4_12 
REMARK    7  A    between atoms: O4_12  and  C8_13 
REMARK    8  A    between atoms: C9_14  and  O5_15 
REMARK    9  A    between atoms: C11_19  and  O7_20 
REMARK   10  A    between atoms: O7_20  and  C12_21 
REMARK   11  A    between atoms: C19_29  and  S1_30 
REMARK   12  A    between atoms: C21_32  and  O9_33 
REMARK   13  A    between atoms: C22_36  and  C23_37 
REMARK   14  A    between atoms: C23_37  and  O11_38 
REMARK   15  A    between atoms: C24_40  and  O12_41 
REMARK   16  A    between atoms: C25_43  and  N1_44 
ROOT
HETATM    1  C5  UNL     1      -2.920   0.941   6.494  1.00  0.00     0.071 C 
HETATM    2  C6  UNL     1      -2.515   2.188   7.294  1.00  0.00     0.157 C 
HETATM    3  C7  UNL     1      -2.058   1.566   8.592  1.00  0.00     0.167 C 
HETATM    4  C19 UNL     1      -1.132   0.510   8.090  1.00  0.00     0.107 C 
HETATM    5  C21 UNL     1      -2.081  -0.194   7.099  1.00  0.00     0.143 C 
ENDROOT
BRANCH   1   6
HETATM    6  C4  UNL     1      -4.373   0.726   6.719  1.00  0.00     0.180 C 
BRANCH   6   7
HETATM    7  O2  UNL     1      -5.124   0.276   5.670  1.00  0.00    -0.358 OA
BRANCH   7   8
HETATM    8  C3  UNL     1      -5.580  -1.013   5.748  1.00  0.00     0.291 C 
HETATM    9  C2  UNL     1      -6.666  -1.263   4.760  1.00  0.00     0.208 C 
HETATM   10  C25 UNL     1      -6.186  -2.246   3.675  1.00  0.00     0.248 C 
HETATM   11  C24 UNL     1      -5.869  -3.539   4.363  1.00  0.00     0.182 C 
HETATM   12  C22 UNL     1      -5.089  -3.181   5.621  1.00  0.00     0.179 C 
HETATM   13  O10 UNL     1      -4.500  -1.923   5.467  1.00  0.00    -0.349 OA
BRANCH   9  14
HETATM   14  O1  UNL     1      -7.079  -0.146   4.046  1.00  0.00    -0.384 OA
HETATM   15  C1  UNL     1      -8.392  -0.401   3.616  1.00  0.00     0.202 C 
ENDBRANCH   9  14
BRANCH  10  16
HETATM   16  N1  UNL     1      -5.028  -1.745   3.007  1.00  0.00    -0.070 N 
ATOM     17  H13 UNL     1      -5.278  -1.115   2.243  1.00  0.00     0.274 HD
ATOM     18  H12 UNL     1      -4.513  -1.084   3.590  1.00  0.00     0.274 HD
ATOM     19  H11 UNL     1      -4.432  -2.507   2.685  1.00  0.00     0.274 HD
ENDBRANCH  10  16
BRANCH  11  20
HETATM   20  O12 UNL     1      -7.068  -4.174   4.665  1.00  0.00    -0.391 OA
ATOM     21  H12 UNL     1      -7.805  -3.752   4.240  1.00  0.00     0.210 HD
ENDBRANCH  11  20
BRANCH  12  22
HETATM   22  C23 UNL     1      -4.092  -4.283   5.869  1.00  0.00     0.198 C 
BRANCH  22  23
HETATM   23  O11 UNL     1      -4.335  -5.352   5.025  1.00  0.00    -0.398 OA
ATOM     24  H11 UNL     1      -4.438  -6.152   5.526  1.00  0.00     0.209 HD
ENDBRANCH  22  23
ENDBRANCH  12  22
ENDBRANCH   7   8
ENDBRANCH   6   7
ENDBRANCH   1   6
BRANCH   2  25
HETATM   25  O3  UNL     1      -1.532   2.855   6.608  1.00  0.00    -0.392 OA
ATOM     26  H3  UNL     1      -1.493   3.751   6.922  1.00  0.00     0.210 HD
ENDBRANCH   2  25
BRANCH   5  27
HETATM   27  O9  UNL     1      -2.902  -1.080   7.797  1.00  0.00    -0.394 OA
ATOM     28  H9  UNL     1      -3.312  -0.638   8.531  1.00  0.00     0.210 HD
ENDBRANCH   5  27
BRANCH   3  29
HETATM   29  O4  UNL     1      -1.523   2.539   9.391  1.00  0.00    -0.369 OA
BRANCH  29  30
HETATM   30  C8  UNL     1      -1.405   2.228  10.705  1.00  0.00     0.208 C 
HETATM   31  C9  UNL     1      -0.005   1.909  11.166  1.00  0.00     0.175 C 
HETATM   32  C10 UNL     1      -0.218   0.821  12.162  1.00  0.00     0.205 C 
HETATM   33  O6  UNL     1      -1.546   0.465  12.195  1.00  0.00    -0.356 OA
HETATM   34  C11 UNL     1      -2.168   1.008  11.059  1.00  0.00     0.295 C 
BRANCH  31  35
HETATM   35  O5  UNL     1       0.584   3.055  11.689  1.00  0.00    -0.391 OA
ATOM     36  H5  UNL     1       0.930   3.584  10.980  1.00  0.00     0.210 HD
ENDBRANCH  31  35
BRANCH  34  37
HETATM   37  O7  UNL     1      -3.487   1.163  11.379  1.00  0.00    -0.319 OA
BRANCH  37  38
HETATM   38  C12 UNL     1      -4.267   0.013  11.170  1.00  0.00     0.333 C 
HETATM   39  C13 UNL     1      -5.204  -0.176  12.197  1.00  0.00    -0.124 C 
HETATM   40  C14 UNL     1      -5.913  -0.456  13.373  1.00  0.00     0.085 C 
HETATM   41  C15 UNL     1      -7.421  -0.355  12.966  1.00  0.00     0.011 C 
HETATM   42  C16 UNL     1      -7.749  -0.861  11.617  1.00  0.00     0.003 C 
HETATM   43  C17 UNL     1      -7.460  -0.070  10.376  1.00  0.00     0.026 C 
HETATM   44  C18 UNL     1      -6.117  -0.424   9.724  1.00  0.00     0.172 C 
HETATM   45  O8  UNL     1      -5.010   0.278   9.971  1.00  0.00    -0.351 OA
ENDBRANCH  37  38
ENDBRANCH  34  37
ENDBRANCH  29  30
ENDBRANCH   3  29
BRANCH   4  46
HETATM   46  S1  UNL     1       0.284   1.119   7.180  1.00  0.00    -0.163 SA
HETATM   47  C20 UNL     1       1.790   1.160   8.165  1.00  0.00     0.090 C 
ENDBRANCH   4  46
TORSDOF 16
ENDMDL
MODEL 2
REMARK VINA RESULT: -7.852964085      1.572      2.490
REMARK  16 active torsions:
REMARK  status: ('A' for Active; 'I' for Inactive)
REMARK    1  A    between atoms: O1_2  and  C2_3 
REMARK    2  A    between atoms: C3_4  and  O2_5 
REMARK    3  A    between atoms: O2_5  and  C4_6 
REMARK    4  A    between atoms: C4_6  and  C5_7 
REMARK    5  A    between atoms: C6_8  and  O3_9 
REMARK    6  A    between atoms: C7_11  and  O4_12 
REMARK    7  A    between atoms: O4_12  and  C8_13 
REMARK    8  A    between atoms: C9_14  and  O5_15 
REMARK    9  A    between atoms: C11_19  and  O7_20 
REMARK   10  A    between atoms: O7_20  and  C12_21 
REMARK   11  A    between atoms: C19_29  and  S1_30 
REMARK   12  A    between atoms: C21_32  and  O9_33 
REMARK   13  A    between atoms: C22_36  and  C23_37 
REMARK   14  A    between atoms: C23_37  and  O11_38 
REMARK   15  A    between atoms: C24_40  and  O12_41 
REMARK   16  A    between atoms: C25_43  and  N1_44 
ROOT
HETATM    1  C5  UNL     1      -3.544  -0.353   6.695  1.00  0.00     0.071 C 
HETATM    2  C6  UNL     1      -3.562   1.050   7.320  1.00  0.00     0.157 C 
HETATM    3  C7  UNL     1      -2.724   0.830   8.556  1.00  0.00     0.167 C 
HETATM    4  C19 UNL     1      -1.532   0.147   7.975  1.00  0.00     0.107 C 
HETATM    5  C21 UNL     1      -2.250  -0.992   7.221  1.00  0.00     0.143 C 
ENDROOT
BRANCH   1   6
HETATM    6  C4  UNL     1      -4.747  -1.071   7.191  1.00  0.00     0.180 C 
BRANCH   6   7
HETATM    7  O2  UNL     1      -5.555  -1.677   6.270  1.00  0.00    -0.358 OA
BRANCH   7   8
HETATM    8  C3  UNL     1      -6.446  -0.873   5.610  1.00  0.00     0.291 C 
HETATM    9  C2  UNL     1      -6.224  -0.914   4.139  1.00  0.00     0.208 C 
HETATM   10  C25 UNL     1      -7.409  -1.605   3.438  1.00  0.00     0.248 C 
HETATM   11  C24 UNL     1      -8.625  -0.773   3.707  1.00  0.00     0.182 C 
HETATM   12  C22 UNL     1      -8.581  -0.404   5.184  1.00  0.00     0.179 C 
HETATM   13  O10 UNL     1      -7.788  -1.326   5.874  1.00  0.00    -0.349 OA
BRANCH   9  14
HETATM   14  O1  UNL     1      -5.116  -1.645   3.732  1.00  0.00    -0.384 OA
HETATM   15  C1  UNL     1      -4.492  -0.907   2.712  1.00  0.00     0.202 C 
ENDBRANCH   9  14
BRANCH  10  16
HETATM   16  N1  UNL     1      -7.596  -2.930   3.937  1.00  0.00    -0.070 N 
ATOM     17  H13 UNL     1      -7.382  -3.633   3.228  1.00  0.00     0.274 HD
ATOM     18  H12 UNL     1      -6.881  -3.179   4.621  1.00  0.00     0.274 HD
ATOM     19  H11 UNL     1      -8.536  -3.050   4.314  1.00  0.00     0.274 HD
ENDBRANCH  10  16
BRANCH  11  20
HETATM   20  O12 UNL     1      -8.567   0.355   2.895  1.00  0.00    -0.391 OA
ATOM     21  H12 UNL     1      -9.304   0.934   3.047  1.00  0.00     0.210 HD
ENDBRANCH  11  20
BRANCH  12  22
HETATM   22  C23 UNL     1     -10.001  -0.345   5.682  1.00  0.00     0.198 C 
BRANCH  22  23
HETATM   23  O11 UNL     1     -10.640  -1.551   5.462  1.00  0.00    -0.398 OA
ATOM     24  H11 UNL     1     -10.969  -1.906   6.279  1.00  0.00     0.209 HD
ENDBRANCH  22  23
ENDBRANCH  12  22
ENDBRANCH   7   8
ENDBRANCH   6   7
ENDBRANCH   1   6
BRANCH   2  25
HETATM   25  O3  UNL     1      -3.027   1.941   6.424  1.00  0.00    -0.392 OA
ATOM     26  H3  UNL     1      -2.271   2.357   6.820  1.00  0.00     0.210 HD
ENDBRANCH   2  25
BRANCH   5  27
HETATM   27  O9  UNL     1      -2.549  -2.019   8.116  1.00  0.00    -0.394 OA
ATOM     28  H9  UNL     1      -2.108  -2.819   7.856  1.00  0.00     0.210 HD
ENDBRANCH   5  27
BRANCH   3  29
HETATM   29  O4  UNL     1      -2.516   2.032   9.176  1.00  0.00    -0.369 OA
BRANCH  29  30
HETATM   30  C8  UNL     1      -2.033   1.971  10.442  1.00  0.00     0.208 C 
HETATM   31  C9  UNL     1      -0.533   1.857  10.553  1.00  0.00     0.175 C 
HETATM   32  C10 UNL     1      -0.350   0.950  11.721  1.00  0.00     0.205 C 
HETATM   33  O6  UNL     1      -1.571   0.495  12.161  1.00  0.00    -0.356 OA
HETATM   34  C11 UNL     1      -2.522   0.774  11.165  1.00  0.00     0.295 C 
BRANCH  31  35
HETATM   35  O5  UNL     1       0.016   3.123  10.721  1.00  0.00    -0.391 OA
ATOM     36  H5  UNL     1       0.800   3.059  11.253  1.00  0.00     0.210 HD
ENDBRANCH  31  35
BRANCH  34  37
HETATM   37  O7  UNL     1      -3.728   0.872  11.801  1.00  0.00    -0.319 OA
BRANCH  37  38
HETATM   38  C12 UNL     1      -4.589  -0.213  11.568  1.00  0.00     0.333 C 
HETATM   39  C13 UNL     1      -5.487  -0.404  12.629  1.00  0.00    -0.124 C 
HETATM   40  C14 UNL     1      -6.158  -0.707  13.822  1.00  0.00     0.085 C 
HETATM   41  C15 UNL     1      -7.673  -0.490  13.497  1.00  0.00     0.011 C 
HETATM   42  C16 UNL     1      -8.095  -0.895  12.140  1.00  0.00     0.003 C 
HETATM   43  C17 UNL     1      -7.814  -0.053  10.932  1.00  0.00     0.026 C 
HETATM   44  C18 UNL     1      -6.528  -0.450  10.195  1.00  0.00     0.172 C 
HETATM   45  O8  UNL     1      -5.367   0.166  10.424  1.00  0.00    -0.351 OA
ENDBRANCH  37  38
ENDBRANCH  34  37
ENDBRANCH  29  30
ENDBRANCH   3  29
BRANCH   4  46
HETATM   46  S1  UNL     1      -0.612   1.119   6.786  1.00  0.00    -0.163 SA
HETATM   47  C20 UNL     1       1.166   0.857   6.888  1.00  0.00     0.090 C 
ENDBRANCH   4  46
TORSDOF 16
ENDMDL
MODEL 3
REMARK VINA RESULT: -7.580913653      1.532      2.736
REMARK  16 active torsions:
REMARK  status: ('A' for Active; 'I' for Inactive)
REMARK    1  A    between atoms: O1_2  and  C2_3 
REMARK    2  A    between atoms: C3_4  and  O2_5 
REMARK    3  A    between atoms: O2_5  and  C4_6 
REMARK    4  A    between atoms: C4_6  and  C5_7 
REMARK    5  A    between atoms: C6_8  and  O3_9 
REMARK    6  A    between atoms: C7_11  and  O4_12 
REMARK    7  A    between atoms: O4_12  and  C8_13 
REMARK    8  A    between atoms: C9_14  and  O5_15 
REMARK    9  A    between atoms: C11_19  and  O7_20 
REMARK   10  A    between atoms: O7_20  and  C12_21 
REMARK   11  A    between atoms: C19_29  and  S1_30 
REMARK   12  A    between atoms: C21_32  and  O9_33 
REMARK   13  A    between atoms: C22_36  and  C23_37 
REMARK   14  A    between atoms: C23_37  and  O11_38 
REMARK   15  A    between atoms: C24_40  and  O12_41 
REMARK   16  A    between atoms: C25_43  and  N1_44 
ROOT
HETATM    1  C5  UNL     1      -3.703  -0.240   6.779  1.00  0.00     0.071 C 
HETATM    2  C6  UNL     1      -3.787   1.104   7.519  1.00  0.00     0.157 C 
HETATM    3  C7  UNL     1      -2.734   0.916   8.584  1.00  0.00     0.167 C 
HETATM    4  C19 UNL     1      -1.582   0.440   7.764  1.00  0.00     0.107 C 
HETATM    5  C21 UNL     1      -2.272  -0.733   7.036  1.00  0.00     0.143 C 
ENDROOT
BRANCH   1   6
HETATM    6  C4  UNL     1      -4.711  -1.145   7.393  1.00  0.00     0.180 C 
BRANCH   6   7
HETATM    7  O2  UNL     1      -5.737  -1.587   6.607  1.00  0.00    -0.358 OA
BRANCH   7   8
HETATM    8  C3  UNL     1      -5.984  -0.878   5.462  1.00  0.00     0.291 C 
HETATM    9  C2  UNL     1      -6.619  -1.733   4.422  1.00  0.00     0.208 C 
HETATM   10  C25 UNL     1      -8.072  -1.284   4.174  1.00  0.00     0.248 C 
HETATM   11  C24 UNL     1      -8.015   0.121   3.657  1.00  0.00     0.182 C 
HETATM   12  C22 UNL     1      -7.010   0.864   4.527  1.00  0.00     0.179 C 
HETATM   13  O10 UNL     1      -6.881   0.211   5.756  1.00  0.00    -0.349 OA
BRANCH   9  14
HETATM   14  O1  UNL     1      -6.732  -3.076   4.755  1.00  0.00    -0.384 OA
HETATM   15  C1  UNL     1      -6.567  -3.806   3.566  1.00  0.00     0.202 C 
ENDBRANCH   9  14
BRANCH  10  16
HETATM   16  N1  UNL     1      -8.837  -1.337   5.378  1.00  0.00    -0.070 N 
ATOM     17  H13 UNL     1      -8.922  -2.292   5.728  1.00  0.00     0.274 HD
ATOM     18  H12 UNL     1      -8.330  -0.928   6.164  1.00  0.00     0.274 HD
ATOM     19  H11 UNL     1      -9.750  -0.900   5.251  1.00  0.00     0.274 HD
ENDBRANCH  10  16
BRANCH  11  20
HETATM   20  O12 UNL     1      -7.609   0.077   2.327  1.00  0.00    -0.391 OA
ATOM     21  H12 UNL     1      -7.467   0.948   1.976  1.00  0.00     0.210 HD
ENDBRANCH  11  20
BRANCH  12  22
HETATM   22  C23 UNL     1      -7.481   2.289   4.652  1.00  0.00     0.198 C 
BRANCH  22  23
HETATM   23  O11 UNL     1      -7.181   2.787   5.907  1.00  0.00    -0.398 OA
ATOM     24  H11 UNL     1      -6.368   3.278   5.883  1.00  0.00     0.209 HD
ENDBRANCH  22  23
ENDBRANCH  12  22
ENDBRANCH   7   8
ENDBRANCH   6   7
ENDBRANCH   1   6
BRANCH   2  25
HETATM   25  O3  UNL     1      -3.523   2.115   6.632  1.00  0.00    -0.392 OA
ATOM     26  H3  UNL     1      -3.584   2.947   7.088  1.00  0.00     0.210 HD
ENDBRANCH   2  25
BRANCH   5  27
HETATM   27  O9  UNL     1      -2.289  -1.848   7.873  1.00  0.00    -0.394 OA
ATOM     28  H9  UNL     1      -2.110  -2.636   7.373  1.00  0.00     0.210 HD
ENDBRANCH   5  27
BRANCH   3  29
HETATM   29  O4  UNL     1      -2.572   2.091   9.266  1.00  0.00    -0.369 OA
BRANCH  29  30
HETATM   30  C8  UNL     1      -2.074   1.984  10.523  1.00  0.00     0.208 C 
HETATM   31  C9  UNL     1      -0.574   1.853  10.610  1.00  0.00     0.175 C 
HETATM   32  C10 UNL     1      -0.384   0.906  11.745  1.00  0.00     0.205 C 
HETATM   33  O6  UNL     1      -1.604   0.447  12.186  1.00  0.00    -0.356 OA
HETATM   34  C11 UNL     1      -2.564   0.767  11.212  1.00  0.00     0.295 C 
BRANCH  31  35
HETATM   35  O5  UNL     1      -0.011   3.108  10.813  1.00  0.00    -0.391 OA
ATOM     36  H5  UNL     1       0.823   3.157  10.362  1.00  0.00     0.210 HD
ENDBRANCH  31  35
BRANCH  34  37
HETATM   37  O7  UNL     1      -3.761   0.855  11.866  1.00  0.00    -0.319 OA
BRANCH  37  38
HETATM   38  C12 UNL     1      -4.625  -0.227  11.627  1.00  0.00     0.333 C 
HETATM   39  C13 UNL     1      -5.524  -0.421  12.687  1.00  0.00    -0.124 C 
HETATM   40  C14 UNL     1      -6.196  -0.729  13.878  1.00  0.00     0.085 C 
HETATM   41  C15 UNL     1      -7.711  -0.506  13.554  1.00  0.00     0.011 C 
HETATM   42  C16 UNL     1      -8.134  -0.902  12.195  1.00  0.00     0.003 C 
HETATM   43  C17 UNL     1      -7.850  -0.053  10.992  1.00  0.00     0.026 C 
HETATM   44  C18 UNL     1      -6.565  -0.450  10.252  1.00  0.00     0.172 C 
HETATM   45  O8  UNL     1      -5.403   0.162  10.485  1.00  0.00    -0.351 OA
ENDBRANCH  37  38
ENDBRANCH  34  37
ENDBRANCH  29  30
ENDBRANCH   3  29
BRANCH   4  46
HETATM   46  S1  UNL     1      -1.000   1.603   6.535  1.00  0.00    -0.163 SA
HETATM   47  C20 UNL     1       0.241   2.741   7.174  1.00  0.00     0.090 C 
ENDBRANCH   4  46
TORSDOF 16
ENDMDL
MODEL 4
REMARK VINA RESULT: -7.469331787      3.218      7.929
REMARK  16 active torsions:
REMARK  status: ('A' for Active; 'I' for Inactive)
REMARK    1  A    between atoms: O1_2  and  C2_3 
REMARK    2  A    between atoms: C3_4  and  O2_5 
REMARK    3  A    between atoms: O2_5  and  C4_6 
REMARK    4  A    between atoms: C4_6  and  C5_7 
REMARK    5  A    between atoms: C6_8  and  O3_9 
REMARK    6  A    between atoms: C7_11  and  O4_12 
REMARK    7  A    between atoms: O4_12  and  C8_13 
REMARK    8  A    between atoms: C9_14  and  O5_15 
REMARK    9  A    between atoms: C11_19  and  O7_20 
REMARK   10  A    between atoms: O7_20  and  C12_21 
REMARK   11  A    between atoms: C19_29  and  S1_30 
REMARK   12  A    between atoms: C21_32  and  O9_33 
REMARK   13  A    between atoms: C22_36  and  C23_37 
REMARK   14  A    between atoms: C23_37  and  O11_38 
REMARK   15  A    between atoms: C24_40  and  O12_41 
REMARK   16  A    between atoms: C25_43  and  N1_44 
ROOT
HETATM    1  C5  UNL     1      -0.579   1.182  10.220  1.00  0.00     0.071 C 
HETATM    2  C6  UNL     1      -1.320   0.385   9.136  1.00  0.00     0.157 C 
HETATM    3  C7  UNL     1      -2.400   1.364   8.741  1.00  0.00     0.167 C 
HETATM    4  C19 UNL     1      -1.595   2.601   8.521  1.00  0.00     0.107 C 
HETATM    5  C21 UNL     1      -0.856   2.653   9.874  1.00  0.00     0.143 C 
ENDROOT
BRANCH   1   6
HETATM    6  C4  UNL     1      -1.178   0.808  11.529  1.00  0.00     0.180 C 
BRANCH   6   7
HETATM    7  O2  UNL     1      -0.441   1.032  12.657  1.00  0.00    -0.358 OA
BRANCH   7   8
HETATM    8  C3  UNL     1       0.917   0.895  12.542  1.00  0.00     0.291 C 
HETATM    9  C2  UNL     1       1.615   2.185  12.798  1.00  0.00     0.208 C 
HETATM   10  C25 UNL     1       2.426   2.103  14.105  1.00  0.00     0.248 C 
HETATM   11  C24 UNL     1       3.463   1.039  13.913  1.00  0.00     0.182 C 
HETATM   12  C22 UNL     1       2.759  -0.138  13.250  1.00  0.00     0.179 C 
HETATM   13  O10 UNL     1       1.386  -0.068  13.505  1.00  0.00    -0.349 OA
BRANCH   9  14
HETATM   14  O1  UNL     1       0.779   3.278  12.986  1.00  0.00    -0.384 OA
HETATM   15  C1  UNL     1       1.436   4.392  12.438  1.00  0.00     0.202 C 
ENDBRANCH   9  14
BRANCH  10  16
HETATM   16  N1  UNL     1       1.584   1.780  15.211  1.00  0.00    -0.070 N 
ATOM     17  H13 UNL     1       1.221   2.619  15.665  1.00  0.00     0.274 HD
ATOM     18  H12 UNL     1       0.699   1.375  14.904  1.00  0.00     0.274 HD
ATOM     19  H11 UNL     1       2.066   1.173  15.873  1.00  0.00     0.274 HD
ENDBRANCH  10  16
BRANCH  11  20
HETATM   20  O12 UNL     1       4.470   1.555  13.105  1.00  0.00    -0.391 OA
ATOM     21  H12 UNL     1       5.082   2.085  13.603  1.00  0.00     0.210 HD
ENDBRANCH  11  20
BRANCH  12  22
HETATM   22  C23 UNL     1       3.399  -1.401  13.762  1.00  0.00     0.198 C 
BRANCH  22  23
HETATM   23  O11 UNL     1       2.589  -2.004  14.707  1.00  0.00    -0.398 OA
ATOM     24  H11 UNL     1       2.802  -2.926  14.786  1.00  0.00     0.209 HD
ENDBRANCH  22  23
ENDBRANCH  12  22
ENDBRANCH   7   8
ENDBRANCH   6   7
ENDBRANCH   1   6
BRANCH   2  25
HETATM   25  O3  UNL     1      -0.439   0.077   8.132  1.00  0.00    -0.392 OA
ATOM     26  H3  UNL     1      -0.710  -0.737   7.724  1.00  0.00     0.210 HD
ENDBRANCH   2  25
BRANCH   5  27
HETATM   27  O9  UNL     1      -1.691   3.225  10.833  1.00  0.00    -0.394 OA
ATOM     28  H9  UNL     1      -1.257   3.243  11.678  1.00  0.00     0.210 HD
ENDBRANCH   5  27
BRANCH   3  29
HETATM   29  O4  UNL     1      -3.086   0.865   7.668  1.00  0.00    -0.369 OA
BRANCH  29  30
HETATM   30  C8  UNL     1      -3.790  -0.272   7.890  1.00  0.00     0.208 C 
HETATM   31  C9  UNL     1      -3.440  -1.431   6.990  1.00  0.00     0.175 C 
HETATM   32  C10 UNL     1      -4.757  -2.086   6.756  1.00  0.00     0.205 C 
HETATM   33  O6  UNL     1      -5.762  -1.347   7.337  1.00  0.00    -0.356 OA
HETATM   34  C11 UNL     1      -5.241  -0.082   7.653  1.00  0.00     0.295 C 
BRANCH  31  35
HETATM   35  O5  UNL     1      -2.502  -2.241   7.621  1.00  0.00    -0.391 OA
ATOM     36  H5  UNL     1      -1.769  -2.391   7.036  1.00  0.00     0.210 HD
ENDBRANCH  31  35
BRANCH  34  37
HETATM   37  O7  UNL     1      -5.989   0.395   8.693  1.00  0.00    -0.319 OA
BRANCH  37  38
HETATM   38  C12 UNL     1      -6.249  -0.555   9.694  1.00  0.00     0.333 C 
HETATM   39  C13 UNL     1      -5.320  -0.476  10.743  1.00  0.00    -0.124 C 
HETATM   40  C14 UNL     1      -4.218  -0.528  11.607  1.00  0.00     0.085 C 
HETATM   41  C15 UNL     1      -4.781  -0.105  13.004  1.00  0.00     0.011 C 
HETATM   42  C16 UNL     1      -6.144  -0.587  13.311  1.00  0.00     0.003 C 
HETATM   43  C17 UNL     1      -7.368   0.056  12.729  1.00  0.00     0.026 C 
HETATM   44  C18 UNL     1      -7.868  -0.627  11.449  1.00  0.00     0.172 C 
HETATM   45  O8  UNL     1      -7.525  -0.186  10.237  1.00  0.00    -0.351 OA
ENDBRANCH  37  38
ENDBRANCH  34  37
ENDBRANCH  29  30
ENDBRANCH   3  29
BRANCH   4  46
HETATM   46  S1  UNL     1      -0.377   2.485   7.215  1.00  0.00    -0.163 SA
HETATM   47  C20 UNL     1       1.197   3.243   7.651  1.00  0.00     0.090 C 
ENDBRANCH   4  46
TORSDOF 16
ENDMDL
MODEL 5
REMARK VINA RESULT: -7.468689875      2.572      3.658
REMARK  16 active torsions:
REMARK  status: ('A' for Active; 'I' for Inactive)
REMARK    1  A    between atoms: O1_2  and  C2_3 
REMARK    2  A    between atoms: C3_4  and  O2_5 
REMARK    3  A    between atoms: O2_5  and  C4_6 
REMARK    4  A    between atoms: C4_6  and  C5_7 
REMARK    5  A    between atoms: C6_8  and  O3_9 
REMARK    6  A    between atoms: C7_11  and  O4_12 
REMARK    7  A    between atoms: O4_12  and  C8_13 
REMARK    8  A    between atoms: C9_14  and  O5_15 
REMARK    9  A    between atoms: C11_19  and  O7_20 
REMARK   10  A    between atoms: O7_20  and  C12_21 
REMARK   11  A    between atoms: C19_29  and  S1_30 
REMARK   12  A    between atoms: C21_32  and  O9_33 
REMARK   13  A    between atoms: C22_36  and  C23_37 
REMARK   14  A    between atoms: C23_37  and  O11_38 
REMARK   15  A    between atoms: C24_40  and  O12_41 
REMARK   16  A    between atoms: C25_43  and  N1_44 
ROOT
HETATM    1  C5  UNL     1      -4.534   2.515   4.144  1.00  0.00     0.071 C 
HETATM    2  C6  UNL     1      -4.769   2.393   5.657  1.00  0.00     0.157 C 
HETATM    3  C7  UNL     1      -3.691   1.409   6.041  1.00  0.00     0.167 C 
HETATM    4  C19 UNL     1      -2.499   2.024   5.388  1.00  0.00     0.107 C 
HETATM    5  C21 UNL     1      -3.052   2.160   3.954  1.00  0.00     0.143 C 
ENDROOT
BRANCH   1   6
HETATM    6  C4  UNL     1      -5.422   1.524   3.480  1.00  0.00     0.180 C 
BRANCH   6   7
HETATM    7  O2  UNL     1      -6.727   1.466   3.879  1.00  0.00    -0.358 OA
BRANCH   7   8
HETATM    8  C3  UNL     1      -7.293   0.222   3.952  1.00  0.00     0.291 C 
HETATM    9  C2  UNL     1      -8.389   0.067   2.956  1.00  0.00     0.208 C 
HETATM   10  C25 UNL     1      -7.988  -0.952   1.872  1.00  0.00     0.248 C 
HETATM   11  C24 UNL     1      -7.788  -2.268   2.559  1.00  0.00     0.182 C 
HETATM   12  C22 UNL     1      -6.990  -1.981   3.824  1.00  0.00     0.179 C 
HETATM   13  O10 UNL     1      -6.293  -0.778   3.676  1.00  0.00    -0.349 OA
BRANCH   9  14
HETATM   14  O1  UNL     1      -8.700   1.217   2.241  1.00  0.00    -0.384 OA
HETATM   15  C1  UNL     1     -10.071   1.457   2.433  1.00  0.00     0.202 C 
ENDBRANCH   9  14
BRANCH  10  16
HETATM   16  N1  UNL     1      -6.787  -0.551   1.213  1.00  0.00    -0.070 N 
ATOM     17  H13 UNL     1      -6.957   0.202   0.546  1.00  0.00     0.274 HD
ATOM     18  H12 UNL     1      -6.157  -0.057   1.846  1.00  0.00     0.274 HD
ATOM     19  H11 UNL     1      -6.328  -1.348   0.771  1.00  0.00     0.274 HD
ENDBRANCH  10  16
BRANCH  11  20
HETATM   20  O12 UNL     1      -9.040  -2.799   2.852  1.00  0.00    -0.391 OA
ATOM     21  H12 UNL     1      -9.448  -3.179   2.084  1.00  0.00     0.210 HD
ENDBRANCH  11  20
BRANCH  12  22
HETATM   22  C23 UNL     1      -6.093  -3.165   4.077  1.00  0.00     0.198 C 
BRANCH  22  23
HETATM   23  O11 UNL     1      -6.790  -4.167   4.726  1.00  0.00    -0.398 OA
ATOM     24  H11 UNL     1      -6.465  -4.276   5.612  1.00  0.00     0.209 HD
ENDBRANCH  22  23
ENDBRANCH  12  22
ENDBRANCH   7   8
ENDBRANCH   6   7
ENDBRANCH   1   6
BRANCH   2  25
HETATM   25  O3  UNL     1      -4.634   3.633   6.228  1.00  0.00    -0.392 OA
ATOM     26  H3  UNL     1      -4.101   3.555   7.010  1.00  0.00     0.210 HD
ENDBRANCH   2  25
BRANCH   5  27
HETATM   27  O9  UNL     1      -2.930   0.937   3.295  1.00  0.00    -0.394 OA
ATOM     28  H9  UNL     1      -3.164   0.225   3.879  1.00  0.00     0.210 HD
ENDBRANCH   5  27
BRANCH   3  29
HETATM   29  O4  UNL     1      -3.662   1.285   7.403  1.00  0.00    -0.369 OA
BRANCH  29  30
HETATM   30  C8  UNL     1      -4.005   0.069   7.896  1.00  0.00     0.208 C 
HETATM   31  C9  UNL     1      -3.455  -1.111   7.134  1.00  0.00     0.175 C 
HETATM   32  C10 UNL     1      -4.565  -2.103   7.204  1.00  0.00     0.205 C 
HETATM   33  O6  UNL     1      -5.662  -1.543   7.817  1.00  0.00    -0.356 OA
HETATM   34  C11 UNL     1      -5.470  -0.152   7.859  1.00  0.00     0.295 C 
BRANCH  31  35
HETATM   35  O5  UNL     1      -2.272  -1.534   7.727  1.00  0.00    -0.391 OA
ATOM     36  H5  UNL     1      -1.969  -2.326   7.299  1.00  0.00     0.210 HD
ENDBRANCH  31  35
BRANCH  34  37
HETATM   37  O7  UNL     1      -6.201   0.306   8.919  1.00  0.00    -0.319 OA
BRANCH  37  38
HETATM   38  C12 UNL     1      -6.379  -0.638   9.943  1.00  0.00     0.333 C 
HETATM   39  C13 UNL     1      -5.448  -0.466  10.979  1.00  0.00    -0.124 C 
HETATM   40  C14 UNL     1      -4.336  -0.417  11.830  1.00  0.00     0.085 C 
HETATM   41  C15 UNL     1      -4.915  -0.007  13.225  1.00  0.00     0.011 C 
HETATM   42  C16 UNL     1      -6.235  -0.583  13.558  1.00  0.00     0.003 C 
HETATM   43  C17 UNL     1      -7.509  -0.046  12.977  1.00  0.00     0.026 C 
HETATM   44  C18 UNL     1      -7.969  -0.792  11.718  1.00  0.00     0.172 C 
HETATM   45  O8  UNL     1      -7.673  -0.353  10.494  1.00  0.00    -0.351 OA
ENDBRANCH  37  38
ENDBRANCH  34  37
ENDBRANCH  29  30
ENDBRANCH   3  29
BRANCH   4  46
HETATM   46  S1  UNL     1      -2.069   3.655   5.985  1.00  0.00    -0.163 SA
HETATM   47  C20 UNL     1      -1.011   3.617   7.441  1.00  0.00     0.090 C 
ENDBRANCH   4  46
TORSDOF 16
ENDMDL
