MODEL 1
REMARK VINA RESULT: -8.282508002      0.000      0.000
REMARK  19 active torsions:
REMARK  status: ('A' for Active; 'I' for Inactive)
REMARK    1  A    between atoms: C2_2  and  O2_4 
REMARK    2  A    between atoms: O2_4  and  C3_5 
REMARK    3  A    between atoms: C4_6  and  O3_7 
REMARK    4  A    between atoms: C5_9  and  O4_10 
REMARK    5  A    between atoms: O4_10  and  C6_11 
REMARK    6  A    between atoms: C6_11  and  C7_13 
REMARK    7  A    between atoms: C8_14  and  C9_15 
REMARK    8  A    between atoms: C9_15  and  O6_18 
REMARK    9  A    between atoms: C12_20  and  O7_21 
REMARK   10  A    between atoms: C13_23  and  O8_24 
REMARK   11  A    between atoms: C14_26  and  C15_27 
REMARK   12  A    between atoms: C15_27  and  O9_28 
REMARK   13  A    between atoms: C15_27  and  C23_37 
REMARK   14  A    between atoms: O9_28  and  C16_29 
REMARK   15  A    between atoms: C16_29  and  C17_31 
REMARK   16  A    between atoms: C23_37  and  O12_39 
REMARK   17  A    between atoms: O12_39  and  C24_40 
REMARK       I    between atoms: C24_40  and  N1_42 
REMARK   18  A    between atoms: N1_42  and  N2_44 
REMARK   19  A    between atoms: N2_44  and  C25_46 
ROOT
HETATM    1  C3  UNL     1      -8.450  -0.618   4.690  1.00  0.00     0.172 C 
HETATM    2  C4  UNL     1      -8.526  -0.331   3.156  1.00  0.00     0.180 C 
HETATM    3  C5  UNL     1      -8.540   1.171   3.078  1.00  0.00     0.194 C 
HETATM    4  C12 UNL     1      -7.367   1.852   3.696  1.00  0.00     0.179 C 
HETATM    5  C13 UNL     1      -6.815   1.246   4.934  1.00  0.00     0.159 C 
HETATM    6  C14 UNL     1      -7.063  -0.236   5.058  1.00  0.00     0.088 C 
ENDROOT
BRANCH   6   7
HETATM    7  C15 UNL     1      -6.615  -0.840   6.340  1.00  0.00     0.241 C 
BRANCH   7   8
HETATM    8  O9  UNL     1      -6.431   0.017   7.411  1.00  0.00    -0.301 OA
BRANCH   8   9
HETATM    9  C16 UNL     1      -7.215   0.136   8.529  1.00  0.00     0.294 C 
HETATM   10  O10 UNL     1      -8.432   0.432   8.298  1.00  0.00    -0.259 OA
BRANCH   9  11
HETATM   11  C17 UNL     1      -6.746  -0.050   9.894  1.00  0.00     0.039 A 
HETATM   12  C18 UNL     1      -5.389  -0.097  10.136  1.00  0.00     0.017 A 
HETATM   13  C19 UNL     1      -4.853  -0.267  11.395  1.00  0.00     0.001 A 
HETATM   14  C20 UNL     1      -5.724  -0.394  12.459  1.00  0.00     0.000 A 
HETATM   15  C21 UNL     1      -7.079  -0.353  12.263  1.00  0.00     0.001 A 
HETATM   16  C22 UNL     1      -7.578  -0.179  10.968  1.00  0.00     0.017 A 
ENDBRANCH   9  11
ENDBRANCH   8   9
ENDBRANCH   7   8
BRANCH   7  17
HETATM   17  C23 UNL     1      -5.464  -1.776   6.146  1.00  0.00     0.298 C 
HETATM   18  O11 UNL     1      -4.774  -2.179   7.093  1.00  0.00    -0.262 OA
BRANCH  17  19
HETATM   19  O12 UNL     1      -5.165  -2.202   4.880  1.00  0.00    -0.224 OA
BRANCH  19  20
HETATM   20  C24 UNL     1      -5.778  -3.335   4.315  1.00  0.00     0.387 C 
HETATM   21  O13 UNL     1      -5.911  -4.313   5.095  1.00  0.00    -0.236 OA
HETATM   22  N1  UNL     1      -6.219  -3.394   2.974  1.00  0.00    -0.243 N 
ATOM     23  H1  UNL     1      -6.103  -2.591   2.355  1.00  0.00     0.192 HD
BRANCH  22  24
HETATM   24  N2  UNL     1      -6.814  -4.562   2.512  1.00  0.00    -0.273 N 
ATOM     25  H2  UNL     1      -6.281  -5.432   2.499  1.00  0.00     0.189 HD
BRANCH  24  26
HETATM   26  C25 UNL     1      -8.170  -4.551   2.054  1.00  0.00     0.368 C 
HETATM   27  O14 UNL     1      -8.674  -3.495   1.588  1.00  0.00    -0.282 OA
ENDBRANCH  24  26
ENDBRANCH  22  24
ENDBRANCH  19  20
ENDBRANCH  17  19
ENDBRANCH   7  17
ENDBRANCH   6   7
BRANCH   1  28
HETATM   28  O2  UNL     1      -9.377   0.251   5.309  1.00  0.00    -0.313 OA
BRANCH  28  29
HETATM   29  C2  UNL     1     -10.689  -0.007   5.579  1.00  0.00     0.255 C 
HETATM   30  C1  UNL     1     -11.670   1.089   5.723  1.00  0.00     0.126 C 
HETATM   31  O1  UNL     1     -11.021  -1.226   5.698  1.00  0.00    -0.266 OA
ENDBRANCH  28  29
ENDBRANCH   1  28
BRANCH   5  32
HETATM   32  O8  UNL     1      -7.305   1.955   6.027  1.00  0.00    -0.392 OA
ATOM     33  H8  UNL     1      -8.224   2.142   5.876  1.00  0.00     0.210 HD
ENDBRANCH   5  32
BRANCH   2  34
HETATM   34  O3  UNL     1      -7.391  -0.878   2.601  1.00  0.00    -0.390 OA
ATOM     35  H3  UNL     1      -7.259  -0.437   1.771  1.00  0.00     0.210 HD
ENDBRANCH   2  34
BRANCH   4  36
HETATM   36  O7  UNL     1      -7.625   3.234   3.890  1.00  0.00    -0.390 OA
ATOM     37  H7  UNL     1      -8.066   3.608   3.136  1.00  0.00     0.210 HD
ENDBRANCH   4  36
BRANCH   3  38
HETATM   38  O4  UNL     1      -8.854   1.634   1.781  1.00  0.00    -0.307 OA
BRANCH  38  39
HETATM   39  C6  UNL     1      -9.768   2.650   1.540  1.00  0.00     0.283 C 
HETATM   40  O5  UNL     1      -9.265   3.777   1.222  1.00  0.00    -0.260 OA
BRANCH  39  41
HETATM   41  C7  UNL     1     -11.210   2.515   1.626  1.00  0.00     0.081 C 
HETATM   42  C8  UNL     1     -11.864   1.431   1.277  1.00  0.00     0.016 C 
BRANCH  42  43
HETATM   43  C9  UNL     1     -13.318   1.271   1.356  1.00  0.00     0.069 C 
HETATM   44  C10 UNL     1     -14.123   2.261   0.582  1.00  0.00     0.050 C 
HETATM   45  C11 UNL     1     -13.826   1.326   2.802  1.00  0.00     0.050 C 
BRANCH  43  46
HETATM   46  O6  UNL     1     -13.657  -0.001   0.851  1.00  0.00    -0.387 OA
ATOM     47  H6  UNL     1     -13.841  -0.576   1.585  1.00  0.00     0.211 HD
ENDBRANCH  43  46
ENDBRANCH  42  43
ENDBRANCH  39  41
ENDBRANCH  38  39
ENDBRANCH   3  38
TORSDOF 19
ENDMDL
MODEL 2
REMARK VINA RESULT: -8.238118504      2.557      4.062
REMARK  19 active torsions:
REMARK  status: ('A' for Active; 'I' for Inactive)
REMARK    1  A    between atoms: C2_2  and  O2_4 
REMARK    2  A    between atoms: O2_4  and  C3_5 
REMARK    3  A    between atoms: C4_6  and  O3_7 
REMARK    4  A    between atoms: C5_9  and  O4_10 
REMARK    5  A    between atoms: O4_10  and  C6_11 
REMARK    6  A    between atoms: C6_11  and  C7_13 
REMARK    7  A    between atoms: C8_14  and  C9_15 
REMARK    8  A    between atoms: C9_15  and  O6_18 
REMARK    9  A    between atoms: C12_20  and  O7_21 
REMARK   10  A    between atoms: C13_23  and  O8_24 
REMARK   11  A    between atoms: C14_26  and  C15_27 
REMARK   12  A    between atoms: C15_27  and  O9_28 
REMARK   13  A    between atoms: C15_27  and  C23_37 
REMARK   14  A    between atoms: O9_28  and  C16_29 
REMARK   15  A    between atoms: C16_29  and  C17_31 
REMARK   16  A    between atoms: C23_37  and  O12_39 
REMARK   17  A    between atoms: O12_39  and  C24_40 
REMARK       I    between atoms: C24_40  and  N1_42 
REMARK   18  A    between atoms: N1_42  and  N2_44 
REMARK   19  A    between atoms: N2_44  and  C25_46 
ROOT
HETATM    1  C3  UNL     1      -6.790  -1.237   5.838  1.00  0.00     0.172 C 
HETATM    2  C4  UNL     1      -7.135  -1.954   4.494  1.00  0.00     0.180 C 
HETATM    3  C5  UNL     1      -6.309  -1.214   3.478  1.00  0.00     0.194 C 
HETATM    4  C12 UNL     1      -4.840  -1.213   3.727  1.00  0.00     0.179 C 
HETATM    5  C13 UNL     1      -4.400  -1.130   5.143  1.00  0.00     0.159 C 
HETATM    6  C14 UNL     1      -5.401  -1.672   6.132  1.00  0.00     0.088 C 
ENDROOT
BRANCH   6   7
HETATM    7  C15 UNL     1      -5.026  -1.497   7.559  1.00  0.00     0.241 C 
BRANCH   7   8
HETATM    8  O9  UNL     1      -4.858  -0.201   8.014  1.00  0.00    -0.301 OA
BRANCH   8   9
HETATM    9  C16 UNL     1      -4.697   0.215   9.310  1.00  0.00     0.294 C 
HETATM   10  O10 UNL     1      -3.625   0.866   9.532  1.00  0.00    -0.259 OA
BRANCH   9  11
HETATM   11  C17 UNL     1      -5.644  -0.040  10.386  1.00  0.00     0.039 A 
HETATM   12  C18 UNL     1      -5.184  -0.092  11.685  1.00  0.00     0.017 A 
HETATM   13  C19 UNL     1      -6.006  -0.324  12.767  1.00  0.00     0.001 A 
HETATM   14  C20 UNL     1      -7.354  -0.513  12.530  1.00  0.00     0.000 A 
HETATM   15  C21 UNL     1      -7.852  -0.469  11.255  1.00  0.00     0.001 A 
HETATM   16  C22 UNL     1      -6.980  -0.230  10.187  1.00  0.00     0.017 A 
ENDBRANCH   9  11
ENDBRANCH   8   9
ENDBRANCH   7   8
BRANCH   7  17
HETATM   17  C23 UNL     1      -3.900  -2.398   7.957  1.00  0.00     0.298 C 
HETATM   18  O11 UNL     1      -3.489  -2.467   9.124  1.00  0.00    -0.262 OA
BRANCH  17  19
HETATM   19  O12 UNL     1      -3.305  -3.175   6.999  1.00  0.00    -0.224 OA
BRANCH  19  20
HETATM   20  C24 UNL     1      -3.513  -4.565   6.937  1.00  0.00     0.387 C 
HETATM   21  O13 UNL     1      -3.177  -5.106   5.852  1.00  0.00    -0.236 OA
HETATM   22  N1  UNL     1      -4.056  -5.318   8.002  1.00  0.00    -0.243 N 
ATOM     23  H1  UNL     1      -4.323  -4.863   8.875  1.00  0.00     0.192 HD
BRANCH  22  24
HETATM   24  N2  UNL     1      -4.221  -6.688   7.841  1.00  0.00    -0.273 N 
ATOM     25  H2  UNL     1      -4.404  -7.072   6.914  1.00  0.00     0.189 HD
BRANCH  24  26
HETATM   26  C25 UNL     1      -4.137  -7.565   8.970  1.00  0.00     0.368 C 
HETATM   27  O14 UNL     1      -4.410  -7.142  10.124  1.00  0.00    -0.282 OA
ENDBRANCH  24  26
ENDBRANCH  22  24
ENDBRANCH  19  20
ENDBRANCH  17  19
ENDBRANCH   7  17
ENDBRANCH   6   7
BRANCH   1  28
HETATM   28  O2  UNL     1      -6.822   0.152   5.575  1.00  0.00    -0.313 OA
BRANCH  28  29
HETATM   29  C2  UNL     1      -7.726   1.056   6.051  1.00  0.00     0.255 C 
HETATM   30  C1  UNL     1      -8.726   0.673   7.068  1.00  0.00     0.126 C 
HETATM   31  O1  UNL     1      -7.662   2.232   5.579  1.00  0.00    -0.266 OA
ENDBRANCH  28  29
ENDBRANCH   1  28
BRANCH   5  32
HETATM   32  O8  UNL     1      -4.050   0.188   5.418  1.00  0.00    -0.392 OA
ATOM     33  H8  UNL     1      -4.110   0.326   6.355  1.00  0.00     0.210 HD
ENDBRANCH   5  32
BRANCH   2  34
HETATM   34  O3  UNL     1      -6.740  -3.265   4.640  1.00  0.00    -0.390 OA
ATOM     35  H3  UNL     1      -7.536  -3.776   4.727  1.00  0.00     0.210 HD
ENDBRANCH   2  34
BRANCH   4  36
HETATM   36  O7  UNL     1      -4.191  -0.223   2.944  1.00  0.00    -0.390 OA
ATOM     37  H7  UNL     1      -3.255  -0.381   2.903  1.00  0.00     0.210 HD
ENDBRANCH   4  36
BRANCH   3  38
HETATM   38  O4  UNL     1      -6.666  -1.552   2.153  1.00  0.00    -0.307 OA
BRANCH  38  39
HETATM   39  C6  UNL     1      -7.957  -1.432   1.662  1.00  0.00     0.283 C 
HETATM   40  O5  UNL     1      -8.514  -2.522   1.308  1.00  0.00    -0.260 OA
BRANCH  39  41
HETATM   41  C7  UNL     1      -8.690  -0.185   1.531  1.00  0.00     0.081 C 
HETATM   42  C8  UNL     1      -9.063   0.553   2.550  1.00  0.00     0.016 C 
BRANCH  42  43
HETATM   43  C9  UNL     1      -9.801   1.814   2.442  1.00  0.00     0.069 C 
HETATM   44  C10 UNL     1     -11.059   1.763   1.643  1.00  0.00     0.050 C 
HETATM   45  C11 UNL     1      -8.943   2.933   1.841  1.00  0.00     0.050 C 
BRANCH  43  46
HETATM   46  O6  UNL     1     -10.167   2.230   3.738  1.00  0.00    -0.387 OA
ATOM     47  H6  UNL     1     -10.682   3.025   3.665  1.00  0.00     0.211 HD
ENDBRANCH  43  46
ENDBRANCH  42  43
ENDBRANCH  39  41
ENDBRANCH  38  39
ENDBRANCH   3  38
TORSDOF 19
ENDMDL
MODEL 3
REMARK VINA RESULT: -8.230615596      2.518      3.394
REMARK  19 active torsions:
REMARK  status: ('A' for Active; 'I' for Inactive)
REMARK    1  A    between atoms: C2_2  and  O2_4 
REMARK    2  A    between atoms: O2_4  and  C3_5 
REMARK    3  A    between atoms: C4_6  and  O3_7 
REMARK    4  A    between atoms: C5_9  and  O4_10 
REMARK    5  A    between atoms: O4_10  and  C6_11 
REMARK    6  A    between atoms: C6_11  and  C7_13 
REMARK    7  A    between atoms: C8_14  and  C9_15 
REMARK    8  A    between atoms: C9_15  and  O6_18 
REMARK    9  A    between atoms: C12_20  and  O7_21 
REMARK   10  A    between atoms: C13_23  and  O8_24 
REMARK   11  A    between atoms: C14_26  and  C15_27 
REMARK   12  A    between atoms: C15_27  and  O9_28 
REMARK   13  A    between atoms: C15_27  and  C23_37 
REMARK   14  A    between atoms: O9_28  and  C16_29 
REMARK   15  A    between atoms: C16_29  and  C17_31 
REMARK   16  A    between atoms: C23_37  and  O12_39 
REMARK   17  A    between atoms: O12_39  and  C24_40 
REMARK       I    between atoms: C24_40  and  N1_42 
REMARK   18  A    between atoms: N1_42  and  N2_44 
REMARK   19  A    between atoms: N2_44  and  C25_46 
ROOT
HETATM    1  C3  UNL     1      -6.336  -1.233   5.078  1.00  0.00     0.172 C 
HETATM    2  C4  UNL     1      -5.805  -1.046   3.622  1.00  0.00     0.180 C 
HETATM    3  C5  UNL     1      -5.869   0.442   3.412  1.00  0.00     0.194 C 
HETATM    4  C12 UNL     1      -5.085   1.257   4.380  1.00  0.00     0.179 C 
HETATM    5  C13 UNL     1      -5.045   0.776   5.784  1.00  0.00     0.159 C 
HETATM    6  C14 UNL     1      -5.239  -0.712   5.931  1.00  0.00     0.088 C 
ENDROOT
BRANCH   6   7
HETATM    7  C15 UNL     1      -5.312  -1.197   7.334  1.00  0.00     0.241 C 
BRANCH   7   8
HETATM    8  O9  UNL     1      -5.464  -0.243   8.325  1.00  0.00    -0.301 OA
BRANCH   8   9
HETATM    9  C16 UNL     1      -6.528  -0.083   9.174  1.00  0.00     0.294 C 
HETATM   10  O10 UNL     1      -7.624   0.225   8.603  1.00  0.00    -0.259 OA
BRANCH   9  11
HETATM   11  C17 UNL     1      -6.466  -0.241  10.620  1.00  0.00     0.039 A 
HETATM   12  C18 UNL     1      -5.239  -0.206  11.246  1.00  0.00     0.017 A 
HETATM   13  C19 UNL     1      -5.083  -0.344  12.609  1.00  0.00     0.001 A 
HETATM   14  C20 UNL     1      -6.217  -0.525  13.377  1.00  0.00     0.000 A 
HETATM   15  C21 UNL     1      -7.456  -0.565  12.795  1.00  0.00     0.001 A 
HETATM   16  C22 UNL     1      -7.566  -0.421  11.408  1.00  0.00     0.017 A 
ENDBRANCH   9  11
ENDBRANCH   8   9
ENDBRANCH   7   8
BRANCH   7  17
HETATM   17  C23 UNL     1      -4.229  -2.183   7.644  1.00  0.00     0.298 C 
HETATM   18  O11 UNL     1      -3.768  -2.321   8.785  1.00  0.00    -0.262 OA
BRANCH  17  19
HETATM   19  O12 UNL     1      -3.734  -2.959   6.630  1.00  0.00    -0.224 OA
BRANCH  19  20
HETATM   20  C24 UNL     1      -3.641  -4.357   6.746  1.00  0.00     0.387 C 
HETATM   21  O13 UNL     1      -2.968  -4.923   5.845  1.00  0.00    -0.236 OA
HETATM   22  N1  UNL     1      -4.250  -5.094   7.787  1.00  0.00    -0.243 N 
ATOM     23  H1  UNL     1      -4.792  -4.620   8.509  1.00  0.00     0.192 HD
BRANCH  22  24
HETATM   24  N2  UNL     1      -4.097  -6.475   7.811  1.00  0.00    -0.273 N 
ATOM     25  H2  UNL     1      -3.707  -6.957   7.002  1.00  0.00     0.189 HD
BRANCH  24  26
HETATM   26  C25 UNL     1      -4.487  -7.225   8.967  1.00  0.00     0.368 C 
HETATM   27  O14 UNL     1      -3.660  -7.980   9.543  1.00  0.00    -0.282 OA
ENDBRANCH  24  26
ENDBRANCH  22  24
ENDBRANCH  19  20
ENDBRANCH  17  19
ENDBRANCH   7  17
ENDBRANCH   6   7
BRANCH   1  28
HETATM   28  O2  UNL     1      -7.481  -0.413   5.199  1.00  0.00    -0.313 OA
BRANCH  28  29
HETATM   29  C2  UNL     1      -8.778  -0.777   4.981  1.00  0.00     0.255 C 
HETATM   30  C1  UNL     1      -9.851  -0.375   5.913  1.00  0.00     0.126 C 
HETATM   31  O1  UNL     1      -9.012  -1.472   3.945  1.00  0.00    -0.266 OA
ENDBRANCH  28  29
ENDBRANCH   1  28
BRANCH   5  32
HETATM   32  O8  UNL     1      -5.972   1.503   6.525  1.00  0.00    -0.392 OA
ATOM     33  H8  UNL     1      -5.599   2.354   6.721  1.00  0.00     0.210 HD
ENDBRANCH   5  32
BRANCH   2  34
HETATM   34  O3  UNL     1      -4.514  -1.525   3.614  1.00  0.00    -0.390 OA
ATOM     35  H3  UNL     1      -3.998  -0.912   4.125  1.00  0.00     0.210 HD
ENDBRANCH   2  34
BRANCH   4  36
HETATM   36  O7  UNL     1      -5.475   2.621   4.332  1.00  0.00    -0.390 OA
ATOM     37  H7  UNL     1      -4.774   3.187   4.633  1.00  0.00     0.210 HD
ENDBRANCH   4  36
BRANCH   3  38
HETATM   38  O4  UNL     1      -5.659   0.798   2.061  1.00  0.00    -0.307 OA
BRANCH  38  39
HETATM   39  C6  UNL     1      -6.686   0.884   1.132  1.00  0.00     0.283 C 
HETATM   40  O5  UNL     1      -6.491   0.259   0.039  1.00  0.00    -0.260 OA
BRANCH  39  41
HETATM   41  C7  UNL     1      -7.926   1.615   1.320  1.00  0.00     0.081 C 
HETATM   42  C8  UNL     1      -9.069   1.048   1.629  1.00  0.00     0.016 C 
BRANCH  42  43
HETATM   43  C9  UNL     1     -10.331   1.765   1.825  1.00  0.00     0.069 C 
HETATM   44  C10 UNL     1     -10.422   3.107   1.180  1.00  0.00     0.050 C 
HETATM   45  C11 UNL     1     -10.653   1.968   3.310  1.00  0.00     0.050 C 
BRANCH  43  46
HETATM   46  O6  UNL     1     -11.376   0.989   1.283  1.00  0.00    -0.387 OA
ATOM     47  H6  UNL     1     -11.704   1.427   0.506  1.00  0.00     0.211 HD
ENDBRANCH  43  46
ENDBRANCH  42  43
ENDBRANCH  39  41
ENDBRANCH  38  39
ENDBRANCH   3  38
TORSDOF 19
ENDMDL
MODEL 4
REMARK VINA RESULT: -8.163006112      1.572      2.213
REMARK  19 active torsions:
REMARK  status: ('A' for Active; 'I' for Inactive)
REMARK    1  A    between atoms: C2_2  and  O2_4 
REMARK    2  A    between atoms: O2_4  and  C3_5 
REMARK    3  A    between atoms: C4_6  and  O3_7 
REMARK    4  A    between atoms: C5_9  and  O4_10 
REMARK    5  A    between atoms: O4_10  and  C6_11 
REMARK    6  A    between atoms: C6_11  and  C7_13 
REMARK    7  A    between atoms: C8_14  and  C9_15 
REMARK    8  A    between atoms: C9_15  and  O6_18 
REMARK    9  A    between atoms: C12_20  and  O7_21 
REMARK   10  A    between atoms: C13_23  and  O8_24 
REMARK   11  A    between atoms: C14_26  and  C15_27 
REMARK   12  A    between atoms: C15_27  and  O9_28 
REMARK   13  A    between atoms: C15_27  and  C23_37 
REMARK   14  A    between atoms: O9_28  and  C16_29 
REMARK   15  A    between atoms: C16_29  and  C17_31 
REMARK   16  A    between atoms: C23_37  and  O12_39 
REMARK   17  A    between atoms: O12_39  and  C24_40 
REMARK       I    between atoms: C24_40  and  N1_42 
REMARK   18  A    between atoms: N1_42  and  N2_44 
REMARK   19  A    between atoms: N2_44  and  C25_46 
ROOT
HETATM    1  C3  UNL     1      -8.058  -0.852   5.142  1.00  0.00     0.172 C 
HETATM    2  C4  UNL     1      -8.207  -0.677   3.597  1.00  0.00     0.180 C 
HETATM    3  C5  UNL     1      -8.376   0.808   3.426  1.00  0.00     0.194 C 
HETATM    4  C12 UNL     1      -7.262   1.642   3.957  1.00  0.00     0.179 C 
HETATM    5  C13 UNL     1      -6.616   1.177   5.211  1.00  0.00     0.159 C 
HETATM    6  C14 UNL     1      -6.708  -0.311   5.436  1.00  0.00     0.088 C 
ENDROOT
BRANCH   6   7
HETATM    7  C15 UNL     1      -6.163  -0.781   6.737  1.00  0.00     0.241 C 
BRANCH   7   8
HETATM    8  O9  UNL     1      -6.146   0.129   7.780  1.00  0.00    -0.301 OA
BRANCH   8   9
HETATM    9  C16 UNL     1      -6.932   0.126   8.903  1.00  0.00     0.294 C 
HETATM   10  O10 UNL     1      -8.173   0.315   8.687  1.00  0.00    -0.259 OA
BRANCH   9  11
HETATM   11  C17 UNL     1      -6.440  -0.074  10.258  1.00  0.00     0.039 A 
HETATM   12  C18 UNL     1      -7.347  -0.243  11.283  1.00  0.00     0.017 A 
HETATM   13  C19 UNL     1      -6.975  -0.441  12.595  1.00  0.00     0.001 A 
HETATM   14  C20 UNL     1      -5.626  -0.471  12.889  1.00  0.00     0.000 A 
HETATM   15  C21 UNL     1      -4.690  -0.308  11.902  1.00  0.00     0.001 A 
HETATM   16  C22 UNL     1      -5.115  -0.109  10.583  1.00  0.00     0.017 A 
ENDBRANCH   9  11
ENDBRANCH   8   9
ENDBRANCH   7   8
BRANCH   7  17
HETATM   17  C23 UNL     1      -4.858  -1.494   6.574  1.00  0.00     0.298 C 
HETATM   18  O11 UNL     1      -3.903  -1.309   7.340  1.00  0.00    -0.262 OA
BRANCH  17  19
HETATM   19  O12 UNL     1      -4.717  -2.384   5.542  1.00  0.00    -0.224 OA
BRANCH  19  20
HETATM   20  C24 UNL     1      -4.755  -3.774   5.753  1.00  0.00     0.387 C 
HETATM   21  O13 UNL     1      -5.568  -4.401   5.026  1.00  0.00    -0.236 OA
HETATM   22  N1  UNL     1      -3.949  -4.439   6.705  1.00  0.00    -0.243 N 
ATOM     23  H1  UNL     1      -3.295  -3.915   7.286  1.00  0.00     0.192 HD
BRANCH  22  24
HETATM   24  N2  UNL     1      -4.062  -5.818   6.835  1.00  0.00    -0.273 N 
ATOM     25  H2  UNL     1      -3.772  -6.426   6.069  1.00  0.00     0.189 HD
BRANCH  24  26
HETATM   26  C25 UNL     1      -4.583  -6.390   8.040  1.00  0.00     0.368 C 
HETATM   27  O14 UNL     1      -5.777  -6.786   8.090  1.00  0.00    -0.282 OA
ENDBRANCH  24  26
ENDBRANCH  22  24
ENDBRANCH  19  20
ENDBRANCH  17  19
ENDBRANCH   7  17
ENDBRANCH   6   7
BRANCH   1  28
HETATM   28  O2  UNL     1      -9.051  -0.042   5.738  1.00  0.00    -0.313 OA
BRANCH  28  29
HETATM   29  C2  UNL     1     -10.403  -0.205   5.653  1.00  0.00     0.255 C 
HETATM   30  C1  UNL     1     -11.302   0.954   5.476  1.00  0.00     0.126 C 
HETATM   31  O1  UNL     1     -10.843  -1.392   5.733  1.00  0.00    -0.266 OA
ENDBRANCH  28  29
ENDBRANCH   1  28
BRANCH   5  32
HETATM   32  O8  UNL     1      -7.143   1.904   6.274  1.00  0.00    -0.392 OA
ATOM     33  H8  UNL     1      -7.606   1.305   6.847  1.00  0.00     0.210 HD
ENDBRANCH   5  32
BRANCH   2  34
HETATM   34  O3  UNL     1      -7.039  -1.144   3.038  1.00  0.00    -0.390 OA
ATOM     35  H3  UNL     1      -6.636  -0.403   2.600  1.00  0.00     0.210 HD
ENDBRANCH   2  34
BRANCH   4  36
HETATM   36  O7  UNL     1      -7.654   3.001   4.073  1.00  0.00    -0.390 OA
ATOM     37  H7  UNL     1      -7.631   3.435   3.229  1.00  0.00     0.210 HD
ENDBRANCH   4  36
BRANCH   3  38
HETATM   38  O4  UNL     1      -8.773   1.151   2.114  1.00  0.00    -0.307 OA
BRANCH  38  39
HETATM   39  C6  UNL     1      -9.899   1.914   1.838  1.00  0.00     0.283 C 
HETATM   40  O5  UNL     1      -9.749   3.174   1.952  1.00  0.00    -0.260 OA
BRANCH  39  41
HETATM   41  C7  UNL     1     -11.191   1.385   1.441  1.00  0.00     0.081 C 
HETATM   42  C8  UNL     1     -12.329   1.757   1.979  1.00  0.00     0.016 C 
BRANCH  42  43
HETATM   43  C9  UNL     1     -13.644   1.239   1.595  1.00  0.00     0.069 C 
HETATM   44  C10 UNL     1     -14.452   2.117   0.701  1.00  0.00     0.050 C 
HETATM   45  C11 UNL     1     -14.520   0.928   2.815  1.00  0.00     0.050 C 
BRANCH  43  46
HETATM   46  O6  UNL     1     -13.461   0.024   0.903  1.00  0.00    -0.387 OA
ATOM     47  H6  UNL     1     -14.315  -0.333   0.690  1.00  0.00     0.211 HD
ENDBRANCH  43  46
ENDBRANCH  42  43
ENDBRANCH  39  41
ENDBRANCH  38  39
ENDBRANCH   3  38
TORSDOF 19
ENDMDL
MODEL 5
REMARK VINA RESULT: -7.920857977      1.569      2.131
REMARK  19 active torsions:
REMARK  status: ('A' for Active; 'I' for Inactive)
REMARK    1  A    between atoms: C2_2  and  O2_4 
REMARK    2  A    between atoms: O2_4  and  C3_5 
REMARK    3  A    between atoms: C4_6  and  O3_7 
REMARK    4  A    between atoms: C5_9  and  O4_10 
REMARK    5  A    between atoms: O4_10  and  C6_11 
REMARK    6  A    between atoms: C6_11  and  C7_13 
REMARK    7  A    between atoms: C8_14  and  C9_15 
REMARK    8  A    between atoms: C9_15  and  O6_18 
REMARK    9  A    between atoms: C12_20  and  O7_21 
REMARK   10  A    between atoms: C13_23  and  O8_24 
REMARK   11  A    between atoms: C14_26  and  C15_27 
REMARK   12  A    between atoms: C15_27  and  O9_28 
REMARK   13  A    between atoms: C15_27  and  C23_37 
REMARK   14  A    between atoms: O9_28  and  C16_29 
REMARK   15  A    between atoms: C16_29  and  C17_31 
REMARK   16  A    between atoms: C23_37  and  O12_39 
REMARK   17  A    between atoms: O12_39  and  C24_40 
REMARK       I    between atoms: C24_40  and  N1_42 
REMARK   18  A    between atoms: N1_42  and  N2_44 
REMARK   19  A    between atoms: N2_44  and  C25_46 
ROOT
HETATM    1  C3  UNL     1      -6.449   0.130   4.302  1.00  0.00     0.172 C 
HETATM    2  C4  UNL     1      -5.869   1.034   3.169  1.00  0.00     0.180 C 
HETATM    3  C5  UNL     1      -6.394   2.402   3.506  1.00  0.00     0.194 C 
HETATM    4  C12 UNL     1      -6.017   2.917   4.852  1.00  0.00     0.179 C 
HETATM    5  C13 UNL     1      -5.959   1.927   5.956  1.00  0.00     0.159 C 
HETATM    6  C14 UNL     1      -5.671   0.517   5.505  1.00  0.00     0.088 C 
ENDROOT
BRANCH   6   7
HETATM    7  C15 UNL     1      -5.718  -0.506   6.582  1.00  0.00     0.241 C 
BRANCH   7   8
HETATM    8  O9  UNL     1      -5.489  -0.071   7.876  1.00  0.00    -0.301 OA
BRANCH   8   9
HETATM    9  C16 UNL     1      -6.364  -0.095   8.931  1.00  0.00     0.294 C 
HETATM   10  O10 UNL     1      -7.593  -0.011   8.607  1.00  0.00    -0.259 OA
BRANCH   9  11
HETATM   11  C17 UNL     1      -5.974  -0.205  10.329  1.00  0.00     0.039 A 
HETATM   12  C18 UNL     1      -6.956  -0.277  11.295  1.00  0.00     0.017 A 
HETATM   13  C19 UNL     1      -6.682  -0.385  12.642  1.00  0.00     0.001 A 
HETATM   14  C20 UNL     1      -5.358  -0.424  13.034  1.00  0.00     0.000 A 
HETATM   15  C21 UNL     1      -4.351  -0.355  12.107  1.00  0.00     0.001 A 
HETATM   16  C22 UNL     1      -4.677  -0.246  10.751  1.00  0.00     0.017 A 
ENDBRANCH   9  11
ENDBRANCH   8   9
ENDBRANCH   7   8
BRANCH   7  17
HETATM   17  C23 UNL     1      -4.920  -1.723   6.235  1.00  0.00     0.298 C 
HETATM   18  O11 UNL     1      -3.685  -1.754   6.329  1.00  0.00    -0.262 OA
BRANCH  17  19
HETATM   19  O12 UNL     1      -5.579  -2.842   5.799  1.00  0.00    -0.224 OA
BRANCH  19  20
HETATM   20  C24 UNL     1      -5.919  -3.022   4.446  1.00  0.00     0.387 C 
HETATM   21  O13 UNL     1      -4.982  -2.821   3.630  1.00  0.00    -0.236 OA
HETATM   22  N1  UNL     1      -7.209  -3.401   4.012  1.00  0.00    -0.243 N 
ATOM     23  H1  UNL     1      -7.957  -3.560   4.687  1.00  0.00     0.192 HD
BRANCH  22  24
HETATM   24  N2  UNL     1      -7.443  -3.553   2.651  1.00  0.00    -0.273 N 
ATOM     25  H2  UNL     1      -7.084  -2.861   1.993  1.00  0.00     0.189 HD
BRANCH  24  26
HETATM   26  C25 UNL     1      -8.186  -4.676   2.166  1.00  0.00     0.368 C 
HETATM   27  O14 UNL     1      -9.158  -4.506   1.383  1.00  0.00    -0.282 OA
ENDBRANCH  24  26
ENDBRANCH  22  24
ENDBRANCH  19  20
ENDBRANCH  17  19
ENDBRANCH   7  17
ENDBRANCH   6   7
BRANCH   1  28
HETATM   28  O2  UNL     1      -7.805   0.498   4.458  1.00  0.00    -0.313 OA
BRANCH  28  29
HETATM   29  C2  UNL     1      -8.888  -0.332   4.438  1.00  0.00     0.255 C 
HETATM   30  C1  UNL     1      -9.779  -0.453   5.610  1.00  0.00     0.126 C 
HETATM   31  O1  UNL     1      -9.088  -0.987   3.370  1.00  0.00    -0.266 OA
ENDBRANCH  28  29
ENDBRANCH   1  28
BRANCH   5  32
HETATM   32  O8  UNL     1      -7.140   2.014   6.688  1.00  0.00    -0.392 OA
ATOM     33  H8  UNL     1      -7.145   1.318   7.334  1.00  0.00     0.210 HD
ENDBRANCH   5  32
BRANCH   2  34
HETATM   34  O3  UNL     1      -4.498   0.955   3.271  1.00  0.00    -0.390 OA
ATOM     35  H3  UNL     1      -4.146   1.594   2.663  1.00  0.00     0.210 HD
ENDBRANCH   2  34
BRANCH   4  36
HETATM   36  O7  UNL     1      -6.824   4.026   5.218  1.00  0.00    -0.390 OA
ATOM     37  H7  UNL     1      -6.636   4.306   6.106  1.00  0.00     0.210 HD
ENDBRANCH   4  36
BRANCH   3  38
HETATM   38  O4  UNL     1      -6.183   3.327   2.459  1.00  0.00    -0.307 OA
BRANCH  38  39
HETATM   39  C6  UNL     1      -7.165   3.672   1.542  1.00  0.00     0.283 C 
HETATM   40  O5  UNL     1      -6.746   4.201   0.461  1.00  0.00    -0.260 OA
BRANCH  39  41
HETATM   41  C7  UNL     1      -8.591   3.475   1.731  1.00  0.00     0.081 C 
HETATM   42  C8  UNL     1      -9.181   2.304   1.671  1.00  0.00     0.016 C 
BRANCH  42  43
HETATM   43  C9  UNL     1     -10.616   2.081   1.859  1.00  0.00     0.069 C 
HETATM   44  C10 UNL     1     -11.519   2.958   1.059  1.00  0.00     0.050 C 
HETATM   45  C11 UNL     1     -11.036   2.238   3.326  1.00  0.00     0.050 C 
BRANCH  43  46
HETATM   46  O6  UNL     1     -10.916   0.754   1.489  1.00  0.00    -0.387 OA
ATOM     47  H6  UNL     1     -11.019   0.237   2.279  1.00  0.00     0.211 HD
ENDBRANCH  43  46
ENDBRANCH  42  43
ENDBRANCH  39  41
ENDBRANCH  38  39
ENDBRANCH   3  38
TORSDOF 19
ENDMDL
