MODEL 1
REMARK VINA RESULT: -8.127053755      0.000      0.000
REMARK  16 active torsions:
REMARK  status: ('A' for Active; 'I' for Inactive)
REMARK    1  A    between atoms: C2_2  and  O1_3 
REMARK    2  A    between atoms: O1_3  and  C3_4 
REMARK    3  A    between atoms: C4_5  and  O2_6 
REMARK    4  A    between atoms: C5_8  and  C6_9 
REMARK    5  A    between atoms: C6_9  and  O3_10 
REMARK    6  A    between atoms: O3_10  and  C7_11 
REMARK    7  A    between atoms: C8_13  and  C9_14 
REMARK    8  A    between atoms: C9_14  and  O5_15 
REMARK    9  A    between atoms: C10_17  and  O6_18 
REMARK   10  A    between atoms: C11_20  and  O7_21 
REMARK   11  A    between atoms: C12_23  and  O8_24 
REMARK   12  A    between atoms: C13_27  and  O10_28 
REMARK   13  A    between atoms: O10_28  and  C14_29 
REMARK   14  A    between atoms: C17_32  and  O11_33 
REMARK   15  A    between atoms: O11_33  and  C18_34 
REMARK   16  A    between atoms: C27_45  and  O14_46 
ROOT
HETATM    1  C3  UNL     1      -7.793  -2.186   2.467  1.00  0.00     0.186 C 
HETATM    2  C4  UNL     1      -8.340  -1.010   1.684  1.00  0.00     0.180 C 
HETATM    3  C5  UNL     1      -7.788   0.318   2.136  1.00  0.00     0.180 C 
HETATM    4  O9  UNL     1      -7.526   0.257   3.485  1.00  0.00    -0.348 OA
HETATM    5  C13 UNL     1      -6.479  -0.578   3.837  1.00  0.00     0.292 C 
HETATM    6  C27 UNL     1      -6.451  -1.862   3.074  1.00  0.00     0.204 C 
ENDROOT
BRANCH   3   7
HETATM    7  C6  UNL     1      -8.864   1.363   1.944  1.00  0.00     0.205 C 
BRANCH   7   8
HETATM    8  O3  UNL     1     -10.091   0.979   2.473  1.00  0.00    -0.356 OA
BRANCH   8   9
HETATM    9  C7  UNL     1     -10.528   1.911   3.410  1.00  0.00     0.291 C 
HETATM   10  O4  UNL     1     -10.424   1.507   4.709  1.00  0.00    -0.348 OA
HETATM   11  C8  UNL     1     -11.382   0.686   5.212  1.00  0.00     0.179 C 
HETATM   12  C10 UNL     1     -12.622   0.548   4.358  1.00  0.00     0.180 C 
HETATM   13  C11 UNL     1     -13.029   1.873   3.754  1.00  0.00     0.183 C 
HETATM   14  C12 UNL     1     -11.877   2.477   3.019  1.00  0.00     0.204 C 
BRANCH  11  15
HETATM   15  C9  UNL     1     -10.880  -0.667   5.640  1.00  0.00     0.198 C 
BRANCH  15  16
HETATM   16  O5  UNL     1      -9.759  -1.093   4.964  1.00  0.00    -0.398 OA
ATOM     17  H5  UNL     1      -9.807  -1.990   4.657  1.00  0.00     0.209 HD
ENDBRANCH  15  16
ENDBRANCH  11  15
BRANCH  12  18
HETATM   18  O6  UNL     1     -13.714   0.103   5.110  1.00  0.00    -0.390 OA
ATOM     19  H6  UNL     1     -14.395   0.764   5.159  1.00  0.00     0.210 HD
ENDBRANCH  12  18
BRANCH  13  20
HETATM   20  O7  UNL     1     -14.108   1.656   2.923  1.00  0.00    -0.390 OA
ATOM     21  H7  UNL     1     -14.063   2.279   2.207  1.00  0.00     0.210 HD
ENDBRANCH  13  20
BRANCH  14  22
HETATM   22  O8  UNL     1     -12.120   2.254   1.641  1.00  0.00    -0.388 OA
ATOM     23  H8  UNL     1     -12.818   2.820   1.335  1.00  0.00     0.210 HD
ENDBRANCH  14  22
ENDBRANCH   8   9
ENDBRANCH   7   8
ENDBRANCH   3   7
BRANCH   2  24
HETATM   24  O2  UNL     1      -7.974  -1.117   0.320  1.00  0.00    -0.390 OA
ATOM     25  H2  UNL     1      -8.718  -1.403  -0.199  1.00  0.00     0.210 HD
ENDBRANCH   2  24
BRANCH   1  26
HETATM   26  O1  UNL     1      -7.804  -3.280   1.673  1.00  0.00    -0.381 OA
BRANCH  26  27
HETATM   27  C2  UNL     1      -7.723  -4.498   2.249  1.00  0.00     0.164 C 
HETATM   28  C1  UNL     1      -9.036  -5.241   1.972  1.00  0.00     0.033 C 
ENDBRANCH  26  27
ENDBRANCH   1  26
BRANCH   5  29
HETATM   29  O10 UNL     1      -6.657  -0.856   5.204  1.00  0.00    -0.351 OA
BRANCH  29  30
HETATM   30  C14 UNL     1      -5.656  -0.336   5.990  1.00  0.00     0.156 C 
HETATM   31  C15 UNL     1      -4.968  -1.511   6.687  1.00  0.00     0.037 C 
HETATM   32  C16 UNL     1      -4.545  -1.123   8.107  1.00  0.00     0.037 C 
HETATM   33  C17 UNL     1      -5.785  -0.934   8.989  1.00  0.00     0.153 C 
HETATM   34  C24 UNL     1      -6.901  -0.536   8.070  1.00  0.00     0.184 C 
HETATM   35  O12 UNL     1      -7.875   0.241   8.674  1.00  0.00    -0.356 OA
HETATM   36  C26 UNL     1      -6.306   0.481   7.084  1.00  0.00     0.184 C 
HETATM   37  C25 UNL     1      -8.447   0.883   7.570  1.00  0.00     0.339 C 
HETATM   38  O13 UNL     1      -7.430   1.155   6.679  1.00  0.00    -0.356 OA
BRANCH  33  39
HETATM   39  O11 UNL     1      -5.607   0.033   9.947  1.00  0.00    -0.378 OA
BRANCH  39  40
HETATM   40  C18 UNL     1      -5.847  -0.442  11.220  1.00  0.00     0.122 C 
HETATM   41  C19 UNL     1      -7.170   0.032  11.794  1.00  0.00     0.032 C 
HETATM   42  C20 UNL     1      -7.413  -0.738  13.069  1.00  0.00     0.002 C 
HETATM   43  C21 UNL     1      -6.311  -0.598  14.073  1.00  0.00     0.000 C 
HETATM   44  C22 UNL     1      -4.947  -0.746  13.473  1.00  0.00     0.002 C 
HETATM   45  C23 UNL     1      -4.773   0.048  12.200  1.00  0.00     0.032 C 
ENDBRANCH  39  40
ENDBRANCH  33  39
ENDBRANCH  29  30
ENDBRANCH   5  29
BRANCH   6  46
HETATM   46  O14 UNL     1      -5.469  -1.751   2.075  1.00  0.00    -0.388 OA
ATOM     47  H14 UNL     1      -4.675  -1.365   2.426  1.00  0.00     0.210 HD
ENDBRANCH   6  46
TORSDOF 16
ENDMDL
MODEL 2
REMARK VINA RESULT: -7.306032984      3.558      5.921
REMARK  16 active torsions:
REMARK  status: ('A' for Active; 'I' for Inactive)
REMARK    1  A    between atoms: C2_2  and  O1_3 
REMARK    2  A    between atoms: O1_3  and  C3_4 
REMARK    3  A    between atoms: C4_5  and  O2_6 
REMARK    4  A    between atoms: C5_8  and  C6_9 
REMARK    5  A    between atoms: C6_9  and  O3_10 
REMARK    6  A    between atoms: O3_10  and  C7_11 
REMARK    7  A    between atoms: C8_13  and  C9_14 
REMARK    8  A    between atoms: C9_14  and  O5_15 
REMARK    9  A    between atoms: C10_17  and  O6_18 
REMARK   10  A    between atoms: C11_20  and  O7_21 
REMARK   11  A    between atoms: C12_23  and  O8_24 
REMARK   12  A    between atoms: C13_27  and  O10_28 
REMARK   13  A    between atoms: O10_28  and  C14_29 
REMARK   14  A    between atoms: C17_32  and  O11_33 
REMARK   15  A    between atoms: O11_33  and  C18_34 
REMARK   16  A    between atoms: C27_45  and  O14_46 
ROOT
HETATM    1  C3  UNL     1      -4.284  -4.738   7.560  1.00  0.00     0.186 C 
HETATM    2  C4  UNL     1      -4.800  -4.914   6.146  1.00  0.00     0.180 C 
HETATM    3  C5  UNL     1      -4.734  -3.652   5.325  1.00  0.00     0.180 C 
HETATM    4  O9  UNL     1      -4.911  -2.570   6.153  1.00  0.00    -0.348 OA
HETATM    5  C13 UNL     1      -3.875  -2.340   7.042  1.00  0.00     0.292 C 
HETATM    6  C27 UNL     1      -3.317  -3.586   7.650  1.00  0.00     0.204 C 
ENDROOT
BRANCH   3   7
HETATM    7  C6  UNL     1      -5.895  -3.661   4.357  1.00  0.00     0.205 C 
BRANCH   7   8
HETATM    8  O3  UNL     1      -6.855  -2.701   4.657  1.00  0.00    -0.356 OA
BRANCH   8   9
HETATM    9  C7  UNL     1      -7.447  -2.225   3.489  1.00  0.00     0.291 C 
HETATM   10  O4  UNL     1      -6.569  -1.874   2.507  1.00  0.00    -0.348 OA
HETATM   11  C8  UNL     1      -5.958  -0.663   2.585  1.00  0.00     0.179 C 
HETATM   12  C10 UNL     1      -6.546   0.288   3.602  1.00  0.00     0.180 C 
HETATM   13  C11 UNL     1      -8.056   0.221   3.614  1.00  0.00     0.183 C 
HETATM   14  C12 UNL     1      -8.506  -1.191   3.805  1.00  0.00     0.204 C 
BRANCH  11  15
HETATM   15  C9  UNL     1      -4.460  -0.729   2.724  1.00  0.00     0.198 C 
BRANCH  15  16
HETATM   16  O5  UNL     1      -4.004  -0.545   4.009  1.00  0.00    -0.398 OA
ATOM     17  H5  UNL     1      -3.062  -0.448   4.078  1.00  0.00     0.209 HD
ENDBRANCH  15  16
ENDBRANCH  11  15
BRANCH  12  18
HETATM   18  O6  UNL     1      -6.210   1.616   3.316  1.00  0.00    -0.390 OA
ATOM     19  H6  UNL     1      -6.429   1.844   2.420  1.00  0.00     0.210 HD
ENDBRANCH  12  18
BRANCH  13  20
HETATM   20  O7  UNL     1      -8.518   1.045   4.620  1.00  0.00    -0.390 OA
ATOM     21  H7  UNL     1      -8.572   1.931   4.278  1.00  0.00     0.210 HD
ENDBRANCH  13  20
BRANCH  14  22
HETATM   22  O8  UNL     1      -8.911  -1.303   5.159  1.00  0.00    -0.388 OA
ATOM     23  H8  UNL     1      -9.066  -2.213   5.381  1.00  0.00     0.210 HD
ENDBRANCH  14  22
ENDBRANCH   8   9
ENDBRANCH   7   8
ENDBRANCH   3   7
BRANCH   2  24
HETATM   24  O2  UNL     1      -4.001  -5.853   5.447  1.00  0.00    -0.390 OA
ATOM     25  H2  UNL     1      -4.179  -6.733   5.760  1.00  0.00     0.210 HD
ENDBRANCH   2  24
BRANCH   1  26
HETATM   26  O1  UNL     1      -3.795  -5.921   7.995  1.00  0.00    -0.381 OA
BRANCH  26  27
HETATM   27  C2  UNL     1      -4.563  -6.679   8.806  1.00  0.00     0.164 C 
HETATM   28  C1  UNL     1      -3.713  -7.860   9.295  1.00  0.00     0.033 C 
ENDBRANCH  26  27
ENDBRANCH   1  26
BRANCH   5  29
HETATM   29  O10 UNL     1      -4.414  -1.531   8.058  1.00  0.00    -0.351 OA
BRANCH  29  30
HETATM   30  C14 UNL     1      -3.983  -0.227   7.989  1.00  0.00     0.156 C 
HETATM   31  C15 UNL     1      -2.457  -0.257   7.898  1.00  0.00     0.037 C 
HETATM   32  C16 UNL     1      -1.848   0.918   8.669  1.00  0.00     0.037 C 
HETATM   33  C17 UNL     1      -2.064   0.725  10.175  1.00  0.00     0.153 C 
HETATM   34  C24 UNL     1      -3.301  -0.111  10.320  1.00  0.00     0.184 C 
HETATM   35  O12 UNL     1      -3.987   0.104  11.503  1.00  0.00    -0.356 OA
HETATM   36  C26 UNL     1      -4.315   0.438   9.305  1.00  0.00     0.184 C 
HETATM   37  C25 UNL     1      -5.271  -0.337  11.167  1.00  0.00     0.339 C 
HETATM   38  O13 UNL     1      -5.500   0.021   9.855  1.00  0.00    -0.356 OA
BRANCH  33  39
HETATM   39  O11 UNL     1      -2.228   1.915  10.840  1.00  0.00    -0.378 OA
BRANCH  39  40
HETATM   40  C18 UNL     1      -1.288   2.091  11.833  1.00  0.00     0.122 C 
HETATM   41  C19 UNL     1      -0.637   3.462  11.802  1.00  0.00     0.032 C 
HETATM   42  C20 UNL     1       0.182   3.604  13.062  1.00  0.00     0.002 C 
HETATM   43  C21 UNL     1       1.208   2.527  13.235  1.00  0.00     0.000 C 
HETATM   44  C22 UNL     1       0.673   1.156  12.957  1.00  0.00     0.002 C 
HETATM   45  C23 UNL     1      -0.138   1.086  11.684  1.00  0.00     0.032 C 
ENDBRANCH  39  40
ENDBRANCH  33  39
ENDBRANCH  29  30
ENDBRANCH   5  29
BRANCH   6  46
HETATM   46  O14 UNL     1      -2.117  -3.893   6.985  1.00  0.00    -0.388 OA
ATOM     47  H14 UNL     1      -1.480  -3.198   7.105  1.00  0.00     0.210 HD
ENDBRANCH   6  46
TORSDOF 16
ENDMDL
MODEL 3
REMARK VINA RESULT: -7.249100705      3.706      5.900
REMARK  16 active torsions:
REMARK  status: ('A' for Active; 'I' for Inactive)
REMARK    1  A    between atoms: C2_2  and  O1_3 
REMARK    2  A    between atoms: O1_3  and  C3_4 
REMARK    3  A    between atoms: C4_5  and  O2_6 
REMARK    4  A    between atoms: C5_8  and  C6_9 
REMARK    5  A    between atoms: C6_9  and  O3_10 
REMARK    6  A    between atoms: O3_10  and  C7_11 
REMARK    7  A    between atoms: C8_13  and  C9_14 
REMARK    8  A    between atoms: C9_14  and  O5_15 
REMARK    9  A    between atoms: C10_17  and  O6_18 
REMARK   10  A    between atoms: C11_20  and  O7_21 
REMARK   11  A    between atoms: C12_23  and  O8_24 
REMARK   12  A    between atoms: C13_27  and  O10_28 
REMARK   13  A    between atoms: O10_28  and  C14_29 
REMARK   14  A    between atoms: C17_32  and  O11_33 
REMARK   15  A    between atoms: O11_33  and  C18_34 
REMARK   16  A    between atoms: C27_45  and  O14_46 
ROOT
HETATM    1  C3  UNL     1      -4.204  -4.554   7.522  1.00  0.00     0.186 C 
HETATM    2  C4  UNL     1      -4.847  -4.386   6.160  1.00  0.00     0.180 C 
HETATM    3  C5  UNL     1      -4.604  -3.029   5.549  1.00  0.00     0.180 C 
HETATM    4  O9  UNL     1      -4.512  -2.096   6.554  1.00  0.00    -0.348 OA
HETATM    5  C13 UNL     1      -3.388  -2.210   7.354  1.00  0.00     0.292 C 
HETATM    6  C27 UNL     1      -3.032  -3.621   7.692  1.00  0.00     0.204 C 
ENDROOT
BRANCH   3   7
HETATM    7  C6  UNL     1      -5.815  -2.666   4.720  1.00  0.00     0.205 C 
BRANCH   7   8
HETATM    8  O3  UNL     1      -6.170  -1.327   4.839  1.00  0.00    -0.356 OA
BRANCH   8   9
HETATM    9  C7  UNL     1      -7.485  -1.211   5.282  1.00  0.00     0.291 C 
HETATM   10  O4  UNL     1      -8.424  -1.243   4.294  1.00  0.00    -0.348 OA
HETATM   11  C8  UNL     1      -8.659  -0.110   3.583  1.00  0.00     0.179 C 
HETATM   12  C10 UNL     1      -8.057   1.149   4.165  1.00  0.00     0.180 C 
HETATM   13  C11 UNL     1      -8.191   1.181   5.671  1.00  0.00     0.183 C 
HETATM   14  C12 UNL     1      -7.623  -0.067   6.264  1.00  0.00     0.204 C 
BRANCH  11  15
HETATM   15  C9  UNL     1      -8.341  -0.219   2.115  1.00  0.00     0.198 C 
BRANCH  15  16
HETATM   16  O5  UNL     1      -9.443  -0.406   1.312  1.00  0.00    -0.398 OA
ATOM     17  H5  UNL     1      -9.418  -1.203   0.797  1.00  0.00     0.209 HD
ENDBRANCH  15  16
ENDBRANCH  11  15
BRANCH  12  18
HETATM   18  O6  UNL     1      -8.701   2.294   3.685  1.00  0.00    -0.390 OA
ATOM     19  H6  UNL     1      -8.395   3.077   4.128  1.00  0.00     0.210 HD
ENDBRANCH  12  18
BRANCH  13  20
HETATM   20  O7  UNL     1      -7.547   2.308   6.138  1.00  0.00    -0.390 OA
ATOM     21  H7  UNL     1      -8.181   2.842   6.605  1.00  0.00     0.210 HD
ENDBRANCH  13  20
BRANCH  14  22
HETATM   22  O8  UNL     1      -6.355   0.281   6.792  1.00  0.00    -0.388 OA
ATOM     23  H8  UNL     1      -6.360   1.183   7.091  1.00  0.00     0.210 HD
ENDBRANCH  14  22
ENDBRANCH   8   9
ENDBRANCH   7   8
ENDBRANCH   3   7
BRANCH   2  24
HETATM   24  O2  UNL     1      -4.293  -5.310   5.240  1.00  0.00    -0.390 OA
ATOM     25  H2  UNL     1      -4.670  -5.180   4.377  1.00  0.00     0.210 HD
ENDBRANCH   2  24
BRANCH   1  26
HETATM   26  O1  UNL     1      -3.916  -5.862   7.708  1.00  0.00    -0.381 OA
BRANCH  26  27
HETATM   27  C2  UNL     1      -4.724  -6.594   8.502  1.00  0.00     0.164 C 
HETATM   28  C1  UNL     1      -3.892  -7.737   9.101  1.00  0.00     0.033 C 
ENDBRANCH  26  27
ENDBRANCH   1  26
BRANCH   5  29
HETATM   29  O10 UNL     1      -3.688  -1.512   8.537  1.00  0.00    -0.351 OA
BRANCH  29  30
HETATM   30  C14 UNL     1      -3.444  -0.163   8.438  1.00  0.00     0.156 C 
HETATM   31  C15 UNL     1      -1.938   0.014   8.241  1.00  0.00     0.037 C 
HETATM   32  C16 UNL     1      -1.442   1.268   8.968  1.00  0.00     0.037 C 
HETATM   33  C17 UNL     1      -1.525   1.060  10.485  1.00  0.00     0.153 C 
HETATM   34  C24 UNL     1      -2.624   0.066  10.716  1.00  0.00     0.184 C 
HETATM   35  O12 UNL     1      -3.250   0.197  11.944  1.00  0.00    -0.356 OA
HETATM   36  C26 UNL     1      -3.771   0.464   9.775  1.00  0.00     0.184 C 
HETATM   37  C25 UNL     1      -4.483  -0.417  11.699  1.00  0.00     0.339 C 
HETATM   38  O13 UNL     1      -4.848  -0.105  10.406  1.00  0.00    -0.356 OA
BRANCH  33  39
HETATM   39  O11 UNL     1      -1.803   2.223  11.161  1.00  0.00    -0.378 OA
BRANCH  39  40
HETATM   40  C18 UNL     1      -0.895   2.469  12.170  1.00  0.00     0.122 C 
HETATM   41  C19 UNL     1      -0.360   3.889  12.159  1.00  0.00     0.032 C 
HETATM   42  C20 UNL     1       0.425   4.089  13.432  1.00  0.00     0.002 C 
HETATM   43  C21 UNL     1       1.534   3.099  13.614  1.00  0.00     0.000 C 
HETATM   44  C22 UNL     1       1.119   1.690  13.319  1.00  0.00     0.002 C 
HETATM   45  C23 UNL     1       0.336   1.563  12.033  1.00  0.00     0.032 C 
ENDBRANCH  39  40
ENDBRANCH  33  39
ENDBRANCH  29  30
ENDBRANCH   5  29
BRANCH   6  46
HETATM   46  O14 UNL     1      -1.964  -4.010   6.865  1.00  0.00    -0.388 OA
ATOM     47  H14 UNL     1      -1.147  -3.641   7.178  1.00  0.00     0.210 HD
ENDBRANCH   6  46
TORSDOF 16
ENDMDL
MODEL 4
REMARK VINA RESULT: -7.223418962      1.382      2.039
REMARK  16 active torsions:
REMARK  status: ('A' for Active; 'I' for Inactive)
REMARK    1  A    between atoms: C2_2  and  O1_3 
REMARK    2  A    between atoms: O1_3  and  C3_4 
REMARK    3  A    between atoms: C4_5  and  O2_6 
REMARK    4  A    between atoms: C5_8  and  C6_9 
REMARK    5  A    between atoms: C6_9  and  O3_10 
REMARK    6  A    between atoms: O3_10  and  C7_11 
REMARK    7  A    between atoms: C8_13  and  C9_14 
REMARK    8  A    between atoms: C9_14  and  O5_15 
REMARK    9  A    between atoms: C10_17  and  O6_18 
REMARK   10  A    between atoms: C11_20  and  O7_21 
REMARK   11  A    between atoms: C12_23  and  O8_24 
REMARK   12  A    between atoms: C13_27  and  O10_28 
REMARK   13  A    between atoms: O10_28  and  C14_29 
REMARK   14  A    between atoms: C17_32  and  O11_33 
REMARK   15  A    between atoms: O11_33  and  C18_34 
REMARK   16  A    between atoms: C27_45  and  O14_46 
ROOT
HETATM    1  C3  UNL     1      -6.990  -1.413   2.662  1.00  0.00     0.186 C 
HETATM    2  C4  UNL     1      -8.096  -0.797   1.829  1.00  0.00     0.180 C 
HETATM    3  C5  UNL     1      -7.919   0.682   1.602  1.00  0.00     0.180 C 
HETATM    4  O9  UNL     1      -7.286   1.230   2.692  1.00  0.00    -0.348 OA
HETATM    5  C13 UNL     1      -5.966   0.845   2.854  1.00  0.00     0.292 C 
HETATM    6  C27 UNL     1      -5.723  -0.602   2.574  1.00  0.00     0.204 C 
ENDROOT
BRANCH   3   7
HETATM    7  C6  UNL     1      -9.291   1.313   1.526  1.00  0.00     0.205 C 
BRANCH   7   8
HETATM    8  O3  UNL     1     -10.146   0.867   2.527  1.00  0.00    -0.356 OA
BRANCH   8   9
HETATM    9  C7  UNL     1     -10.283   1.837   3.517  1.00  0.00     0.291 C 
HETATM   10  O4  UNL     1      -9.914   1.433   4.766  1.00  0.00    -0.348 OA
HETATM   11  C8  UNL     1     -10.790   0.694   5.495  1.00  0.00     0.179 C 
HETATM   12  C10 UNL     1     -12.200   0.651   4.952  1.00  0.00     0.180 C 
HETATM   13  C11 UNL     1     -12.632   2.001   4.426  1.00  0.00     0.183 C 
HETATM   14  C12 UNL     1     -11.638   2.507   3.432  1.00  0.00     0.204 C 
BRANCH  11  15
HETATM   15  C9  UNL     1     -10.308  -0.693   5.829  1.00  0.00     0.198 C 
BRANCH  15  16
HETATM   16  O5  UNL     1      -9.850  -1.407   4.746  1.00  0.00    -0.398 OA
ATOM     17  H5  UNL     1     -10.283  -1.194   3.928  1.00  0.00     0.209 HD
ENDBRANCH  15  16
ENDBRANCH  11  15
BRANCH  12  18
HETATM   18  O6  UNL     1     -13.121   0.300   5.945  1.00  0.00    -0.390 OA
ATOM     19  H6  UNL     1     -13.074  -0.627   6.150  1.00  0.00     0.210 HD
ENDBRANCH  12  18
BRANCH  13  20
HETATM   20  O7  UNL     1     -13.887   1.868   3.871  1.00  0.00    -0.390 OA
ATOM     21  H7  UNL     1     -14.372   1.227   4.379  1.00  0.00     0.210 HD
ENDBRANCH  13  20
BRANCH  14  22
HETATM   22  O8  UNL     1     -12.208   2.296   2.152  1.00  0.00    -0.388 OA
ATOM     23  H8  UNL     1     -12.009   1.420   1.845  1.00  0.00     0.210 HD
ENDBRANCH  14  22
ENDBRANCH   8   9
ENDBRANCH   7   8
ENDBRANCH   3   7
BRANCH   2  24
HETATM   24  O2  UNL     1      -8.111  -1.371   0.534  1.00  0.00    -0.390 OA
ATOM     25  H2  UNL     1      -7.794  -0.745  -0.107  1.00  0.00     0.210 HD
ENDBRANCH   2  24
BRANCH   1  26
HETATM   26  O1  UNL     1      -6.855  -2.712   2.312  1.00  0.00    -0.381 OA
BRANCH  26  27
HETATM   27  C2  UNL     1      -7.471  -3.651   3.061  1.00  0.00     0.164 C 
HETATM   28  C1  UNL     1      -8.288  -4.546   2.120  1.00  0.00     0.033 C 
ENDBRANCH  26  27
ENDBRANCH   1  26
BRANCH   5  29
HETATM   29  O10 UNL     1      -5.651   1.116   4.197  1.00  0.00    -0.351 OA
BRANCH  29  30
HETATM   30  C14 UNL     1      -5.710  -0.001   4.997  1.00  0.00     0.156 C 
HETATM   31  C15 UNL     1      -6.927   0.159   5.910  1.00  0.00     0.037 C 
HETATM   32  C16 UNL     1      -6.639  -0.423   7.298  1.00  0.00     0.037 C 
HETATM   33  C17 UNL     1      -5.602   0.443   8.023  1.00  0.00     0.153 C 
HETATM   34  C24 UNL     1      -4.776   1.096   6.955  1.00  0.00     0.184 C 
HETATM   35  O12 UNL     1      -3.484   1.397   7.352  1.00  0.00    -0.356 OA
HETATM   36  C26 UNL     1      -4.499   0.014   5.901  1.00  0.00     0.184 C 
HETATM   37  C25 UNL     1      -2.822   1.470   6.121  1.00  0.00     0.339 C 
HETATM   38  O13 UNL     1      -3.366   0.503   5.303  1.00  0.00    -0.356 OA
BRANCH  33  39
HETATM   39  O11 UNL     1      -4.791  -0.291   8.852  1.00  0.00    -0.378 OA
BRANCH  39  40
HETATM   40  C18 UNL     1      -5.041  -0.038  10.185  1.00  0.00     0.122 C 
HETATM   41  C19 UNL     1      -3.951  -0.557  11.106  1.00  0.00     0.032 C 
HETATM   42  C20 UNL     1      -4.227  -0.014  12.487  1.00  0.00     0.002 C 
HETATM   43  C21 UNL     1      -5.586  -0.367  13.009  1.00  0.00     0.000 C 
HETATM   44  C22 UNL     1      -6.674  -0.165  12.001  1.00  0.00     0.002 C 
HETATM   45  C23 UNL     1      -6.332  -0.730  10.642  1.00  0.00     0.032 C 
ENDBRANCH  39  40
ENDBRANCH  33  39
ENDBRANCH  29  30
ENDBRANCH   5  29
BRANCH   6  46
HETATM   46  O14 UNL     1      -5.155  -0.707   1.293  1.00  0.00    -0.388 OA
ATOM     47  H14 UNL     1      -5.581  -0.110   0.688  1.00  0.00     0.210 HD
ENDBRANCH   6  46
TORSDOF 16
ENDMDL
MODEL 5
REMARK VINA RESULT: -7.186683361      3.534      6.139
REMARK  16 active torsions:
REMARK  status: ('A' for Active; 'I' for Inactive)
REMARK    1  A    between atoms: C2_2  and  O1_3 
REMARK    2  A    between atoms: O1_3  and  C3_4 
REMARK    3  A    between atoms: C4_5  and  O2_6 
REMARK    4  A    between atoms: C5_8  and  C6_9 
REMARK    5  A    between atoms: C6_9  and  O3_10 
REMARK    6  A    between atoms: O3_10  and  C7_11 
REMARK    7  A    between atoms: C8_13  and  C9_14 
REMARK    8  A    between atoms: C9_14  and  O5_15 
REMARK    9  A    between atoms: C10_17  and  O6_18 
REMARK   10  A    between atoms: C11_20  and  O7_21 
REMARK   11  A    between atoms: C12_23  and  O8_24 
REMARK   12  A    between atoms: C13_27  and  O10_28 
REMARK   13  A    between atoms: O10_28  and  C14_29 
REMARK   14  A    between atoms: C17_32  and  O11_33 
REMARK   15  A    between atoms: O11_33  and  C18_34 
REMARK   16  A    between atoms: C27_45  and  O14_46 
ROOT
HETATM    1  C3  UNL     1      -4.196  -4.447   7.956  1.00  0.00     0.186 C 
HETATM    2  C4  UNL     1      -4.503  -4.473   6.472  1.00  0.00     0.180 C 
HETATM    3  C5  UNL     1      -4.409  -3.118   5.818  1.00  0.00     0.180 C 
HETATM    4  O9  UNL     1      -4.768  -2.155   6.731  1.00  0.00    -0.348 OA
HETATM    5  C13 UNL     1      -3.879  -1.986   7.778  1.00  0.00     0.292 C 
HETATM    6  C27 UNL     1      -3.327  -3.267   8.313  1.00  0.00     0.204 C 
ENDROOT
BRANCH   3   7
HETATM    7  C6  UNL     1      -5.426  -3.066   4.701  1.00  0.00     0.205 C 
BRANCH   7   8
HETATM    8  O3  UNL     1      -5.470  -1.830   4.067  1.00  0.00    -0.356 OA
BRANCH   8   9
HETATM    9  C7  UNL     1      -6.711  -1.228   4.258  1.00  0.00     0.291 C 
HETATM   10  O4  UNL     1      -7.780  -2.019   3.958  1.00  0.00    -0.348 OA
HETATM   11  C8  UNL     1      -8.146  -2.151   2.657  1.00  0.00     0.179 C 
HETATM   12  C10 UNL     1      -7.504  -1.166   1.707  1.00  0.00     0.180 C 
HETATM   13  C11 UNL     1      -7.422   0.216   2.314  1.00  0.00     0.183 C 
HETATM   14  C12 UNL     1      -6.741   0.154   3.642  1.00  0.00     0.204 C 
BRANCH  11  15
HETATM   15  C9  UNL     1      -8.038  -3.553   2.119  1.00  0.00     0.198 C 
BRANCH  15  16
HETATM   16  O5  UNL     1      -9.094  -3.935   1.323  1.00  0.00    -0.398 OA
ATOM     17  H5  UNL     1      -9.064  -4.843   1.047  1.00  0.00     0.209 HD
ENDBRANCH  15  16
ENDBRANCH  11  15
BRANCH  12  18
HETATM   18  O6  UNL     1      -8.242  -1.037   0.526  1.00  0.00    -0.390 OA
ATOM     19  H6  UNL     1      -7.677  -0.890  -0.224  1.00  0.00     0.210 HD
ENDBRANCH  12  18
BRANCH  13  20
HETATM   20  O7  UNL     1      -6.751   1.038   1.433  1.00  0.00    -0.390 OA
ATOM     21  H7  UNL     1      -5.820   0.970   1.611  1.00  0.00     0.210 HD
ENDBRANCH  13  20
BRANCH  14  22
HETATM   22  O8  UNL     1      -5.421   0.627   3.437  1.00  0.00    -0.388 OA
ATOM     23  H8  UNL     1      -5.077   1.001   4.240  1.00  0.00     0.210 HD
ENDBRANCH  14  22
ENDBRANCH   8   9
ENDBRANCH   7   8
ENDBRANCH   3   7
BRANCH   2  24
HETATM   24  O2  UNL     1      -3.557  -5.278   5.790  1.00  0.00    -0.390 OA
ATOM     25  H2  UNL     1      -3.941  -6.119   5.567  1.00  0.00     0.210 HD
ENDBRANCH   2  24
BRANCH   1  26
HETATM   26  O1  UNL     1      -3.693  -5.648   8.317  1.00  0.00    -0.381 OA
BRANCH  26  27
HETATM   27  C2  UNL     1      -4.547  -6.607   8.733  1.00  0.00     0.164 C 
HETATM   28  C1  UNL     1      -4.044  -7.137  10.083  1.00  0.00     0.033 C 
ENDBRANCH  26  27
ENDBRANCH   1  26
BRANCH   5  29
HETATM   29  O10 UNL     1      -4.602  -1.335   8.793  1.00  0.00    -0.351 OA
BRANCH  29  30
HETATM   30  C14 UNL     1      -4.387   0.023   8.818  1.00  0.00     0.156 C 
HETATM   31  C15 UNL     1      -2.979   0.269   8.272  1.00  0.00     0.037 C 
HETATM   32  C16 UNL     1      -2.311   1.432   9.012  1.00  0.00     0.037 C 
HETATM   33  C17 UNL     1      -2.006   1.027  10.459  1.00  0.00     0.153 C 
HETATM   34  C24 UNL     1      -3.013  -0.022  10.825  1.00  0.00     0.184 C 
HETATM   35  O12 UNL     1      -3.306  -0.071  12.177  1.00  0.00    -0.356 OA
HETATM   36  C26 UNL     1      -4.361   0.459  10.265  1.00  0.00     0.184 C 
HETATM   37  C25 UNL     1      -4.563  -0.685  12.170  1.00  0.00     0.339 C 
HETATM   38  O13 UNL     1      -5.244  -0.219  11.065  1.00  0.00    -0.356 OA
BRANCH  33  39
HETATM   39  O11 UNL     1      -2.099   2.083  11.332  1.00  0.00    -0.378 OA
BRANCH  39  40
HETATM   40  C18 UNL     1      -1.005   2.165  12.169  1.00  0.00     0.122 C 
HETATM   41  C19 UNL     1      -0.292   3.503  12.089  1.00  0.00     0.032 C 
HETATM   42  C20 UNL     1       0.721   3.544  13.207  1.00  0.00     0.002 C 
HETATM   43  C21 UNL     1       1.700   2.410  13.171  1.00  0.00     0.000 C 
HETATM   44  C22 UNL     1       1.052   1.082  12.927  1.00  0.00     0.002 C 
HETATM   45  C23 UNL     1       0.048   1.113  11.799  1.00  0.00     0.032 C 
ENDBRANCH  39  40
ENDBRANCH  33  39
ENDBRANCH  29  30
ENDBRANCH   5  29
BRANCH   6  46
HETATM   46  O14 UNL     1      -2.031  -3.432   7.795  1.00  0.00    -0.388 OA
ATOM     47  H14 UNL     1      -1.917  -2.914   7.007  1.00  0.00     0.210 HD
ENDBRANCH   6  46
TORSDOF 16
ENDMDL
