MODEL 1
REMARK VINA RESULT: -7.291961342      0.000      0.000
REMARK  16 active torsions:
REMARK  status: ('A' for Active; 'I' for Inactive)
REMARK    1  A    between atoms: O1_2  and  C2_3 
REMARK    2  A    between atoms: C5_7  and  O3_8 
REMARK    3  A    between atoms: O3_8  and  C6_9 
REMARK    4  A    between atoms: C7_11  and  O5_12 
REMARK    5  A    between atoms: O5_12  and  C8_13 
REMARK    6  A    between atoms: C11_16  and  C12_17 
REMARK    7  A    between atoms: C18_24  and  C19_25 
REMARK    8  A    between atoms: C19_25  and  O7_26 
REMARK    9  A    between atoms: C20_28  and  O8_29 
REMARK   10  A    between atoms: C21_31  and  O9_32 
REMARK   11  A    between atoms: O9_32  and  C22_33 
REMARK   12  A    between atoms: C23_35  and  C24_36 
REMARK   13  A    between atoms: C24_36  and  O11_37 
REMARK   14  A    between atoms: C25_39  and  O12_40 
REMARK   15  A    between atoms: C26_42  and  O13_43 
REMARK   16  A    between atoms: C27_45  and  O14_46 
ROOT
HETATM    1  C2  UNL     1      -4.934  -1.542   8.467  1.00  0.00     0.183 C 
HETATM    2  C3  UNL     1      -6.200  -0.760   8.585  1.00  0.00     0.152 C 
HETATM    3  C4  UNL     1      -6.745  -0.782  10.010  1.00  0.00     0.042 C 
HETATM    4  O2  UNL     1      -5.923   0.557   8.179  1.00  0.00    -0.351 OA
HETATM    5  C5  UNL     1      -4.980   0.353   7.136  1.00  0.00     0.295 C 
HETATM    6  C21 UNL     1      -3.964  -0.451   7.972  1.00  0.00     0.211 C 
ENDROOT
BRANCH   5   7
HETATM    7  O3  UNL     1      -5.624  -0.488   6.252  1.00  0.00    -0.326 OA
BRANCH   7   8
HETATM    8  C6  UNL     1      -5.635  -0.054   4.928  1.00  0.00     0.299 C 
HETATM    9  O4  UNL     1      -6.753   0.652   4.623  1.00  0.00    -0.305 OA
HETATM   10  C7  UNL     1      -7.870   0.177   4.084  1.00  0.00     0.421 C 
HETATM   11  O6  UNL     1      -7.668  -0.969   3.202  1.00  0.00    -0.328 OA
HETATM   12  C18 UNL     1      -6.984  -1.847   4.075  1.00  0.00     0.184 C 
HETATM   13  C20 UNL     1      -5.567  -1.307   4.050  1.00  0.00     0.204 C 
BRANCH  10  14
HETATM   14  O5  UNL     1      -8.616   1.137   3.458  1.00  0.00    -0.297 OA
BRANCH  14  15
HETATM   15  C8  UNL     1      -9.868   1.415   3.122  1.00  0.00     0.074 A 
HETATM   16  C9  UNL     1     -10.244   1.553   1.778  1.00  0.00     0.037 A 
HETATM   17  C10 UNL     1     -11.532   1.815   1.382  1.00  0.00     0.011 A 
HETATM   18  C11 UNL     1     -12.536   1.958   2.306  1.00  0.00    -0.050 A 
HETATM   19  C16 UNL     1     -12.195   1.835   3.628  1.00  0.00     0.011 A 
HETATM   20  C17 UNL     1     -10.897   1.567   4.036  1.00  0.00     0.037 A 
BRANCH  18  21
HETATM   21  C12 UNL     1     -13.954   2.228   1.922  1.00  0.00    -0.024 C 
HETATM   22  C13 UNL     1     -14.016   3.098   0.701  1.00  0.00     0.019 C 
HETATM   23  C14 UNL     1     -14.633   0.898   1.648  1.00  0.00     0.019 C 
HETATM   24  C15 UNL     1     -14.665   2.947   3.053  1.00  0.00     0.019 C 
ENDBRANCH  18  21
ENDBRANCH  14  15
ENDBRANCH  10  14
BRANCH  12  25
HETATM   25  C19 UNL     1      -7.185  -3.274   3.811  1.00  0.00     0.199 C 
BRANCH  25  26
HETATM   26  O7  UNL     1      -6.782  -4.175   4.762  1.00  0.00    -0.398 OA
ATOM     27  H7  UNL     1      -7.161  -5.046   4.749  1.00  0.00     0.209 HD
ENDBRANCH  25  26
ENDBRANCH  12  25
BRANCH  13  28
HETATM   28  O8  UNL     1      -4.589  -2.183   4.395  1.00  0.00    -0.388 OA
ATOM     29  H8  UNL     1      -3.891  -2.267   3.756  1.00  0.00     0.210 HD
ENDBRANCH  13  28
ENDBRANCH   7   8
ENDBRANCH   5   7
BRANCH   6  30
HETATM   30  O9  UNL     1      -3.573   0.320   9.029  1.00  0.00    -0.346 OA
BRANCH  30  31
HETATM   31  C22 UNL     1      -2.593   1.259   8.823  1.00  0.00     0.292 C 
HETATM   32  O10 UNL     1      -1.493   0.500   8.272  1.00  0.00    -0.348 OA
HETATM   33  C23 UNL     1      -0.324   1.218   8.497  1.00  0.00     0.179 C 
HETATM   34  C25 UNL     1       0.133   1.074   9.937  1.00  0.00     0.180 C 
HETATM   35  C26 UNL     1      -1.139   0.849  10.739  1.00  0.00     0.183 C 
HETATM   36  C27 UNL     1      -2.168   1.823  10.143  1.00  0.00     0.204 C 
BRANCH  33  37
HETATM   37  C24 UNL     1       0.751   0.667   7.605  1.00  0.00     0.198 C 
BRANCH  37  38
HETATM   38  O11 UNL     1       1.986   0.554   8.208  1.00  0.00    -0.398 OA
ATOM     39  H11 UNL     1       2.717   0.537   7.602  1.00  0.00     0.209 HD
ENDBRANCH  37  38
ENDBRANCH  33  37
BRANCH  34  40
HETATM   40  O12 UNL     1       0.698   2.272  10.376  1.00  0.00    -0.390 OA
ATOM     41  H12 UNL     1       1.028   2.764   9.633  1.00  0.00     0.210 HD
ENDBRANCH  34  40
BRANCH  35  42
HETATM   42  O13 UNL     1      -0.940   1.043  12.081  1.00  0.00    -0.390 OA
ATOM     43  H13 UNL     1      -0.953   1.964  12.313  1.00  0.00     0.210 HD
ENDBRANCH  35  42
BRANCH  36  44
HETATM   44  O14 UNL     1      -3.203   1.896  11.077  1.00  0.00    -0.388 OA
ATOM     45  H14 UNL     1      -2.920   2.193  11.934  1.00  0.00     0.210 HD
ENDBRANCH  36  44
ENDBRANCH  30  31
ENDBRANCH   6  30
BRANCH   1  46
HETATM   46  O1  UNL     1      -4.931  -2.534   7.544  1.00  0.00    -0.385 OA
HETATM   47  C1  UNL     1      -3.794  -3.335   7.703  1.00  0.00     0.202 C 
ENDBRANCH   1  46
TORSDOF 16
ENDMDL
MODEL 2
REMARK VINA RESULT: -7.079365729      2.661     10.623
REMARK  16 active torsions:
REMARK  status: ('A' for Active; 'I' for Inactive)
REMARK    1  A    between atoms: O1_2  and  C2_3 
REMARK    2  A    between atoms: C5_7  and  O3_8 
REMARK    3  A    between atoms: O3_8  and  C6_9 
REMARK    4  A    between atoms: C7_11  and  O5_12 
REMARK    5  A    between atoms: O5_12  and  C8_13 
REMARK    6  A    between atoms: C11_16  and  C12_17 
REMARK    7  A    between atoms: C18_24  and  C19_25 
REMARK    8  A    between atoms: C19_25  and  O7_26 
REMARK    9  A    between atoms: C20_28  and  O8_29 
REMARK   10  A    between atoms: C21_31  and  O9_32 
REMARK   11  A    between atoms: O9_32  and  C22_33 
REMARK   12  A    between atoms: C23_35  and  C24_36 
REMARK   13  A    between atoms: C24_36  and  O11_37 
REMARK   14  A    between atoms: C25_39  and  O12_40 
REMARK   15  A    between atoms: C26_42  and  O13_43 
REMARK   16  A    between atoms: C27_45  and  O14_46 
ROOT
HETATM    1  C2  UNL     1      -4.824  -1.803   8.630  1.00  0.00     0.183 C 
HETATM    2  C3  UNL     1      -3.588  -2.520   8.198  1.00  0.00     0.152 C 
HETATM    3  C4  UNL     1      -3.776  -4.033   8.223  1.00  0.00     0.042 C 
HETATM    4  O2  UNL     1      -3.275  -2.079   6.900  1.00  0.00    -0.351 OA
HETATM    5  C5  UNL     1      -3.660  -0.712   6.951  1.00  0.00     0.295 C 
HETATM    6  C21 UNL     1      -5.122  -0.956   7.377  1.00  0.00     0.211 C 
ENDROOT
BRANCH   5   7
HETATM    7  O3  UNL     1      -2.946  -0.195   8.012  1.00  0.00    -0.326 OA
BRANCH   7   8
HETATM    8  C6  UNL     1      -2.413   1.075   7.801  1.00  0.00     0.299 C 
HETATM    9  O4  UNL     1      -1.193   1.035   7.209  1.00  0.00    -0.305 OA
HETATM   10  C7  UNL     1      -0.013   1.051   7.820  1.00  0.00     0.421 C 
HETATM   11  O6  UNL     1      -0.005   1.783   9.083  1.00  0.00    -0.328 OA
HETATM   12  C18 UNL     1      -1.044   1.117   9.772  1.00  0.00     0.184 C 
HETATM   13  C20 UNL     1      -2.292   1.739   9.176  1.00  0.00     0.204 C 
BRANCH  10  14
HETATM   14  O5  UNL     1       1.004   1.478   7.012  1.00  0.00    -0.297 OA
BRANCH  14  15
HETATM   15  C8  UNL     1       1.815   1.044   6.057  1.00  0.00     0.074 A 
HETATM   16  C9  UNL     1       2.975   0.318   6.366  1.00  0.00     0.037 A 
HETATM   17  C10 UNL     1       3.829  -0.174   5.411  1.00  0.00     0.011 A 
HETATM   18  C11 UNL     1       3.583   0.028   4.077  1.00  0.00    -0.050 A 
HETATM   19  C16 UNL     1       2.460   0.741   3.747  1.00  0.00     0.011 A 
HETATM   20  C17 UNL     1       1.589   1.238   4.705  1.00  0.00     0.037 A 
BRANCH  18  21
HETATM   21  C12 UNL     1       4.475  -0.501   3.002  1.00  0.00    -0.024 C 
HETATM   22  C13 UNL     1       5.682   0.376   2.837  1.00  0.00     0.019 C 
HETATM   23  C14 UNL     1       4.902  -1.905   3.387  1.00  0.00     0.019 C 
HETATM   24  C15 UNL     1       3.727  -0.531   1.682  1.00  0.00     0.019 C 
ENDBRANCH  18  21
ENDBRANCH  14  15
ENDBRANCH  10  14
BRANCH  12  25
HETATM   25  C19 UNL     1      -0.914   1.094  11.231  1.00  0.00     0.199 C 
BRANCH  25  26
HETATM   26  O7  UNL     1      -1.754   0.282  11.947  1.00  0.00    -0.398 OA
ATOM     27  H7  UNL     1      -2.308   0.678  12.610  1.00  0.00     0.209 HD
ENDBRANCH  25  26
ENDBRANCH  12  25
BRANCH  13  28
HETATM   28  O8  UNL     1      -3.416   1.667   9.935  1.00  0.00    -0.388 OA
ATOM     29  H8  UNL     1      -3.434   2.271  10.669  1.00  0.00     0.210 HD
ENDBRANCH  13  28
ENDBRANCH   7   8
ENDBRANCH   5   7
BRANCH   6  30
HETATM   30  O9  UNL     1      -5.719  -1.740   6.432  1.00  0.00    -0.346 OA
BRANCH  30  31
HETATM   31  C22 UNL     1      -5.798  -1.264   5.147  1.00  0.00     0.292 C 
HETATM   32  O10 UNL     1      -7.124  -0.696   5.067  1.00  0.00    -0.348 OA
HETATM   33  C23 UNL     1      -7.490  -0.652   3.726  1.00  0.00     0.179 C 
HETATM   34  C25 UNL     1      -7.912  -2.023   3.233  1.00  0.00     0.180 C 
HETATM   35  C26 UNL     1      -7.127  -3.011   4.081  1.00  0.00     0.183 C 
HETATM   36  C27 UNL     1      -5.715  -2.414   4.192  1.00  0.00     0.204 C 
BRANCH  33  37
HETATM   37  C24 UNL     1      -8.659   0.280   3.583  1.00  0.00     0.198 C 
BRANCH  37  38
HETATM   38  O11 UNL     1      -9.408   0.081   2.442  1.00  0.00    -0.398 OA
ATOM     39  H11 UNL     1      -9.662  -0.822   2.294  1.00  0.00     0.209 HD
ENDBRANCH  37  38
ENDBRANCH  33  37
BRANCH  34  40
HETATM   40  O12 UNL     1      -7.506  -2.195   1.908  1.00  0.00    -0.390 OA
ATOM     41  H12 UNL     1      -8.224  -1.985   1.322  1.00  0.00     0.210 HD
ENDBRANCH  34  40
BRANCH  35  42
HETATM   42  O13 UNL     1      -7.131  -4.270   3.538  1.00  0.00    -0.390 OA
ATOM     43  H13 UNL     1      -6.808  -4.921   4.149  1.00  0.00     0.210 HD
ENDBRANCH  35  42
BRANCH  36  44
HETATM   44  O14 UNL     1      -4.900  -3.455   4.642  1.00  0.00    -0.388 OA
ATOM     45  H14 UNL     1      -5.380  -4.249   4.848  1.00  0.00     0.210 HD
ENDBRANCH  36  44
ENDBRANCH  30  31
ENDBRANCH   6  30
BRANCH   1  46
HETATM   46  O1  UNL     1      -4.682  -0.948   9.672  1.00  0.00    -0.385 OA
HETATM   47  C1  UNL     1      -5.930  -0.438  10.048  1.00  0.00     0.202 C 
ENDBRANCH   1  46
TORSDOF 16
ENDMDL
MODEL 3
REMARK VINA RESULT: -7.037971898      1.142      1.746
REMARK  16 active torsions:
REMARK  status: ('A' for Active; 'I' for Inactive)
REMARK    1  A    between atoms: O1_2  and  C2_3 
REMARK    2  A    between atoms: C5_7  and  O3_8 
REMARK    3  A    between atoms: O3_8  and  C6_9 
REMARK    4  A    between atoms: C7_11  and  O5_12 
REMARK    5  A    between atoms: O5_12  and  C8_13 
REMARK    6  A    between atoms: C11_16  and  C12_17 
REMARK    7  A    between atoms: C18_24  and  C19_25 
REMARK    8  A    between atoms: C19_25  and  O7_26 
REMARK    9  A    between atoms: C20_28  and  O8_29 
REMARK   10  A    between atoms: C21_31  and  O9_32 
REMARK   11  A    between atoms: O9_32  and  C22_33 
REMARK   12  A    between atoms: C23_35  and  C24_36 
REMARK   13  A    between atoms: C24_36  and  O11_37 
REMARK   14  A    between atoms: C25_39  and  O12_40 
REMARK   15  A    between atoms: C26_42  and  O13_43 
REMARK   16  A    between atoms: C27_45  and  O14_46 
ROOT
HETATM    1  C2  UNL     1      -4.735  -1.462   8.408  1.00  0.00     0.183 C 
HETATM    2  C3  UNL     1      -6.050  -0.765   8.516  1.00  0.00     0.152 C 
HETATM    3  C4  UNL     1      -6.589  -0.796   9.943  1.00  0.00     0.042 C 
HETATM    4  O2  UNL     1      -5.864   0.560   8.083  1.00  0.00    -0.351 OA
HETATM    5  C5  UNL     1      -4.912   0.399   7.041  1.00  0.00     0.295 C 
HETATM    6  C21 UNL     1      -3.842  -0.317   7.888  1.00  0.00     0.211 C 
ENDROOT
BRANCH   5   7
HETATM    7  O3  UNL     1      -5.500  -0.500   6.176  1.00  0.00    -0.326 OA
BRANCH   7   8
HETATM    8  C6  UNL     1      -5.554  -0.089   4.846  1.00  0.00     0.299 C 
HETATM    9  O4  UNL     1      -6.672   0.628   4.568  1.00  0.00    -0.305 OA
HETATM   10  C7  UNL     1      -7.815   0.159   4.078  1.00  0.00     0.421 C 
HETATM   11  O6  UNL     1      -7.660  -1.004   3.211  1.00  0.00    -0.328 OA
HETATM   12  C18 UNL     1      -6.958  -1.877   4.074  1.00  0.00     0.184 C 
HETATM   13  C20 UNL     1      -5.536  -1.358   3.988  1.00  0.00     0.204 C 
BRANCH  10  14
HETATM   14  O5  UNL     1      -8.569   1.119   3.462  1.00  0.00    -0.297 OA
BRANCH  14  15
HETATM   15  C8  UNL     1      -9.810   1.357   3.062  1.00  0.00     0.074 A 
HETATM   16  C9  UNL     1     -10.840   1.581   3.988  1.00  0.00     0.037 A 
HETATM   17  C10 UNL     1     -12.133   1.857   3.620  1.00  0.00     0.011 A 
HETATM   18  C11 UNL     1     -12.488   1.927   2.297  1.00  0.00    -0.050 A 
HETATM   19  C16 UNL     1     -11.503   1.706   1.371  1.00  0.00     0.011 A 
HETATM   20  C17 UNL     1     -10.193   1.430   1.733  1.00  0.00     0.037 A 
BRANCH  18  21
HETATM   21  C12 UNL     1     -13.878   2.239   1.849  1.00  0.00    -0.024 C 
HETATM   22  C13 UNL     1     -13.860   3.227   0.718  1.00  0.00     0.019 C 
HETATM   23  C14 UNL     1     -14.534   0.947   1.398  1.00  0.00     0.019 C 
HETATM   24  C15 UNL     1     -14.664   2.846   2.996  1.00  0.00     0.019 C 
ENDBRANCH  18  21
ENDBRANCH  14  15
ENDBRANCH  10  14
BRANCH  12  25
HETATM   25  C19 UNL     1      -7.188  -3.305   3.843  1.00  0.00     0.199 C 
BRANCH  25  26
HETATM   26  O7  UNL     1      -6.817  -4.190   4.822  1.00  0.00    -0.398 OA
ATOM     27  H7  UNL     1      -7.458  -4.822   5.126  1.00  0.00     0.209 HD
ENDBRANCH  25  26
ENDBRANCH  12  25
BRANCH  13  28
HETATM   28  O8  UNL     1      -4.558  -2.243   4.314  1.00  0.00    -0.388 OA
ATOM     29  H8  UNL     1      -3.894  -2.360   3.644  1.00  0.00     0.210 HD
ENDBRANCH  13  28
ENDBRANCH   7   8
ENDBRANCH   5   7
BRANCH   6  30
HETATM   30  O9  UNL     1      -3.501   0.498   8.928  1.00  0.00    -0.346 OA
BRANCH  30  31
HETATM   31  C22 UNL     1      -2.189   0.880   9.053  1.00  0.00     0.292 C 
HETATM   32  O10 UNL     1      -1.865   0.574  10.427  1.00  0.00    -0.348 OA
HETATM   33  C23 UNL     1      -0.777   1.358  10.795  1.00  0.00     0.179 C 
HETATM   34  C25 UNL     1      -1.208   2.784  11.083  1.00  0.00     0.180 C 
HETATM   35  C26 UNL     1      -2.428   3.016  10.207  1.00  0.00     0.183 C 
HETATM   36  C27 UNL     1      -2.087   2.362   8.859  1.00  0.00     0.204 C 
BRANCH  33  37
HETATM   37  C24 UNL     1      -0.181   0.784  12.048  1.00  0.00     0.198 C 
BRANCH  37  38
HETATM   38  O11 UNL     1       0.522   1.694  12.810  1.00  0.00    -0.398 OA
ATOM     39  H11 UNL     1       0.629   1.442  13.720  1.00  0.00     0.209 HD
ENDBRANCH  37  38
ENDBRANCH  33  37
BRANCH  34  40
HETATM   40  O12 UNL     1      -0.216   3.671  10.662  1.00  0.00    -0.390 OA
ATOM     41  H12 UNL     1      -0.225   4.448  11.210  1.00  0.00     0.210 HD
ENDBRANCH  34  40
BRANCH  35  42
HETATM   42  O13 UNL     1      -2.729   4.349  10.090  1.00  0.00    -0.390 OA
ATOM     43  H13 UNL     1      -3.545   4.490   9.625  1.00  0.00     0.210 HD
ENDBRANCH  35  42
BRANCH  36  44
HETATM   44  O14 UNL     1      -3.016   2.869   7.948  1.00  0.00    -0.388 OA
ATOM     45  H14 UNL     1      -2.748   2.774   7.041  1.00  0.00     0.210 HD
ENDBRANCH  36  44
ENDBRANCH  30  31
ENDBRANCH   6  30
BRANCH   1  46
HETATM   46  O1  UNL     1      -4.667  -2.469   7.504  1.00  0.00    -0.385 OA
HETATM   47  C1  UNL     1      -3.446  -3.142   7.625  1.00  0.00     0.202 C 
ENDBRANCH   1  46
TORSDOF 16
ENDMDL
MODEL 4
REMARK VINA RESULT: -6.963292417      2.683     10.984
REMARK  16 active torsions:
REMARK  status: ('A' for Active; 'I' for Inactive)
REMARK    1  A    between atoms: O1_2  and  C2_3 
REMARK    2  A    between atoms: C5_7  and  O3_8 
REMARK    3  A    between atoms: O3_8  and  C6_9 
REMARK    4  A    between atoms: C7_11  and  O5_12 
REMARK    5  A    between atoms: O5_12  and  C8_13 
REMARK    6  A    between atoms: C11_16  and  C12_17 
REMARK    7  A    between atoms: C18_24  and  C19_25 
REMARK    8  A    between atoms: C19_25  and  O7_26 
REMARK    9  A    between atoms: C20_28  and  O8_29 
REMARK   10  A    between atoms: C21_31  and  O9_32 
REMARK   11  A    between atoms: O9_32  and  C22_33 
REMARK   12  A    between atoms: C23_35  and  C24_36 
REMARK   13  A    between atoms: C24_36  and  O11_37 
REMARK   14  A    between atoms: C25_39  and  O12_40 
REMARK   15  A    between atoms: C26_42  and  O13_43 
REMARK   16  A    between atoms: C27_45  and  O14_46 
ROOT
HETATM    1  C2  UNL     1      -4.828  -1.782   8.605  1.00  0.00     0.183 C 
HETATM    2  C3  UNL     1      -3.600  -2.514   8.176  1.00  0.00     0.152 C 
HETATM    3  C4  UNL     1      -3.801  -4.026   8.218  1.00  0.00     0.042 C 
HETATM    4  O2  UNL     1      -3.288  -2.090   6.873  1.00  0.00    -0.351 OA
HETATM    5  C5  UNL     1      -3.660  -0.720   6.910  1.00  0.00     0.295 C 
HETATM    6  C21 UNL     1      -5.123  -0.946   7.343  1.00  0.00     0.211 C 
ENDROOT
BRANCH   5   7
HETATM    7  O3  UNL     1      -2.938  -0.198   7.964  1.00  0.00    -0.326 OA
BRANCH   7   8
HETATM    8  C6  UNL     1      -2.368   1.051   7.726  1.00  0.00     0.299 C 
HETATM    9  O4  UNL     1      -1.151   0.963   7.132  1.00  0.00    -0.305 OA
HETATM   10  C7  UNL     1       0.030   0.956   7.740  1.00  0.00     0.421 C 
HETATM   11  O6  UNL     1       0.065   1.712   8.988  1.00  0.00    -0.328 OA
HETATM   12  C18 UNL     1      -0.993   1.092   9.693  1.00  0.00     0.184 C 
HETATM   13  C20 UNL     1      -2.223   1.739   9.087  1.00  0.00     0.204 C 
BRANCH  10  14
HETATM   14  O5  UNL     1       1.057   1.335   6.921  1.00  0.00    -0.297 OA
BRANCH  14  15
HETATM   15  C8  UNL     1       2.127   0.844   6.313  1.00  0.00     0.074 A 
HETATM   16  C9  UNL     1       2.242   0.869   4.915  1.00  0.00     0.037 A 
HETATM   17  C10 UNL     1       3.341   0.396   4.243  1.00  0.00     0.011 A 
HETATM   18  C11 UNL     1       4.406  -0.137   4.924  1.00  0.00    -0.050 A 
HETATM   19  C16 UNL     1       4.318  -0.180   6.291  1.00  0.00     0.011 A 
HETATM   20  C17 UNL     1       3.212   0.299   6.978  1.00  0.00     0.037 A 
BRANCH  18  21
HETATM   21  C12 UNL     1       5.630  -0.649   4.238  1.00  0.00    -0.024 C 
HETATM   22  C13 UNL     1       6.712  -0.943   5.236  1.00  0.00     0.019 C 
HETATM   23  C14 UNL     1       5.259  -1.915   3.487  1.00  0.00     0.019 C 
HETATM   24  C15 UNL     1       6.150   0.395   3.268  1.00  0.00     0.019 C 
ENDBRANCH  18  21
ENDBRANCH  14  15
ENDBRANCH  10  14
BRANCH  12  25
HETATM   25  C19 UNL     1      -0.858   1.093  11.151  1.00  0.00     0.199 C 
BRANCH  25  26
HETATM   26  O7  UNL     1      -1.691   0.286  11.883  1.00  0.00    -0.398 OA
ATOM     27  H7  UNL     1      -2.627   0.346  11.730  1.00  0.00     0.209 HD
ENDBRANCH  25  26
ENDBRANCH  12  25
BRANCH  13  28
HETATM   28  O8  UNL     1      -3.346   1.716   9.851  1.00  0.00    -0.388 OA
ATOM     29  H8  UNL     1      -3.410   2.427  10.478  1.00  0.00     0.210 HD
ENDBRANCH  13  28
ENDBRANCH   7   8
ENDBRANCH   5   7
BRANCH   6  30
HETATM   30  O9  UNL     1      -5.729  -1.735   6.409  1.00  0.00    -0.346 OA
BRANCH  30  31
HETATM   31  C22 UNL     1      -5.829  -1.262   5.125  1.00  0.00     0.292 C 
HETATM   32  O10 UNL     1      -7.161  -0.705   5.060  1.00  0.00    -0.348 OA
HETATM   33  C23 UNL     1      -7.544  -0.667   3.724  1.00  0.00     0.179 C 
HETATM   34  C25 UNL     1      -7.960  -2.043   3.239  1.00  0.00     0.180 C 
HETATM   35  C26 UNL     1      -7.157  -3.022   4.079  1.00  0.00     0.183 C 
HETATM   36  C27 UNL     1      -5.748  -2.413   4.170  1.00  0.00     0.204 C 
BRANCH  33  37
HETATM   37  C24 UNL     1      -8.723   0.254   3.594  1.00  0.00     0.198 C 
BRANCH  37  38
HETATM   38  O11 UNL     1      -9.849  -0.166   4.272  1.00  0.00    -0.398 OA
ATOM     39  H11 UNL     1      -9.852  -1.090   4.491  1.00  0.00     0.209 HD
ENDBRANCH  37  38
ENDBRANCH  33  37
BRANCH  34  40
HETATM   40  O12 UNL     1      -7.570  -2.213   1.909  1.00  0.00    -0.390 OA
ATOM     41  H12 UNL     1      -7.261  -3.102   1.776  1.00  0.00     0.210 HD
ENDBRANCH  34  40
BRANCH  35  42
HETATM   42  O13 UNL     1      -7.156  -4.282   3.537  1.00  0.00    -0.390 OA
ATOM     43  H13 UNL     1      -6.303  -4.694   3.596  1.00  0.00     0.210 HD
ENDBRANCH  35  42
BRANCH  36  44
HETATM   44  O14 UNL     1      -4.919  -3.446   4.612  1.00  0.00    -0.388 OA
ATOM     45  H14 UNL     1      -3.995  -3.280   4.461  1.00  0.00     0.210 HD
ENDBRANCH  36  44
ENDBRANCH  30  31
ENDBRANCH   6  30
BRANCH   1  46
HETATM   46  O1  UNL     1      -4.676  -0.918   9.637  1.00  0.00    -0.385 OA
HETATM   47  C1  UNL     1      -5.921  -0.414  10.029  1.00  0.00     0.202 C 
ENDBRANCH   1  46
TORSDOF 16
ENDMDL
MODEL 5
REMARK VINA RESULT: -6.894511373      2.583     10.900
REMARK  16 active torsions:
REMARK  status: ('A' for Active; 'I' for Inactive)
REMARK    1  A    between atoms: O1_2  and  C2_3 
REMARK    2  A    between atoms: C5_7  and  O3_8 
REMARK    3  A    between atoms: O3_8  and  C6_9 
REMARK    4  A    between atoms: C7_11  and  O5_12 
REMARK    5  A    between atoms: O5_12  and  C8_13 
REMARK    6  A    between atoms: C11_16  and  C12_17 
REMARK    7  A    between atoms: C18_24  and  C19_25 
REMARK    8  A    between atoms: C19_25  and  O7_26 
REMARK    9  A    between atoms: C20_28  and  O8_29 
REMARK   10  A    between atoms: C21_31  and  O9_32 
REMARK   11  A    between atoms: O9_32  and  C22_33 
REMARK   12  A    between atoms: C23_35  and  C24_36 
REMARK   13  A    between atoms: C24_36  and  O11_37 
REMARK   14  A    between atoms: C25_39  and  O12_40 
REMARK   15  A    between atoms: C26_42  and  O13_43 
REMARK   16  A    between atoms: C27_45  and  O14_46 
ROOT
HETATM    1  C2  UNL     1      -8.058   0.940   1.762  1.00  0.00     0.183 C 
HETATM    2  C3  UNL     1      -7.410   2.114   2.417  1.00  0.00     0.152 C 
HETATM    3  C4  UNL     1      -7.026   3.186   1.402  1.00  0.00     0.042 C 
HETATM    4  O2  UNL     1      -8.318   2.626   3.361  1.00  0.00    -0.351 OA
HETATM    5  C5  UNL     1      -8.942   1.445   3.842  1.00  0.00     0.295 C 
HETATM    6  C21 UNL     1      -9.427   0.930   2.472  1.00  0.00     0.211 C 
ENDROOT
BRANCH   5   7
HETATM    7  O3  UNL     1      -7.897   0.663   4.290  1.00  0.00    -0.326 OA
BRANCH   7   8
HETATM    8  C6  UNL     1      -8.122   0.020   5.505  1.00  0.00     0.299 C 
HETATM    9  O4  UNL     1      -7.180   0.321   6.434  1.00  0.00    -0.305 OA
HETATM   10  C7  UNL     1      -6.077  -0.371   6.700  1.00  0.00     0.421 C 
HETATM   11  O6  UNL     1      -6.200  -1.806   6.465  1.00  0.00    -0.328 OA
HETATM   12  C18 UNL     1      -6.618  -1.811   5.115  1.00  0.00     0.184 C 
HETATM   13  C20 UNL     1      -8.096  -1.486   5.221  1.00  0.00     0.204 C 
BRANCH  10  14
HETATM   14  O5  UNL     1      -5.580  -0.130   7.951  1.00  0.00    -0.297 OA
BRANCH  14  15
HETATM   15  C8  UNL     1      -4.465   0.240   8.565  1.00  0.00     0.074 A 
HETATM   16  C9  UNL     1      -3.299   0.528   7.839  1.00  0.00     0.037 A 
HETATM   17  C10 UNL     1      -2.131   0.939   8.429  1.00  0.00     0.011 A 
HETATM   18  C11 UNL     1      -2.045   1.091   9.790  1.00  0.00    -0.050 A 
HETATM   19  C16 UNL     1      -3.167   0.810  10.524  1.00  0.00     0.011 A 
HETATM   20  C17 UNL     1      -4.354   0.397   9.936  1.00  0.00     0.037 A 
BRANCH  18  21
HETATM   21  C12 UNL     1      -0.800   1.551  10.475  1.00  0.00    -0.024 C 
HETATM   22  C13 UNL     1       0.417   1.098   9.721  1.00  0.00     0.019 C 
HETATM   23  C14 UNL     1      -0.831   3.066  10.549  1.00  0.00     0.019 C 
HETATM   24  C15 UNL     1      -0.736   0.966  11.873  1.00  0.00     0.019 C 
ENDBRANCH  18  21
ENDBRANCH  14  15
ENDBRANCH  10  14
BRANCH  12  25
HETATM   25  C19 UNL     1      -6.225  -2.991   4.342  1.00  0.00     0.199 C 
BRANCH  25  26
HETATM   26  O7  UNL     1      -6.962  -4.138   4.484  1.00  0.00    -0.398 OA
ATOM     27  H7  UNL     1      -7.650  -4.314   3.853  1.00  0.00     0.209 HD
ENDBRANCH  25  26
ENDBRANCH  12  25
BRANCH  13  28
HETATM   28  O8  UNL     1      -8.869  -1.874   4.174  1.00  0.00    -0.388 OA
ATOM     29  H8  UNL     1      -8.781  -1.332   3.398  1.00  0.00     0.210 HD
ENDBRANCH  13  28
ENDBRANCH   7   8
ENDBRANCH   5   7
BRANCH   6  30
HETATM   30  O9  UNL     1     -10.231   1.883   1.916  1.00  0.00    -0.346 OA
BRANCH  30  31
HETATM   31  C22 UNL     1     -11.460   2.109   2.484  1.00  0.00     0.292 C 
HETATM   32  O10 UNL     1     -12.371   1.352   1.656  1.00  0.00    -0.348 OA
HETATM   33  C23 UNL     1     -13.642   1.895   1.814  1.00  0.00     0.179 C 
HETATM   34  C25 UNL     1     -13.786   3.178   1.017  1.00  0.00     0.180 C 
HETATM   35  C26 UNL     1     -12.387   3.768   0.954  1.00  0.00     0.183 C 
HETATM   36  C27 UNL     1     -11.800   3.562   2.359  1.00  0.00     0.204 C 
BRANCH  33  37
HETATM   37  C24 UNL     1     -14.648   0.906   1.298  1.00  0.00     0.198 C 
BRANCH  37  38
HETATM   38  O11 UNL     1     -14.115  -0.318   0.952  1.00  0.00    -0.398 OA
ATOM     39  H11 UNL     1     -14.702  -1.052   1.083  1.00  0.00     0.209 HD
ENDBRANCH  37  38
ENDBRANCH  33  37
BRANCH  34  40
HETATM   40  O12 UNL     1     -14.590   4.081   1.716  1.00  0.00    -0.390 OA
ATOM     41  H12 UNL     1     -14.119   4.413   2.472  1.00  0.00     0.210 HD
ENDBRANCH  34  40
BRANCH  35  42
HETATM   42  O13 UNL     1     -12.403   5.085   0.573  1.00  0.00    -0.390 OA
ATOM     43  H13 UNL     1     -12.313   5.671   1.315  1.00  0.00     0.210 HD
ENDBRANCH  35  42
BRANCH  36  44
HETATM   44  O14 UNL     1     -10.686   4.402   2.429  1.00  0.00    -0.388 OA
ATOM     45  H14 UNL     1     -10.034   4.114   3.058  1.00  0.00     0.210 HD
ENDBRANCH  36  44
ENDBRANCH  30  31
ENDBRANCH   6  30
BRANCH   1  46
HETATM   46  O1  UNL     1      -7.477  -0.263   1.987  1.00  0.00    -0.385 OA
HETATM   47  C1  UNL     1      -7.919  -1.195   1.041  1.00  0.00     0.202 C 
ENDBRANCH   1  46
TORSDOF 16
ENDMDL
