MODEL 1
REMARK VINA RESULT: -7.142563990      0.000      0.000
REMARK  14 active torsions:
REMARK  status: ('A' for Active; 'I' for Inactive)
REMARK    1  A    between atoms: O1_2  and  C2_3 
REMARK    2  A    between atoms: C2_3  and  C3_5 
REMARK    3  A    between atoms: C3_5  and  C4_6 
REMARK    4  A    between atoms: C3_5  and  C10_17 
REMARK    5  A    between atoms: C5_7  and  C6_8 
REMARK       I    between atoms: C6_8  and  N1_10 
REMARK    6  A    between atoms: N1_10  and  C7_12 
REMARK    7  A    between atoms: C7_12  and  C9_14 
REMARK    8  A    between atoms: C12_20  and  O7_21 
REMARK    9  A    between atoms: C15_26  and  O9_27 
REMARK   10  A    between atoms: O9_27  and  C16_28 
REMARK   11  A    between atoms: C17_29  and  O10_30 
REMARK   12  A    between atoms: C19_32  and  O11_33 
REMARK   13  A    between atoms: C20_35  and  C21_36 
REMARK   14  A    between atoms: C21_36  and  O12_37 
ROOT
HETATM    1  C10 UNL     1      -5.031  -0.534   7.313  1.00  0.00     0.133 C 
HETATM    2  O6  UNL     1      -4.354   0.225   8.260  1.00  0.00    -0.371 OA
HETATM    3  C11 UNL     1      -3.019   0.212   8.084  1.00  0.00     0.203 C 
HETATM    4  C12 UNL     1      -2.685  -0.386   6.767  1.00  0.00     0.174 C 
HETATM    5  C13 UNL     1      -4.037  -0.862   6.254  1.00  0.00     0.190 C 
HETATM    6  O8  UNL     1      -4.278  -0.031   5.144  1.00  0.00    -0.377 OA
HETATM    7  C14 UNL     1      -4.856   1.115   5.669  1.00  0.00     0.203 C 
HETATM    8  C15 UNL     1      -5.958   0.401   6.543  1.00  0.00     0.184 C 
ENDROOT
BRANCH   8   9
HETATM    9  O9  UNL     1      -6.698  -0.345   5.631  1.00  0.00    -0.372 OA
BRANCH   9  10
HETATM   10  C16 UNL     1      -7.897   0.243   5.231  1.00  0.00     0.163 C 
HETATM   11  C17 UNL     1      -9.038  -0.429   5.915  1.00  0.00     0.182 C 
HETATM   12  C19 UNL     1      -9.307  -1.699   5.108  1.00  0.00     0.186 C 
HETATM   13  C20 UNL     1      -8.956  -1.322   3.685  1.00  0.00     0.120 C 
HETATM   14  O13 UNL     1      -9.877  -0.465   3.084  1.00  0.00    -0.364 OA
HETATM   15  C25 UNL     1      -8.015  -0.149   3.757  1.00  0.00     0.090 C 
HETATM   16  C22 UNL     1      -8.951   0.591   2.900  1.00  0.00     0.064 C 
HETATM   17  C23 UNL     1      -8.560   0.584   1.412  1.00  0.00     0.046 C 
HETATM   18  C24 UNL     1      -9.546   1.876   3.331  1.00  0.00     0.046 C 
BRANCH  11  19
HETATM   19  O10 UNL     1     -10.228   0.286   5.885  1.00  0.00    -0.385 OA
HETATM   20  C18 UNL     1     -11.319  -0.357   6.394  1.00  0.00     0.202 C 
ENDBRANCH  11  19
BRANCH  12  21
HETATM   21  O11 UNL     1      -8.554  -2.752   5.586  1.00  0.00    -0.390 OA
ATOM     22  H11 UNL     1      -8.484  -3.439   4.935  1.00  0.00     0.210 HD
ENDBRANCH  12  21
BRANCH  13  23
HETATM   23  C21 UNL     1      -8.483  -2.451   2.826  1.00  0.00     0.205 C 
BRANCH  23  24
HETATM   24  O12 UNL     1      -9.420  -2.849   1.885  1.00  0.00    -0.398 OA
ATOM     25  H12 UNL     1      -9.214  -3.685   1.483  1.00  0.00     0.209 HD
ENDBRANCH  23  24
ENDBRANCH  13  23
ENDBRANCH   9  10
ENDBRANCH   8   9
BRANCH   1  26
HETATM   26  C3  UNL     1      -5.785  -1.650   7.922  1.00  0.00     0.148 C 
BRANCH  26  27
HETATM   27  C2  UNL     1      -6.058  -1.291   9.379  1.00  0.00     0.269 C 
HETATM   28  O2  UNL     1      -5.309  -1.496  10.322  1.00  0.00    -0.264 OA
BRANCH  27  29
HETATM   29  O1  UNL     1      -7.284  -0.660   9.680  1.00  0.00    -0.326 OA
HETATM   30  C1  UNL     1      -8.027  -1.004  10.832  1.00  0.00     0.213 C 
ENDBRANCH  27  29
ENDBRANCH  26  27
BRANCH  26  31
HETATM   31  C4  UNL     1      -5.320  -3.005   7.927  1.00  0.00    -0.004 C 
HETATM   32  C5  UNL     1      -4.203  -3.635   8.047  1.00  0.00     0.071 C 
BRANCH  32  33
HETATM   33  C6  UNL     1      -4.171  -5.128   7.993  1.00  0.00     0.241 C 
HETATM   34  O3  UNL     1      -3.694  -5.656   6.970  1.00  0.00    -0.269 OA
HETATM   35  N1  UNL     1      -4.651  -5.937   9.040  1.00  0.00    -0.344 N 
ATOM     36  H1  UNL     1      -5.038  -5.486   9.869  1.00  0.00     0.163 HD
BRANCH  35  37
HETATM   37  C7  UNL     1      -4.618  -7.380   8.987  1.00  0.00     0.181 C 
HETATM   38  C8  UNL     1      -5.903  -7.896   8.429  1.00  0.00     0.043 C 
BRANCH  37  39
HETATM   39  C9  UNL     1      -4.366  -7.976  10.320  1.00  0.00     0.196 C 
HETATM   40  O4  UNL     1      -3.740  -7.364  11.218  1.00  0.00    -0.646 OA
HETATM   41  O5  UNL     1      -4.823  -9.251  10.613  1.00  0.00    -0.646 OA
ENDBRANCH  37  39
ENDBRANCH  35  37
ENDBRANCH  32  33
ENDBRANCH  26  31
ENDBRANCH   1  26
BRANCH   4  42
HETATM   42  O7  UNL     1      -2.063   0.506   5.907  1.00  0.00    -0.391 OA
ATOM     43  H7  UNL     1      -2.555   0.659   5.108  1.00  0.00     0.210 HD
ENDBRANCH   4  42
TORSDOF 14
ENDMDL
MODEL 2
REMARK VINA RESULT: -7.008045142      2.772      5.324
REMARK  14 active torsions:
REMARK  status: ('A' for Active; 'I' for Inactive)
REMARK    1  A    between atoms: O1_2  and  C2_3 
REMARK    2  A    between atoms: C2_3  and  C3_5 
REMARK    3  A    between atoms: C3_5  and  C4_6 
REMARK    4  A    between atoms: C3_5  and  C10_17 
REMARK    5  A    between atoms: C5_7  and  C6_8 
REMARK       I    between atoms: C6_8  and  N1_10 
REMARK    6  A    between atoms: N1_10  and  C7_12 
REMARK    7  A    between atoms: C7_12  and  C9_14 
REMARK    8  A    between atoms: C12_20  and  O7_21 
REMARK    9  A    between atoms: C15_26  and  O9_27 
REMARK   10  A    between atoms: O9_27  and  C16_28 
REMARK   11  A    between atoms: C17_29  and  O10_30 
REMARK   12  A    between atoms: C19_32  and  O11_33 
REMARK   13  A    between atoms: C20_35  and  C21_36 
REMARK   14  A    between atoms: C21_36  and  O12_37 
ROOT
HETATM    1  C10 UNL     1      -5.898  -1.524   7.475  1.00  0.00     0.133 C 
HETATM    2  O6  UNL     1      -6.229  -2.573   8.326  1.00  0.00    -0.371 OA
HETATM    3  C11 UNL     1      -6.631  -2.155   9.541  1.00  0.00     0.203 C 
HETATM    4  C12 UNL     1      -6.865  -0.690   9.523  1.00  0.00     0.174 C 
HETATM    5  C13 UNL     1      -6.391  -0.283   8.134  1.00  0.00     0.190 C 
HETATM    6  O8  UNL     1      -7.575   0.124   7.490  1.00  0.00    -0.377 OA
HETATM    7  C14 UNL     1      -8.130  -1.042   6.984  1.00  0.00     0.203 C 
HETATM    8  C15 UNL     1      -6.833  -1.588   6.272  1.00  0.00     0.184 C 
ENDROOT
BRANCH   8   9
HETATM    9  O9  UNL     1      -6.481  -0.588   5.371  1.00  0.00    -0.372 OA
BRANCH   9  10
HETATM   10  C16 UNL     1      -7.148  -0.640   4.149  1.00  0.00     0.163 C 
HETATM   11  C17 UNL     1      -6.887  -1.952   3.491  1.00  0.00     0.182 C 
HETATM   12  C19 UNL     1      -5.520  -1.808   2.822  1.00  0.00     0.186 C 
HETATM   13  C20 UNL     1      -5.451  -0.351   2.418  1.00  0.00     0.120 C 
HETATM   14  O13 UNL     1      -6.272  -0.024   1.340  1.00  0.00    -0.364 OA
HETATM   15  C25 UNL     1      -6.418   0.398   3.295  1.00  0.00     0.090 C 
HETATM   16  C22 UNL     1      -7.065   0.893   2.073  1.00  0.00     0.064 C 
HETATM   17  C23 UNL     1      -6.607   2.304   1.663  1.00  0.00     0.046 C 
HETATM   18  C24 UNL     1      -8.502   0.656   1.807  1.00  0.00     0.046 C 
BRANCH  11  19
HETATM   19  O10 UNL     1      -7.768  -2.267   2.464  1.00  0.00    -0.385 OA
HETATM   20  C18 UNL     1      -8.921  -2.892   2.842  1.00  0.00     0.202 C 
ENDBRANCH  11  19
BRANCH  12  21
HETATM   21  O11 UNL     1      -4.510  -2.174   3.688  1.00  0.00    -0.390 OA
ATOM     22  H11 UNL     1      -3.753  -2.489   3.208  1.00  0.00     0.210 HD
ENDBRANCH  12  21
BRANCH  13  23
HETATM   23  C21 UNL     1      -4.074   0.230   2.367  1.00  0.00     0.205 C 
BRANCH  23  24
HETATM   24  O12 UNL     1      -3.216  -0.473   1.535  1.00  0.00    -0.398 OA
ATOM     25  H12 UNL     1      -2.351  -0.084   1.476  1.00  0.00     0.209 HD
ENDBRANCH  23  24
ENDBRANCH  13  23
ENDBRANCH   9  10
ENDBRANCH   8   9
BRANCH   1  26
HETATM   26  C3  UNL     1      -4.483  -1.566   7.054  1.00  0.00     0.148 C 
BRANCH  26  27
HETATM   27  C2  UNL     1      -4.046  -3.028   7.028  1.00  0.00     0.269 C 
HETATM   28  O2  UNL     1      -3.426  -3.608   7.907  1.00  0.00    -0.264 OA
BRANCH  27  29
HETATM   29  O1  UNL     1      -4.383  -3.793   5.891  1.00  0.00    -0.326 OA
HETATM   30  C1  UNL     1      -4.788  -5.143   6.004  1.00  0.00     0.213 C 
ENDBRANCH  27  29
ENDBRANCH  26  27
BRANCH  26  31
HETATM   31  C4  UNL     1      -3.439  -0.852   7.726  1.00  0.00    -0.004 C 
HETATM   32  C5  UNL     1      -2.272  -0.380   7.457  1.00  0.00     0.071 C 
BRANCH  32  33
HETATM   33  C6  UNL     1      -1.486   0.335   8.507  1.00  0.00     0.241 C 
HETATM   34  O3  UNL     1      -1.153   1.513   8.273  1.00  0.00    -0.269 OA
HETATM   35  N1  UNL     1      -1.122  -0.268   9.726  1.00  0.00    -0.344 N 
ATOM     36  H1  UNL     1      -1.404  -1.232   9.899  1.00  0.00     0.163 HD
BRANCH  35  37
HETATM   37  C7  UNL     1      -0.364   0.425  10.741  1.00  0.00     0.181 C 
HETATM   38  C8  UNL     1       1.096   0.295  10.461  1.00  0.00     0.043 C 
BRANCH  37  39
HETATM   39  C9  UNL     1      -0.669  -0.080  12.101  1.00  0.00     0.196 C 
HETATM   40  O4  UNL     1       0.229  -0.464  12.888  1.00  0.00    -0.646 OA
HETATM   41  O5  UNL     1      -1.980  -0.142  12.546  1.00  0.00    -0.646 OA
ENDBRANCH  37  39
ENDBRANCH  35  37
ENDBRANCH  32  33
ENDBRANCH  26  31
ENDBRANCH   1  26
BRANCH   4  42
HETATM   42  O7  UNL     1      -8.187  -0.347   9.766  1.00  0.00    -0.391 OA
ATOM     43  H7  UNL     1      -8.307   0.115  10.588  1.00  0.00     0.210 HD
ENDBRANCH   4  42
TORSDOF 14
ENDMDL
MODEL 3
REMARK VINA RESULT: -6.866607615      2.772      6.488
REMARK  14 active torsions:
REMARK  status: ('A' for Active; 'I' for Inactive)
REMARK    1  A    between atoms: O1_2  and  C2_3 
REMARK    2  A    between atoms: C2_3  and  C3_5 
REMARK    3  A    between atoms: C3_5  and  C4_6 
REMARK    4  A    between atoms: C3_5  and  C10_17 
REMARK    5  A    between atoms: C5_7  and  C6_8 
REMARK       I    between atoms: C6_8  and  N1_10 
REMARK    6  A    between atoms: N1_10  and  C7_12 
REMARK    7  A    between atoms: C7_12  and  C9_14 
REMARK    8  A    between atoms: C12_20  and  O7_21 
REMARK    9  A    between atoms: C15_26  and  O9_27 
REMARK   10  A    between atoms: O9_27  and  C16_28 
REMARK   11  A    between atoms: C17_29  and  O10_30 
REMARK   12  A    between atoms: C19_32  and  O11_33 
REMARK   13  A    between atoms: C20_35  and  C21_36 
REMARK   14  A    between atoms: C21_36  and  O12_37 
ROOT
HETATM    1  C10 UNL     1      -5.038  -2.732   5.522  1.00  0.00     0.133 C 
HETATM    2  O6  UNL     1      -5.092  -3.962   4.878  1.00  0.00    -0.371 OA
HETATM    3  C11 UNL     1      -6.348  -4.428   4.742  1.00  0.00     0.203 C 
HETATM    4  C12 UNL     1      -7.324  -3.361   5.075  1.00  0.00     0.174 C 
HETATM    5  C13 UNL     1      -6.438  -2.229   5.575  1.00  0.00     0.190 C 
HETATM    6  O8  UNL     1      -6.592  -1.233   4.592  1.00  0.00    -0.377 OA
HETATM    7  C14 UNL     1      -5.668  -1.552   3.608  1.00  0.00     0.203 C 
HETATM    8  C15 UNL     1      -4.420  -1.726   4.555  1.00  0.00     0.184 C 
ENDROOT
BRANCH   8   9
HETATM    9  O9  UNL     1      -4.293  -0.499   5.198  1.00  0.00    -0.372 OA
BRANCH   9  10
HETATM   10  C16 UNL     1      -3.540   0.448   4.507  1.00  0.00     0.163 C 
HETATM   11  C17 UNL     1      -2.096   0.083   4.568  1.00  0.00     0.182 C 
HETATM   12  C19 UNL     1      -1.607   0.581   5.928  1.00  0.00     0.186 C 
HETATM   13  C20 UNL     1      -2.432   1.821   6.194  1.00  0.00     0.120 C 
HETATM   14  O13 UNL     1      -2.077   2.915   5.405  1.00  0.00    -0.364 OA
HETATM   15  C25 UNL     1      -3.680   1.710   5.359  1.00  0.00     0.090 C 
HETATM   16  C22 UNL     1      -3.336   3.009   4.763  1.00  0.00     0.064 C 
HETATM   17  C23 UNL     1      -4.075   4.195   5.407  1.00  0.00     0.046 C 
HETATM   18  C24 UNL     1      -3.157   3.168   3.303  1.00  0.00     0.046 C 
BRANCH  11  19
HETATM   19  O10 UNL     1      -1.298   0.728   3.632  1.00  0.00    -0.385 OA
HETATM   20  C18 UNL     1       0.035   0.446   3.693  1.00  0.00     0.202 C 
ENDBRANCH  11  19
BRANCH  12  21
HETATM   21  O11 UNL     1      -1.773  -0.391   6.894  1.00  0.00    -0.390 OA
ATOM     22  H11 UNL     1      -1.900   0.001   7.749  1.00  0.00     0.210 HD
ENDBRANCH  12  21
BRANCH  13  23
HETATM   23  C21 UNL     1      -2.672   2.129   7.637  1.00  0.00     0.205 C 
BRANCH  23  24
HETATM   24  O12 UNL     1      -3.792   1.495   8.152  1.00  0.00    -0.398 OA
ATOM     25  H12 UNL     1      -3.596   0.931   8.891  1.00  0.00     0.209 HD
ENDBRANCH  23  24
ENDBRANCH  13  23
ENDBRANCH   9  10
ENDBRANCH   8   9
BRANCH   1  26
HETATM   26  C3  UNL     1      -4.278  -2.792   6.788  1.00  0.00     0.148 C 
BRANCH  26  27
HETATM   27  C2  UNL     1      -4.111  -4.261   7.164  1.00  0.00     0.269 C 
HETATM   28  O2  UNL     1      -3.169  -4.977   6.862  1.00  0.00    -0.264 OA
BRANCH  27  29
HETATM   29  O1  UNL     1      -5.131  -4.860   7.934  1.00  0.00    -0.326 OA
HETATM   30  C1  UNL     1      -4.947  -6.119   8.549  1.00  0.00     0.213 C 
ENDBRANCH  27  29
ENDBRANCH  26  27
BRANCH  26  31
HETATM   31  C4  UNL     1      -4.685  -2.119   7.984  1.00  0.00    -0.004 C 
HETATM   32  C5  UNL     1      -4.236  -1.923   9.175  1.00  0.00     0.071 C 
BRANCH  32  33
HETATM   33  C6  UNL     1      -5.025  -1.117  10.155  1.00  0.00     0.241 C 
HETATM   34  O3  UNL     1      -4.591   0.013  10.451  1.00  0.00    -0.269 OA
HETATM   35  N1  UNL     1      -6.217  -1.585  10.739  1.00  0.00    -0.344 N 
ATOM     36  H1  UNL     1      -6.556  -2.512  10.484  1.00  0.00     0.163 HD
BRANCH  35  37
HETATM   37  C7  UNL     1      -6.979  -0.804  11.685  1.00  0.00     0.181 C 
HETATM   38  C8  UNL     1      -6.603  -1.186  13.078  1.00  0.00     0.043 C 
BRANCH  37  39
HETATM   39  C9  UNL     1      -8.439  -0.968  11.489  1.00  0.00     0.196 C 
HETATM   40  O4  UNL     1      -9.060  -0.380  10.571  1.00  0.00    -0.646 OA
HETATM   41  O5  UNL     1      -9.170  -1.790  12.332  1.00  0.00    -0.646 OA
ENDBRANCH  37  39
ENDBRANCH  35  37
ENDBRANCH  32  33
ENDBRANCH  26  31
ENDBRANCH   1  26
BRANCH   4  42
HETATM   42  O7  UNL     1      -8.116  -2.993   3.997  1.00  0.00    -0.391 OA
ATOM     43  H7  UNL     1      -8.410  -2.091   4.041  1.00  0.00     0.210 HD
ENDBRANCH   4  42
TORSDOF 14
ENDMDL
MODEL 4
REMARK VINA RESULT: -6.850612910      3.066      8.307
REMARK  14 active torsions:
REMARK  status: ('A' for Active; 'I' for Inactive)
REMARK    1  A    between atoms: O1_2  and  C2_3 
REMARK    2  A    between atoms: C2_3  and  C3_5 
REMARK    3  A    between atoms: C3_5  and  C4_6 
REMARK    4  A    between atoms: C3_5  and  C10_17 
REMARK    5  A    between atoms: C5_7  and  C6_8 
REMARK       I    between atoms: C6_8  and  N1_10 
REMARK    6  A    between atoms: N1_10  and  C7_12 
REMARK    7  A    between atoms: C7_12  and  C9_14 
REMARK    8  A    between atoms: C12_20  and  O7_21 
REMARK    9  A    between atoms: C15_26  and  O9_27 
REMARK   10  A    between atoms: O9_27  and  C16_28 
REMARK   11  A    between atoms: C17_29  and  O10_30 
REMARK   12  A    between atoms: C19_32  and  O11_33 
REMARK   13  A    between atoms: C20_35  and  C21_36 
REMARK   14  A    between atoms: C21_36  and  O12_37 
ROOT
HETATM    1  C10 UNL     1      -7.403   0.159   4.679  1.00  0.00     0.133 C 
HETATM    2  O6  UNL     1      -7.519  -0.035   3.307  1.00  0.00    -0.371 OA
HETATM    3  C11 UNL     1      -7.862   1.087   2.646  1.00  0.00     0.203 C 
HETATM    4  C12 UNL     1      -7.747   2.262   3.545  1.00  0.00     0.174 C 
HETATM    5  C13 UNL     1      -7.421   1.633   4.893  1.00  0.00     0.190 C 
HETATM    6  O8  UNL     1      -6.105   2.063   5.147  1.00  0.00    -0.377 OA
HETATM    7  C14 UNL     1      -5.294   1.145   4.496  1.00  0.00     0.203 C 
HETATM    8  C15 UNL     1      -5.965  -0.159   5.074  1.00  0.00     0.184 C 
ENDROOT
BRANCH   8   9
HETATM    9  O9  UNL     1      -5.836  -0.037   6.454  1.00  0.00    -0.372 OA
BRANCH   9  10
HETATM   10  C16 UNL     1      -4.643  -0.530   6.977  1.00  0.00     0.163 C 
HETATM   11  C17 UNL     1      -4.692  -2.019   7.024  1.00  0.00     0.182 C 
HETATM   12  C19 UNL     1      -5.473  -2.361   8.292  1.00  0.00     0.186 C 
HETATM   13  C20 UNL     1      -5.127  -1.249   9.258  1.00  0.00     0.120 C 
HETATM   14  O13 UNL     1      -3.828  -1.320   9.760  1.00  0.00    -0.364 OA
HETATM   15  C25 UNL     1      -4.673  -0.073   8.436  1.00  0.00     0.090 C 
HETATM   16  C22 UNL     1      -3.423  -0.080   9.208  1.00  0.00     0.064 C 
HETATM   17  C23 UNL     1      -3.407   0.937  10.362  1.00  0.00     0.046 C 
HETATM   18  C24 UNL     1      -2.106  -0.219   8.546  1.00  0.00     0.046 C 
BRANCH  11  19
HETATM   19  O10 UNL     1      -3.455  -2.631   7.177  1.00  0.00    -0.385 OA
HETATM   20  C18 UNL     1      -3.485  -3.965   7.466  1.00  0.00     0.202 C 
ENDBRANCH  11  19
BRANCH  12  21
HETATM   21  O11 UNL     1      -6.826  -2.442   8.028  1.00  0.00    -0.390 OA
ATOM     22  H11 UNL     1      -7.333  -2.295   8.818  1.00  0.00     0.210 HD
ENDBRANCH  12  21
BRANCH  13  23
HETATM   23  C21 UNL     1      -6.183  -0.934  10.270  1.00  0.00     0.205 C 
BRANCH  23  24
HETATM   24  O12 UNL     1      -7.328  -0.387   9.712  1.00  0.00    -0.398 OA
ATOM     25  H12 UNL     1      -7.837   0.124  10.330  1.00  0.00     0.209 HD
ENDBRANCH  23  24
ENDBRANCH  13  23
ENDBRANCH   9  10
ENDBRANCH   8   9
BRANCH   1  26
HETATM   26  C3  UNL     1      -8.362  -0.662   5.446  1.00  0.00     0.148 C 
BRANCH  26  27
HETATM   27  C2  UNL     1      -8.353  -2.068   4.854  1.00  0.00     0.269 C 
HETATM   28  O2  UNL     1      -7.633  -2.990   5.206  1.00  0.00    -0.264 OA
BRANCH  27  29
HETATM   29  O1  UNL     1      -9.255  -2.344   3.805  1.00  0.00    -0.326 OA
HETATM   30  C1  UNL     1      -8.922  -3.237   2.761  1.00  0.00     0.213 C 
ENDBRANCH  27  29
ENDBRANCH  26  27
BRANCH  26  31
HETATM   31  C4  UNL     1      -9.741  -0.311   5.615  1.00  0.00    -0.004 C 
HETATM   32  C5  UNL     1     -10.734  -0.655   6.359  1.00  0.00     0.071 C 
BRANCH  32  33
HETATM   33  C6  UNL     1     -12.065   0.003   6.191  1.00  0.00     0.241 C 
HETATM   34  O3  UNL     1     -12.919  -0.195   7.077  1.00  0.00    -0.269 OA
HETATM   35  N1  UNL     1     -12.374   0.822   5.089  1.00  0.00    -0.344 N 
ATOM     36  H1  UNL     1     -11.662   0.971   4.375  1.00  0.00     0.163 HD
BRANCH  35  37
HETATM   37  C7  UNL     1     -13.661   1.458   4.929  1.00  0.00     0.181 C 
HETATM   38  C8  UNL     1     -14.339   0.932   3.708  1.00  0.00     0.043 C 
BRANCH  37  39
HETATM   39  C9  UNL     1     -13.542   2.933   4.850  1.00  0.00     0.196 C 
HETATM   40  O4  UNL     1     -14.188   3.697   5.607  1.00  0.00    -0.646 OA
HETATM   41  O5  UNL     1     -12.697   3.518   3.921  1.00  0.00    -0.646 OA
ENDBRANCH  37  39
ENDBRANCH  35  37
ENDBRANCH  32  33
ENDBRANCH  26  31
ENDBRANCH   1  26
BRANCH   4  42
HETATM   42  O7  UNL     1      -6.790   3.174   3.128  1.00  0.00    -0.391 OA
ATOM     43  H7  UNL     1      -5.906   2.924   3.371  1.00  0.00     0.210 HD
ENDBRANCH   4  42
TORSDOF 14
ENDMDL
MODEL 5
REMARK VINA RESULT: -6.838493583      2.810      5.585
REMARK  14 active torsions:
REMARK  status: ('A' for Active; 'I' for Inactive)
REMARK    1  A    between atoms: O1_2  and  C2_3 
REMARK    2  A    between atoms: C2_3  and  C3_5 
REMARK    3  A    between atoms: C3_5  and  C4_6 
REMARK    4  A    between atoms: C3_5  and  C10_17 
REMARK    5  A    between atoms: C5_7  and  C6_8 
REMARK       I    between atoms: C6_8  and  N1_10 
REMARK    6  A    between atoms: N1_10  and  C7_12 
REMARK    7  A    between atoms: C7_12  and  C9_14 
REMARK    8  A    between atoms: C12_20  and  O7_21 
REMARK    9  A    between atoms: C15_26  and  O9_27 
REMARK   10  A    between atoms: O9_27  and  C16_28 
REMARK   11  A    between atoms: C17_29  and  O10_30 
REMARK   12  A    between atoms: C19_32  and  O11_33 
REMARK   13  A    between atoms: C20_35  and  C21_36 
REMARK   14  A    between atoms: C21_36  and  O12_37 
ROOT
HETATM    1  C10 UNL     1      -5.809  -1.635   7.607  1.00  0.00     0.133 C 
HETATM    2  O6  UNL     1      -6.199  -2.672   8.446  1.00  0.00    -0.371 OA
HETATM    3  C11 UNL     1      -6.594  -2.243   9.660  1.00  0.00     0.203 C 
HETATM    4  C12 UNL     1      -6.756  -0.768   9.650  1.00  0.00     0.174 C 
HETATM    5  C13 UNL     1      -6.249  -0.376   8.269  1.00  0.00     0.190 C 
HETATM    6  O8  UNL     1      -7.404   0.092   7.615  1.00  0.00    -0.377 OA
HETATM    7  C14 UNL     1      -8.009  -1.043   7.096  1.00  0.00     0.203 C 
HETATM    8  C15 UNL     1      -6.733  -1.646   6.393  1.00  0.00     0.184 C 
ENDROOT
BRANCH   8   9
HETATM    9  O9  UNL     1      -6.324  -0.658   5.503  1.00  0.00    -0.372 OA
BRANCH   9  10
HETATM   10  C16 UNL     1      -7.037  -0.617   4.307  1.00  0.00     0.163 C 
HETATM   11  C17 UNL     1      -6.856  -1.900   3.570  1.00  0.00     0.182 C 
HETATM   12  C19 UNL     1      -5.510  -1.774   2.856  1.00  0.00     0.186 C 
HETATM   13  C20 UNL     1      -5.395  -0.301   2.529  1.00  0.00     0.120 C 
HETATM   14  O13 UNL     1      -6.241   0.118   1.503  1.00  0.00    -0.364 OA
HETATM   15  C25 UNL     1      -6.296   0.437   3.482  1.00  0.00     0.090 C 
HETATM   16  C22 UNL     1      -6.967   1.025   2.315  1.00  0.00     0.064 C 
HETATM   17  C23 UNL     1      -6.465   2.436   1.962  1.00  0.00     0.046 C 
HETATM   18  C24 UNL     1      -8.421   0.860   2.093  1.00  0.00     0.046 C 
BRANCH  11  19
HETATM   19  O10 UNL     1      -7.787  -2.122   2.564  1.00  0.00    -0.385 OA
HETATM   20  C18 UNL     1      -8.901  -2.819   2.930  1.00  0.00     0.202 C 
ENDBRANCH  11  19
BRANCH  12  21
HETATM   21  O11 UNL     1      -4.484  -2.227   3.661  1.00  0.00    -0.390 OA
ATOM     22  H11 UNL     1      -4.393  -3.170   3.591  1.00  0.00     0.210 HD
ENDBRANCH  12  21
BRANCH  13  23
HETATM   23  C21 UNL     1      -3.997   0.227   2.455  1.00  0.00     0.205 C 
BRANCH  23  24
HETATM   24  O12 UNL     1      -3.199  -0.469   1.559  1.00  0.00    -0.398 OA
ATOM     25  H12 UNL     1      -2.465   0.043   1.238  1.00  0.00     0.209 HD
ENDBRANCH  23  24
ENDBRANCH  13  23
ENDBRANCH   9  10
ENDBRANCH   8   9
BRANCH   1  26
HETATM   26  C3  UNL     1      -4.393  -1.743   7.200  1.00  0.00     0.148 C 
BRANCH  26  27
HETATM   27  C2  UNL     1      -4.066  -3.223   7.029  1.00  0.00     0.269 C 
HETATM   28  O2  UNL     1      -3.484  -3.928   7.838  1.00  0.00    -0.264 OA
BRANCH  27  29
HETATM   29  O1  UNL     1      -4.471  -3.849   5.830  1.00  0.00    -0.326 OA
HETATM   30  C1  UNL     1      -5.053  -5.137   5.832  1.00  0.00     0.213 C 
ENDBRANCH  27  29
ENDBRANCH  26  27
BRANCH  26  31
HETATM   31  C4  UNL     1      -3.312  -1.182   7.955  1.00  0.00    -0.004 C 
HETATM   32  C5  UNL     1      -2.117  -0.750   7.744  1.00  0.00     0.071 C 
BRANCH  32  33
HETATM   33  C6  UNL     1      -1.296  -0.222   8.874  1.00  0.00     0.241 C 
HETATM   34  O3  UNL     1      -0.061  -0.372   8.806  1.00  0.00    -0.269 OA
HETATM   35  N1  UNL     1      -1.863   0.426   9.988  1.00  0.00    -0.344 N 
ATOM     36  H1  UNL     1      -2.876   0.538  10.026  1.00  0.00     0.163 HD
BRANCH  35  37
HETATM   37  C7  UNL     1      -1.067   0.936  11.080  1.00  0.00     0.181 C 
HETATM   38  C8  UNL     1      -1.086  -0.031  12.217  1.00  0.00     0.043 C 
BRANCH  37  39
HETATM   39  C9  UNL     1      -1.540   2.265  11.534  1.00  0.00     0.196 C 
HETATM   40  O4  UNL     1      -2.162   3.048  10.777  1.00  0.00    -0.646 OA
HETATM   41  O5  UNL     1      -1.301   2.687  12.833  1.00  0.00    -0.646 OA
ENDBRANCH  37  39
ENDBRANCH  35  37
ENDBRANCH  32  33
ENDBRANCH  26  31
ENDBRANCH   1  26
BRANCH   4  42
HETATM   42  O7  UNL     1      -8.063  -0.363   9.881  1.00  0.00    -0.391 OA
ATOM     43  H7  UNL     1      -8.707  -0.997   9.587  1.00  0.00     0.210 HD
ENDBRANCH   4  42
TORSDOF 14
ENDMDL
