MODEL 1
REMARK VINA RESULT: -6.981121755      0.000      0.000
REMARK  15 active torsions:
REMARK  status: ('A' for Active; 'I' for Inactive)
REMARK    1  A    between atoms: S1_2  and  C2_3 
REMARK    2  A    between atoms: C4_5  and  O1_6 
REMARK    3  A    between atoms: O1_6  and  C5_7 
REMARK    4  A    between atoms: C6_8  and  O2_9 
REMARK    5  A    between atoms: O2_9  and  C7_10 
REMARK    6  A    between atoms: C11_14  and  N1_15 
REMARK    7  A    between atoms: C12_19  and  N2_20 
REMARK    8  A    between atoms: C14_25  and  N3_26 
REMARK    9  A    between atoms: C15_30  and  O3_31 
REMARK   10  A    between atoms: O3_31  and  C16_32 
REMARK   11  A    between atoms: C18_37  and  C19_38 
REMARK   12  A    between atoms: C19_38  and  C20_39 
REMARK   13  A    between atoms: C20_39  and  N5_40 
REMARK   14  A    between atoms: C23_43  and  O4_44 
REMARK   15  A    between atoms: C26_49  and  O6_50 
ROOT
HETATM    1  C5  UNL     1      -4.332  -0.173   7.566  1.00  0.00     0.186 C 
HETATM    2  C6  UNL     1      -5.460   0.697   7.080  1.00  0.00     0.184 C 
HETATM    3  C12 UNL     1      -5.076   1.619   5.966  1.00  0.00     0.217 C 
HETATM    4  C13 UNL     1      -4.290   0.950   4.878  1.00  0.00     0.071 C 
HETATM    5  C14 UNL     1      -3.068   0.334   5.469  1.00  0.00     0.217 C 
HETATM    6  C15 UNL     1      -3.471  -0.729   6.471  1.00  0.00     0.186 C 
ENDROOT
BRANCH   6   7
HETATM    7  O3  UNL     1      -4.030  -1.837   5.855  1.00  0.00    -0.347 OA
BRANCH   7   8
HETATM    8  C16 UNL     1      -4.122  -2.875   6.759  1.00  0.00     0.350 C 
HETATM    9  N4  UNL     1      -2.799  -3.242   7.245  1.00  0.00    -0.046 N 
HETATM   10  C17 UNL     1      -2.966  -4.551   7.845  1.00  0.00     0.242 C 
ATOM     11  H42 UNL     1      -2.073  -3.205   6.530  1.00  0.00     0.280 HD
ATOM     12  H41 UNL     1      -2.385  -2.551   7.870  1.00  0.00     0.280 HD
HETATM   13  C18 UNL     1      -3.896  -5.258   6.893  1.00  0.00     0.046 C 
HETATM   14  C23 UNL     1      -4.579  -4.172   6.128  1.00  0.00     0.180 C 
BRANCH  13  15
HETATM   15  C19 UNL     1      -4.853  -6.118   7.678  1.00  0.00     0.028 C 
BRANCH  15  16
HETATM   16  C20 UNL     1      -4.473  -6.141   9.142  1.00  0.00     0.116 C 
BRANCH  16  17
HETATM   17  N5  UNL     1      -4.180  -7.446   9.626  1.00  0.00    -0.421 N 
HETATM   18  C21 UNL     1      -4.048  -7.590  11.035  1.00  0.00     0.142 C 
HETATM   19  C22 UNL     1      -3.335  -8.253   8.815  1.00  0.00     0.142 C 
ENDBRANCH  16  17
ENDBRANCH  15  16
ENDBRANCH  13  15
BRANCH  14  20
HETATM   20  O4  UNL     1      -4.145  -4.207   4.807  1.00  0.00    -0.391 OA
ATOM     21  H4  UNL     1      -4.545  -4.952   4.372  1.00  0.00     0.210 HD
ENDBRANCH  14  20
ENDBRANCH   7   8
ENDBRANCH   6   7
BRANCH   1  22
HETATM   22  O1  UNL     1      -3.596   0.533   8.516  1.00  0.00    -0.351 OA
BRANCH  22  23
HETATM   23  C4  UNL     1      -2.886  -0.291   9.382  1.00  0.00     0.262 C 
HETATM   24  C3  UNL     1      -3.702  -0.683  10.589  1.00  0.00     0.078 C 
HETATM   25  C2  UNL     1      -3.987   0.498  11.490  1.00  0.00     0.082 C 
HETATM   26  C26 UNL     1      -2.800   1.412  11.574  1.00  0.00     0.160 C 
HETATM   27  C24 UNL     1      -1.600   0.691  11.036  1.00  0.00     0.150 C 
HETATM   28  O5  UNL     1      -1.699   0.324   9.704  1.00  0.00    -0.354 OA
HETATM   29  C25 UNL     1      -0.418   1.666  11.131  1.00  0.00     0.042 C 
BRANCH  25  30
HETATM   30  S1  UNL     1      -4.530  -0.146  13.085  1.00  0.00    -0.166 SA
HETATM   31  C1  UNL     1      -6.283  -0.502  13.134  1.00  0.00     0.090 C 
ENDBRANCH  25  30
BRANCH  26  32
HETATM   32  O6  UNL     1      -3.000   2.537  10.777  1.00  0.00    -0.392 OA
ATOM     33  H6  UNL     1      -2.241   3.108  10.816  1.00  0.00     0.210 HD
ENDBRANCH  26  32
ENDBRANCH  22  23
ENDBRANCH   1  22
BRANCH   5  34
HETATM   34  N3  UNL     1      -2.194   1.259   6.119  1.00  0.00    -0.072 N 
ATOM     35  H33 UNL     1      -2.053   2.084   5.536  1.00  0.00     0.274 HD
ATOM     36  H32 UNL     1      -2.661   1.687   6.919  1.00  0.00     0.274 HD
ATOM     37  H31 UNL     1      -1.296   0.865   6.401  1.00  0.00     0.274 HD
ENDBRANCH   5  34
BRANCH   2  38
HETATM   38  O2  UNL     1      -6.594  -0.033   6.733  1.00  0.00    -0.374 OA
BRANCH  38  39
HETATM   39  C7  UNL     1      -7.651   0.780   6.361  1.00  0.00     0.152 C 
HETATM   40  C8  UNL     1      -8.872   0.632   7.208  1.00  0.00     0.034 C 
HETATM   41  C9  UNL     1     -10.017   0.283   6.291  1.00  0.00     0.005 C 
HETATM   42  C10 UNL     1      -9.269  -0.433   5.157  1.00  0.00     0.035 C 
HETATM   43  C11 UNL     1      -8.116   0.534   4.949  1.00  0.00     0.212 C 
BRANCH  43  44
HETATM   44  N1  UNL     1      -8.694   1.744   4.384  1.00  0.00    -0.073 N 
ATOM     45  H13 UNL     1      -8.833   1.662   3.376  1.00  0.00     0.274 HD
ATOM     46  H12 UNL     1      -9.668   1.865   4.663  1.00  0.00     0.274 HD
ATOM     47  H11 UNL     1      -8.128   2.558   4.623  1.00  0.00     0.274 HD
ENDBRANCH  43  44
ENDBRANCH  38  39
ENDBRANCH   2  38
BRANCH   3  48
HETATM   48  N2  UNL     1      -4.391   2.779   6.506  1.00  0.00    -0.072 N 
ATOM     49  H23 UNL     1      -5.001   3.594   6.561  1.00  0.00     0.274 HD
ATOM     50  H22 UNL     1      -4.190   2.679   7.501  1.00  0.00     0.274 HD
ATOM     51  H21 UNL     1      -3.549   2.966   5.961  1.00  0.00     0.274 HD
ENDBRANCH   3  48
TORSDOF 15
ENDMDL
MODEL 2
REMARK VINA RESULT: -6.626995668      4.080      6.526
REMARK  15 active torsions:
REMARK  status: ('A' for Active; 'I' for Inactive)
REMARK    1  A    between atoms: S1_2  and  C2_3 
REMARK    2  A    between atoms: C4_5  and  O1_6 
REMARK    3  A    between atoms: O1_6  and  C5_7 
REMARK    4  A    between atoms: C6_8  and  O2_9 
REMARK    5  A    between atoms: O2_9  and  C7_10 
REMARK    6  A    between atoms: C11_14  and  N1_15 
REMARK    7  A    between atoms: C12_19  and  N2_20 
REMARK    8  A    between atoms: C14_25  and  N3_26 
REMARK    9  A    between atoms: C15_30  and  O3_31 
REMARK   10  A    between atoms: O3_31  and  C16_32 
REMARK   11  A    between atoms: C18_37  and  C19_38 
REMARK   12  A    between atoms: C19_38  and  C20_39 
REMARK   13  A    between atoms: C20_39  and  N5_40 
REMARK   14  A    between atoms: C23_43  and  O4_44 
REMARK   15  A    between atoms: C26_49  and  O6_50 
ROOT
HETATM    1  C5  UNL     1      -7.172  -0.186   4.174  1.00  0.00     0.186 C 
HETATM    2  C6  UNL     1      -8.387  -0.861   3.596  1.00  0.00     0.184 C 
HETATM    3  C12 UNL     1      -8.104  -2.201   2.993  1.00  0.00     0.217 C 
HETATM    4  C13 UNL     1      -7.255  -3.082   3.859  1.00  0.00     0.071 C 
HETATM    5  C14 UNL     1      -5.973  -2.381   4.155  1.00  0.00     0.217 C 
HETATM    6  C15 UNL     1      -6.259  -1.108   4.927  1.00  0.00     0.186 C 
ENDROOT
BRANCH   6   7
HETATM    7  O3  UNL     1      -6.698  -1.370   6.215  1.00  0.00    -0.347 OA
BRANCH   7   8
HETATM    8  C16 UNL     1      -6.053  -0.536   7.105  1.00  0.00     0.350 C 
HETATM    9  N4  UNL     1      -4.824  -0.023   6.517  1.00  0.00    -0.046 N 
HETATM   10  C17 UNL     1      -4.053   0.487   7.635  1.00  0.00     0.242 C 
ATOM     11  H42 UNL     1      -4.323  -0.705   5.948  1.00  0.00     0.280 HD
ATOM     12  H41 UNL     1      -4.976   0.660   5.776  1.00  0.00     0.280 HD
HETATM   13  C18 UNL     1      -4.273  -0.544   8.712  1.00  0.00     0.046 C 
HETATM   14  C23 UNL     1      -5.521  -1.265   8.320  1.00  0.00     0.180 C 
BRANCH  13  15
HETATM   15  C19 UNL     1      -4.387   0.148  10.047  1.00  0.00     0.028 C 
BRANCH  15  16
HETATM   16  C20 UNL     1      -5.676  -0.238  10.740  1.00  0.00     0.116 C 
BRANCH  16  17
HETATM   17  N5  UNL     1      -5.531  -0.400  12.146  1.00  0.00    -0.421 N 
HETATM   18  C21 UNL     1      -6.726  -0.398  12.915  1.00  0.00     0.142 C 
HETATM   19  C22 UNL     1      -4.381   0.188  12.741  1.00  0.00     0.142 C 
ENDBRANCH  16  17
ENDBRANCH  15  16
ENDBRANCH  13  15
BRANCH  14  20
HETATM   20  O4  UNL     1      -5.195  -2.567   7.957  1.00  0.00    -0.391 OA
ATOM     21  H4  UNL     1      -4.689  -2.964   8.657  1.00  0.00     0.210 HD
ENDBRANCH  14  20
ENDBRANCH   7   8
ENDBRANCH   6   7
BRANCH   1  22
HETATM   22  O1  UNL     1      -6.513   0.503   3.158  1.00  0.00    -0.351 OA
BRANCH  22  23
HETATM   23  C4  UNL     1      -6.875   1.844   3.081  1.00  0.00     0.262 C 
HETATM   24  C3  UNL     1      -6.171   2.556   1.951  1.00  0.00     0.078 C 
HETATM   25  C2  UNL     1      -4.684   2.676   2.194  1.00  0.00     0.082 C 
HETATM   26  C26 UNL     1      -4.393   2.960   3.638  1.00  0.00     0.160 C 
HETATM   27  C24 UNL     1      -5.666   3.387   4.308  1.00  0.00     0.150 C 
HETATM   28  O5  UNL     1      -6.667   2.429   4.306  1.00  0.00    -0.354 OA
HETATM   29  C25 UNL     1      -5.323   3.654   5.781  1.00  0.00     0.042 C 
BRANCH  25  30
HETATM   30  S1  UNL     1      -4.041   3.923   1.059  1.00  0.00    -0.166 SA
HETATM   31  C1  UNL     1      -4.429   3.574  -0.653  1.00  0.00     0.090 C 
ENDBRANCH  25  30
BRANCH  26  32
HETATM   32  O6  UNL     1      -3.955   1.803   4.279  1.00  0.00    -0.392 OA
ATOM     33  H6  UNL     1      -4.296   1.768   5.165  1.00  0.00     0.210 HD
ENDBRANCH  26  32
ENDBRANCH  22  23
ENDBRANCH   1  22
BRANCH   5  34
HETATM   34  N3  UNL     1      -5.201  -2.045   3.001  1.00  0.00    -0.072 N 
ATOM     35  H33 UNL     1      -4.204  -2.108   3.209  1.00  0.00     0.274 HD
ATOM     36  H32 UNL     1      -5.280  -2.777   2.295  1.00  0.00     0.274 HD
ATOM     37  H31 UNL     1      -5.422  -1.135   2.595  1.00  0.00     0.274 HD
ENDBRANCH   5  34
BRANCH   2  38
HETATM   38  O2  UNL     1      -9.437  -0.952   4.505  1.00  0.00    -0.374 OA
BRANCH  38  39
HETATM   39  C7  UNL     1      -9.865   0.289   4.943  1.00  0.00     0.152 C 
HETATM   40  C8  UNL     1     -10.606   0.265   6.239  1.00  0.00     0.034 C 
HETATM   41  C9  UNL     1     -11.950   0.907   6.003  1.00  0.00     0.005 C 
HETATM   42  C10 UNL     1     -12.158   0.595   4.514  1.00  0.00     0.035 C 
HETATM   43  C11 UNL     1     -10.791   0.972   3.970  1.00  0.00     0.212 C 
BRANCH  43  44
HETATM   44  N1  UNL     1     -10.686   2.418   4.094  1.00  0.00    -0.073 N 
ATOM     45  H13 UNL     1     -11.601   2.868   4.062  1.00  0.00     0.274 HD
ATOM     46  H12 UNL     1     -10.411   2.699   5.035  1.00  0.00     0.274 HD
ATOM     47  H11 UNL     1     -10.055   2.794   3.387  1.00  0.00     0.274 HD
ENDBRANCH  43  44
ENDBRANCH  38  39
ENDBRANCH   2  38
BRANCH   3  48
HETATM   48  N2  UNL     1      -7.546  -2.031   1.664  1.00  0.00    -0.072 N 
ATOM     49  H23 UNL     1      -7.529  -1.053   1.376  1.00  0.00     0.274 HD
ATOM     50  H22 UNL     1      -6.541  -2.207   1.643  1.00  0.00     0.274 HD
ATOM     51  H21 UNL     1      -8.052  -2.618   1.000  1.00  0.00     0.274 HD
ENDBRANCH   3  48
TORSDOF 15
ENDMDL
MODEL 3
REMARK VINA RESULT: -6.443234712      3.234      5.840
REMARK  15 active torsions:
REMARK  status: ('A' for Active; 'I' for Inactive)
REMARK    1  A    between atoms: S1_2  and  C2_3 
REMARK    2  A    between atoms: C4_5  and  O1_6 
REMARK    3  A    between atoms: O1_6  and  C5_7 
REMARK    4  A    between atoms: C6_8  and  O2_9 
REMARK    5  A    between atoms: O2_9  and  C7_10 
REMARK    6  A    between atoms: C11_14  and  N1_15 
REMARK    7  A    between atoms: C12_19  and  N2_20 
REMARK    8  A    between atoms: C14_25  and  N3_26 
REMARK    9  A    between atoms: C15_30  and  O3_31 
REMARK   10  A    between atoms: O3_31  and  C16_32 
REMARK   11  A    between atoms: C18_37  and  C19_38 
REMARK   12  A    between atoms: C19_38  and  C20_39 
REMARK   13  A    between atoms: C20_39  and  N5_40 
REMARK   14  A    between atoms: C23_43  and  O4_44 
REMARK   15  A    between atoms: C26_49  and  O6_50 
ROOT
HETATM    1  C5  UNL     1      -5.601  -0.341   5.634  1.00  0.00     0.186 C 
HETATM    2  C6  UNL     1      -4.738   0.754   5.065  1.00  0.00     0.184 C 
HETATM    3  C12 UNL     1      -4.105   1.625   6.104  1.00  0.00     0.217 C 
HETATM    4  C13 UNL     1      -3.478   0.859   7.229  1.00  0.00     0.071 C 
HETATM    5  C14 UNL     1      -4.511  -0.010   7.861  1.00  0.00     0.217 C 
HETATM    6  C15 UNL     1      -5.020  -1.011   6.844  1.00  0.00     0.186 C 
ENDROOT
BRANCH   6   7
HETATM    7  O3  UNL     1      -4.063  -1.961   6.527  1.00  0.00    -0.347 OA
BRANCH   7   8
HETATM    8  C16 UNL     1      -4.237  -3.080   7.316  1.00  0.00     0.350 C 
HETATM    9  N4  UNL     1      -3.086  -3.269   8.188  1.00  0.00    -0.046 N 
HETATM   10  C17 UNL     1      -3.186  -4.638   8.655  1.00  0.00     0.242 C 
ATOM     11  H42 UNL     1      -2.194  -3.049   7.745  1.00  0.00     0.280 HD
ATOM     12  H41 UNL     1      -3.020  -2.581   8.937  1.00  0.00     0.280 HD
HETATM   13  C18 UNL     1      -3.629  -5.396   7.430  1.00  0.00     0.046 C 
HETATM   14  C23 UNL     1      -4.230  -4.370   6.526  1.00  0.00     0.180 C 
BRANCH  13  15
HETATM   15  C19 UNL     1      -4.607  -6.469   7.835  1.00  0.00     0.028 C 
BRANCH  15  16
HETATM   16  C20 UNL     1      -4.738  -6.532   9.341  1.00  0.00     0.116 C 
BRANCH  16  17
HETATM   17  N5  UNL     1      -4.168  -7.707   9.906  1.00  0.00    -0.421 N 
HETATM   18  C21 UNL     1      -4.048  -7.741  11.322  1.00  0.00     0.142 C 
HETATM   19  C22 UNL     1      -3.138  -8.341   9.157  1.00  0.00     0.142 C 
ENDBRANCH  16  17
ENDBRANCH  15  16
ENDBRANCH  13  15
BRANCH  14  20
HETATM   20  O4  UNL     1      -3.409  -4.212   5.414  1.00  0.00    -0.391 OA
ATOM     21  H4  UNL     1      -2.509  -4.375   5.671  1.00  0.00     0.210 HD
ENDBRANCH  14  20
ENDBRANCH   7   8
ENDBRANCH   6   7
BRANCH   1  22
HETATM   22  O1  UNL     1      -6.877   0.166   5.867  1.00  0.00    -0.351 OA
BRANCH  22  23
HETATM   23  C4  UNL     1      -7.888  -0.751   5.602  1.00  0.00     0.262 C 
HETATM   24  C3  UNL     1      -7.785  -1.322   4.209  1.00  0.00     0.078 C 
HETATM   25  C2  UNL     1      -8.060  -0.282   3.147  1.00  0.00     0.082 C 
HETATM   26  C26 UNL     1      -9.167   0.640   3.566  1.00  0.00     0.160 C 
HETATM   27  C24 UNL     1      -9.886   0.026   4.732  1.00  0.00     0.150 C 
HETATM   28  O5  UNL     1      -9.101  -0.158   5.858  1.00  0.00    -0.354 OA
HETATM   29  C25 UNL     1     -10.998   1.007   5.132  1.00  0.00     0.042 C 
BRANCH  25  30
HETATM   30  S1  UNL     1      -8.377  -1.149   1.597  1.00  0.00    -0.166 SA
HETATM   31  C1  UNL     1      -8.261  -2.928   1.756  1.00  0.00     0.090 C 
ENDBRANCH  25  30
BRANCH  26  32
HETATM   32  O6  UNL     1      -8.644   1.858   3.995  1.00  0.00    -0.392 OA
ATOM     33  H6  UNL     1      -7.730   1.931   3.746  1.00  0.00     0.210 HD
ENDBRANCH  26  32
ENDBRANCH  22  23
ENDBRANCH   1  22
BRANCH   5  34
HETATM   34  N3  UNL     1      -5.631   0.696   8.398  1.00  0.00    -0.072 N 
ATOM     35  H33 UNL     1      -5.645   1.656   8.052  1.00  0.00     0.274 HD
ATOM     36  H32 UNL     1      -6.499   0.350   7.989  1.00  0.00     0.274 HD
ATOM     37  H31 UNL     1      -5.689   0.686   9.417  1.00  0.00     0.274 HD
ENDBRANCH   5  34
BRANCH   2  38
HETATM   38  O2  UNL     1      -3.774   0.278   4.181  1.00  0.00    -0.374 OA
BRANCH  38  39
HETATM   39  C7  UNL     1      -3.674   1.055   3.041  1.00  0.00     0.152 C 
HETATM   40  C8  UNL     1      -4.911   1.820   2.704  1.00  0.00     0.034 C 
HETATM   41  C9  UNL     1      -5.308   1.442   1.299  1.00  0.00     0.005 C 
HETATM   42  C10 UNL     1      -4.735   0.020   1.214  1.00  0.00     0.035 C 
HETATM   43  C11 UNL     1      -3.356   0.254   1.805  1.00  0.00     0.212 C 
BRANCH  43  44
HETATM   44  N1  UNL     1      -2.630   1.066   0.841  1.00  0.00    -0.073 N 
ATOM     45  H13 UNL     1      -2.924   2.042   0.871  1.00  0.00     0.274 HD
ATOM     46  H12 UNL     1      -1.654   1.193   1.110  1.00  0.00     0.274 HD
ATOM     47  H11 UNL     1      -2.716   0.673  -0.096  1.00  0.00     0.274 HD
ENDBRANCH  43  44
ENDBRANCH  38  39
ENDBRANCH   2  38
BRANCH   3  48
HETATM   48  N2  UNL     1      -5.068   2.605   6.574  1.00  0.00    -0.072 N 
ATOM     49  H23 UNL     1      -5.729   2.874   5.845  1.00  0.00     0.274 HD
ATOM     50  H22 UNL     1      -5.733   2.204   7.235  1.00  0.00     0.274 HD
ATOM     51  H21 UNL     1      -4.577   3.410   6.963  1.00  0.00     0.274 HD
ENDBRANCH   3  48
TORSDOF 15
ENDMDL
MODEL 4
REMARK VINA RESULT: -6.398054466      3.338      6.496
REMARK  15 active torsions:
REMARK  status: ('A' for Active; 'I' for Inactive)
REMARK    1  A    between atoms: S1_2  and  C2_3 
REMARK    2  A    between atoms: C4_5  and  O1_6 
REMARK    3  A    between atoms: O1_6  and  C5_7 
REMARK    4  A    between atoms: C6_8  and  O2_9 
REMARK    5  A    between atoms: O2_9  and  C7_10 
REMARK    6  A    between atoms: C11_14  and  N1_15 
REMARK    7  A    between atoms: C12_19  and  N2_20 
REMARK    8  A    between atoms: C14_25  and  N3_26 
REMARK    9  A    between atoms: C15_30  and  O3_31 
REMARK   10  A    between atoms: O3_31  and  C16_32 
REMARK   11  A    between atoms: C18_37  and  C19_38 
REMARK   12  A    between atoms: C19_38  and  C20_39 
REMARK   13  A    between atoms: C20_39  and  N5_40 
REMARK   14  A    between atoms: C23_43  and  O4_44 
REMARK   15  A    between atoms: C26_49  and  O6_50 
ROOT
HETATM    1  C5  UNL     1      -4.354  -0.473   5.001  1.00  0.00     0.186 C 
HETATM    2  C6  UNL     1      -3.692   0.681   5.705  1.00  0.00     0.184 C 
HETATM    3  C12 UNL     1      -4.296   1.004   7.036  1.00  0.00     0.217 C 
HETATM    4  C13 UNL     1      -4.530  -0.201   7.897  1.00  0.00     0.071 C 
HETATM    5  C14 UNL     1      -5.405  -1.160   7.164  1.00  0.00     0.217 C 
HETATM    6  C15 UNL     1      -4.705  -1.620   5.901  1.00  0.00     0.186 C 
ENDROOT
BRANCH   6   7
HETATM    7  O3  UNL     1      -3.622  -2.439   6.178  1.00  0.00    -0.347 OA
BRANCH   7   8
HETATM    8  C16 UNL     1      -3.984  -3.391   7.109  1.00  0.00     0.350 C 
HETATM    9  N4  UNL     1      -2.943  -3.534   8.117  1.00  0.00    -0.046 N 
HETATM   10  C17 UNL     1      -3.228  -4.792   8.780  1.00  0.00     0.242 C 
ATOM     11  H42 UNL     1      -1.996  -3.470   7.744  1.00  0.00     0.280 HD
ATOM     12  H41 UNL     1      -2.874  -2.740   8.753  1.00  0.00     0.280 HD
HETATM   13  C18 UNL     1      -3.635  -5.701   7.648  1.00  0.00     0.046 C 
HETATM   14  C23 UNL     1      -4.040  -4.790   6.536  1.00  0.00     0.180 C 
BRANCH  13  15
HETATM   15  C19 UNL     1      -4.753  -6.601   8.109  1.00  0.00     0.028 C 
BRANCH  15  16
HETATM   16  C20 UNL     1      -4.706  -6.785   9.610  1.00  0.00     0.116 C 
BRANCH  16  17
HETATM   17  N5  UNL     1      -4.043  -7.979  10.009  1.00  0.00    -0.421 N 
HETATM   18  C21 UNL     1      -3.883  -8.184  11.407  1.00  0.00     0.142 C 
HETATM   19  C22 UNL     1      -2.993  -8.438   9.167  1.00  0.00     0.142 C 
ENDBRANCH  16  17
ENDBRANCH  15  16
ENDBRANCH  13  15
BRANCH  14  20
HETATM   20  O4  UNL     1      -3.109  -4.892   5.507  1.00  0.00    -0.391 OA
ATOM     21  H4  UNL     1      -3.289  -5.680   5.007  1.00  0.00     0.210 HD
ENDBRANCH  14  20
ENDBRANCH   7   8
ENDBRANCH   6   7
BRANCH   1  22
HETATM   22  O1  UNL     1      -5.455   0.004   4.292  1.00  0.00    -0.351 OA
BRANCH  22  23
HETATM   23  C4  UNL     1      -5.493  -0.439   2.975  1.00  0.00     0.262 C 
HETATM   24  C3  UNL     1      -6.584   0.237   2.181  1.00  0.00     0.078 C 
HETATM   25  C2  UNL     1      -7.962  -0.164   2.655  1.00  0.00     0.082 C 
HETATM   26  C26 UNL     1      -8.007  -1.618   3.021  1.00  0.00     0.160 C 
HETATM   27  C24 UNL     1      -6.784  -2.289   2.467  1.00  0.00     0.150 C 
HETATM   28  O5  UNL     1      -5.587  -1.810   2.971  1.00  0.00    -0.354 OA
HETATM   29  C25 UNL     1      -6.868  -3.767   2.875  1.00  0.00     0.042 C 
BRANCH  25  30
HETATM   30  S1  UNL     1      -9.143   0.305   1.373  1.00  0.00    -0.166 SA
HETATM   31  C1  UNL     1     -10.314   1.541   1.922  1.00  0.00     0.090 C 
ENDBRANCH  25  30
BRANCH  26  32
HETATM   32  O6  UNL     1      -7.971  -1.769   4.406  1.00  0.00    -0.392 OA
ATOM     33  H6  UNL     1      -8.367  -2.595   4.658  1.00  0.00     0.210 HD
ENDBRANCH  26  32
ENDBRANCH  22  23
ENDBRANCH   1  22
BRANCH   5  34
HETATM   34  N3  UNL     1      -6.685  -0.637   6.805  1.00  0.00    -0.072 N 
ATOM     35  H33 UNL     1      -6.703   0.375   6.928  1.00  0.00     0.274 HD
ATOM     36  H32 UNL     1      -6.822  -0.694   5.795  1.00  0.00     0.274 HD
ATOM     37  H31 UNL     1      -7.470  -1.068   7.295  1.00  0.00     0.274 HD
ENDBRANCH   5  34
BRANCH   2  38
HETATM   38  O2  UNL     1      -2.314   0.521   5.826  1.00  0.00    -0.374 OA
BRANCH  38  39
HETATM   39  C7  UNL     1      -1.820   1.072   6.996  1.00  0.00     0.152 C 
HETATM   40  C8  UNL     1      -1.073   2.351   6.809  1.00  0.00     0.034 C 
HETATM   41  C9  UNL     1       0.301   2.162   7.402  1.00  0.00     0.005 C 
HETATM   42  C10 UNL     1       0.483   0.648   7.225  1.00  0.00     0.035 C 
HETATM   43  C11 UNL     1      -0.867   0.159   7.722  1.00  0.00     0.212 C 
BRANCH  43  44
HETATM   44  N1  UNL     1      -0.896   0.423   9.153  1.00  0.00    -0.073 N 
ATOM     45  H13 UNL     1      -0.531   1.349   9.374  1.00  0.00     0.274 HD
ATOM     46  H12 UNL     1      -1.848   0.547   9.496  1.00  0.00     0.274 HD
ATOM     47  H11 UNL     1      -0.403  -0.310   9.662  1.00  0.00     0.274 HD
ENDBRANCH  43  44
ENDBRANCH  38  39
ENDBRANCH   2  38
BRANCH   3  48
HETATM   48  N2  UNL     1      -5.502   1.789   6.848  1.00  0.00    -0.072 N 
ATOM     49  H23 UNL     1      -5.298   2.772   6.672  1.00  0.00     0.274 HD
ATOM     50  H22 UNL     1      -5.966   1.575   5.965  1.00  0.00     0.274 HD
ATOM     51  H21 UNL     1      -6.123   1.663   7.648  1.00  0.00     0.274 HD
ENDBRANCH   3  48
TORSDOF 15
ENDMDL
MODEL 5
REMARK VINA RESULT: -6.383506820      2.904      6.914
REMARK  15 active torsions:
REMARK  status: ('A' for Active; 'I' for Inactive)
REMARK    1  A    between atoms: S1_2  and  C2_3 
REMARK    2  A    between atoms: C4_5  and  O1_6 
REMARK    3  A    between atoms: O1_6  and  C5_7 
REMARK    4  A    between atoms: C6_8  and  O2_9 
REMARK    5  A    between atoms: O2_9  and  C7_10 
REMARK    6  A    between atoms: C11_14  and  N1_15 
REMARK    7  A    between atoms: C12_19  and  N2_20 
REMARK    8  A    between atoms: C14_25  and  N3_26 
REMARK    9  A    between atoms: C15_30  and  O3_31 
REMARK   10  A    between atoms: O3_31  and  C16_32 
REMARK   11  A    between atoms: C18_37  and  C19_38 
REMARK   12  A    between atoms: C19_38  and  C20_39 
REMARK   13  A    between atoms: C20_39  and  N5_40 
REMARK   14  A    between atoms: C23_43  and  O4_44 
REMARK   15  A    between atoms: C26_49  and  O6_50 
ROOT
HETATM    1  C5  UNL     1      -5.250  -0.305   6.413  1.00  0.00     0.186 C 
HETATM    2  C6  UNL     1      -4.462  -0.865   5.260  1.00  0.00     0.184 C 
HETATM    3  C12 UNL     1      -3.652   0.158   4.527  1.00  0.00     0.217 C 
HETATM    4  C13 UNL     1      -2.875   1.068   5.430  1.00  0.00     0.071 C 
HETATM    5  C14 UNL     1      -3.817   1.744   6.367  1.00  0.00     0.217 C 
HETATM    6  C15 UNL     1      -4.503   0.706   7.231  1.00  0.00     0.186 C 
ENDROOT
BRANCH   6   7
HETATM    7  O3  UNL     1      -3.630   0.128   8.139  1.00  0.00    -0.347 OA
BRANCH   7   8
HETATM    8  C16 UNL     1      -3.918   0.575   9.412  1.00  0.00     0.350 C 
HETATM    9  N4  UNL     1      -2.786   1.309   9.959  1.00  0.00    -0.046 N 
HETATM   10  C17 UNL     1      -3.030   1.374  11.387  1.00  0.00     0.242 C 
ATOM     11  H42 UNL     1      -1.879   0.911   9.713  1.00  0.00     0.280 HD
ATOM     12  H41 UNL     1      -2.637   2.219   9.524  1.00  0.00     0.280 HD
HETATM   13  C18 UNL     1      -3.566   0.003  11.714  1.00  0.00     0.046 C 
HETATM   14  C23 UNL     1      -4.060  -0.548  10.416  1.00  0.00     0.180 C 
BRANCH  13  15
HETATM   15  C19 UNL     1      -4.651   0.128  12.752  1.00  0.00     0.028 C 
BRANCH  15  16
HETATM   16  C20 UNL     1      -6.017   0.110  12.102  1.00  0.00     0.116 C 
BRANCH  16  17
HETATM   17  N5  UNL     1      -7.040  -0.392  12.954  1.00  0.00    -0.421 N 
HETATM   18  C21 UNL     1      -6.622  -0.943  14.197  1.00  0.00     0.142 C 
HETATM   19  C22 UNL     1      -8.154  -1.008  12.320  1.00  0.00     0.142 C 
ENDBRANCH  16  17
ENDBRANCH  15  16
ENDBRANCH  13  15
BRANCH  14  20
HETATM   20  O4  UNL     1      -3.238  -1.603  10.032  1.00  0.00    -0.391 OA
ATOM     21  H4  UNL     1      -2.843  -1.982  10.807  1.00  0.00     0.210 HD
ENDBRANCH  14  20
ENDBRANCH   7   8
ENDBRANCH   6   7
BRANCH   1  22
HETATM   22  O1  UNL     1      -6.462   0.188   5.933  1.00  0.00    -0.351 OA
BRANCH  22  23
HETATM   23  C4  UNL     1      -7.491  -0.745   5.983  1.00  0.00     0.262 C 
HETATM   24  C3  UNL     1      -7.447  -1.700   4.815  1.00  0.00     0.078 C 
HETATM   25  C2  UNL     1      -7.753  -1.009   3.505  1.00  0.00     0.082 C 
HETATM   26  C26 UNL     1      -8.833   0.017   3.673  1.00  0.00     0.160 C 
HETATM   27  C24 UNL     1      -9.513  -0.214   4.992  1.00  0.00     0.150 C 
HETATM   28  O5  UNL     1      -8.688  -0.078   6.095  1.00  0.00    -0.354 OA
HETATM   29  C25 UNL     1     -10.599   0.863   5.124  1.00  0.00     0.042 C 
BRANCH  25  30
HETATM   30  S1  UNL     1      -8.137  -2.284   2.288  1.00  0.00    -0.166 SA
HETATM   31  C1  UNL     1      -7.229  -3.802   2.556  1.00  0.00     0.090 C 
ENDBRANCH  25  30
BRANCH  26  32
HETATM   32  O6  UNL     1      -8.283   1.297   3.710  1.00  0.00    -0.392 OA
ATOM     33  H6  UNL     1      -8.576   1.759   4.487  1.00  0.00     0.210 HD
ENDBRANCH  26  32
ENDBRANCH  22  23
ENDBRANCH   1  22
BRANCH   5  34
HETATM   34  N3  UNL     1      -4.821   2.535   5.728  1.00  0.00    -0.072 N 
ATOM     35  H33 UNL     1      -4.542   2.760   4.773  1.00  0.00     0.274 HD
ATOM     36  H32 UNL     1      -5.651   1.971   5.539  1.00  0.00     0.274 HD
ATOM     37  H31 UNL     1      -5.076   3.384   6.234  1.00  0.00     0.274 HD
ENDBRANCH   5  34
BRANCH   2  38
HETATM   38  O2  UNL     1      -3.660  -1.942   5.626  1.00  0.00    -0.374 OA
BRANCH  38  39
HETATM   39  C7  UNL     1      -4.383  -2.958   6.226  1.00  0.00     0.152 C 
HETATM   40  C8  UNL     1      -3.909  -3.332   7.591  1.00  0.00     0.034 C 
HETATM   41  C9  UNL     1      -3.602  -4.808   7.575  1.00  0.00     0.005 C 
HETATM   42  C10 UNL     1      -3.234  -5.007   6.098  1.00  0.00     0.035 C 
HETATM   43  C11 UNL     1      -4.366  -4.241   5.436  1.00  0.00     0.212 C 
BRANCH  43  44
HETATM   44  N1  UNL     1      -5.577  -5.010   5.682  1.00  0.00    -0.073 N 
ATOM     45  H13 UNL     1      -5.534  -5.511   6.569  1.00  0.00     0.274 HD
ATOM     46  H12 UNL     1      -6.374  -4.406   5.887  1.00  0.00     0.274 HD
ATOM     47  H11 UNL     1      -5.769  -5.637   4.901  1.00  0.00     0.274 HD
ENDBRANCH  43  44
ENDBRANCH  38  39
ENDBRANCH   2  38
BRANCH   3  48
HETATM   48  N2  UNL     1      -4.506   0.891   3.610  1.00  0.00    -0.072 N 
ATOM     49  H23 UNL     1      -4.040   1.087   2.724  1.00  0.00     0.274 HD
ATOM     50  H22 UNL     1      -5.268   0.316   3.250  1.00  0.00     0.274 HD
ATOM     51  H21 UNL     1      -4.846   1.741   4.061  1.00  0.00     0.274 HD
ENDBRANCH   3  48
TORSDOF 15
ENDMDL
