MODEL 1
REMARK VINA RESULT: -8.235733082      0.000      0.000
REMARK  16 active torsions:
REMARK  status: ('A' for Active; 'I' for Inactive)
REMARK    1  A    between atoms: O1_2  and  C2_3 
REMARK    2  A    between atoms: C3_4  and  O2_5 
REMARK    3  A    between atoms: C4_7  and  C5_8 
REMARK    4  A    between atoms: C5_8  and  O3_9 
REMARK    5  A    between atoms: C6_12  and  O5_13 
REMARK    6  A    between atoms: O5_13  and  C7_14 
REMARK    7  A    between atoms: C13_21  and  C14_22 
REMARK    8  A    between atoms: C14_22  and  O7_23 
REMARK    9  A    between atoms: O7_23  and  C15_24 
REMARK   10  A    between atoms: C15_24  and  O8_25 
REMARK   11  A    between atoms: C15_24  and  C16_27 
REMARK   12  A    between atoms: C17_28  and  C18_29 
REMARK   13  A    between atoms: C24_36  and  C25_37 
REMARK   14  A    between atoms: C25_37  and  O10_38 
REMARK   15  A    between atoms: C26_40  and  O11_41 
REMARK   16  A    between atoms: C27_43  and  O12_44 
ROOT
HETATM    1  C7  UNL     1      -8.891   0.337   3.843  1.00  0.00     0.156 C 
HETATM    2  C8  UNL     1      -7.617   0.313   3.018  1.00  0.00     0.045 C 
HETATM    3  C9  UNL     1      -7.320  -1.109   2.561  1.00  0.00    -0.024 C 
HETATM    4  C10 UNL     1      -7.825  -1.318   1.154  1.00  0.00     0.017 C 
HETATM    5  C11 UNL     1      -5.821  -1.283   2.547  1.00  0.00     0.017 C 
HETATM    6  C12 UNL     1      -8.009  -2.102   3.483  1.00  0.00     0.177 C 
HETATM    7  O6  UNL     1      -7.830  -1.636   4.763  1.00  0.00    -0.380 OA
HETATM    8  C13 UNL     1      -8.703  -0.606   5.012  1.00  0.00     0.174 C 
ENDROOT
BRANCH   8   9
HETATM    9  C14 UNL     1      -8.255   0.107   6.253  1.00  0.00     0.205 C 
BRANCH   9  10
HETATM   10  O7  UNL     1      -7.052  -0.310   6.662  1.00  0.00    -0.358 OA
BRANCH  10  11
HETATM   11  C15 UNL     1      -6.303   0.403   7.539  1.00  0.00     0.266 C 
BRANCH  11  12
HETATM   12  O8  UNL     1      -6.024   1.630   6.774  1.00  0.00    -0.371 OA
ATOM     13  H8  UNL     1      -6.339   2.305   7.363  1.00  0.00     0.212 HD
ENDBRANCH  11  12
BRANCH  11  14
HETATM   14  C16 UNL     1      -4.981  -0.087   7.932  1.00  0.00     0.105 C 
HETATM   15  C17 UNL     1      -4.528   0.145   9.312  1.00  0.00     0.166 C 
HETATM   16  O9  UNL     1      -3.292  -0.497   9.367  1.00  0.00    -0.371 OA
HETATM   17  C24 UNL     1      -3.245  -1.491   8.435  1.00  0.00     0.175 C 
HETATM   18  C26 UNL     1      -4.580  -1.479   7.656  1.00  0.00     0.161 C 
BRANCH  15  19
HETATM   19  C18 UNL     1      -5.384  -0.137  10.440  1.00  0.00    -0.029 A 
HETATM   20  C19 UNL     1      -6.739  -0.301  10.284  1.00  0.00     0.010 A 
HETATM   21  C20 UNL     1      -7.616  -0.545  11.345  1.00  0.00     0.001 A 
HETATM   22  C21 UNL     1      -7.082  -0.621  12.606  1.00  0.00     0.000 A 
HETATM   23  C22 UNL     1      -5.728  -0.458  12.780  1.00  0.00     0.001 A 
HETATM   24  C23 UNL     1      -4.892  -0.220  11.717  1.00  0.00     0.010 A 
ENDBRANCH  15  19
BRANCH  17  25
HETATM   25  C25 UNL     1      -2.098  -1.165   7.467  1.00  0.00     0.198 C 
BRANCH  25  26
HETATM   26  O10 UNL     1      -1.003  -0.739   8.209  1.00  0.00    -0.398 OA
ATOM     27  H10 UNL     1      -0.238  -1.224   7.922  1.00  0.00     0.209 HD
ENDBRANCH  25  26
ENDBRANCH  17  25
BRANCH  18  28
HETATM   28  O11 UNL     1      -5.298  -2.509   8.142  1.00  0.00    -0.392 OA
ATOM     29  H11 UNL     1      -4.978  -3.401   8.066  1.00  0.00     0.210 HD
ENDBRANCH  18  28
ENDBRANCH  11  14
ENDBRANCH  10  11
ENDBRANCH   9  10
ENDBRANCH   8   9
BRANCH   1  30
HETATM   30  O5  UNL     1      -9.111   1.600   4.305  1.00  0.00    -0.351 OA
BRANCH  30  31
HETATM   31  C6  UNL     1     -10.170   2.272   3.639  1.00  0.00     0.292 C 
HETATM   32  O4  UNL     1      -9.656   2.758   2.492  1.00  0.00    -0.348 OA
HETATM   33  C4  UNL     1     -10.281   2.666   1.316  1.00  0.00     0.179 C 
HETATM   34  C3  UNL     1     -11.451   1.740   1.223  1.00  0.00     0.180 C 
HETATM   35  C2  UNL     1     -12.258   1.769   2.489  1.00  0.00     0.185 C 
HETATM   36  C27 UNL     1     -11.313   1.341   3.592  1.00  0.00     0.204 C 
BRANCH  33  37
HETATM   37  C5  UNL     1     -10.722   4.020   0.742  1.00  0.00     0.198 C 
BRANCH  37  38
HETATM   38  O3  UNL     1      -9.968   4.420  -0.328  1.00  0.00    -0.398 OA
ATOM     39  H3  UNL     1      -9.683   5.324  -0.265  1.00  0.00     0.209 HD
ENDBRANCH  37  38
ENDBRANCH  33  37
BRANCH  34  40
HETATM   40  O2  UNL     1     -10.928   0.434   1.080  1.00  0.00    -0.390 OA
ATOM     41  H2  UNL     1     -11.023   0.184   0.168  1.00  0.00     0.210 HD
ENDBRANCH  34  40
BRANCH  35  42
HETATM   42  O1  UNL     1     -13.350   0.907   2.392  1.00  0.00    -0.385 OA
HETATM   43  C1  UNL     1     -14.306   1.499   1.589  1.00  0.00     0.202 C 
ENDBRANCH  35  42
BRANCH  36  44
HETATM   44  O12 UNL     1     -11.968   1.339   4.832  1.00  0.00    -0.388 OA
ATOM     45  H12 UNL     1     -11.514   0.778   5.450  1.00  0.00     0.210 HD
ENDBRANCH  36  44
ENDBRANCH  30  31
ENDBRANCH   1  30
TORSDOF 16
ENDMDL
MODEL 2
REMARK VINA RESULT: -8.123267193      1.125      2.253
REMARK  16 active torsions:
REMARK  status: ('A' for Active; 'I' for Inactive)
REMARK    1  A    between atoms: O1_2  and  C2_3 
REMARK    2  A    between atoms: C3_4  and  O2_5 
REMARK    3  A    between atoms: C4_7  and  C5_8 
REMARK    4  A    between atoms: C5_8  and  O3_9 
REMARK    5  A    between atoms: C6_12  and  O5_13 
REMARK    6  A    between atoms: O5_13  and  C7_14 
REMARK    7  A    between atoms: C13_21  and  C14_22 
REMARK    8  A    between atoms: C14_22  and  O7_23 
REMARK    9  A    between atoms: O7_23  and  C15_24 
REMARK   10  A    between atoms: C15_24  and  O8_25 
REMARK   11  A    between atoms: C15_24  and  C16_27 
REMARK   12  A    between atoms: C17_28  and  C18_29 
REMARK   13  A    between atoms: C24_36  and  C25_37 
REMARK   14  A    between atoms: C25_37  and  O10_38 
REMARK   15  A    between atoms: C26_40  and  O11_41 
REMARK   16  A    between atoms: C27_43  and  O12_44 
ROOT
HETATM    1  C7  UNL     1      -9.183  -0.191   4.104  1.00  0.00     0.156 C 
HETATM    2  C8  UNL     1      -8.142   0.055   3.027  1.00  0.00     0.045 C 
HETATM    3  C9  UNL     1      -7.439  -1.250   2.677  1.00  0.00    -0.024 C 
HETATM    4  C10 UNL     1      -8.064  -1.863   1.447  1.00  0.00     0.017 C 
HETATM    5  C11 UNL     1      -6.001  -0.925   2.354  1.00  0.00     0.017 C 
HETATM    6  C12 UNL     1      -7.565  -2.230   3.832  1.00  0.00     0.177 C 
HETATM    7  O6  UNL     1      -7.352  -1.509   4.982  1.00  0.00    -0.380 OA
HETATM    8  C13 UNL     1      -8.480  -0.793   5.301  1.00  0.00     0.174 C 
ENDROOT
BRANCH   8   9
HETATM    9  C14 UNL     1      -8.114   0.238   6.326  1.00  0.00     0.205 C 
BRANCH   9  10
HETATM   10  O7  UNL     1      -7.288  -0.253   7.256  1.00  0.00    -0.358 OA
BRANCH  10  11
HETATM   11  C15 UNL     1      -6.368   0.520   7.882  1.00  0.00     0.266 C 
BRANCH  11  12
HETATM   12  O8  UNL     1      -6.117   1.569   6.879  1.00  0.00    -0.371 OA
ATOM     13  H8  UNL     1      -5.832   2.296   7.420  1.00  0.00     0.212 HD
ENDBRANCH  11  12
BRANCH  11  14
HETATM   14  C16 UNL     1      -5.041  -0.023   8.179  1.00  0.00     0.105 C 
HETATM   15  C17 UNL     1      -4.497   0.155   9.533  1.00  0.00     0.166 C 
HETATM   16  O9  UNL     1      -3.282  -0.527   9.493  1.00  0.00    -0.371 OA
HETATM   17  C24 UNL     1      -3.326  -1.495   8.534  1.00  0.00     0.175 C 
HETATM   18  C26 UNL     1      -4.705  -1.418   7.841  1.00  0.00     0.161 C 
BRANCH  15  19
HETATM   19  C18 UNL     1      -5.291  -0.133  10.705  1.00  0.00    -0.029 A 
HETATM   20  C19 UNL     1      -6.653  -0.290  10.623  1.00  0.00     0.010 A 
HETATM   21  C20 UNL     1      -7.471  -0.538  11.729  1.00  0.00     0.001 A 
HETATM   22  C21 UNL     1      -6.868  -0.627  12.957  1.00  0.00     0.000 A 
HETATM   23  C22 UNL     1      -5.506  -0.472  13.057  1.00  0.00     0.001 A 
HETATM   24  C23 UNL     1      -4.728  -0.229  11.952  1.00  0.00     0.010 A 
ENDBRANCH  15  19
BRANCH  17  25
HETATM   25  C25 UNL     1      -2.231  -1.177   7.505  1.00  0.00     0.198 C 
BRANCH  25  26
HETATM   26  O10 UNL     1      -1.066  -0.847   8.188  1.00  0.00    -0.398 OA
ATOM     27  H10 UNL     1      -0.324  -1.031   7.624  1.00  0.00     0.209 HD
ENDBRANCH  25  26
ENDBRANCH  17  25
BRANCH  18  28
HETATM   28  O11 UNL     1      -5.426  -2.438   8.342  1.00  0.00    -0.392 OA
ATOM     29  H11 UNL     1      -5.204  -3.338   8.130  1.00  0.00     0.210 HD
ENDBRANCH  18  28
ENDBRANCH  11  14
ENDBRANCH  10  11
ENDBRANCH   9  10
ENDBRANCH   8   9
BRANCH   1  30
HETATM   30  O5  UNL     1      -9.759   0.992   4.459  1.00  0.00    -0.351 OA
BRANCH  30  31
HETATM   31  C6  UNL     1     -10.686   1.484   3.503  1.00  0.00     0.292 C 
HETATM   32  O4  UNL     1     -11.873   0.914   3.791  1.00  0.00    -0.348 OA
HETATM   33  C4  UNL     1     -13.022   1.592   3.809  1.00  0.00     0.179 C 
HETATM   34  C3  UNL     1     -12.947   3.085   3.796  1.00  0.00     0.180 C 
HETATM   35  C2  UNL     1     -11.825   3.557   2.916  1.00  0.00     0.185 C 
HETATM   36  C27 UNL     1     -10.563   2.955   3.497  1.00  0.00     0.204 C 
BRANCH  33  37
HETATM   37  C5  UNL     1     -14.006   1.174   2.707  1.00  0.00     0.198 C 
BRANCH  37  38
HETATM   38  O3  UNL     1     -14.119  -0.184   2.576  1.00  0.00    -0.398 OA
ATOM     39  H3  UNL     1     -13.789  -0.507   1.746  1.00  0.00     0.209 HD
ENDBRANCH  37  38
ENDBRANCH  33  37
BRANCH  34  40
HETATM   40  O2  UNL     1     -12.652   3.491   5.118  1.00  0.00    -0.390 OA
ATOM     41  H2  UNL     1     -13.464   3.472   5.612  1.00  0.00     0.210 HD
ENDBRANCH  34  40
BRANCH  35  42
HETATM   42  O1  UNL     1     -11.766   4.950   2.904  1.00  0.00    -0.385 OA
HETATM   43  C1  UNL     1     -12.791   5.426   2.111  1.00  0.00     0.202 C 
ENDBRANCH  35  42
BRANCH  36  44
HETATM   44  O12 UNL     1      -9.443   3.328   2.741  1.00  0.00    -0.388 OA
ATOM     45  H12 UNL     1      -8.832   3.827   3.271  1.00  0.00     0.210 HD
ENDBRANCH  36  44
ENDBRANCH  30  31
ENDBRANCH   1  30
TORSDOF 16
ENDMDL
MODEL 3
REMARK VINA RESULT: -7.895161637      1.027      2.153
REMARK  16 active torsions:
REMARK  status: ('A' for Active; 'I' for Inactive)
REMARK    1  A    between atoms: O1_2  and  C2_3 
REMARK    2  A    between atoms: C3_4  and  O2_5 
REMARK    3  A    between atoms: C4_7  and  C5_8 
REMARK    4  A    between atoms: C5_8  and  O3_9 
REMARK    5  A    between atoms: C6_12  and  O5_13 
REMARK    6  A    between atoms: O5_13  and  C7_14 
REMARK    7  A    between atoms: C13_21  and  C14_22 
REMARK    8  A    between atoms: C14_22  and  O7_23 
REMARK    9  A    between atoms: O7_23  and  C15_24 
REMARK   10  A    between atoms: C15_24  and  O8_25 
REMARK   11  A    between atoms: C15_24  and  C16_27 
REMARK   12  A    between atoms: C17_28  and  C18_29 
REMARK   13  A    between atoms: C24_36  and  C25_37 
REMARK   14  A    between atoms: C25_37  and  O10_38 
REMARK   15  A    between atoms: C26_40  and  O11_41 
REMARK   16  A    between atoms: C27_43  and  O12_44 
ROOT
HETATM    1  C7  UNL     1      -8.749  -0.560   4.071  1.00  0.00     0.156 C 
HETATM    2  C8  UNL     1      -7.563  -0.646   3.127  1.00  0.00     0.045 C 
HETATM    3  C9  UNL     1      -7.029  -2.072   3.093  1.00  0.00    -0.024 C 
HETATM    4  C10 UNL     1      -7.590  -2.808   1.900  1.00  0.00     0.017 C 
HETATM    5  C11 UNL     1      -5.531  -1.998   2.930  1.00  0.00     0.017 C 
HETATM    6  C12 UNL     1      -7.437  -2.806   4.360  1.00  0.00     0.177 C 
HETATM    7  O6  UNL     1      -7.255  -1.926   5.399  1.00  0.00    -0.380 OA
HETATM    8  C13 UNL     1      -8.291  -1.025   5.436  1.00  0.00     0.174 C 
ENDROOT
BRANCH   8   9
HETATM    9  C14 UNL     1      -7.897   0.115   6.325  1.00  0.00     0.205 C 
BRANCH   9  10
HETATM   10  O7  UNL     1      -6.586   0.373   6.256  1.00  0.00    -0.358 OA
BRANCH  10  11
HETATM   11  C15 UNL     1      -5.882   0.813   7.327  1.00  0.00     0.266 C 
BRANCH  11  12
HETATM   12  O8  UNL     1      -5.338   2.089   6.831  1.00  0.00    -0.371 OA
ATOM     13  H8  UNL     1      -4.468   1.835   6.547  1.00  0.00     0.212 HD
ENDBRANCH  11  12
BRANCH  11  14
HETATM   14  C16 UNL     1      -4.705   0.070   7.780  1.00  0.00     0.105 C 
HETATM   15  C17 UNL     1      -4.368   0.093   9.211  1.00  0.00     0.166 C 
HETATM   16  O9  UNL     1      -3.264  -0.753   9.305  1.00  0.00    -0.371 OA
HETATM   17  C24 UNL     1      -3.282  -1.651   8.279  1.00  0.00     0.175 C 
HETATM   18  C26 UNL     1      -4.508  -1.339   7.392  1.00  0.00     0.161 C 
BRANCH  15  19
HETATM   19  C18 UNL     1      -5.371  -0.140  10.223  1.00  0.00    -0.029 A 
HETATM   20  C19 UNL     1      -6.703  -0.227   9.900  1.00  0.00     0.010 A 
HETATM   21  C20 UNL     1      -7.717  -0.420  10.842  1.00  0.00     0.001 A 
HETATM   22  C21 UNL     1      -7.348  -0.526  12.159  1.00  0.00     0.000 A 
HETATM   23  C22 UNL     1      -6.019  -0.441  12.500  1.00  0.00     0.001 A 
HETATM   24  C23 UNL     1      -5.045  -0.250  11.551  1.00  0.00     0.010 A 
ENDBRANCH  15  19
BRANCH  17  25
HETATM   25  C25 UNL     1      -2.002  -1.439   7.456  1.00  0.00     0.198 C 
BRANCH  25  26
HETATM   26  O10 UNL     1      -1.090  -0.736   8.233  1.00  0.00    -0.398 OA
ATOM     27  H10 UNL     1      -1.454   0.121   8.424  1.00  0.00     0.209 HD
ENDBRANCH  25  26
ENDBRANCH  17  25
BRANCH  18  28
HETATM   28  O11 UNL     1      -5.430  -2.271   7.699  1.00  0.00    -0.392 OA
ATOM     29  H11 UNL     1      -6.132  -2.475   7.092  1.00  0.00     0.210 HD
ENDBRANCH  18  28
ENDBRANCH  11  14
ENDBRANCH  10  11
ENDBRANCH   9  10
ENDBRANCH   8   9
BRANCH   1  30
HETATM   30  O5  UNL     1      -9.176   0.732   4.148  1.00  0.00    -0.351 OA
BRANCH  30  31
HETATM   31  C6  UNL     1      -9.850   1.180   2.981  1.00  0.00     0.292 C 
HETATM   32  O4  UNL     1     -11.165   0.975   3.194  1.00  0.00    -0.348 OA
HETATM   33  C4  UNL     1     -12.102   1.877   2.897  1.00  0.00     0.179 C 
HETATM   34  C3  UNL     1     -11.651   3.269   2.590  1.00  0.00     0.180 C 
HETATM   35  C2  UNL     1     -10.365   3.256   1.815  1.00  0.00     0.185 C 
HETATM   36  C27 UNL     1      -9.360   2.541   2.693  1.00  0.00     0.204 C 
BRANCH  33  37
HETATM   37  C5  UNL     1     -13.046   1.442   1.767  1.00  0.00     0.198 C 
BRANCH  37  38
HETATM   38  O3  UNL     1     -12.468   0.559   0.895  1.00  0.00    -0.398 OA
ATOM     39  H3  UNL     1     -11.584   0.803   0.649  1.00  0.00     0.209 HD
ENDBRANCH  37  38
ENDBRANCH  33  37
BRANCH  34  40
HETATM   40  O2  UNL     1     -11.395   3.899   3.831  1.00  0.00    -0.390 OA
ATOM     41  H2  UNL     1     -10.799   3.342   4.317  1.00  0.00     0.210 HD
ENDBRANCH  34  40
BRANCH  35  42
HETATM   42  O1  UNL     1      -9.955   4.558   1.527  1.00  0.00    -0.385 OA
HETATM   43  C1  UNL     1     -10.014   4.745   0.160  1.00  0.00     0.202 C 
ENDBRANCH  35  42
BRANCH  36  44
HETATM   44  O12 UNL     1      -8.112   2.466   2.057  1.00  0.00    -0.388 OA
ATOM     45  H12 UNL     1      -7.561   1.815   2.476  1.00  0.00     0.210 HD
ENDBRANCH  36  44
ENDBRANCH  30  31
ENDBRANCH   1  30
TORSDOF 16
ENDMDL
MODEL 4
REMARK VINA RESULT: -7.685755928      1.182      2.453
REMARK  16 active torsions:
REMARK  status: ('A' for Active; 'I' for Inactive)
REMARK    1  A    between atoms: O1_2  and  C2_3 
REMARK    2  A    between atoms: C3_4  and  O2_5 
REMARK    3  A    between atoms: C4_7  and  C5_8 
REMARK    4  A    between atoms: C5_8  and  O3_9 
REMARK    5  A    between atoms: C6_12  and  O5_13 
REMARK    6  A    between atoms: O5_13  and  C7_14 
REMARK    7  A    between atoms: C13_21  and  C14_22 
REMARK    8  A    between atoms: C14_22  and  O7_23 
REMARK    9  A    between atoms: O7_23  and  C15_24 
REMARK   10  A    between atoms: C15_24  and  O8_25 
REMARK   11  A    between atoms: C15_24  and  C16_27 
REMARK   12  A    between atoms: C17_28  and  C18_29 
REMARK   13  A    between atoms: C24_36  and  C25_37 
REMARK   14  A    between atoms: C25_37  and  O10_38 
REMARK   15  A    between atoms: C26_40  and  O11_41 
REMARK   16  A    between atoms: C27_43  and  O12_44 
ROOT
HETATM    1  C7  UNL     1      -7.856   0.450   3.382  1.00  0.00     0.156 C 
HETATM    2  C8  UNL     1      -6.510   1.087   3.086  1.00  0.00     0.045 C 
HETATM    3  C9  UNL     1      -5.498   0.012   2.711  1.00  0.00    -0.024 C 
HETATM    4  C10 UNL     1      -5.388  -0.096   1.209  1.00  0.00     0.017 C 
HETATM    5  C11 UNL     1      -4.154   0.440   3.245  1.00  0.00     0.017 C 
HETATM    6  C12 UNL     1      -5.941  -1.331   3.269  1.00  0.00     0.177 C 
HETATM    7  O6  UNL     1      -6.397  -1.094   4.544  1.00  0.00    -0.380 OA
HETATM    8  C13 UNL     1      -7.659  -0.554   4.496  1.00  0.00     0.174 C 
ENDROOT
BRANCH   8   9
HETATM    9  C14 UNL     1      -7.983   0.017   5.843  1.00  0.00     0.205 C 
BRANCH   9  10
HETATM   10  O7  UNL     1      -7.234  -0.525   6.810  1.00  0.00    -0.358 OA
BRANCH  10  11
HETATM   11  C15 UNL     1      -6.524   0.232   7.681  1.00  0.00     0.266 C 
BRANCH  11  12
HETATM   12  O8  UNL     1      -6.360   1.488   6.930  1.00  0.00    -0.371 OA
ATOM     13  H8  UNL     1      -5.659   1.268   6.328  1.00  0.00     0.212 HD
ENDBRANCH  11  12
BRANCH  11  14
HETATM   14  C16 UNL     1      -5.158  -0.157   8.037  1.00  0.00     0.105 C 
HETATM   15  C17 UNL     1      -4.663   0.172   9.382  1.00  0.00     0.166 C 
HETATM   16  O9  UNL     1      -3.388  -0.390   9.413  1.00  0.00    -0.371 OA
HETATM   17  C24 UNL     1      -3.319  -1.427   8.529  1.00  0.00     0.175 C 
HETATM   18  C26 UNL     1      -4.683  -1.535   7.812  1.00  0.00     0.161 C 
BRANCH  15  19
HETATM   19  C18 UNL     1      -5.452  -0.103  10.561  1.00  0.00    -0.029 A 
HETATM   20  C19 UNL     1      -4.865  -0.237  11.796  1.00  0.00     0.010 A 
HETATM   21  C20 UNL     1      -5.576  -0.533  12.962  1.00  0.00     0.001 A 
HETATM   22  C21 UNL     1      -6.934  -0.696  12.854  1.00  0.00     0.000 A 
HETATM   23  C22 UNL     1      -7.536  -0.565  11.625  1.00  0.00     0.001 A 
HETATM   24  C23 UNL     1      -6.810  -0.274  10.496  1.00  0.00     0.010 A 
ENDBRANCH  15  19
BRANCH  17  25
HETATM   25  C25 UNL     1      -2.236  -1.082   7.495  1.00  0.00     0.198 C 
BRANCH  25  26
HETATM   26  O10 UNL     1      -1.072  -0.741   8.173  1.00  0.00    -0.398 OA
ATOM     27  H10 UNL     1      -1.009  -1.280   8.953  1.00  0.00     0.209 HD
ENDBRANCH  25  26
ENDBRANCH  17  25
BRANCH  18  28
HETATM   28  O11 UNL     1      -5.314  -2.580   8.379  1.00  0.00    -0.392 OA
ATOM     29  H11 UNL     1      -5.906  -2.449   9.110  1.00  0.00     0.210 HD
ENDBRANCH  18  28
ENDBRANCH  11  14
ENDBRANCH  10  11
ENDBRANCH   9  10
ENDBRANCH   8   9
BRANCH   1  30
HETATM   30  O5  UNL     1      -8.735   1.411   3.782  1.00  0.00    -0.351 OA
BRANCH  30  31
HETATM   31  C6  UNL     1      -9.942   1.426   3.034  1.00  0.00     0.292 C 
HETATM   32  O4  UNL     1     -10.947   1.299   3.923  1.00  0.00    -0.348 OA
HETATM   33  C4  UNL     1     -12.057   2.038   3.881  1.00  0.00     0.179 C 
HETATM   34  C3  UNL     1     -12.054   3.242   2.995  1.00  0.00     0.180 C 
HETATM   35  C2  UNL     1     -11.298   2.972   1.727  1.00  0.00     0.185 C 
HETATM   36  C27 UNL     1      -9.891   2.609   2.153  1.00  0.00     0.204 C 
BRANCH  33  37
HETATM   37  C5  UNL     1     -13.325   1.235   3.558  1.00  0.00     0.198 C 
BRANCH  37  38
HETATM   38  O3  UNL     1     -13.483   0.137   4.360  1.00  0.00    -0.398 OA
ATOM     39  H3  UNL     1     -13.213  -0.672   3.941  1.00  0.00     0.209 HD
ENDBRANCH  37  38
ENDBRANCH  33  37
BRANCH  34  40
HETATM   40  O2  UNL     1     -11.366   4.262   3.693  1.00  0.00    -0.390 OA
ATOM     41  H2  UNL     1     -11.870   5.062   3.604  1.00  0.00     0.210 HD
ENDBRANCH  34  40
BRANCH  35  42
HETATM   42  O1  UNL     1     -11.306   4.098   0.904  1.00  0.00    -0.385 OA
HETATM   43  C1  UNL     1     -12.615   4.398   0.583  1.00  0.00     0.202 C 
ENDBRANCH  35  42
BRANCH  36  44
HETATM   44  O12 UNL     1      -9.092   2.327   1.035  1.00  0.00    -0.388 OA
ATOM     45  H12 UNL     1      -8.716   1.457   1.103  1.00  0.00     0.210 HD
ENDBRANCH  36  44
ENDBRANCH  30  31
ENDBRANCH   1  30
TORSDOF 16
ENDMDL
MODEL 5
REMARK VINA RESULT: -7.606165499      4.731     10.038
REMARK  16 active torsions:
REMARK  status: ('A' for Active; 'I' for Inactive)
REMARK    1  A    between atoms: O1_2  and  C2_3 
REMARK    2  A    between atoms: C3_4  and  O2_5 
REMARK    3  A    between atoms: C4_7  and  C5_8 
REMARK    4  A    between atoms: C5_8  and  O3_9 
REMARK    5  A    between atoms: C6_12  and  O5_13 
REMARK    6  A    between atoms: O5_13  and  C7_14 
REMARK    7  A    between atoms: C13_21  and  C14_22 
REMARK    8  A    between atoms: C14_22  and  O7_23 
REMARK    9  A    between atoms: O7_23  and  C15_24 
REMARK   10  A    between atoms: C15_24  and  O8_25 
REMARK   11  A    between atoms: C15_24  and  C16_27 
REMARK   12  A    between atoms: C17_28  and  C18_29 
REMARK   13  A    between atoms: C24_36  and  C25_37 
REMARK   14  A    between atoms: C25_37  and  O10_38 
REMARK   15  A    between atoms: C26_40  and  O11_41 
REMARK   16  A    between atoms: C27_43  and  O12_44 
ROOT
HETATM    1  C7  UNL     1       0.590   2.055   7.138  1.00  0.00     0.156 C 
HETATM    2  C8  UNL     1       1.514   1.364   6.152  1.00  0.00     0.045 C 
HETATM    3  C9  UNL     1       1.727   2.251   4.931  1.00  0.00    -0.024 C 
HETATM    4  C10 UNL     1       3.017   3.022   5.069  1.00  0.00     0.017 C 
HETATM    5  C11 UNL     1       1.850   1.351   3.726  1.00  0.00     0.017 C 
HETATM    6  C12 UNL     1       0.577   3.236   4.802  1.00  0.00     0.177 C 
HETATM    7  O6  UNL     1      -0.573   2.532   5.069  1.00  0.00    -0.380 OA
HETATM    8  C13 UNL     1      -0.710   2.356   6.424  1.00  0.00     0.174 C 
ENDROOT
BRANCH   8   9
HETATM    9  C14 UNL     1      -1.749   1.303   6.664  1.00  0.00     0.205 C 
BRANCH   9  10
HETATM   10  O7  UNL     1      -2.628   1.673   7.603  1.00  0.00    -0.358 OA
BRANCH  10  11
HETATM   11  C15 UNL     1      -3.246   0.772   8.405  1.00  0.00     0.266 C 
BRANCH  11  12
HETATM   12  O8  UNL     1      -2.124  -0.088   8.819  1.00  0.00    -0.371 OA
ATOM     13  H8  UNL     1      -2.365  -0.924   8.437  1.00  0.00     0.212 HD
ENDBRANCH  11  12
BRANCH  11  14
HETATM   14  C16 UNL     1      -4.223  -0.157   7.836  1.00  0.00     0.105 C 
HETATM   15  C17 UNL     1      -4.856  -1.142   8.727  1.00  0.00     0.166 C 
HETATM   16  O9  UNL     1      -5.762  -1.802   7.899  1.00  0.00    -0.371 OA
HETATM   17  C24 UNL     1      -6.121  -0.990   6.864  1.00  0.00     0.175 C 
HETATM   18  C26 UNL     1      -5.336   0.334   7.004  1.00  0.00     0.161 C 
BRANCH  15  19
HETATM   19  C18 UNL     1      -5.405  -0.755  10.005  1.00  0.00    -0.029 A 
HETATM   20  C19 UNL     1      -4.592  -0.482  11.078  1.00  0.00     0.010 A 
HETATM   21  C20 UNL     1      -5.072  -0.134  12.343  1.00  0.00     0.001 A 
HETATM   22  C21 UNL     1      -6.431  -0.065  12.510  1.00  0.00     0.000 A 
HETATM   23  C22 UNL     1      -7.259  -0.335  11.447  1.00  0.00     0.001 A 
HETATM   24  C23 UNL     1      -6.758  -0.675  10.215  1.00  0.00     0.010 A 
ENDBRANCH  15  19
BRANCH  17  25
HETATM   25  C25 UNL     1      -5.699  -1.686   5.561  1.00  0.00     0.198 C 
BRANCH  25  26
HETATM   26  O10 UNL     1      -6.651  -2.648   5.247  1.00  0.00    -0.398 OA
ATOM     27  H10 UNL     1      -6.385  -3.473   5.635  1.00  0.00     0.209 HD
ENDBRANCH  25  26
ENDBRANCH  17  25
BRANCH  18  28
HETATM   28  O11 UNL     1      -6.214   1.232   7.491  1.00  0.00    -0.392 OA
ATOM     29  H11 UNL     1      -6.530   1.944   6.948  1.00  0.00     0.210 HD
ENDBRANCH  18  28
ENDBRANCH  11  14
ENDBRANCH  10  11
ENDBRANCH   9  10
ENDBRANCH   8   9
BRANCH   1  30
HETATM   30  O5  UNL     1       0.351   1.227   8.194  1.00  0.00    -0.351 OA
BRANCH  30  31
HETATM   31  C6  UNL     1       0.646   1.810   9.454  1.00  0.00     0.292 C 
HETATM   32  O4  UNL     1      -0.449   2.505   9.822  1.00  0.00    -0.348 OA
HETATM   33  C4  UNL     1      -0.957   2.467  11.055  1.00  0.00     0.179 C 
HETATM   34  C3  UNL     1      -0.467   1.395  11.974  1.00  0.00     0.180 C 
HETATM   35  C2  UNL     1       1.000   1.146  11.771  1.00  0.00     0.185 C 
HETATM   36  C27 UNL     1       1.153   0.731  10.323  1.00  0.00     0.204 C 
BRANCH  33  37
HETATM   37  C5  UNL     1      -0.853   3.800  11.809  1.00  0.00     0.198 C 
BRANCH  37  38
HETATM   38  O3  UNL     1      -0.923   3.654  13.169  1.00  0.00    -0.398 OA
ATOM     39  H3  UNL     1      -0.819   4.474  13.637  1.00  0.00     0.209 HD
ENDBRANCH  37  38
ENDBRANCH  33  37
BRANCH  34  40
HETATM   40  O2  UNL     1      -1.153   0.209  11.622  1.00  0.00    -0.390 OA
ATOM     41  H2  UNL     1      -1.914   0.140  12.188  1.00  0.00     0.210 HD
ENDBRANCH  34  40
BRANCH  35  42
HETATM   42  O1  UNL     1       1.451   0.150  12.636  1.00  0.00    -0.385 OA
HETATM   43  C1  UNL     1       1.666   0.712  13.880  1.00  0.00     0.202 C 
ENDBRANCH  35  42
BRANCH  36  44
HETATM   44  O12 UNL     1       2.499   0.478  10.020  1.00  0.00    -0.388 OA
ATOM     45  H12 UNL     1       2.573  -0.227   9.388  1.00  0.00     0.210 HD
ENDBRANCH  36  44
ENDBRANCH  30  31
ENDBRANCH   1  30
TORSDOF 16
ENDMDL
