MODEL 1
REMARK VINA RESULT: -7.183034420      0.000      0.000
REMARK  18 active torsions:
REMARK  status: ('A' for Active; 'I' for Inactive)
REMARK    1  A    between atoms: O1_2  and  C2_3 
REMARK    2  A    between atoms: C2_3  and  O3_5 
REMARK    3  A    between atoms: O3_5  and  N1_6 
REMARK    4  A    between atoms: C3_7  and  C4_8 
REMARK    5  A    between atoms: C4_8  and  C5_10 
REMARK    6  A    between atoms: C5_10  and  C6_11 
REMARK    7  A    between atoms: C9_14  and  O5_15 
REMARK    8  A    between atoms: C9_14  and  C10_17 
REMARK    9  A    between atoms: C13_20  and  C14_21 
REMARK   10  A    between atoms: C14_21  and  O6_22 
REMARK   11  A    between atoms: C14_21  and  N2_24 
REMARK   12  A    between atoms: N2_24  and  C15_26 
REMARK   13  A    between atoms: C15_26  and  C16_27 
REMARK       I    between atoms: C16_27  and  N3_29 
REMARK   14  A    between atoms: N3_29  and  C17_31 
REMARK   15  A    between atoms: C17_31  and  C18_32 
REMARK   16  A    between atoms: C17_31  and  C20_36 
REMARK   17  A    between atoms: C18_32  and  O9_34 
REMARK   18  A    between atoms: C20_36  and  N6_41 
REMARK       I    between atoms: N6_41  and  C22_43 
ROOT
HETATM    1  C20 UNL     1      -7.630  -2.024   3.782  1.00  0.00     0.126 C 
HETATM    2  N4  UNL     1      -8.544  -2.759   3.210  1.00  0.00    -0.281 N 
ATOM      3  H4  UNL     1      -9.525  -2.633   3.458  1.00  0.00     0.179 HD
HETATM    4  C21 UNL     1      -8.184  -3.717   2.258  1.00  0.00     0.183 C 
HETATM    5  N5  UNL     1      -7.897  -4.527   1.469  1.00  0.00    -0.172 NA
ENDROOT
BRANCH   1   6
HETATM    6  C17 UNL     1      -6.201  -2.208   3.420  1.00  0.00     0.253 C 
BRANCH   6   7
HETATM    7  N3  UNL     1      -5.503  -2.582   4.653  1.00  0.00    -0.340 N 
HETATM    8  C16 UNL     1      -5.040  -3.900   4.826  1.00  0.00     0.236 C 
HETATM    9  O7  UNL     1      -5.225  -4.739   3.931  1.00  0.00    -0.272 OA
ATOM     10  H3  UNL     1      -5.354  -1.888   5.386  1.00  0.00     0.163 HD
BRANCH   8  11
HETATM   11  C15 UNL     1      -4.340  -4.251   6.080  1.00  0.00     0.224 C 
BRANCH  11  12
HETATM   12  N2  UNL     1      -3.811  -3.069   6.683  1.00  0.00    -0.364 N 
ATOM     13  H2  UNL     1      -3.679  -2.262   6.073  1.00  0.00     0.161 HD
BRANCH  12  14
HETATM   14  C14 UNL     1      -3.454  -2.906   8.023  1.00  0.00     0.135 C 
BRANCH  14  15
HETATM   15  C13 UNL     1      -3.673  -1.861   8.975  1.00  0.00     0.198 C 
HETATM   16  N1  UNL     1      -5.013  -1.351   9.015  1.00  0.00    -0.156 NA
HETATM   17  C3  UNL     1      -4.478  -0.033   9.365  1.00  0.00     0.194 C 
HETATM   18  C9  UNL     1      -3.097  -0.518   8.899  1.00  0.00     0.111 C 
BRANCH  16  19
HETATM   19  O3  UNL     1      -5.767  -1.374   7.902  1.00  0.00    -0.199 OA
BRANCH  19  20
HETATM   20  C2  UNL     1      -6.326  -0.298   7.275  1.00  0.00     0.423 C 
HETATM   21  O2  UNL     1      -7.407   0.153   7.737  1.00  0.00    -0.228 OA
BRANCH  20  22
HETATM   22  O1  UNL     1      -5.790   0.334   6.169  1.00  0.00    -0.302 OA
HETATM   23  C1  UNL     1      -6.016   1.721   5.939  1.00  0.00     0.215 C 
ENDBRANCH  20  22
ENDBRANCH  19  20
ENDBRANCH  16  19
BRANCH  17  24
HETATM   24  C4  UNL     1      -4.576   0.164  10.826  1.00  0.00     0.150 C 
HETATM   25  O4  UNL     1      -4.023   1.117  11.331  1.00  0.00    -0.296 OA
BRANCH  24  26
HETATM   26  C5  UNL     1      -5.329  -0.758  11.722  1.00  0.00     0.084 C 
BRANCH  26  27
HETATM   27  C6  UNL     1      -6.676  -0.175  12.101  1.00  0.00    -0.016 C 
HETATM   28  C7  UNL     1      -7.749  -0.543  11.132  1.00  0.00     0.010 C 
HETATM   29  C8  UNL     1      -7.046  -0.559  13.504  1.00  0.00     0.010 C 
ENDBRANCH  26  27
ENDBRANCH  24  26
ENDBRANCH  17  24
BRANCH  18  30
HETATM   30  O5  UNL     1      -2.180  -0.283   9.954  1.00  0.00    -0.385 OA
ATOM     31  H5  UNL     1      -1.325  -0.582   9.665  1.00  0.00     0.210 HD
ENDBRANCH  18  30
BRANCH  18  32
HETATM   32  C10 UNL     1      -2.602   0.114   7.681  1.00  0.00     0.016 C 
HETATM   33  C11 UNL     1      -1.084  -0.168   7.618  1.00  0.00     0.012 C 
HETATM   34  C12 UNL     1      -2.743   1.585   7.526  1.00  0.00     0.012 C 
ENDBRANCH  18  32
ENDBRANCH  14  15
BRANCH  14  35
HETATM   35  O6  UNL     1      -2.789  -3.917   8.502  1.00  0.00    -0.348 OA
ATOM     36  H6  UNL     1      -3.032  -4.750   8.116  1.00  0.00     0.219 HD
ENDBRANCH  14  35
ENDBRANCH  12  14
ENDBRANCH  11  12
ENDBRANCH   8  11
ENDBRANCH   6   7
BRANCH   6  37
HETATM   37  C18 UNL     1      -5.599  -0.977   2.845  1.00  0.00     0.289 C 
HETATM   38  O8  UNL     1      -4.395  -0.948   2.499  1.00  0.00    -0.262 OA
BRANCH  37  39
HETATM   39  O9  UNL     1      -6.365   0.152   2.685  1.00  0.00    -0.325 OA
HETATM   40  C19 UNL     1      -5.916   1.358   2.135  1.00  0.00     0.213 C 
ENDBRANCH  37  39
ENDBRANCH   6  37
ENDBRANCH   1   6
BRANCH   1  41
HETATM   41  N6  UNL     1      -7.973  -1.058   4.738  1.00  0.00    -0.318 N 
HETATM   42  C22 UNL     1      -9.143  -0.280   4.707  1.00  0.00     0.187 C 
HETATM   43  N7  UNL     1      -9.099   0.915   4.275  1.00  0.00    -0.373 N 
HETATM   44  N8  UNL     1     -10.387  -0.827   5.159  1.00  0.00    -0.064 NA
ATOM     45  H72 UNL     1      -8.213   1.305   3.952  1.00  0.00     0.158 HD
ATOM     46  H71 UNL     1      -9.949   1.480   4.252  1.00  0.00     0.158 HD
ATOM     47  H6  UNL     1      -7.326  -0.909   5.513  1.00  0.00     0.170 HD
ENDBRANCH   1  41
TORSDOF 18
ENDMDL
MODEL 2
REMARK VINA RESULT: -6.791643743      1.439      2.596
REMARK  18 active torsions:
REMARK  status: ('A' for Active; 'I' for Inactive)
REMARK    1  A    between atoms: O1_2  and  C2_3 
REMARK    2  A    between atoms: C2_3  and  O3_5 
REMARK    3  A    between atoms: O3_5  and  N1_6 
REMARK    4  A    between atoms: C3_7  and  C4_8 
REMARK    5  A    between atoms: C4_8  and  C5_10 
REMARK    6  A    between atoms: C5_10  and  C6_11 
REMARK    7  A    between atoms: C9_14  and  O5_15 
REMARK    8  A    between atoms: C9_14  and  C10_17 
REMARK    9  A    between atoms: C13_20  and  C14_21 
REMARK   10  A    between atoms: C14_21  and  O6_22 
REMARK   11  A    between atoms: C14_21  and  N2_24 
REMARK   12  A    between atoms: N2_24  and  C15_26 
REMARK   13  A    between atoms: C15_26  and  C16_27 
REMARK       I    between atoms: C16_27  and  N3_29 
REMARK   14  A    between atoms: N3_29  and  C17_31 
REMARK   15  A    between atoms: C17_31  and  C18_32 
REMARK   16  A    between atoms: C17_31  and  C20_36 
REMARK   17  A    between atoms: C18_32  and  O9_34 
REMARK   18  A    between atoms: C20_36  and  N6_41 
REMARK       I    between atoms: N6_41  and  C22_43 
ROOT
HETATM    1  C20 UNL     1      -8.177  -2.343   2.379  1.00  0.00     0.126 C 
HETATM    2  N4  UNL     1      -8.237  -1.898   1.154  1.00  0.00    -0.281 N 
ATOM      3  H4  UNL     1      -8.627  -2.486   0.418  1.00  0.00     0.179 HD
HETATM    4  C21 UNL     1      -7.768  -0.618   0.846  1.00  0.00     0.183 C 
HETATM    5  N5  UNL     1      -7.372   0.445   0.573  1.00  0.00    -0.172 NA
ENDROOT
BRANCH   1   6
HETATM    6  C17 UNL     1      -7.608  -1.485   3.450  1.00  0.00     0.253 C 
BRANCH   6   7
HETATM    7  N3  UNL     1      -6.964  -2.388   4.409  1.00  0.00    -0.340 N 
HETATM    8  C16 UNL     1      -5.586  -2.657   4.304  1.00  0.00     0.236 C 
HETATM    9  O7  UNL     1      -4.923  -2.128   3.400  1.00  0.00    -0.272 OA
ATOM     10  H3  UNL     1      -7.515  -2.820   5.151  1.00  0.00     0.163 HD
BRANCH   8  11
HETATM   11  C15 UNL     1      -4.963  -3.571   5.284  1.00  0.00     0.224 C 
BRANCH  11  12
HETATM   12  N2  UNL     1      -4.112  -2.830   6.161  1.00  0.00    -0.364 N 
ATOM     13  H2  UNL     1      -3.452  -2.187   5.725  1.00  0.00     0.161 HD
BRANCH  12  14
HETATM   14  C14 UNL     1      -4.094  -2.897   7.556  1.00  0.00     0.135 C 
BRANCH  14  15
HETATM   15  C13 UNL     1      -4.147  -1.904   8.585  1.00  0.00     0.198 C 
HETATM   16  N1  UNL     1      -5.410  -1.238   8.718  1.00  0.00    -0.156 NA
HETATM   17  C3  UNL     1      -4.701  -0.025   9.132  1.00  0.00     0.194 C 
HETATM   18  C9  UNL     1      -3.410  -0.640   8.574  1.00  0.00     0.111 C 
BRANCH  16  19
HETATM   19  O3  UNL     1      -6.200  -1.088   7.640  1.00  0.00    -0.199 OA
BRANCH  19  20
HETATM   20  C2  UNL     1      -6.741   0.080   7.184  1.00  0.00     0.423 C 
HETATM   21  O2  UNL     1      -7.783   0.502   7.749  1.00  0.00    -0.228 OA
BRANCH  20  22
HETATM   22  O1  UNL     1      -6.226   0.832   6.146  1.00  0.00    -0.302 OA
HETATM   23  C1  UNL     1      -6.461   2.235   6.074  1.00  0.00     0.215 C 
ENDBRANCH  20  22
ENDBRANCH  19  20
ENDBRANCH  16  19
BRANCH  17  24
HETATM   24  C4  UNL     1      -4.722   0.077  10.606  1.00  0.00     0.150 C 
HETATM   25  O4  UNL     1      -4.070   0.944  11.147  1.00  0.00    -0.296 OA
BRANCH  24  26
HETATM   26  C5  UNL     1      -5.514  -0.840  11.473  1.00  0.00     0.084 C 
BRANCH  26  27
HETATM   27  C6  UNL     1      -6.782  -0.171  11.965  1.00  0.00    -0.016 C 
HETATM   28  C7  UNL     1      -7.966  -0.499  11.119  1.00  0.00     0.010 C 
HETATM   29  C8  UNL     1      -7.029  -0.498  13.409  1.00  0.00     0.010 C 
ENDBRANCH  26  27
ENDBRANCH  24  26
ENDBRANCH  17  24
BRANCH  18  30
HETATM   30  O5  UNL     1      -2.434  -0.596   9.601  1.00  0.00    -0.385 OA
ATOM     31  H5  UNL     1      -1.847  -1.332   9.473  1.00  0.00     0.210 HD
ENDBRANCH  18  30
BRANCH  18  32
HETATM   32  C10 UNL     1      -2.883   0.013   7.380  1.00  0.00     0.016 C 
HETATM   33  C11 UNL     1      -1.354  -0.209   7.389  1.00  0.00     0.012 C 
HETATM   34  C12 UNL     1      -3.073   1.478   7.220  1.00  0.00     0.012 C 
ENDBRANCH  18  32
ENDBRANCH  14  15
BRANCH  14  35
HETATM   35  O6  UNL     1      -4.016  -4.114   8.009  1.00  0.00    -0.348 OA
ATOM     36  H6  UNL     1      -3.411  -4.662   7.524  1.00  0.00     0.219 HD
ENDBRANCH  14  35
ENDBRANCH  12  14
ENDBRANCH  11  12
ENDBRANCH   8  11
ENDBRANCH   6   7
BRANCH   6  37
HETATM   37  C18 UNL     1      -8.644  -0.668   4.132  1.00  0.00     0.289 C 
HETATM   38  O8  UNL     1      -9.519  -1.204   4.852  1.00  0.00    -0.262 OA
BRANCH  37  39
HETATM   39  O9  UNL     1      -8.653   0.697   3.979  1.00  0.00    -0.325 OA
HETATM   40  C19 UNL     1      -9.756   1.453   3.563  1.00  0.00     0.213 C 
ENDBRANCH  37  39
ENDBRANCH   6  37
ENDBRANCH   1   6
BRANCH   1  41
HETATM   41  N6  UNL     1      -8.642  -3.624   2.706  1.00  0.00    -0.318 N 
HETATM   42  C22 UNL     1      -8.485  -4.764   1.899  1.00  0.00     0.187 C 
HETATM   43  N7  UNL     1      -9.448  -5.166   1.174  1.00  0.00    -0.373 N 
HETATM   44  N8  UNL     1      -7.242  -5.476   1.888  1.00  0.00    -0.064 NA
ATOM     45  H72 UNL     1     -10.334  -4.659   1.181  1.00  0.00     0.158 HD
ATOM     46  H71 UNL     1      -9.334  -5.994   0.587  1.00  0.00     0.158 HD
ATOM     47  H6  UNL     1      -9.130  -3.738   3.594  1.00  0.00     0.170 HD
ENDBRANCH   1  41
TORSDOF 18
ENDMDL
MODEL 3
REMARK VINA RESULT: -6.455945084      2.116      4.850
REMARK  18 active torsions:
REMARK  status: ('A' for Active; 'I' for Inactive)
REMARK    1  A    between atoms: O1_2  and  C2_3 
REMARK    2  A    between atoms: C2_3  and  O3_5 
REMARK    3  A    between atoms: O3_5  and  N1_6 
REMARK    4  A    between atoms: C3_7  and  C4_8 
REMARK    5  A    between atoms: C4_8  and  C5_10 
REMARK    6  A    between atoms: C5_10  and  C6_11 
REMARK    7  A    between atoms: C9_14  and  O5_15 
REMARK    8  A    between atoms: C9_14  and  C10_17 
REMARK    9  A    between atoms: C13_20  and  C14_21 
REMARK   10  A    between atoms: C14_21  and  O6_22 
REMARK   11  A    between atoms: C14_21  and  N2_24 
REMARK   12  A    between atoms: N2_24  and  C15_26 
REMARK   13  A    between atoms: C15_26  and  C16_27 
REMARK       I    between atoms: C16_27  and  N3_29 
REMARK   14  A    between atoms: N3_29  and  C17_31 
REMARK   15  A    between atoms: C17_31  and  C18_32 
REMARK   16  A    between atoms: C17_31  and  C20_36 
REMARK   17  A    between atoms: C18_32  and  O9_34 
REMARK   18  A    between atoms: C20_36  and  N6_41 
REMARK       I    between atoms: N6_41  and  C22_43 
ROOT
HETATM    1  C20 UNL     1      -6.354  -1.469   3.194  1.00  0.00     0.126 C 
HETATM    2  N4  UNL     1      -5.186  -1.478   2.613  1.00  0.00    -0.281 N 
ATOM      3  H4  UNL     1      -4.584  -2.298   2.696  1.00  0.00     0.179 HD
HETATM    4  C21 UNL     1      -4.755  -0.370   1.878  1.00  0.00     0.183 C 
HETATM    5  N5  UNL     1      -4.379   0.551   1.269  1.00  0.00    -0.172 NA
ENDROOT
BRANCH   1   6
HETATM    6  C17 UNL     1      -7.230  -0.274   3.074  1.00  0.00     0.253 C 
BRANCH   6   7
HETATM    7  N3  UNL     1      -7.443   0.225   4.435  1.00  0.00    -0.340 N 
HETATM    8  C16 UNL     1      -6.821   1.417   4.852  1.00  0.00     0.236 C 
HETATM    9  O7  UNL     1      -6.094   2.039   4.063  1.00  0.00    -0.272 OA
ATOM     10  H3  UNL     1      -8.043  -0.292   5.080  1.00  0.00     0.163 HD
BRANCH   8  11
HETATM   11  C15 UNL     1      -7.053   1.897   6.230  1.00  0.00     0.224 C 
BRANCH  11  12
HETATM   12  N2  UNL     1      -5.960   1.512   7.065  1.00  0.00    -0.364 N 
ATOM     13  H2  UNL     1      -5.229   2.208   7.214  1.00  0.00     0.161 HD
BRANCH  12  14
HETATM   14  C14 UNL     1      -5.790   0.279   7.698  1.00  0.00     0.135 C 
BRANCH  14  15
HETATM   15  C13 UNL     1      -4.869  -0.799   7.512  1.00  0.00     0.198 C 
HETATM   16  N1  UNL     1      -4.170  -1.207   8.697  1.00  0.00    -0.156 NA
HETATM   17  C3  UNL     1      -3.013  -1.553   7.867  1.00  0.00     0.194 C 
HETATM   18  C9  UNL     1      -3.634  -0.726   6.732  1.00  0.00     0.111 C 
BRANCH  16  19
HETATM   19  O3  UNL     1      -3.919  -0.308   9.664  1.00  0.00    -0.199 OA
BRANCH  19  20
HETATM   20  C2  UNL     1      -4.247  -0.420  10.984  1.00  0.00     0.423 C 
HETATM   21  O2  UNL     1      -3.307  -0.491  11.818  1.00  0.00    -0.228 OA
BRANCH  20  22
HETATM   22  O1  UNL     1      -5.539  -0.461  11.473  1.00  0.00    -0.302 OA
HETATM   23  C1  UNL     1      -5.791  -0.462  12.875  1.00  0.00     0.215 C 
ENDBRANCH  20  22
ENDBRANCH  19  20
ENDBRANCH  16  19
BRANCH  17  24
HETATM   24  C4  UNL     1      -3.011  -3.008   7.610  1.00  0.00     0.150 C 
HETATM   25  O4  UNL     1      -2.157  -3.478   6.890  1.00  0.00    -0.296 OA
BRANCH  24  26
HETATM   26  C5  UNL     1      -4.015  -3.939   8.198  1.00  0.00     0.084 C 
BRANCH  26  27
HETATM   27  C6  UNL     1      -3.723  -5.375   7.811  1.00  0.00    -0.016 C 
HETATM   28  C7  UNL     1      -4.071  -6.340   8.895  1.00  0.00     0.010 C 
HETATM   29  C8  UNL     1      -4.405  -5.727   6.521  1.00  0.00     0.010 C 
ENDBRANCH  26  27
ENDBRANCH  24  26
ENDBRANCH  17  24
BRANCH  18  30
HETATM   30  O5  UNL     1      -3.693  -1.553   5.582  1.00  0.00    -0.385 OA
ATOM     31  H5  UNL     1      -4.595  -1.834   5.475  1.00  0.00     0.210 HD
ENDBRANCH  18  30
BRANCH  18  32
HETATM   32  C10 UNL     1      -2.920   0.503   6.405  1.00  0.00     0.016 C 
HETATM   33  C11 UNL     1      -2.999   0.670   4.871  1.00  0.00     0.012 C 
HETATM   34  C12 UNL     1      -1.477   0.609   6.744  1.00  0.00     0.012 C 
ENDBRANCH  18  32
ENDBRANCH  14  15
BRANCH  14  35
HETATM   35  O6  UNL     1      -6.648   0.073   8.655  1.00  0.00    -0.348 OA
ATOM     36  H6  UNL     1      -7.550   0.055   8.360  1.00  0.00     0.219 HD
ENDBRANCH  14  35
ENDBRANCH  12  14
ENDBRANCH  11  12
ENDBRANCH   8  11
ENDBRANCH   6   7
BRANCH   6  37
HETATM   37  C18 UNL     1      -8.533  -0.590   2.433  1.00  0.00     0.289 C 
HETATM   38  O8  UNL     1      -8.696  -1.653   1.792  1.00  0.00    -0.262 OA
BRANCH  37  39
HETATM   39  O9  UNL     1      -9.581   0.291   2.540  1.00  0.00    -0.325 OA
HETATM   40  C19 UNL     1      -9.717   1.475   1.805  1.00  0.00     0.213 C 
ENDBRANCH  37  39
ENDBRANCH   6  37
ENDBRANCH   1   6
BRANCH   1  41
HETATM   41  N6  UNL     1      -6.803  -2.571   3.936  1.00  0.00    -0.318 N 
HETATM   42  C22 UNL     1      -6.808  -3.899   3.473  1.00  0.00     0.187 C 
HETATM   43  N7  UNL     1      -7.885  -4.413   3.035  1.00  0.00    -0.373 N 
HETATM   44  N8  UNL     1      -5.605  -4.675   3.490  1.00  0.00    -0.064 NA
ATOM     45  H72 UNL     1      -8.742  -3.860   3.022  1.00  0.00     0.158 HD
ATOM     46  H71 UNL     1      -7.890  -5.377   2.699  1.00  0.00     0.158 HD
ATOM     47  H6  UNL     1      -7.149  -2.398   4.879  1.00  0.00     0.170 HD
ENDBRANCH   1  41
TORSDOF 18
ENDMDL
MODEL 4
REMARK VINA RESULT: -6.251622118      2.110      4.960
REMARK  18 active torsions:
REMARK  status: ('A' for Active; 'I' for Inactive)
REMARK    1  A    between atoms: O1_2  and  C2_3 
REMARK    2  A    between atoms: C2_3  and  O3_5 
REMARK    3  A    between atoms: O3_5  and  N1_6 
REMARK    4  A    between atoms: C3_7  and  C4_8 
REMARK    5  A    between atoms: C4_8  and  C5_10 
REMARK    6  A    between atoms: C5_10  and  C6_11 
REMARK    7  A    between atoms: C9_14  and  O5_15 
REMARK    8  A    between atoms: C9_14  and  C10_17 
REMARK    9  A    between atoms: C13_20  and  C14_21 
REMARK   10  A    between atoms: C14_21  and  O6_22 
REMARK   11  A    between atoms: C14_21  and  N2_24 
REMARK   12  A    between atoms: N2_24  and  C15_26 
REMARK   13  A    between atoms: C15_26  and  C16_27 
REMARK       I    between atoms: C16_27  and  N3_29 
REMARK   14  A    between atoms: N3_29  and  C17_31 
REMARK   15  A    between atoms: C17_31  and  C18_32 
REMARK   16  A    between atoms: C17_31  and  C20_36 
REMARK   17  A    between atoms: C18_32  and  O9_34 
REMARK   18  A    between atoms: C20_36  and  N6_41 
REMARK       I    between atoms: N6_41  and  C22_43 
ROOT
HETATM    1  C20 UNL     1      -7.912   2.120   3.270  1.00  0.00     0.126 C 
HETATM    2  N4  UNL     1      -9.108   2.406   3.706  1.00  0.00    -0.281 N 
ATOM      3  H4  UNL     1      -9.243   3.195   4.339  1.00  0.00     0.179 HD
HETATM    4  C21 UNL     1     -10.206   1.637   3.310  1.00  0.00     0.183 C 
HETATM    5  N5  UNL     1     -11.130   0.999   2.994  1.00  0.00    -0.172 NA
ENDROOT
BRANCH   1   6
HETATM    6  C17 UNL     1      -7.717   0.971   2.349  1.00  0.00     0.253 C 
BRANCH   6   7
HETATM    7  N3  UNL     1      -7.139  -0.112   3.149  1.00  0.00    -0.340 N 
HETATM    8  C16 UNL     1      -7.791  -1.358   3.222  1.00  0.00     0.236 C 
HETATM    9  O7  UNL     1      -8.853  -1.532   2.606  1.00  0.00    -0.272 OA
ATOM     10  H3  UNL     1      -6.264   0.037   3.654  1.00  0.00     0.163 HD
BRANCH   8  11
HETATM   11  C15 UNL     1      -7.186  -2.432   4.037  1.00  0.00     0.224 C 
BRANCH  11  12
HETATM   12  N2  UNL     1      -6.589  -1.871   5.207  1.00  0.00    -0.364 N 
ATOM     13  H2  UNL     1      -7.217  -1.419   5.871  1.00  0.00     0.161 HD
BRANCH  12  14
HETATM   14  C14 UNL     1      -5.231  -1.877   5.533  1.00  0.00     0.135 C 
BRANCH  14  15
HETATM   15  C13 UNL     1      -4.458  -1.196   6.526  1.00  0.00     0.198 C 
HETATM   16  N1  UNL     1      -3.663  -2.049   7.362  1.00  0.00    -0.156 NA
HETATM   17  C3  UNL     1      -3.852  -1.104   8.466  1.00  0.00     0.194 C 
HETATM   18  C9  UNL     1      -5.009  -0.477   7.675  1.00  0.00     0.111 C 
BRANCH  16  19
HETATM   19  O3  UNL     1      -4.076  -3.302   7.618  1.00  0.00    -0.199 OA
BRANCH  19  20
HETATM   20  C2  UNL     1      -3.405  -4.455   7.330  1.00  0.00     0.423 C 
HETATM   21  O2  UNL     1      -2.653  -4.459   6.320  1.00  0.00    -0.228 OA
BRANCH  20  22
HETATM   22  O1  UNL     1      -3.491  -5.620   8.068  1.00  0.00    -0.302 OA
HETATM   23  C1  UNL     1      -4.518  -6.573   7.812  1.00  0.00     0.215 C 
ENDBRANCH  20  22
ENDBRANCH  19  20
ENDBRANCH  16  19
BRANCH  17  24
HETATM   24  C4  UNL     1      -2.665  -0.231   8.573  1.00  0.00     0.150 C 
HETATM   25  O4  UNL     1      -2.672   0.679   9.374  1.00  0.00    -0.296 OA
BRANCH  24  26
HETATM   26  C5  UNL     1      -1.443  -0.414   7.740  1.00  0.00     0.084 C 
BRANCH  26  27
HETATM   27  C6  UNL     1      -0.891   0.919   7.277  1.00  0.00    -0.016 C 
HETATM   28  C7  UNL     1       0.588   0.887   7.078  1.00  0.00     0.010 C 
HETATM   29  C8  UNL     1      -1.602   1.388   6.040  1.00  0.00     0.010 C 
ENDBRANCH  26  27
ENDBRANCH  24  26
ENDBRANCH  17  24
BRANCH  18  30
HETATM   30  O5  UNL     1      -4.763   0.916   7.585  1.00  0.00    -0.385 OA
ATOM     31  H5  UNL     1      -5.142   1.224   6.769  1.00  0.00     0.210 HD
ENDBRANCH  18  30
BRANCH  18  32
HETATM   32  C10 UNL     1      -6.335  -0.696   8.245  1.00  0.00     0.016 C 
HETATM   33  C11 UNL     1      -7.263   0.380   7.640  1.00  0.00     0.012 C 
HETATM   34  C12 UNL     1      -6.509  -0.595   9.717  1.00  0.00     0.012 C 
ENDBRANCH  18  32
ENDBRANCH  14  15
BRANCH  14  35
HETATM   35  O6  UNL     1      -4.527  -2.669   4.777  1.00  0.00    -0.348 OA
ATOM     36  H6  UNL     1      -4.976  -3.473   4.547  1.00  0.00     0.219 HD
ENDBRANCH  14  35
ENDBRANCH  12  14
ENDBRANCH  11  12
ENDBRANCH   8  11
ENDBRANCH   6   7
BRANCH   6  37
HETATM   37  C18 UNL     1      -6.820   1.302   1.211  1.00  0.00     0.289 C 
HETATM   38  O8  UNL     1      -6.921   2.395   0.607  1.00  0.00    -0.262 OA
BRANCH  37  39
HETATM   39  O9  UNL     1      -5.862   0.405   0.809  1.00  0.00    -0.325 OA
HETATM   40  C19 UNL     1      -4.483   0.648   0.805  1.00  0.00     0.213 C 
ENDBRANCH  37  39
ENDBRANCH   6  37
ENDBRANCH   1   6
BRANCH   1  41
HETATM   41  N6  UNL     1      -6.800   2.880   3.657  1.00  0.00    -0.318 N 
HETATM   42  C22 UNL     1      -5.988   2.603   4.771  1.00  0.00     0.187 C 
HETATM   43  N7  UNL     1      -6.154   3.249   5.853  1.00  0.00    -0.373 N 
HETATM   44  N8  UNL     1      -4.975   1.593   4.694  1.00  0.00    -0.064 NA
ATOM     45  H72 UNL     1      -6.876   3.968   5.909  1.00  0.00     0.158 HD
ATOM     46  H71 UNL     1      -5.565   3.049   6.662  1.00  0.00     0.158 HD
ATOM     47  H6  UNL     1      -6.562   3.693   3.089  1.00  0.00     0.170 HD
ENDBRANCH   1  41
TORSDOF 18
ENDMDL
MODEL 5
REMARK VINA RESULT: -6.239846018      2.195      4.633
REMARK  18 active torsions:
REMARK  status: ('A' for Active; 'I' for Inactive)
REMARK    1  A    between atoms: O1_2  and  C2_3 
REMARK    2  A    between atoms: C2_3  and  O3_5 
REMARK    3  A    between atoms: O3_5  and  N1_6 
REMARK    4  A    between atoms: C3_7  and  C4_8 
REMARK    5  A    between atoms: C4_8  and  C5_10 
REMARK    6  A    between atoms: C5_10  and  C6_11 
REMARK    7  A    between atoms: C9_14  and  O5_15 
REMARK    8  A    between atoms: C9_14  and  C10_17 
REMARK    9  A    between atoms: C13_20  and  C14_21 
REMARK   10  A    between atoms: C14_21  and  O6_22 
REMARK   11  A    between atoms: C14_21  and  N2_24 
REMARK   12  A    between atoms: N2_24  and  C15_26 
REMARK   13  A    between atoms: C15_26  and  C16_27 
REMARK       I    between atoms: C16_27  and  N3_29 
REMARK   14  A    between atoms: N3_29  and  C17_31 
REMARK   15  A    between atoms: C17_31  and  C18_32 
REMARK   16  A    between atoms: C17_31  and  C20_36 
REMARK   17  A    between atoms: C18_32  and  O9_34 
REMARK   18  A    between atoms: C20_36  and  N6_41 
REMARK       I    between atoms: N6_41  and  C22_43 
ROOT
HETATM    1  C20 UNL     1      -5.951  -0.429   2.421  1.00  0.00     0.126 C 
HETATM    2  N4  UNL     1      -4.825  -1.070   2.272  1.00  0.00    -0.281 N 
ATOM      3  H4  UNL     1      -4.799  -2.083   2.384  1.00  0.00     0.179 HD
HETATM    4  C21 UNL     1      -3.654  -0.375   1.958  1.00  0.00     0.183 C 
HETATM    5  N5  UNL     1      -2.667   0.194   1.705  1.00  0.00    -0.172 NA
ENDROOT
BRANCH   1   6
HETATM    6  C17 UNL     1      -5.988   1.047   2.258  1.00  0.00     0.253 C 
BRANCH   6   7
HETATM    7  N3  UNL     1      -6.419   1.599   3.545  1.00  0.00    -0.340 N 
HETATM    8  C16 UNL     1      -5.489   2.250   4.378  1.00  0.00     0.236 C 
HETATM    9  O7  UNL     1      -4.308   2.353   4.016  1.00  0.00    -0.272 OA
ATOM     10  H3  UNL     1      -7.393   1.510   3.838  1.00  0.00     0.163 HD
BRANCH   8  11
HETATM   11  C15 UNL     1      -5.951   2.796   5.672  1.00  0.00     0.224 C 
BRANCH  11  12
HETATM   12  N2  UNL     1      -5.683   1.857   6.714  1.00  0.00    -0.364 N 
ATOM     13  H2  UNL     1      -6.479   1.553   7.274  1.00  0.00     0.161 HD
BRANCH  12  14
HETATM   14  C14 UNL     1      -4.440   1.312   7.044  1.00  0.00     0.135 C 
BRANCH  14  15
HETATM   15  C13 UNL     1      -3.998  -0.018   7.330  1.00  0.00     0.198 C 
HETATM   16  N1  UNL     1      -4.935  -1.051   6.993  1.00  0.00    -0.156 NA
HETATM   17  C3  UNL     1      -4.436  -1.841   8.122  1.00  0.00     0.194 C 
HETATM   18  C9  UNL     1      -3.782  -0.564   8.670  1.00  0.00     0.111 C 
BRANCH  16  19
HETATM   19  O3  UNL     1      -6.253  -0.791   7.029  1.00  0.00    -0.199 OA
BRANCH  19  20
HETATM   20  C2  UNL     1      -7.156  -1.024   6.032  1.00  0.00     0.423 C 
HETATM   21  O2  UNL     1      -7.185  -2.176   5.525  1.00  0.00    -0.228 OA
BRANCH  20  22
HETATM   22  O1  UNL     1      -8.042  -0.085   5.539  1.00  0.00    -0.302 OA
HETATM   23  C1  UNL     1      -9.423  -0.397   5.378  1.00  0.00     0.215 C 
ENDBRANCH  20  22
ENDBRANCH  19  20
ENDBRANCH  16  19
BRANCH  17  24
HETATM   24  C4  UNL     1      -3.465  -2.841   7.630  1.00  0.00     0.150 C 
HETATM   25  O4  UNL     1      -2.840  -2.608   6.618  1.00  0.00    -0.296 OA
BRANCH  24  26
HETATM   26  C5  UNL     1      -3.212  -4.136   8.322  1.00  0.00     0.084 C 
BRANCH  26  27
HETATM   27  C6  UNL     1      -4.237  -5.179   7.925  1.00  0.00    -0.016 C 
HETATM   28  C7  UNL     1      -4.164  -5.529   6.477  1.00  0.00     0.010 C 
HETATM   29  C8  UNL     1      -4.116  -6.399   8.793  1.00  0.00     0.010 C 
ENDBRANCH  26  27
ENDBRANCH  24  26
ENDBRANCH  17  24
BRANCH  18  30
HETATM   30  O5  UNL     1      -2.412  -0.849   8.902  1.00  0.00    -0.385 OA
ATOM     31  H5  UNL     1      -2.366  -1.660   9.396  1.00  0.00     0.210 HD
ENDBRANCH  18  30
BRANCH  18  32
HETATM   32  C10 UNL     1      -4.380  -0.043   9.895  1.00  0.00     0.016 C 
HETATM   33  C11 UNL     1      -3.373  -0.315  11.033  1.00  0.00     0.012 C 
HETATM   34  C12 UNL     1      -5.673  -0.608  10.360  1.00  0.00     0.012 C 
ENDBRANCH  18  32
ENDBRANCH  14  15
BRANCH  14  35
HETATM   35  O6  UNL     1      -3.491   2.200   7.100  1.00  0.00    -0.348 OA
ATOM     36  H6  UNL     1      -2.927   2.108   7.858  1.00  0.00     0.219 HD
ENDBRANCH  14  35
ENDBRANCH  12  14
ENDBRANCH  11  12
ENDBRANCH   8  11
ENDBRANCH   6   7
BRANCH   6  37
HETATM   37  C18 UNL     1      -6.918   1.475   1.180  1.00  0.00     0.289 C 
HETATM   38  O8  UNL     1      -8.129   1.157   1.209  1.00  0.00    -0.262 OA
BRANCH  37  39
HETATM   39  O9  UNL     1      -6.453   2.231   0.133  1.00  0.00    -0.325 OA
HETATM   40  C19 UNL     1      -5.111   2.566  -0.086  1.00  0.00     0.213 C 
ENDBRANCH  37  39
ENDBRANCH   6  37
ENDBRANCH   1   6
BRANCH   1  41
HETATM   41  N6  UNL     1      -7.136  -1.110   2.736  1.00  0.00    -0.318 N 
HETATM   42  C22 UNL     1      -7.609  -2.247   2.058  1.00  0.00     0.187 C 
HETATM   43  N7  UNL     1      -8.523  -2.129   1.182  1.00  0.00    -0.373 N 
HETATM   44  N8  UNL     1      -7.066  -3.540   2.350  1.00  0.00    -0.064 NA
ATOM     45  H72 UNL     1      -8.909  -1.208   0.974  1.00  0.00     0.158 HD
ATOM     46  H71 UNL     1      -8.867  -2.954   0.690  1.00  0.00     0.158 HD
ATOM     47  H6  UNL     1      -7.693  -0.755   3.512  1.00  0.00     0.170 HD
ENDBRANCH   1  41
TORSDOF 18
ENDMDL
