MODEL 1
REMARK VINA RESULT: -8.641020675      0.000      0.000
REMARK  16 active torsions:
REMARK  status: ('A' for Active; 'I' for Inactive)
REMARK    1  A    between atoms: O1_2  and  C2_3 
REMARK    2  A    between atoms: C5_6  and  C6_7 
REMARK    3  A    between atoms: C6_7  and  O2_8 
REMARK    4  A    between atoms: O2_8  and  C7_9 
REMARK    5  A    between atoms: C7_9  and  C8_10 
REMARK    6  A    between atoms: C9_12  and  O4_13 
REMARK    7  A    between atoms: O4_13  and  C10_14 
REMARK    8  A    between atoms: C17_21  and  O5_22 
REMARK    9  A    between atoms: C18_24  and  O6_25 
REMARK   10  A    between atoms: O6_25  and  C19_26 
REMARK   11  A    between atoms: C20_28  and  C21_29 
REMARK   12  A    between atoms: C21_29  and  O8_30 
REMARK   13  A    between atoms: C22_32  and  O9_33 
REMARK   14  A    between atoms: C23_35  and  O10_36 
REMARK   15  A    between atoms: C24_38  and  O11_39 
REMARK   16  A    between atoms: C25_41  and  O12_42 
ROOT
HETATM    1  C8  UNL     1      -4.115  -1.373   7.155  1.00  0.00     0.179 C 
HETATM    2  O3  UNL     1      -4.184  -0.401   8.161  1.00  0.00    -0.348 OA
HETATM    3  C9  UNL     1      -5.518  -0.368   8.568  1.00  0.00     0.292 C 
HETATM    4  C17 UNL     1      -6.281   0.304   7.464  1.00  0.00     0.205 C 
HETATM    5  C18 UNL     1      -6.265  -0.611   6.228  1.00  0.00     0.189 C 
HETATM    6  C25 UNL     1      -4.839  -0.895   5.887  1.00  0.00     0.181 C 
ENDROOT
BRANCH   5   7
HETATM    7  O6  UNL     1      -6.965   0.069   5.266  1.00  0.00    -0.348 OA
BRANCH   7   8
HETATM    8  C19 UNL     1      -7.724  -0.688   4.414  1.00  0.00     0.292 C 
HETATM    9  O7  UNL     1      -7.480  -1.995   4.693  1.00  0.00    -0.348 OA
HETATM   10  C20 UNL     1      -7.647  -2.928   3.734  1.00  0.00     0.179 C 
HETATM   11  C22 UNL     1      -8.310  -2.528   2.481  1.00  0.00     0.180 C 
HETATM   12  C23 UNL     1      -8.006  -1.160   1.963  1.00  0.00     0.183 C 
HETATM   13  C24 UNL     1      -7.415  -0.250   3.012  1.00  0.00     0.204 C 
BRANCH  10  14
HETATM   14  C21 UNL     1      -6.300  -3.628   3.541  1.00  0.00     0.198 C 
BRANCH  14  15
HETATM   15  O8  UNL     1      -5.372  -2.848   2.896  1.00  0.00    -0.398 OA
ATOM     16  H8  UNL     1      -4.568  -2.737   3.390  1.00  0.00     0.209 HD
ENDBRANCH  14  15
ENDBRANCH  10  14
BRANCH  11  17
HETATM   17  O9  UNL     1      -8.062  -3.441   1.451  1.00  0.00    -0.390 OA
ATOM     18  H9  UNL     1      -8.442  -3.154   0.629  1.00  0.00     0.210 HD
ENDBRANCH  11  17
BRANCH  12  19
HETATM   19  O10 UNL     1      -9.168  -0.580   1.398  1.00  0.00    -0.390 OA
ATOM     20  H10 UNL     1      -9.410  -1.038   0.602  1.00  0.00     0.210 HD
ENDBRANCH  12  19
BRANCH  13  21
HETATM   21  O11 UNL     1      -6.044  -0.050   2.811  1.00  0.00    -0.388 OA
ATOM     22  H11 UNL     1      -5.645  -0.767   2.332  1.00  0.00     0.210 HD
ENDBRANCH  13  21
ENDBRANCH   7   8
ENDBRANCH   5   7
BRANCH   4  23
HETATM   23  O5  UNL     1      -5.770   1.505   7.061  1.00  0.00    -0.388 OA
ATOM     24  H5  UNL     1      -4.845   1.494   6.846  1.00  0.00     0.210 HD
ENDBRANCH   4  23
BRANCH   6  25
HETATM   25  O12 UNL     1      -4.144   0.225   5.450  1.00  0.00    -0.390 OA
ATOM     26  H12 UNL     1      -4.438   0.384   4.561  1.00  0.00     0.210 HD
ENDBRANCH   6  25
BRANCH   3  27
HETATM   27  O4  UNL     1      -5.736   0.131   9.816  1.00  0.00    -0.349 OA
BRANCH  27  28
HETATM   28  C10 UNL     1      -6.035  -0.828  10.795  1.00  0.00     0.154 A 
HETATM   29  C11 UNL     1      -7.476  -0.791  11.099  1.00  0.00     0.005 A 
HETATM   30  C12 UNL     1      -8.012  -0.557  12.269  1.00  0.00    -0.002 A 
HETATM   31  C13 UNL     1      -7.143  -0.308  13.382  1.00  0.00    -0.004 A 
HETATM   32  C14 UNL     1      -5.871  -0.318  13.213  1.00  0.00    -0.020 A 
HETATM   33  C15 UNL     1      -5.184  -0.566  11.962  1.00  0.00     0.037 A 
HETATM   34  C16 UNL     1      -4.227   0.601  11.636  1.00  0.00     0.017 C 
ENDBRANCH  27  28
ENDBRANCH   3  27
BRANCH   1  35
HETATM   35  C7  UNL     1      -2.731  -1.822   6.872  1.00  0.00     0.202 C 
BRANCH  35  36
HETATM   36  O2  UNL     1      -2.585  -3.161   7.134  1.00  0.00    -0.384 OA
BRANCH  36  37
HETATM   37  C6  UNL     1      -3.584  -3.964   6.663  1.00  0.00     0.206 C 
BRANCH  37  38
HETATM   38  C5  UNL     1      -3.774  -5.084   7.603  1.00  0.00    -0.034 A 
HETATM   39  C4  UNL     1      -4.526  -6.176   7.274  1.00  0.00     0.012 A 
HETATM   40  C3  UNL     1      -4.710  -7.234   8.147  1.00  0.00     0.037 A 
HETATM   41  C2  UNL     1      -4.100  -7.156   9.389  1.00  0.00     0.068 A 
HETATM   42  C27 UNL     1      -3.336  -6.062   9.744  1.00  0.00     0.037 A 
HETATM   43  C26 UNL     1      -3.177  -5.025   8.839  1.00  0.00     0.012 A 
BRANCH  41  44
HETATM   44  O1  UNL     1      -4.259  -8.191  10.289  1.00  0.00    -0.356 OA
HETATM   45  C1  UNL     1      -3.959  -7.970  11.645  1.00  0.00     0.210 C 
ENDBRANCH  41  44
ENDBRANCH  37  38
ENDBRANCH  36  37
ENDBRANCH  35  36
ENDBRANCH   1  35
TORSDOF 16
ENDMDL
MODEL 2
REMARK VINA RESULT: -8.610244138      0.860      1.362
REMARK  16 active torsions:
REMARK  status: ('A' for Active; 'I' for Inactive)
REMARK    1  A    between atoms: O1_2  and  C2_3 
REMARK    2  A    between atoms: C5_6  and  C6_7 
REMARK    3  A    between atoms: C6_7  and  O2_8 
REMARK    4  A    between atoms: O2_8  and  C7_9 
REMARK    5  A    between atoms: C7_9  and  C8_10 
REMARK    6  A    between atoms: C9_12  and  O4_13 
REMARK    7  A    between atoms: O4_13  and  C10_14 
REMARK    8  A    between atoms: C17_21  and  O5_22 
REMARK    9  A    between atoms: C18_24  and  O6_25 
REMARK   10  A    between atoms: O6_25  and  C19_26 
REMARK   11  A    between atoms: C20_28  and  C21_29 
REMARK   12  A    between atoms: C21_29  and  O8_30 
REMARK   13  A    between atoms: C22_32  and  O9_33 
REMARK   14  A    between atoms: C23_35  and  O10_36 
REMARK   15  A    between atoms: C24_38  and  O11_39 
REMARK   16  A    between atoms: C25_41  and  O12_42 
ROOT
HETATM    1  C8  UNL     1      -4.116  -1.834   7.277  1.00  0.00     0.179 C 
HETATM    2  O3  UNL     1      -4.505  -1.236   8.482  1.00  0.00    -0.348 OA
HETATM    3  C9  UNL     1      -5.899  -1.286   8.500  1.00  0.00     0.292 C 
HETATM    4  C17 UNL     1      -6.372  -0.266   7.506  1.00  0.00     0.205 C 
HETATM    5  C18 UNL     1      -5.974  -0.733   6.095  1.00  0.00     0.189 C 
HETATM    6  C25 UNL     1      -4.496  -0.946   6.082  1.00  0.00     0.181 C 
ENDROOT
BRANCH   5   7
HETATM    7  O6  UNL     1      -6.425   0.246   5.250  1.00  0.00    -0.348 OA
BRANCH   7   8
HETATM    8  C19 UNL     1      -7.322  -0.141   4.290  1.00  0.00     0.292 C 
HETATM    9  O7  UNL     1      -7.611  -1.452   4.499  1.00  0.00    -0.348 OA
HETATM   10  C20 UNL     1      -8.017  -2.222   3.469  1.00  0.00     0.179 C 
HETATM   11  C22 UNL     1      -8.355  -1.561   2.197  1.00  0.00     0.180 C 
HETATM   12  C23 UNL     1      -7.515  -0.392   1.799  1.00  0.00     0.183 C 
HETATM   13  C24 UNL     1      -6.735   0.194   2.950  1.00  0.00     0.204 C 
BRANCH  10  14
HETATM   14  C21 UNL     1      -7.014  -3.371   3.338  1.00  0.00     0.198 C 
BRANCH  14  15
HETATM   15  O8  UNL     1      -7.007  -4.209   4.425  1.00  0.00    -0.398 OA
ATOM     16  H8  UNL     1      -7.076  -3.749   5.253  1.00  0.00     0.209 HD
ENDBRANCH  14  15
ENDBRANCH  10  14
BRANCH  11  17
HETATM   17  O9  UNL     1      -8.363  -2.466   1.131  1.00  0.00    -0.390 OA
ATOM     18  H9  UNL     1      -8.031  -3.317   1.391  1.00  0.00     0.210 HD
ENDBRANCH  11  17
BRANCH  12  19
HETATM   19  O10 UNL     1      -8.315   0.600   1.183  1.00  0.00    -0.390 OA
ATOM     20  H10 UNL     1      -9.224   0.497   1.441  1.00  0.00     0.210 HD
ENDBRANCH  12  19
BRANCH  13  21
HETATM   21  O11 UNL     1      -5.376  -0.131   2.874  1.00  0.00    -0.388 OA
ATOM     22  H11 UNL     1      -4.952  -0.100   3.724  1.00  0.00     0.210 HD
ENDBRANCH  13  21
ENDBRANCH   7   8
ENDBRANCH   5   7
BRANCH   4  23
HETATM   23  O5  UNL     1      -5.836   0.981   7.663  1.00  0.00    -0.388 OA
ATOM     24  H5  UNL     1      -5.131   1.192   7.063  1.00  0.00     0.210 HD
ENDBRANCH   4  23
BRANCH   6  25
HETATM   25  O12 UNL     1      -3.771   0.228   6.233  1.00  0.00    -0.390 OA
ATOM     26  H12 UNL     1      -3.276   0.128   7.038  1.00  0.00     0.210 HD
ENDBRANCH   6  25
BRANCH   3  27
HETATM   27  O4  UNL     1      -6.471  -1.208   9.733  1.00  0.00    -0.349 OA
BRANCH  27  28
HETATM   28  C10 UNL     1      -5.989  -0.173  10.547  1.00  0.00     0.154 A 
HETATM   29  C11 UNL     1      -4.614  -0.480  10.977  1.00  0.00     0.005 A 
HETATM   30  C12 UNL     1      -4.199  -0.600  12.211  1.00  0.00    -0.002 A 
HETATM   31  C13 UNL     1      -5.148  -0.422  13.272  1.00  0.00    -0.004 A 
HETATM   32  C14 UNL     1      -6.372  -0.153  12.994  1.00  0.00    -0.020 A 
HETATM   33  C15 UNL     1      -6.926  -0.001  11.664  1.00  0.00     0.037 A 
HETATM   34  C16 UNL     1      -8.123  -0.957  11.470  1.00  0.00     0.017 C 
ENDBRANCH  27  28
ENDBRANCH   3  27
BRANCH   1  35
HETATM   35  C7  UNL     1      -2.684  -2.219   7.253  1.00  0.00     0.202 C 
BRANCH  35  36
HETATM   36  O2  UNL     1      -2.542  -3.576   7.101  1.00  0.00    -0.384 OA
BRANCH  36  37
HETATM   37  C6  UNL     1      -3.691  -4.258   6.815  1.00  0.00     0.206 C 
BRANCH  37  38
HETATM   38  C5  UNL     1      -3.833  -5.368   7.774  1.00  0.00    -0.034 A 
HETATM   39  C4  UNL     1      -4.509  -6.511   7.453  1.00  0.00     0.012 A 
HETATM   40  C3  UNL     1      -4.648  -7.561   8.344  1.00  0.00     0.037 A 
HETATM   41  C2  UNL     1      -4.071  -7.420   9.597  1.00  0.00     0.068 A 
HETATM   42  C27 UNL     1      -3.384  -6.274   9.945  1.00  0.00     0.037 A 
HETATM   43  C26 UNL     1      -3.269  -5.248   9.022  1.00  0.00     0.012 A 
BRANCH  41  44
HETATM   44  O1  UNL     1      -4.187  -8.445  10.515  1.00  0.00    -0.356 OA
HETATM   45  C1  UNL     1      -3.909  -8.184  11.869  1.00  0.00     0.210 C 
ENDBRANCH  41  44
ENDBRANCH  37  38
ENDBRANCH  36  37
ENDBRANCH  35  36
ENDBRANCH   1  35
TORSDOF 16
ENDMDL
MODEL 3
REMARK VINA RESULT: -8.565666473      2.944      4.541
REMARK  16 active torsions:
REMARK  status: ('A' for Active; 'I' for Inactive)
REMARK    1  A    between atoms: O1_2  and  C2_3 
REMARK    2  A    between atoms: C5_6  and  C6_7 
REMARK    3  A    between atoms: C6_7  and  O2_8 
REMARK    4  A    between atoms: O2_8  and  C7_9 
REMARK    5  A    between atoms: C7_9  and  C8_10 
REMARK    6  A    between atoms: C9_12  and  O4_13 
REMARK    7  A    between atoms: O4_13  and  C10_14 
REMARK    8  A    between atoms: C17_21  and  O5_22 
REMARK    9  A    between atoms: C18_24  and  O6_25 
REMARK   10  A    between atoms: O6_25  and  C19_26 
REMARK   11  A    between atoms: C20_28  and  C21_29 
REMARK   12  A    between atoms: C21_29  and  O8_30 
REMARK   13  A    between atoms: C22_32  and  O9_33 
REMARK   14  A    between atoms: C23_35  and  O10_36 
REMARK   15  A    between atoms: C24_38  and  O11_39 
REMARK   16  A    between atoms: C25_41  and  O12_42 
ROOT
HETATM    1  C8  UNL     1      -4.034  -0.086   7.339  1.00  0.00     0.179 C 
HETATM    2  O3  UNL     1      -4.719   0.147   8.538  1.00  0.00    -0.348 OA
HETATM    3  C9  UNL     1      -5.683  -0.858   8.628  1.00  0.00     0.292 C 
HETATM    4  C17 UNL     1      -6.741  -0.521   7.620  1.00  0.00     0.205 C 
HETATM    5  C18 UNL     1      -6.143  -0.669   6.210  1.00  0.00     0.189 C 
HETATM    6  C25 UNL     1      -4.936   0.208   6.131  1.00  0.00     0.181 C 
ENDROOT
BRANCH   5   7
HETATM    7  O6  UNL     1      -7.157  -0.336   5.351  1.00  0.00    -0.348 OA
BRANCH   7   8
HETATM    8  C19 UNL     1      -7.653  -1.347   4.572  1.00  0.00     0.292 C 
HETATM    9  O7  UNL     1      -7.048  -2.501   4.957  1.00  0.00    -0.348 OA
HETATM   10  C20 UNL     1      -6.925  -3.519   4.081  1.00  0.00     0.179 C 
HETATM   11  C22 UNL     1      -7.655  -3.431   2.805  1.00  0.00     0.180 C 
HETATM   12  C23 UNL     1      -7.750  -2.082   2.172  1.00  0.00     0.183 C 
HETATM   13  C24 UNL     1      -7.462  -0.956   3.135  1.00  0.00     0.204 C 
BRANCH  10  14
HETATM   14  C21 UNL     1      -5.430  -3.815   3.935  1.00  0.00     0.198 C 
BRANCH  14  15
HETATM   15  O8  UNL     1      -5.170  -5.102   3.536  1.00  0.00    -0.398 OA
ATOM     16  H8  UNL     1      -4.382  -5.179   3.012  1.00  0.00     0.209 HD
ENDBRANCH  14  15
ENDBRANCH  10  14
BRANCH  11  17
HETATM   17  O9  UNL     1      -7.140  -4.316   1.853  1.00  0.00    -0.390 OA
ATOM     18  H9  UNL     1      -7.689  -4.359   1.080  1.00  0.00     0.210 HD
ENDBRANCH  11  17
BRANCH  12  19
HETATM   19  O10 UNL     1      -9.021  -1.910   1.571  1.00  0.00    -0.390 OA
ATOM     20  H10 UNL     1      -9.294  -1.002   1.632  1.00  0.00     0.210 HD
ENDBRANCH  12  19
BRANCH  13  21
HETATM   21  O11 UNL     1      -6.203  -0.388   2.906  1.00  0.00    -0.388 OA
ATOM     22  H11 UNL     1      -5.770  -0.771   2.153  1.00  0.00     0.210 HD
ENDBRANCH  13  21
ENDBRANCH   7   8
ENDBRANCH   5   7
BRANCH   4  23
HETATM   23  O5  UNL     1      -7.227   0.754   7.700  1.00  0.00    -0.388 OA
ATOM     24  H5  UNL     1      -6.569   1.436   7.647  1.00  0.00     0.210 HD
ENDBRANCH   4  23
BRANCH   6  25
HETATM   25  O12 UNL     1      -5.235   1.562   6.198  1.00  0.00    -0.390 OA
ATOM     26  H12 UNL     1      -5.210   1.880   5.304  1.00  0.00     0.210 HD
ENDBRANCH   6  25
BRANCH   3  27
HETATM   27  O4  UNL     1      -6.135  -1.122   9.884  1.00  0.00    -0.349 OA
BRANCH  27  28
HETATM   28  C10 UNL     1      -5.864  -0.128  10.835  1.00  0.00     0.154 A 
HETATM   29  C11 UNL     1      -4.599  -0.434  11.525  1.00  0.00     0.005 A 
HETATM   30  C12 UNL     1      -4.445  -0.618  12.811  1.00  0.00    -0.002 A 
HETATM   31  C13 UNL     1      -5.598  -0.519  13.658  1.00  0.00    -0.004 A 
HETATM   32  C14 UNL     1      -6.745  -0.257  13.146  1.00  0.00    -0.020 A 
HETATM   33  C15 UNL     1      -7.017  -0.038  11.740  1.00  0.00     0.037 A 
HETATM   34  C16 UNL     1      -8.118  -1.003  11.250  1.00  0.00     0.017 C 
ENDBRANCH  27  28
ENDBRANCH   3  27
BRANCH   1  35
HETATM   35  C7  UNL     1      -2.740   0.633   7.258  1.00  0.00     0.202 C 
BRANCH  35  36
HETATM   36  O2  UNL     1      -2.835   1.882   7.818  1.00  0.00    -0.384 OA
BRANCH  36  37
HETATM   37  C6  UNL     1      -1.645   2.492   8.098  1.00  0.00     0.206 C 
BRANCH  37  38
HETATM   38  C5  UNL     1      -1.110   1.933   9.352  1.00  0.00    -0.034 A 
HETATM   39  C4  UNL     1      -1.865   1.874  10.490  1.00  0.00     0.012 A 
HETATM   40  C3  UNL     1      -1.374   1.349  11.673  1.00  0.00     0.037 A 
HETATM   41  C2  UNL     1      -0.071   0.875  11.675  1.00  0.00     0.068 A 
HETATM   42  C27 UNL     1       0.711   0.924  10.537  1.00  0.00     0.037 A 
HETATM   43  C26 UNL     1       0.179   1.457   9.375  1.00  0.00     0.012 A 
BRANCH  41  44
HETATM   44  O1  UNL     1       0.455   0.343  12.835  1.00  0.00    -0.356 OA
HETATM   45  C1  UNL     1       1.853   0.261  12.976  1.00  0.00     0.210 C 
ENDBRANCH  41  44
ENDBRANCH  37  38
ENDBRANCH  36  37
ENDBRANCH  35  36
ENDBRANCH   1  35
TORSDOF 16
ENDMDL
MODEL 4
REMARK VINA RESULT: -8.325320789      0.784      1.791
REMARK  16 active torsions:
REMARK  status: ('A' for Active; 'I' for Inactive)
REMARK    1  A    between atoms: O1_2  and  C2_3 
REMARK    2  A    between atoms: C5_6  and  C6_7 
REMARK    3  A    between atoms: C6_7  and  O2_8 
REMARK    4  A    between atoms: O2_8  and  C7_9 
REMARK    5  A    between atoms: C7_9  and  C8_10 
REMARK    6  A    between atoms: C9_12  and  O4_13 
REMARK    7  A    between atoms: O4_13  and  C10_14 
REMARK    8  A    between atoms: C17_21  and  O5_22 
REMARK    9  A    between atoms: C18_24  and  O6_25 
REMARK   10  A    between atoms: O6_25  and  C19_26 
REMARK   11  A    between atoms: C20_28  and  C21_29 
REMARK   12  A    between atoms: C21_29  and  O8_30 
REMARK   13  A    between atoms: C22_32  and  O9_33 
REMARK   14  A    between atoms: C23_35  and  O10_36 
REMARK   15  A    between atoms: C24_38  and  O11_39 
REMARK   16  A    between atoms: C25_41  and  O12_42 
ROOT
HETATM    1  C8  UNL     1      -4.193  -1.459   7.252  1.00  0.00     0.179 C 
HETATM    2  O3  UNL     1      -4.297  -0.463   8.231  1.00  0.00    -0.348 OA
HETATM    3  C9  UNL     1      -5.635  -0.455   8.626  1.00  0.00     0.292 C 
HETATM    4  C17 UNL     1      -6.406   0.166   7.498  1.00  0.00     0.205 C 
HETATM    5  C18 UNL     1      -6.353  -0.782   6.286  1.00  0.00     0.189 C 
HETATM    6  C25 UNL     1      -4.917  -1.036   5.965  1.00  0.00     0.181 C 
ENDROOT
BRANCH   5   7
HETATM    7  O6  UNL     1      -7.062  -0.147   5.301  1.00  0.00    -0.348 OA
BRANCH   7   8
HETATM    8  C19 UNL     1      -6.928  -0.648   4.033  1.00  0.00     0.292 C 
HETATM    9  O7  UNL     1      -7.034   0.393   3.165  1.00  0.00    -0.348 OA
HETATM   10  C20 UNL     1      -7.460   0.173   1.904  1.00  0.00     0.179 C 
HETATM   11  C22 UNL     1      -7.577  -1.220   1.442  1.00  0.00     0.180 C 
HETATM   12  C23 UNL     1      -8.056  -2.225   2.437  1.00  0.00     0.183 C 
HETATM   13  C24 UNL     1      -7.936  -1.746   3.863  1.00  0.00     0.204 C 
BRANCH  10  14
HETATM   14  C21 UNL     1      -8.720   1.016   1.698  1.00  0.00     0.198 C 
BRANCH  14  15
HETATM   15  O8  UNL     1      -9.850   0.439   2.222  1.00  0.00    -0.398 OA
ATOM     16  H8  UNL     1     -10.319  -0.102   1.597  1.00  0.00     0.209 HD
ENDBRANCH  14  15
ENDBRANCH  10  14
BRANCH  11  17
HETATM   17  O9  UNL     1      -8.387  -1.321   0.307  1.00  0.00    -0.390 OA
ATOM     18  H9  UNL     1      -9.281  -1.053   0.489  1.00  0.00     0.210 HD
ENDBRANCH  11  17
BRANCH  12  19
HETATM   19  O10 UNL     1      -7.372  -3.452   2.264  1.00  0.00    -0.390 OA
ATOM     20  H10 UNL     1      -7.929  -4.080   1.820  1.00  0.00     0.210 HD
ENDBRANCH  12  19
BRANCH  13  21
HETATM   21  O11 UNL     1      -9.183  -1.406   4.402  1.00  0.00    -0.388 OA
ATOM     22  H11 UNL     1      -9.648  -2.165   4.734  1.00  0.00     0.210 HD
ENDBRANCH  13  21
ENDBRANCH   7   8
ENDBRANCH   5   7
BRANCH   4  23
HETATM   23  O5  UNL     1      -5.924   1.369   7.066  1.00  0.00    -0.388 OA
ATOM     24  H5  UNL     1      -6.433   1.780   6.377  1.00  0.00     0.210 HD
ENDBRANCH   4  23
BRANCH   6  25
HETATM   25  O12 UNL     1      -4.249   0.090   5.504  1.00  0.00    -0.390 OA
ATOM     26  H12 UNL     1      -3.879  -0.151   4.664  1.00  0.00     0.210 HD
ENDBRANCH   6  25
BRANCH   3  27
HETATM   27  O4  UNL     1      -5.877   0.071   9.858  1.00  0.00    -0.349 OA
BRANCH  27  28
HETATM   28  C10 UNL     1      -6.155  -0.869  10.861  1.00  0.00     0.154 A 
HETATM   29  C11 UNL     1      -7.580  -0.793  11.229  1.00  0.00     0.005 A 
HETATM   30  C12 UNL     1      -8.057  -0.533  12.419  1.00  0.00    -0.002 A 
HETATM   31  C13 UNL     1      -7.133  -0.293  13.489  1.00  0.00    -0.004 A 
HETATM   32  C14 UNL     1      -5.870  -0.336  13.262  1.00  0.00    -0.020 A 
HETATM   33  C15 UNL     1      -5.246  -0.614  11.985  1.00  0.00     0.037 A 
HETATM   34  C16 UNL     1      -4.277   0.525  11.602  1.00  0.00     0.017 C 
ENDBRANCH  27  28
ENDBRANCH   3  27
BRANCH   1  35
HETATM   35  C7  UNL     1      -2.794  -1.878   6.994  1.00  0.00     0.202 C 
BRANCH  35  36
HETATM   36  O2  UNL     1      -2.613  -3.204   7.297  1.00  0.00    -0.384 OA
BRANCH  36  37
HETATM   37  C6  UNL     1      -3.515  -4.063   6.737  1.00  0.00     0.206 C 
BRANCH  37  38
HETATM   38  C5  UNL     1      -3.732  -5.190   7.662  1.00  0.00    -0.034 A 
HETATM   39  C4  UNL     1      -4.505  -6.262   7.317  1.00  0.00     0.012 A 
HETATM   40  C3  UNL     1      -4.714  -7.327   8.176  1.00  0.00     0.037 A 
HETATM   41  C2  UNL     1      -4.107  -7.277   9.421  1.00  0.00     0.068 A 
HETATM   42  C27 UNL     1      -3.322  -6.204   9.793  1.00  0.00     0.037 A 
HETATM   43  C26 UNL     1      -3.139  -5.160   8.902  1.00  0.00     0.012 A 
BRANCH  41  44
HETATM   44  O1  UNL     1      -4.291  -8.320  10.307  1.00  0.00    -0.356 OA
HETATM   45  C1  UNL     1      -3.929  -8.144  11.655  1.00  0.00     0.210 C 
ENDBRANCH  41  44
ENDBRANCH  37  38
ENDBRANCH  36  37
ENDBRANCH  35  36
ENDBRANCH   1  35
TORSDOF 16
ENDMDL
MODEL 5
REMARK VINA RESULT: -8.321208123      3.085      4.918
REMARK  16 active torsions:
REMARK  status: ('A' for Active; 'I' for Inactive)
REMARK    1  A    between atoms: O1_2  and  C2_3 
REMARK    2  A    between atoms: C5_6  and  C6_7 
REMARK    3  A    between atoms: C6_7  and  O2_8 
REMARK    4  A    between atoms: O2_8  and  C7_9 
REMARK    5  A    between atoms: C7_9  and  C8_10 
REMARK    6  A    between atoms: C9_12  and  O4_13 
REMARK    7  A    between atoms: O4_13  and  C10_14 
REMARK    8  A    between atoms: C17_21  and  O5_22 
REMARK    9  A    between atoms: C18_24  and  O6_25 
REMARK   10  A    between atoms: O6_25  and  C19_26 
REMARK   11  A    between atoms: C20_28  and  C21_29 
REMARK   12  A    between atoms: C21_29  and  O8_30 
REMARK   13  A    between atoms: C22_32  and  O9_33 
REMARK   14  A    between atoms: C23_35  and  O10_36 
REMARK   15  A    between atoms: C24_38  and  O11_39 
REMARK   16  A    between atoms: C25_41  and  O12_42 
ROOT
HETATM    1  C8  UNL     1      -3.390   0.107   7.477  1.00  0.00     0.179 C 
HETATM    2  O3  UNL     1      -4.186   0.280   8.617  1.00  0.00    -0.348 OA
HETATM    3  C9  UNL     1      -5.084  -0.787   8.621  1.00  0.00     0.292 C 
HETATM    4  C17 UNL     1      -6.076  -0.510   7.530  1.00  0.00     0.205 C 
HETATM    5  C18 UNL     1      -5.355  -0.601   6.174  1.00  0.00     0.189 C 
HETATM    6  C25 UNL     1      -4.208   0.354   6.200  1.00  0.00     0.181 C 
ENDROOT
BRANCH   5   7
HETATM    7  O6  UNL     1      -6.315  -0.327   5.236  1.00  0.00    -0.348 OA
BRANCH   7   8
HETATM    8  C19 UNL     1      -6.430  -1.217   4.202  1.00  0.00     0.292 C 
HETATM    9  O7  UNL     1      -6.619  -0.503   3.061  1.00  0.00    -0.348 OA
HETATM   10  C20 UNL     1      -7.266  -1.063   2.019  1.00  0.00     0.179 C 
HETATM   11  C22 UNL     1      -7.546  -2.508   2.068  1.00  0.00     0.180 C 
HETATM   12  C23 UNL     1      -7.909  -3.081   3.398  1.00  0.00     0.183 C 
HETATM   13  C24 UNL     1      -7.518  -2.190   4.552  1.00  0.00     0.204 C 
BRANCH  10  14
HETATM   14  C21 UNL     1      -8.489  -0.192   1.723  1.00  0.00     0.198 C 
BRANCH  14  15
HETATM   15  O8  UNL     1      -9.435  -0.232   2.717  1.00  0.00    -0.398 OA
ATOM     16  H8  UNL     1      -9.108   0.068   3.558  1.00  0.00     0.209 HD
ENDBRANCH  14  15
ENDBRANCH  10  14
BRANCH  11  17
HETATM   17  O9  UNL     1      -8.543  -2.872   1.158  1.00  0.00    -0.390 OA
ATOM     18  H9  UNL     1      -8.939  -3.705   1.385  1.00  0.00     0.210 HD
ENDBRANCH  11  17
BRANCH  12  19
HETATM   19  O10 UNL     1      -7.341  -4.370   3.549  1.00  0.00    -0.390 OA
ATOM     20  H10 UNL     1      -7.880  -4.902   4.123  1.00  0.00     0.210 HD
ENDBRANCH  12  19
BRANCH  13  21
HETATM   21  O11 UNL     1      -8.631  -1.556   5.117  1.00  0.00    -0.388 OA
ATOM     22  H11 UNL     1      -8.752  -1.792   6.029  1.00  0.00     0.210 HD
ENDBRANCH  13  21
ENDBRANCH   7   8
ENDBRANCH   5   7
BRANCH   4  23
HETATM   23  O5  UNL     1      -6.652   0.729   7.578  1.00  0.00    -0.388 OA
ATOM     24  H5  UNL     1      -6.407   1.310   6.868  1.00  0.00     0.210 HD
ENDBRANCH   4  23
BRANCH   6  25
HETATM   25  O12 UNL     1      -4.601   1.685   6.251  1.00  0.00    -0.390 OA
ATOM     26  H12 UNL     1      -4.449   2.036   5.381  1.00  0.00     0.210 HD
ENDBRANCH   6  25
BRANCH   3  27
HETATM   27  O4  UNL     1      -5.619  -1.095   9.834  1.00  0.00    -0.349 OA
BRANCH  27  28
HETATM   28  C10 UNL     1      -5.437  -0.123  10.828  1.00  0.00     0.154 A 
HETATM   29  C11 UNL     1      -4.304  -0.503  11.690  1.00  0.00     0.005 A 
HETATM   30  C12 UNL     1      -4.350  -0.704  12.982  1.00  0.00    -0.002 A 
HETATM   31  C13 UNL     1      -5.607  -0.547  13.654  1.00  0.00    -0.004 A 
HETATM   32  C14 UNL     1      -6.652  -0.219  12.984  1.00  0.00    -0.020 A 
HETATM   33  C15 UNL     1      -6.703   0.024  11.557  1.00  0.00     0.037 A 
HETATM   34  C16 UNL     1      -7.771  -0.876  10.898  1.00  0.00     0.017 C 
ENDBRANCH  27  28
ENDBRANCH   3  27
BRANCH   1  35
HETATM   35  C7  UNL     1      -2.145   0.912   7.508  1.00  0.00     0.202 C 
BRANCH  35  36
HETATM   36  O2  UNL     1      -2.348   2.108   8.148  1.00  0.00    -0.384 OA
BRANCH  36  37
HETATM   37  C6  UNL     1      -1.215   2.761   8.545  1.00  0.00     0.206 C 
BRANCH  37  38
HETATM   38  C5  UNL     1      -0.666   2.078   9.730  1.00  0.00    -0.034 A 
HETATM   39  C4  UNL     1       0.631   1.651   9.774  1.00  0.00     0.012 A 
HETATM   40  C3  UNL     1       1.159   1.012  10.883  1.00  0.00     0.037 A 
HETATM   41  C2  UNL     1       0.321   0.811  11.969  1.00  0.00     0.068 A 
HETATM   42  C27 UNL     1      -0.994   1.233  11.947  1.00  0.00     0.037 A 
HETATM   43  C26 UNL     1      -1.480   1.870  10.818  1.00  0.00     0.012 A 
BRANCH  41  44
HETATM   44  O1  UNL     1       0.809   0.176  13.094  1.00  0.00    -0.356 OA
HETATM   45  C1  UNL     1       2.193  -0.049  13.204  1.00  0.00     0.210 C 
ENDBRANCH  41  44
ENDBRANCH  37  38
ENDBRANCH  36  37
ENDBRANCH  35  36
ENDBRANCH   1  35
TORSDOF 16
ENDMDL
