MODEL 1
REMARK VINA RESULT: -7.037360337      0.000      0.000
REMARK  15 active torsions:
REMARK  status: ('A' for Active; 'I' for Inactive)
REMARK    1  A    between atoms: C2_2  and  C3_3 
REMARK    2  A    between atoms: C3_3  and  C5_5 
REMARK    3  A    between atoms: C5_5  and  C6_6 
REMARK    4  A    between atoms: C5_5  and  O1_8 
REMARK    5  A    between atoms: O1_8  and  C8_9 
REMARK    6  A    between atoms: C9_10  and  C10_11 
REMARK    7  A    between atoms: C10_11  and  O2_12 
REMARK    8  A    between atoms: C12_15  and  C13_16 
REMARK    9  A    between atoms: C14_18  and  C15_19 
REMARK   10  A    between atoms: C16_21  and  C17_22 
REMARK   11  A    between atoms: C18_25  and  O8_26 
REMARK   12  A    between atoms: C19_28  and  O9_29 
REMARK   13  A    between atoms: C20_31  and  O10_32 
REMARK   14  A    between atoms: C21_34  and  O11_35 
REMARK   15  A    between atoms: C22_37  and  O12_38 
ROOT
HETATM    1  C8  UNL     1      -2.020   0.644  10.980  1.00  0.00     0.158 C 
HETATM    2  C9  UNL     1      -3.123  -0.321  11.419  1.00  0.00     0.175 C 
HETATM    3  O3  UNL     1      -3.837  -0.672  10.308  1.00  0.00    -0.372 OA
HETATM    4  C12 UNL     1      -3.038  -0.910   9.164  1.00  0.00     0.171 C 
HETATM    5  C23 UNL     1      -2.523   0.369   8.638  1.00  0.00     0.130 C 
HETATM    6  C24 UNL     1      -1.073   0.244   8.339  1.00  0.00     0.067 C 
HETATM    7  N1  UNL     1       0.056   0.134   8.091  1.00  0.00    -0.197 NA
HETATM    8  C25 UNL     1      -2.565   1.380   9.803  1.00  0.00     0.033 C 
HETATM    9  C26 UNL     1      -1.804   2.592   9.383  1.00  0.00     0.014 C 
ENDROOT
BRANCH   4  10
HETATM   10  C13 UNL     1      -3.828  -1.754   8.264  1.00  0.00     0.183 C 
HETATM   11  O4  UNL     1      -4.108  -1.176   7.018  1.00  0.00    -0.370 OA
HETATM   12  C14 UNL     1      -5.002  -2.119   6.514  1.00  0.00     0.185 C 
HETATM   13  C21 UNL     1      -4.269  -3.425   6.713  1.00  0.00     0.181 C 
HETATM   14  C22 UNL     1      -3.329  -3.084   7.885  1.00  0.00     0.181 C 
BRANCH  12  15
HETATM   15  C15 UNL     1      -5.366  -1.852   5.078  1.00  0.00     0.185 C 
HETATM   16  O5  UNL     1      -4.467  -0.965   4.490  1.00  0.00    -0.362 OA
HETATM   17  C16 UNL     1      -4.607  -1.091   3.109  1.00  0.00     0.254 C 
HETATM   18  C18 UNL     1      -6.023  -1.318   2.679  1.00  0.00     0.189 C 
HETATM   19  C19 UNL     1      -7.039  -0.692   3.620  1.00  0.00     0.181 C 
HETATM   20  C20 UNL     1      -6.765  -1.257   4.989  1.00  0.00     0.181 C 
BRANCH  17  21
HETATM   21  C17 UNL     1      -4.003   0.069   2.395  1.00  0.00     0.205 C 
HETATM   22  O6  UNL     1      -4.502   1.213   2.378  1.00  0.00    -0.646 OA
HETATM   23  O7  UNL     1      -2.815  -0.144   1.712  1.00  0.00    -0.646 OA
ENDBRANCH  17  21
BRANCH  18  24
HETATM   24  O8  UNL     1      -6.276  -0.864   1.395  1.00  0.00    -0.390 OA
ATOM     25  H8  UNL     1      -7.203  -0.775   1.209  1.00  0.00     0.210 HD
ENDBRANCH  18  24
BRANCH  19  26
HETATM   26  O9  UNL     1      -8.305  -1.053   3.194  1.00  0.00    -0.390 OA
ATOM     27  H9  UNL     1      -8.941  -0.617   3.748  1.00  0.00     0.210 HD
ENDBRANCH  19  26
BRANCH  20  28
HETATM   28  O10 UNL     1      -7.735  -2.220   5.258  1.00  0.00    -0.390 OA
ATOM     29  H10 UNL     1      -8.605  -1.891   5.063  1.00  0.00     0.210 HD
ENDBRANCH  20  28
ENDBRANCH  12  15
BRANCH  13  30
HETATM   30  O11 UNL     1      -3.579  -3.731   5.569  1.00  0.00    -0.390 OA
ATOM     31  H11 UNL     1      -3.618  -4.670   5.425  1.00  0.00     0.210 HD
ENDBRANCH  13  30
BRANCH  14  32
HETATM   32  O12 UNL     1      -2.061  -3.153   7.393  1.00  0.00    -0.390 OA
ATOM     33  H12 UNL     1      -1.396  -3.524   7.961  1.00  0.00     0.210 HD
ENDBRANCH  14  32
ENDBRANCH   4  10
BRANCH   1  34
HETATM   34  O1  UNL     1      -1.558   1.398  12.021  1.00  0.00    -0.377 OA
BRANCH  34  35
HETATM   35  C5  UNL     1      -0.238   1.871  11.819  1.00  0.00     0.125 C 
BRANCH  35  36
HETATM   36  C3  UNL     1       0.743   0.737  11.942  1.00  0.00     0.010 C 
HETATM   37  C4  UNL     1       1.290   0.489  13.297  1.00  0.00     0.012 C 
BRANCH  36  38
HETATM   38  C2  UNL     1       1.846   0.932  10.932  1.00  0.00     0.002 C 
HETATM   39  C1  UNL     1       3.181   0.893  11.634  1.00  0.00     0.005 C 
ENDBRANCH  36  38
ENDBRANCH  35  36
BRANCH  35  40
HETATM   40  C6  UNL     1       0.087   3.085  12.608  1.00  0.00     0.028 C 
HETATM   41  C7  UNL     1       0.532   4.284  11.843  1.00  0.00     0.007 C 
ENDBRANCH  35  40
ENDBRANCH  34  35
ENDBRANCH   1  34
BRANCH   2  42
HETATM   42  C10 UNL     1      -4.001   0.460  12.371  1.00  0.00     0.201 C 
BRANCH  42  43
HETATM   43  O2  UNL     1      -4.350  -0.285  13.477  1.00  0.00    -0.393 OA
HETATM   44  C11 UNL     1      -5.672  -0.708  13.447  1.00  0.00     0.201 C 
ENDBRANCH  42  43
ENDBRANCH   2  42
TORSDOF 15
ENDMDL
MODEL 2
REMARK VINA RESULT: -6.921766087      2.747      5.626
REMARK  15 active torsions:
REMARK  status: ('A' for Active; 'I' for Inactive)
REMARK    1  A    between atoms: C2_2  and  C3_3 
REMARK    2  A    between atoms: C3_3  and  C5_5 
REMARK    3  A    between atoms: C5_5  and  C6_6 
REMARK    4  A    between atoms: C5_5  and  O1_8 
REMARK    5  A    between atoms: O1_8  and  C8_9 
REMARK    6  A    between atoms: C9_10  and  C10_11 
REMARK    7  A    between atoms: C10_11  and  O2_12 
REMARK    8  A    between atoms: C12_15  and  C13_16 
REMARK    9  A    between atoms: C14_18  and  C15_19 
REMARK   10  A    between atoms: C16_21  and  C17_22 
REMARK   11  A    between atoms: C18_25  and  O8_26 
REMARK   12  A    between atoms: C19_28  and  O9_29 
REMARK   13  A    between atoms: C20_31  and  O10_32 
REMARK   14  A    between atoms: C21_34  and  O11_35 
REMARK   15  A    between atoms: C22_37  and  O12_38 
ROOT
HETATM    1  C8  UNL     1      -4.249  -0.392   9.573  1.00  0.00     0.158 C 
HETATM    2  C9  UNL     1      -3.340   0.835   9.654  1.00  0.00     0.175 C 
HETATM    3  O3  UNL     1      -2.618   0.897   8.495  1.00  0.00    -0.372 OA
HETATM    4  C12 UNL     1      -3.369   0.590   7.335  1.00  0.00     0.171 C 
HETATM    5  C23 UNL     1      -3.646  -0.860   7.285  1.00  0.00     0.130 C 
HETATM    6  C24 UNL     1      -5.075  -1.089   6.953  1.00  0.00     0.067 C 
HETATM    7  N1  UNL     1      -6.189  -1.261   6.674  1.00  0.00    -0.197 NA
HETATM    8  C25 UNL     1      -3.523  -1.386   8.731  1.00  0.00     0.033 C 
HETATM    9  C26 UNL     1      -4.059  -2.777   8.756  1.00  0.00     0.014 C 
ENDROOT
BRANCH   4  10
HETATM   10  C13 UNL     1      -2.662   1.192   6.201  1.00  0.00     0.183 C 
HETATM   11  O4  UNL     1      -3.388   1.207   5.003  1.00  0.00    -0.370 OA
HETATM   12  C14 UNL     1      -2.394   1.644   4.128  1.00  0.00     0.185 C 
HETATM   13  C21 UNL     1      -1.846   2.869   4.819  1.00  0.00     0.181 C 
HETATM   14  C22 UNL     1      -2.185   2.579   6.294  1.00  0.00     0.181 C 
BRANCH  12  15
HETATM   15  C15 UNL     1      -2.927   1.923   2.749  1.00  0.00     0.185 C 
HETATM   16  O5  UNL     1      -4.192   2.503   2.809  1.00  0.00    -0.362 OA
HETATM   17  C16 UNL     1      -4.431   3.101   1.573  1.00  0.00     0.254 C 
HETATM   18  C18 UNL     1      -3.880   2.316   0.423  1.00  0.00     0.189 C 
HETATM   19  C19 UNL     1      -3.832   0.821   0.691  1.00  0.00     0.181 C 
HETATM   20  C20 UNL     1      -3.020   0.633   1.946  1.00  0.00     0.181 C 
BRANCH  17  21
HETATM   21  C17 UNL     1      -5.880   3.394   1.384  1.00  0.00     0.205 C 
HETATM   22  O6  UNL     1      -6.790   2.561   1.575  1.00  0.00    -0.646 OA
HETATM   23  O7  UNL     1      -6.229   4.672   0.972  1.00  0.00    -0.646 OA
ENDBRANCH  17  21
BRANCH  18  24
HETATM   24  O8  UNL     1      -4.574   2.529  -0.757  1.00  0.00    -0.390 OA
ATOM     25  H8  UNL     1      -4.176   2.098  -1.504  1.00  0.00     0.210 HD
ENDBRANCH  18  24
BRANCH  19  26
HETATM   26  O9  UNL     1      -3.209   0.208  -0.382  1.00  0.00    -0.390 OA
ATOM     27  H9  UNL     1      -3.267  -0.732  -0.263  1.00  0.00     0.210 HD
ENDBRANCH  19  26
BRANCH  20  28
HETATM   28  O10 UNL     1      -1.756   0.182   1.576  1.00  0.00    -0.390 OA
ATOM     29  H10 UNL     1      -1.473   0.587   0.764  1.00  0.00     0.210 HD
ENDBRANCH  20  28
ENDBRANCH  12  15
BRANCH  13  30
HETATM   30  O11 UNL     1      -2.497   3.979   4.347  1.00  0.00    -0.390 OA
ATOM     31  H11 UNL     1      -3.434   3.856   4.446  1.00  0.00     0.210 HD
ENDBRANCH  13  30
BRANCH  14  32
HETATM   32  O12 UNL     1      -3.092   3.523   6.672  1.00  0.00    -0.390 OA
ATOM     33  H12 UNL     1      -2.858   4.079   7.406  1.00  0.00     0.210 HD
ENDBRANCH  14  32
ENDBRANCH   4  10
BRANCH   1  34
HETATM   34  O1  UNL     1      -4.655  -0.808  10.809  1.00  0.00    -0.377 OA
BRANCH  34  35
HETATM   35  C5  UNL     1      -5.809  -0.128  11.270  1.00  0.00     0.125 C 
BRANCH  35  36
HETATM   36  C3  UNL     1      -5.743   0.050  12.762  1.00  0.00     0.010 C 
HETATM   37  C4  UNL     1      -4.538  -0.493  13.434  1.00  0.00     0.012 C 
BRANCH  36  38
HETATM   38  C2  UNL     1      -7.006  -0.498  13.378  1.00  0.00     0.002 C 
HETATM   39  C1  UNL     1      -6.672  -1.196  14.673  1.00  0.00     0.005 C 
ENDBRANCH  36  38
ENDBRANCH  35  36
BRANCH  35  40
HETATM   40  C6  UNL     1      -7.080  -0.691  10.750  1.00  0.00     0.028 C 
HETATM   41  C7  UNL     1      -7.845   0.153   9.789  1.00  0.00     0.007 C 
ENDBRANCH  35  40
ENDBRANCH  34  35
ENDBRANCH   1  34
BRANCH   2  42
HETATM   42  C10 UNL     1      -2.414   0.587  10.824  1.00  0.00     0.201 C 
BRANCH  42  43
HETATM   43  O2  UNL     1      -1.089   0.613  10.447  1.00  0.00    -0.393 OA
HETATM   44  C11 UNL     1      -0.236   0.939  11.493  1.00  0.00     0.201 C 
ENDBRANCH  42  43
ENDBRANCH   2  42
TORSDOF 15
ENDMDL
MODEL 3
REMARK VINA RESULT: -6.876779324      3.367      9.774
REMARK  15 active torsions:
REMARK  status: ('A' for Active; 'I' for Inactive)
REMARK    1  A    between atoms: C2_2  and  C3_3 
REMARK    2  A    between atoms: C3_3  and  C5_5 
REMARK    3  A    between atoms: C5_5  and  C6_6 
REMARK    4  A    between atoms: C5_5  and  O1_8 
REMARK    5  A    between atoms: O1_8  and  C8_9 
REMARK    6  A    between atoms: C9_10  and  C10_11 
REMARK    7  A    between atoms: C10_11  and  O2_12 
REMARK    8  A    between atoms: C12_15  and  C13_16 
REMARK    9  A    between atoms: C14_18  and  C15_19 
REMARK   10  A    between atoms: C16_21  and  C17_22 
REMARK   11  A    between atoms: C18_25  and  O8_26 
REMARK   12  A    between atoms: C19_28  and  O9_29 
REMARK   13  A    between atoms: C20_31  and  O10_32 
REMARK   14  A    between atoms: C21_34  and  O11_35 
REMARK   15  A    between atoms: C22_37  and  O12_38 
ROOT
HETATM    1  C8  UNL     1      -8.625   0.327   3.749  1.00  0.00     0.158 C 
HETATM    2  C9  UNL     1      -8.678   0.315   5.277  1.00  0.00     0.175 C 
HETATM    3  O3  UNL     1      -7.568  -0.341   5.728  1.00  0.00    -0.372 OA
HETATM    4  C12 UNL     1      -6.385  -0.023   5.017  1.00  0.00     0.171 C 
HETATM    5  C23 UNL     1      -6.421  -0.649   3.680  1.00  0.00     0.130 C 
HETATM    6  C24 UNL     1      -6.013   0.340   2.650  1.00  0.00     0.067 C 
HETATM    7  N1  UNL     1      -5.675   1.113   1.852  1.00  0.00    -0.197 NA
HETATM    8  C25 UNL     1      -7.905  -0.918   3.354  1.00  0.00     0.033 C 
HETATM    9  C26 UNL     1      -7.994  -1.293   1.913  1.00  0.00     0.014 C 
ENDROOT
BRANCH   4  10
HETATM   10  C13 UNL     1      -5.261  -0.351   5.898  1.00  0.00     0.183 C 
HETATM   11  O4  UNL     1      -5.538  -0.231   7.266  1.00  0.00    -0.370 OA
HETATM   12  C14 UNL     1      -4.257  -0.412   7.785  1.00  0.00     0.185 C 
HETATM   13  C21 UNL     1      -3.790  -1.678   7.108  1.00  0.00     0.181 C 
HETATM   14  C22 UNL     1      -4.638  -1.680   5.822  1.00  0.00     0.181 C 
BRANCH  12  15
HETATM   15  C15 UNL     1      -4.255  -0.502   9.287  1.00  0.00     0.185 C 
HETATM   16  O5  UNL     1      -5.528  -0.272   9.805  1.00  0.00    -0.362 OA
HETATM   17  C16 UNL     1      -5.541  -0.771  11.106  1.00  0.00     0.254 C 
HETATM   18  C18 UNL     1      -4.249  -0.559  11.831  1.00  0.00     0.189 C 
HETATM   19  C19 UNL     1      -3.499   0.677  11.362  1.00  0.00     0.181 C 
HETATM   20  C20 UNL     1      -3.297   0.523   9.878  1.00  0.00     0.181 C 
BRANCH  17  21
HETATM   21  C17 UNL     1      -6.694  -0.231  11.881  1.00  0.00     0.205 C 
HETATM   22  O6  UNL     1      -6.594   0.667  12.743  1.00  0.00    -0.646 OA
HETATM   23  O7  UNL     1      -7.948  -0.763  11.624  1.00  0.00    -0.646 OA
ENDBRANCH  17  21
BRANCH  18  24
HETATM   24  O8  UNL     1      -4.409  -0.481  13.205  1.00  0.00    -0.390 OA
ATOM     25  H8  UNL     1      -3.582  -0.465  13.673  1.00  0.00     0.210 HD
ENDBRANCH  18  24
BRANCH  19  26
HETATM   26  O9  UNL     1      -2.279   0.717  12.014  1.00  0.00    -0.390 OA
ATOM     27  H9  UNL     1      -2.436   0.614  12.945  1.00  0.00     0.210 HD
ENDBRANCH  19  26
BRANCH  20  28
HETATM   28  O10 UNL     1      -1.972   0.152   9.661  1.00  0.00    -0.390 OA
ATOM     29  H10 UNL     1      -1.429   0.374  10.408  1.00  0.00     0.210 HD
ENDBRANCH  20  28
ENDBRANCH  12  15
BRANCH  13  30
HETATM   30  O11 UNL     1      -4.073  -2.749   7.915  1.00  0.00    -0.390 OA
ATOM     31  H11 UNL     1      -3.346  -3.360   7.888  1.00  0.00     0.210 HD
ENDBRANCH  13  30
BRANCH  14  32
HETATM   32  O12 UNL     1      -5.466  -2.759   5.909  1.00  0.00    -0.390 OA
ATOM     33  H12 UNL     1      -5.061  -3.603   6.072  1.00  0.00     0.210 HD
ENDBRANCH  14  32
ENDBRANCH   4  10
BRANCH   1  34
HETATM   34  O1  UNL     1      -9.858   0.530   3.198  1.00  0.00    -0.377 OA
BRANCH  34  35
HETATM   35  C5  UNL     1     -10.050   1.859   2.745  1.00  0.00     0.125 C 
BRANCH  35  36
HETATM   36  C3  UNL     1     -11.520   2.153   2.614  1.00  0.00     0.010 C 
HETATM   37  C4  UNL     1     -12.009   2.445   1.245  1.00  0.00     0.012 C 
BRANCH  36  38
HETATM   38  C2  UNL     1     -11.886   3.258   3.573  1.00  0.00     0.002 C 
HETATM   39  C1  UNL     1     -11.851   4.582   2.851  1.00  0.00     0.005 C 
ENDBRANCH  36  38
ENDBRANCH  35  36
BRANCH  35  40
HETATM   40  C6  UNL     1      -9.220   2.213   1.567  1.00  0.00     0.028 C 
HETATM   41  C7  UNL     1      -8.408   3.458   1.668  1.00  0.00     0.007 C 
ENDBRANCH  35  40
ENDBRANCH  34  35
ENDBRANCH   1  34
BRANCH   2  42
HETATM   42  C10 UNL     1      -9.922  -0.465   5.642  1.00  0.00     0.201 C 
BRANCH  42  43
HETATM   43  O2  UNL     1     -10.798   0.286   6.394  1.00  0.00    -0.393 OA
HETATM   44  C11 UNL     1     -12.089   0.282   5.882  1.00  0.00     0.201 C 
ENDBRANCH  42  43
ENDBRANCH   2  42
TORSDOF 15
ENDMDL
MODEL 4
REMARK VINA RESULT: -6.814601196      2.970      9.280
REMARK  15 active torsions:
REMARK  status: ('A' for Active; 'I' for Inactive)
REMARK    1  A    between atoms: C2_2  and  C3_3 
REMARK    2  A    between atoms: C3_3  and  C5_5 
REMARK    3  A    between atoms: C5_5  and  C6_6 
REMARK    4  A    between atoms: C5_5  and  O1_8 
REMARK    5  A    between atoms: O1_8  and  C8_9 
REMARK    6  A    between atoms: C9_10  and  C10_11 
REMARK    7  A    between atoms: C10_11  and  O2_12 
REMARK    8  A    between atoms: C12_15  and  C13_16 
REMARK    9  A    between atoms: C14_18  and  C15_19 
REMARK   10  A    between atoms: C16_21  and  C17_22 
REMARK   11  A    between atoms: C18_25  and  O8_26 
REMARK   12  A    between atoms: C19_28  and  O9_29 
REMARK   13  A    between atoms: C20_31  and  O10_32 
REMARK   14  A    between atoms: C21_34  and  O11_35 
REMARK   15  A    between atoms: C22_37  and  O12_38 
ROOT
HETATM    1  C8  UNL     1      -7.722  -0.680   3.625  1.00  0.00     0.158 C 
HETATM    2  C9  UNL     1      -7.844  -0.309   5.104  1.00  0.00     0.175 C 
HETATM    3  O3  UNL     1      -6.817  -0.913   5.771  1.00  0.00    -0.372 OA
HETATM    4  C12 UNL     1      -5.581  -0.870   5.082  1.00  0.00     0.171 C 
HETATM    5  C23 UNL     1      -5.611  -1.802   3.938  1.00  0.00     0.130 C 
HETATM    6  C24 UNL     1      -5.072  -1.131   2.727  1.00  0.00     0.067 C 
HETATM    7  N1  UNL     1      -4.633  -0.607   1.789  1.00  0.00    -0.197 NA
HETATM    8  C25 UNL     1      -7.097  -2.033   3.591  1.00  0.00     0.033 C 
HETATM    9  C26 UNL     1      -7.154  -2.745   2.282  1.00  0.00     0.014 C 
ENDROOT
BRANCH   4  10
HETATM   10  C13 UNL     1      -4.529  -1.051   6.087  1.00  0.00     0.183 C 
HETATM   11  O4  UNL     1      -4.893  -0.671   7.385  1.00  0.00    -0.370 OA
HETATM   12  C14 UNL     1      -3.656  -0.779   8.020  1.00  0.00     0.185 C 
HETATM   13  C21 UNL     1      -3.190  -2.160   7.624  1.00  0.00     0.181 C 
HETATM   14  C22 UNL     1      -3.950  -2.384   6.303  1.00  0.00     0.181 C 
BRANCH  12  15
HETATM   15  C15 UNL     1      -3.757  -0.586   9.509  1.00  0.00     0.185 C 
HETATM   16  O5  UNL     1      -5.087  -0.490   9.913  1.00  0.00    -0.362 OA
HETATM   17  C16 UNL     1      -5.120  -0.733  11.284  1.00  0.00     0.254 C 
HETATM   18  C18 UNL     1      -3.941  -0.166  12.012  1.00  0.00     0.189 C 
HETATM   19  C19 UNL     1      -3.369   1.073  11.343  1.00  0.00     0.181 C 
HETATM   20  C20 UNL     1      -3.029   0.683   9.929  1.00  0.00     0.181 C 
BRANCH  17  21
HETATM   21  C17 UNL     1      -6.403  -0.268  11.885  1.00  0.00     0.205 C 
HETATM   22  O6  UNL     1      -6.650  -0.301  13.108  1.00  0.00    -0.646 OA
HETATM   23  O7  UNL     1      -7.373   0.228  11.027  1.00  0.00    -0.646 OA
ENDBRANCH  17  21
BRANCH  18  24
HETATM   24  O8  UNL     1      -4.218   0.137  13.335  1.00  0.00    -0.390 OA
ATOM     25  H8  UNL     1      -3.609   0.764  13.706  1.00  0.00     0.210 HD
ENDBRANCH  18  24
BRANCH  19  26
HETATM   26  O9  UNL     1      -2.226   1.446  12.029  1.00  0.00    -0.390 OA
ATOM     27  H9  UNL     1      -2.449   2.164  12.609  1.00  0.00     0.210 HD
ENDBRANCH  19  26
BRANCH  20  28
HETATM   28  O10 UNL     1      -1.648   0.516   9.850  1.00  0.00    -0.390 OA
ATOM     29  H10 UNL     1      -1.321   0.024  10.593  1.00  0.00     0.210 HD
ENDBRANCH  20  28
ENDBRANCH  12  15
BRANCH  13  30
HETATM   30  O11 UNL     1      -3.563  -3.054   8.594  1.00  0.00    -0.390 OA
ATOM     31  H11 UNL     1      -3.587  -2.610   9.434  1.00  0.00     0.210 HD
ENDBRANCH  13  30
BRANCH  14  32
HETATM   32  O12 UNL     1      -4.819  -3.409   6.529  1.00  0.00    -0.390 OA
ATOM     33  H12 UNL     1      -4.686  -3.923   7.317  1.00  0.00     0.210 HD
ENDBRANCH  14  32
ENDBRANCH   4  10
BRANCH   1  34
HETATM   34  O1  UNL     1      -8.907  -0.529   2.962  1.00  0.00    -0.377 OA
BRANCH  34  35
HETATM   35  C5  UNL     1      -8.971   0.667   2.206  1.00  0.00     0.125 C 
BRANCH  35  36
HETATM   36  C3  UNL     1      -7.609   1.301   2.126  1.00  0.00     0.010 C 
HETATM   37  C4  UNL     1      -7.455   2.610   2.805  1.00  0.00     0.012 C 
BRANCH  36  38
HETATM   38  C2  UNL     1      -7.191   1.383   0.679  1.00  0.00     0.002 C 
HETATM   39  C1  UNL     1      -7.310   2.809   0.201  1.00  0.00     0.005 C 
ENDBRANCH  36  38
ENDBRANCH  35  36
BRANCH  35  40
HETATM   40  C6  UNL     1     -10.074   1.572   2.613  1.00  0.00     0.028 C 
HETATM   41  C7  UNL     1     -10.984   2.050   1.534  1.00  0.00     0.007 C 
ENDBRANCH  35  40
ENDBRANCH  34  35
ENDBRANCH   1  34
BRANCH   2  42
HETATM   42  C10 UNL     1      -9.166  -0.882   5.566  1.00  0.00     0.201 C 
BRANCH  42  43
HETATM   43  O2  UNL     1      -9.953   0.070   6.178  1.00  0.00    -0.393 OA
HETATM   44  C11 UNL     1     -11.276   0.026   5.760  1.00  0.00     0.201 C 
ENDBRANCH  42  43
ENDBRANCH   2  42
TORSDOF 15
ENDMDL
MODEL 5
REMARK VINA RESULT: -6.788616800      0.520      1.332
REMARK  15 active torsions:
REMARK  status: ('A' for Active; 'I' for Inactive)
REMARK    1  A    between atoms: C2_2  and  C3_3 
REMARK    2  A    between atoms: C3_3  and  C5_5 
REMARK    3  A    between atoms: C5_5  and  C6_6 
REMARK    4  A    between atoms: C5_5  and  O1_8 
REMARK    5  A    between atoms: O1_8  and  C8_9 
REMARK    6  A    between atoms: C9_10  and  C10_11 
REMARK    7  A    between atoms: C10_11  and  O2_12 
REMARK    8  A    between atoms: C12_15  and  C13_16 
REMARK    9  A    between atoms: C14_18  and  C15_19 
REMARK   10  A    between atoms: C16_21  and  C17_22 
REMARK   11  A    between atoms: C18_25  and  O8_26 
REMARK   12  A    between atoms: C19_28  and  O9_29 
REMARK   13  A    between atoms: C20_31  and  O10_32 
REMARK   14  A    between atoms: C21_34  and  O11_35 
REMARK   15  A    between atoms: C22_37  and  O12_38 
ROOT
HETATM    1  C8  UNL     1      -1.830   0.788  10.765  1.00  0.00     0.158 C 
HETATM    2  C9  UNL     1      -2.902  -0.170  11.284  1.00  0.00     0.175 C 
HETATM    3  O3  UNL     1      -3.672  -0.551  10.221  1.00  0.00    -0.372 OA
HETATM    4  C12 UNL     1      -2.931  -0.814   9.043  1.00  0.00     0.171 C 
HETATM    5  C23 UNL     1      -2.451   0.454   8.459  1.00  0.00     0.130 C 
HETATM    6  C24 UNL     1      -1.018   0.327   8.089  1.00  0.00     0.067 C 
HETATM    7  N1  UNL     1       0.097   0.215   7.785  1.00  0.00    -0.197 NA
HETATM    8  C25 UNL     1      -2.438   1.493   9.599  1.00  0.00     0.033 C 
HETATM    9  C26 UNL     1      -1.706   2.697   9.111  1.00  0.00     0.014 C 
ENDROOT
BRANCH   4  10
HETATM   10  C13 UNL     1      -3.763  -1.684   8.206  1.00  0.00     0.183 C 
HETATM   11  O4  UNL     1      -4.089  -1.148   6.953  1.00  0.00    -0.370 OA
HETATM   12  C14 UNL     1      -5.008  -2.102   6.519  1.00  0.00     0.185 C 
HETATM   13  C21 UNL     1      -4.276  -3.405   6.735  1.00  0.00     0.181 C 
HETATM   14  C22 UNL     1      -3.288  -3.030   7.856  1.00  0.00     0.181 C 
BRANCH  12  15
HETATM   15  C15 UNL     1      -5.429  -1.883   5.091  1.00  0.00     0.185 C 
HETATM   16  O5  UNL     1      -4.559  -1.010   4.440  1.00  0.00    -0.362 OA
HETATM   17  C16 UNL     1      -4.751  -1.181   3.071  1.00  0.00     0.254 C 
HETATM   18  C18 UNL     1      -6.181  -1.430   2.702  1.00  0.00     0.189 C 
HETATM   19  C19 UNL     1      -7.164  -0.781   3.662  1.00  0.00     0.181 C 
HETATM   20  C20 UNL     1      -6.834  -1.300   5.036  1.00  0.00     0.181 C 
BRANCH  17  21
HETATM   21  C17 UNL     1      -4.183  -0.041   2.297  1.00  0.00     0.205 C 
HETATM   22  O6  UNL     1      -4.792   1.027   2.083  1.00  0.00    -0.646 OA
HETATM   23  O7  UNL     1      -2.900  -0.184   1.789  1.00  0.00    -0.646 OA
ENDBRANCH  17  21
BRANCH  18  24
HETATM   24  O8  UNL     1      -6.486  -1.019   1.415  1.00  0.00    -0.390 OA
ATOM     25  H8  UNL     1      -5.825  -1.270   0.780  1.00  0.00     0.210 HD
ENDBRANCH  18  24
BRANCH  19  26
HETATM   26  O9  UNL     1      -8.443  -1.162   3.296  1.00  0.00    -0.390 OA
ATOM     27  H9  UNL     1      -8.667  -1.950   3.776  1.00  0.00     0.210 HD
ENDBRANCH  19  26
BRANCH  20  28
HETATM   28  O10 UNL     1      -7.787  -2.259   5.373  1.00  0.00    -0.390 OA
ATOM     29  H10 UNL     1      -8.318  -1.970   6.105  1.00  0.00     0.210 HD
ENDBRANCH  20  28
ENDBRANCH  12  15
BRANCH  13  30
HETATM   30  O11 UNL     1      -3.635  -3.757   5.576  1.00  0.00    -0.390 OA
ATOM     31  H11 UNL     1      -3.476  -4.694   5.581  1.00  0.00     0.210 HD
ENDBRANCH  13  30
BRANCH  14  32
HETATM   32  O12 UNL     1      -2.040  -3.126   7.315  1.00  0.00    -0.390 OA
ATOM     33  H12 UNL     1      -1.763  -3.984   7.018  1.00  0.00     0.210 HD
ENDBRANCH  14  32
ENDBRANCH   4  10
BRANCH   1  34
HETATM   34  O1  UNL     1      -1.318   1.570  11.762  1.00  0.00    -0.377 OA
BRANCH  34  35
HETATM   35  C5  UNL     1       0.027   1.256  12.076  1.00  0.00     0.125 C 
BRANCH  35  36
HETATM   36  C3  UNL     1       0.676   2.414  12.784  1.00  0.00     0.010 C 
HETATM   37  C4  UNL     1       1.289   2.116  14.101  1.00  0.00     0.012 C 
BRANCH  36  38
HETATM   38  C2  UNL     1      -0.316   3.545  12.886  1.00  0.00     0.002 C 
HETATM   39  C1  UNL     1       0.085   4.652  11.942  1.00  0.00     0.005 C 
ENDBRANCH  36  38
ENDBRANCH  35  36
BRANCH  35  40
HETATM   40  C6  UNL     1       0.791   0.696  10.933  1.00  0.00     0.028 C 
HETATM   41  C7  UNL     1       2.003   1.448  10.504  1.00  0.00     0.007 C 
ENDBRANCH  35  40
ENDBRANCH  34  35
ENDBRANCH   1  34
BRANCH   2  42
HETATM   42  C10 UNL     1      -3.735   0.631  12.261  1.00  0.00     0.201 C 
BRANCH  42  43
HETATM   43  O2  UNL     1      -4.187  -0.144  13.307  1.00  0.00    -0.393 OA
HETATM   44  C11 UNL     1      -5.528  -0.485  13.185  1.00  0.00     0.201 C 
ENDBRANCH  42  43
ENDBRANCH   2  42
TORSDOF 15
ENDMDL
