MODEL 1
REMARK VINA RESULT: -6.940650866      0.000      0.000
REMARK  17 active torsions:
REMARK  status: ('A' for Active; 'I' for Inactive)
REMARK    1  A    between atoms: C2_2  and  C3_3 
REMARK    2  A    between atoms: C3_3  and  O1_4 
REMARK    3  A    between atoms: C3_3  and  C23_37 
REMARK    4  A    between atoms: O1_4  and  C4_5 
REMARK    5  A    between atoms: C5_6  and  O2_7 
REMARK    6  A    between atoms: O2_7  and  C6_8 
REMARK    7  A    between atoms: C6_8  and  C7_9 
REMARK    8  A    between atoms: C13_16  and  C14_17 
REMARK    9  A    between atoms: C14_17  and  O4_18 
REMARK   10  A    between atoms: C16_20  and  O5_21 
REMARK   11  A    between atoms: C17_23  and  O6_24 
REMARK   12  A    between atoms: O6_24  and  C18_25 
REMARK   13  A    between atoms: C19_27  and  C20_28 
REMARK   14  A    between atoms: C20_28  and  O8_29 
REMARK   15  A    between atoms: C21_31  and  O9_32 
REMARK   16  A    between atoms: C22_34  and  O10_35 
REMARK   17  A    between atoms: C23_37  and  N1_39 
ROOT
HETATM    1  C4  UNL     1      -2.552  -0.726   6.926  1.00  0.00     0.209 C 
HETATM    2  C5  UNL     1      -2.805  -1.188   8.376  1.00  0.00     0.292 C 
HETATM    3  O3  UNL     1      -2.790  -2.561   8.322  1.00  0.00    -0.348 OA
HETATM    4  C13 UNL     1      -3.850  -3.053   7.627  1.00  0.00     0.179 C 
HETATM    5  C16 UNL     1      -4.624  -2.131   6.789  1.00  0.00     0.181 C 
HETATM    6  C17 UNL     1      -3.886  -0.935   6.256  1.00  0.00     0.190 C 
ENDROOT
BRANCH   6   7
HETATM    7  O6  UNL     1      -4.652   0.193   6.533  1.00  0.00    -0.348 OA
BRANCH   7   8
HETATM    8  C18 UNL     1      -5.652   0.474   5.632  1.00  0.00     0.292 C 
HETATM    9  O7  UNL     1      -6.701  -0.401   5.649  1.00  0.00    -0.348 OA
HETATM   10  C19 UNL     1      -7.322  -0.199   4.406  1.00  0.00     0.179 C 
HETATM   11  C21 UNL     1      -6.147  -0.323   3.448  1.00  0.00     0.182 C 
HETATM   12  C22 UNL     1      -5.052   0.355   4.260  1.00  0.00     0.204 C 
BRANCH  10  13
HETATM   13  C20 UNL     1      -8.327  -1.278   4.103  1.00  0.00     0.198 C 
BRANCH  13  14
HETATM   14  O8  UNL     1      -8.066  -2.346   4.999  1.00  0.00    -0.398 OA
ATOM     15  H8  UNL     1      -8.895  -2.573   5.405  1.00  0.00     0.209 HD
ENDBRANCH  13  14
ENDBRANCH  10  13
BRANCH  11  16
HETATM   16  O9  UNL     1      -5.808  -1.668   3.313  1.00  0.00    -0.390 OA
ATOM     17  H9  UNL     1      -4.872  -1.768   3.444  1.00  0.00     0.210 HD
ENDBRANCH  11  16
BRANCH  12  18
HETATM   18  O10 UNL     1      -4.786   1.590   3.667  1.00  0.00    -0.388 OA
ATOM     19  H10 UNL     1      -4.443   1.516   2.785  1.00  0.00     0.210 HD
ENDBRANCH  12  18
ENDBRANCH   7   8
ENDBRANCH   6   7
BRANCH   1  20
HETATM   20  O1  UNL     1      -2.174   0.572   6.996  1.00  0.00    -0.367 OA
BRANCH  20  21
HETATM   21  C3  UNL     1      -1.126   1.030   6.303  1.00  0.00     0.166 C 
BRANCH  21  22
HETATM   22  C2  UNL     1      -0.044   1.542   7.145  1.00  0.00    -0.003 C 
HETATM   23  C1  UNL     1       0.648   0.780   7.991  1.00  0.00     0.009 C 
ENDBRANCH  21  22
BRANCH  21  24
HETATM   24  C23 UNL     1      -1.385   1.985   5.157  1.00  0.00     0.104 C 
HETATM   25  C24 UNL     1      -1.372   1.152   3.904  1.00  0.00     0.035 C 
BRANCH  24  26
HETATM   26  N1  UNL     1      -2.683   2.598   5.287  1.00  0.00    -0.419 N 
HETATM   27  C25 UNL     1      -2.686   3.920   5.817  1.00  0.00     0.140 C 
ATOM     28  H1  UNL     1      -3.541   2.118   5.017  1.00  0.00     0.153 HD
ENDBRANCH  24  26
ENDBRANCH  21  24
ENDBRANCH  20  21
ENDBRANCH   1  20
BRANCH   5  29
HETATM   29  O5  UNL     1      -5.180  -2.803   5.701  1.00  0.00    -0.390 OA
ATOM     30  H5  UNL     1      -5.657  -2.201   5.143  1.00  0.00     0.210 HD
ENDBRANCH   5  29
BRANCH   2  31
HETATM   31  O2  UNL     1      -3.988  -0.654   8.849  1.00  0.00    -0.354 OA
BRANCH  31  32
HETATM   32  C6  UNL     1      -3.747  -0.019  10.099  1.00  0.00     0.209 C 
BRANCH  32  33
HETATM   33  C7  UNL     1      -4.978  -0.189  10.921  1.00  0.00    -0.035 A 
HETATM   34  C8  UNL     1      -6.172  -0.386  10.239  1.00  0.00     0.009 A 
HETATM   35  C9  UNL     1      -7.334  -0.561  10.933  1.00  0.00     0.001 A 
HETATM   36  C10 UNL     1      -7.351  -0.548  12.329  1.00  0.00     0.000 A 
HETATM   37  C11 UNL     1      -6.161  -0.353  13.011  1.00  0.00     0.001 A 
HETATM   38  C12 UNL     1      -5.002  -0.177  12.309  1.00  0.00     0.009 A 
ENDBRANCH  32  33
ENDBRANCH  31  32
ENDBRANCH   2  31
BRANCH   4  39
HETATM   39  C14 UNL     1      -3.311  -4.268   6.855  1.00  0.00     0.201 C 
BRANCH  39  40
HETATM   40  O4  UNL     1      -4.291  -5.201   6.668  1.00  0.00    -0.393 OA
HETATM   41  C15 UNL     1      -4.272  -6.238   7.563  1.00  0.00     0.201 C 
ENDBRANCH  39  40
ENDBRANCH   4  39
TORSDOF 17
ENDMDL
MODEL 2
REMARK VINA RESULT: -6.938808185      1.324      1.736
REMARK  17 active torsions:
REMARK  status: ('A' for Active; 'I' for Inactive)
REMARK    1  A    between atoms: C2_2  and  C3_3 
REMARK    2  A    between atoms: C3_3  and  O1_4 
REMARK    3  A    between atoms: C3_3  and  C23_37 
REMARK    4  A    between atoms: O1_4  and  C4_5 
REMARK    5  A    between atoms: C5_6  and  O2_7 
REMARK    6  A    between atoms: O2_7  and  C6_8 
REMARK    7  A    between atoms: C6_8  and  C7_9 
REMARK    8  A    between atoms: C13_16  and  C14_17 
REMARK    9  A    between atoms: C14_17  and  O4_18 
REMARK   10  A    between atoms: C16_20  and  O5_21 
REMARK   11  A    between atoms: C17_23  and  O6_24 
REMARK   12  A    between atoms: O6_24  and  C18_25 
REMARK   13  A    between atoms: C19_27  and  C20_28 
REMARK   14  A    between atoms: C20_28  and  O8_29 
REMARK   15  A    between atoms: C21_31  and  O9_32 
REMARK   16  A    between atoms: C22_34  and  O10_35 
REMARK   17  A    between atoms: C23_37  and  N1_39 
ROOT
HETATM    1  C4  UNL     1      -2.894  -0.192   7.584  1.00  0.00     0.209 C 
HETATM    2  C5  UNL     1      -3.027  -0.845   8.976  1.00  0.00     0.292 C 
HETATM    3  O3  UNL     1      -2.663  -2.157   8.791  1.00  0.00    -0.348 OA
HETATM    4  C13 UNL     1      -3.560  -2.830   8.021  1.00  0.00     0.179 C 
HETATM    5  C16 UNL     1      -4.540  -2.054   7.253  1.00  0.00     0.181 C 
HETATM    6  C17 UNL     1      -4.128  -0.663   6.859  1.00  0.00     0.190 C 
ENDROOT
BRANCH   6   7
HETATM    7  O6  UNL     1      -5.158   0.200   7.220  1.00  0.00    -0.348 OA
BRANCH   7   8
HETATM    8  C18 UNL     1      -6.114   0.427   6.259  1.00  0.00     0.292 C 
HETATM    9  O7  UNL     1      -6.928  -0.639   5.998  1.00  0.00    -0.348 OA
HETATM   10  C19 UNL     1      -7.470  -0.341   4.737  1.00  0.00     0.179 C 
HETATM   11  C21 UNL     1      -6.221  -0.028   3.928  1.00  0.00     0.182 C 
HETATM   12  C22 UNL     1      -5.388   0.702   4.973  1.00  0.00     0.204 C 
BRANCH  10  13
HETATM   13  C20 UNL     1      -8.166  -1.533   4.135  1.00  0.00     0.198 C 
BRANCH  13  14
HETATM   14  O8  UNL     1      -7.664  -2.681   4.799  1.00  0.00    -0.398 OA
ATOM     15  H8  UNL     1      -6.719  -2.586   4.836  1.00  0.00     0.209 HD
ENDBRANCH  13  14
ENDBRANCH  10  13
BRANCH  11  16
HETATM   16  O9  UNL     1      -5.568  -1.219   3.617  1.00  0.00    -0.390 OA
ATOM     17  H9  UNL     1      -5.095  -1.524   4.382  1.00  0.00     0.210 HD
ENDBRANCH  11  16
BRANCH  12  18
HETATM   18  O10 UNL     1      -5.367   2.055   4.631  1.00  0.00    -0.388 OA
ATOM     19  H10 UNL     1      -6.147   2.337   4.169  1.00  0.00     0.210 HD
ENDBRANCH  12  18
ENDBRANCH   7   8
ENDBRANCH   6   7
BRANCH   1  20
HETATM   20  O1  UNL     1      -2.859   1.146   7.789  1.00  0.00    -0.367 OA
BRANCH  20  21
HETATM   21  C3  UNL     1      -1.746   1.853   7.574  1.00  0.00     0.166 C 
BRANCH  21  22
HETATM   22  C2  UNL     1      -0.570   1.028   7.298  1.00  0.00    -0.003 C 
HETATM   23  C1  UNL     1       0.534   1.053   8.044  1.00  0.00     0.009 C 
ENDBRANCH  21  22
BRANCH  21  24
HETATM   24  C23 UNL     1      -1.389   2.947   8.559  1.00  0.00     0.104 C 
HETATM   25  C24 UNL     1      -1.732   4.248   7.885  1.00  0.00     0.035 C 
BRANCH  24  26
HETATM   26  N1  UNL     1      -2.177   2.830   9.760  1.00  0.00    -0.419 N 
HETATM   27  C25 UNL     1      -1.459   2.453  10.931  1.00  0.00     0.140 C 
ATOM     28  H1  UNL     1      -3.181   3.006   9.771  1.00  0.00     0.153 HD
ENDBRANCH  24  26
ENDBRANCH  21  24
ENDBRANCH  20  21
ENDBRANCH   1  20
BRANCH   5  29
HETATM   29  O5  UNL     1      -4.902  -2.733   6.090  1.00  0.00    -0.390 OA
ATOM     30  H5  UNL     1      -5.477  -2.199   5.556  1.00  0.00     0.210 HD
ENDBRANCH   5  29
BRANCH   2  31
HETATM   31  O2  UNL     1      -4.309  -0.678   9.463  1.00  0.00    -0.354 OA
BRANCH  31  32
HETATM   32  C6  UNL     1      -4.249  -0.005  10.715  1.00  0.00     0.209 C 
BRANCH  32  33
HETATM   33  C7  UNL     1      -5.544  -0.254  11.408  1.00  0.00    -0.035 A 
HETATM   34  C8  UNL     1      -6.657  -0.483  10.608  1.00  0.00     0.009 A 
HETATM   35  C9  UNL     1      -7.870  -0.730  11.180  1.00  0.00     0.001 A 
HETATM   36  C10 UNL     1      -8.023  -0.758  12.567  1.00  0.00     0.000 A 
HETATM   37  C11 UNL     1      -6.914  -0.531  13.367  1.00  0.00     0.001 A 
HETATM   38  C12 UNL     1      -5.703  -0.284  12.787  1.00  0.00     0.009 A 
ENDBRANCH  32  33
ENDBRANCH  31  32
ENDBRANCH   2  31
BRANCH   4  39
HETATM   39  C14 UNL     1      -2.727  -3.785   7.153  1.00  0.00     0.201 C 
BRANCH  39  40
HETATM   40  O4  UNL     1      -3.312  -5.018   7.083  1.00  0.00    -0.393 OA
HETATM   41  C15 UNL     1      -3.810  -5.483   8.271  1.00  0.00     0.201 C 
ENDBRANCH  39  40
ENDBRANCH   4  39
TORSDOF 17
ENDMDL
MODEL 3
REMARK VINA RESULT: -6.914422173      0.750      1.218
REMARK  17 active torsions:
REMARK  status: ('A' for Active; 'I' for Inactive)
REMARK    1  A    between atoms: C2_2  and  C3_3 
REMARK    2  A    between atoms: C3_3  and  O1_4 
REMARK    3  A    between atoms: C3_3  and  C23_37 
REMARK    4  A    between atoms: O1_4  and  C4_5 
REMARK    5  A    between atoms: C5_6  and  O2_7 
REMARK    6  A    between atoms: O2_7  and  C6_8 
REMARK    7  A    between atoms: C6_8  and  C7_9 
REMARK    8  A    between atoms: C13_16  and  C14_17 
REMARK    9  A    between atoms: C14_17  and  O4_18 
REMARK   10  A    between atoms: C16_20  and  O5_21 
REMARK   11  A    between atoms: C17_23  and  O6_24 
REMARK   12  A    between atoms: O6_24  and  C18_25 
REMARK   13  A    between atoms: C19_27  and  C20_28 
REMARK   14  A    between atoms: C20_28  and  O8_29 
REMARK   15  A    between atoms: C21_31  and  O9_32 
REMARK   16  A    between atoms: C22_34  and  O10_35 
REMARK   17  A    between atoms: C23_37  and  N1_39 
ROOT
HETATM    1  C4  UNL     1      -2.676  -0.270   7.112  1.00  0.00     0.209 C 
HETATM    2  C5  UNL     1      -2.787  -0.790   8.561  1.00  0.00     0.292 C 
HETATM    3  O3  UNL     1      -2.516  -2.134   8.481  1.00  0.00    -0.348 OA
HETATM    4  C13 UNL     1      -3.487  -2.810   7.809  1.00  0.00     0.179 C 
HETATM    5  C16 UNL     1      -4.449  -2.041   7.014  1.00  0.00     0.181 C 
HETATM    6  C17 UNL     1      -3.969  -0.720   6.481  1.00  0.00     0.190 C 
ENDROOT
BRANCH   6   7
HETATM    7  O6  UNL     1      -4.925   0.238   6.802  1.00  0.00    -0.348 OA
BRANCH   7   8
HETATM    8  C18 UNL     1      -5.906   0.446   5.861  1.00  0.00     0.292 C 
HETATM    9  O7  UNL     1      -6.829  -0.557   5.766  1.00  0.00    -0.348 OA
HETATM   10  C19 UNL     1      -7.407  -0.355   4.502  1.00  0.00     0.179 C 
HETATM   11  C21 UNL     1      -6.179  -0.264   3.609  1.00  0.00     0.182 C 
HETATM   12  C22 UNL     1      -5.226   0.496   4.523  1.00  0.00     0.204 C 
BRANCH  10  13
HETATM   13  C20 UNL     1      -8.243  -1.534   4.078  1.00  0.00     0.198 C 
BRANCH  13  14
HETATM   14  O8  UNL     1      -7.791  -2.649   4.827  1.00  0.00    -0.398 OA
ATOM     15  H8  UNL     1      -7.153  -3.103   4.289  1.00  0.00     0.209 HD
ENDBRANCH  13  14
ENDBRANCH  10  13
BRANCH  11  16
HETATM   16  O9  UNL     1      -5.658  -1.543   3.417  1.00  0.00    -0.390 OA
ATOM     17  H9  UNL     1      -4.771  -1.571   3.757  1.00  0.00     0.210 HD
ENDBRANCH  11  16
BRANCH  12  18
HETATM   18  O10 UNL     1      -5.096   1.790   4.019  1.00  0.00    -0.388 OA
ATOM     19  H10 UNL     1      -5.525   1.911   3.181  1.00  0.00     0.210 HD
ENDBRANCH  12  18
ENDBRANCH   7   8
ENDBRANCH   6   7
BRANCH   1  20
HETATM   20  O1  UNL     1      -2.549   1.075   7.195  1.00  0.00    -0.367 OA
BRANCH  20  21
HETATM   21  C3  UNL     1      -2.091   1.794   6.166  1.00  0.00     0.166 C 
BRANCH  21  22
HETATM   22  C2  UNL     1      -0.644   1.684   5.970  1.00  0.00    -0.003 C 
HETATM   23  C1  UNL     1       0.246   1.941   6.928  1.00  0.00     0.009 C 
ENDBRANCH  21  22
BRANCH  21  24
HETATM   24  C23 UNL     1      -2.517   3.242   6.055  1.00  0.00     0.104 C 
HETATM   25  C24 UNL     1      -2.260   3.649   4.629  1.00  0.00     0.035 C 
BRANCH  24  26
HETATM   26  N1  UNL     1      -3.926   3.382   6.326  1.00  0.00    -0.419 N 
HETATM   27  C25 UNL     1      -4.480   4.664   6.045  1.00  0.00     0.140 C 
ATOM     28  H1  UNL     1      -4.488   2.615   6.692  1.00  0.00     0.153 HD
ENDBRANCH  24  26
ENDBRANCH  21  24
ENDBRANCH  20  21
ENDBRANCH   1  20
BRANCH   5  29
HETATM   29  O5  UNL     1      -4.905  -2.793   5.932  1.00  0.00    -0.390 OA
ATOM     30  H5  UNL     1      -4.420  -2.575   5.144  1.00  0.00     0.210 HD
ENDBRANCH   5  29
BRANCH   2  31
HETATM   31  O2  UNL     1      -4.034  -0.497   9.081  1.00  0.00    -0.354 OA
BRANCH  31  32
HETATM   32  C6  UNL     1      -3.885  -0.035  10.418  1.00  0.00     0.209 C 
BRANCH  32  33
HETATM   33  C7  UNL     1      -5.192  -0.246  11.101  1.00  0.00    -0.035 A 
HETATM   34  C8  UNL     1      -5.187  -0.255  12.490  1.00  0.00     0.009 A 
HETATM   35  C9  UNL     1      -6.353  -0.431  13.176  1.00  0.00     0.001 A 
HETATM   36  C10 UNL     1      -7.566  -0.604  12.507  1.00  0.00     0.000 A 
HETATM   37  C11 UNL     1      -7.574  -0.594  11.122  1.00  0.00     0.001 A 
HETATM   38  C12 UNL     1      -6.402  -0.418  10.442  1.00  0.00     0.009 A 
ENDBRANCH  32  33
ENDBRANCH  31  32
ENDBRANCH   2  31
BRANCH   4  39
HETATM   39  C14 UNL     1      -2.755  -3.891   6.999  1.00  0.00     0.201 C 
BRANCH  39  40
HETATM   40  O4  UNL     1      -3.409  -5.088   7.077  1.00  0.00    -0.393 OA
HETATM   41  C15 UNL     1      -3.818  -5.435   8.337  1.00  0.00     0.201 C 
ENDBRANCH  39  40
ENDBRANCH   4  39
TORSDOF 17
ENDMDL
MODEL 4
REMARK VINA RESULT: -6.767338864      1.325      1.857
REMARK  17 active torsions:
REMARK  status: ('A' for Active; 'I' for Inactive)
REMARK    1  A    between atoms: C2_2  and  C3_3 
REMARK    2  A    between atoms: C3_3  and  O1_4 
REMARK    3  A    between atoms: C3_3  and  C23_37 
REMARK    4  A    between atoms: O1_4  and  C4_5 
REMARK    5  A    between atoms: C5_6  and  O2_7 
REMARK    6  A    between atoms: O2_7  and  C6_8 
REMARK    7  A    between atoms: C6_8  and  C7_9 
REMARK    8  A    between atoms: C13_16  and  C14_17 
REMARK    9  A    between atoms: C14_17  and  O4_18 
REMARK   10  A    between atoms: C16_20  and  O5_21 
REMARK   11  A    between atoms: C17_23  and  O6_24 
REMARK   12  A    between atoms: O6_24  and  C18_25 
REMARK   13  A    between atoms: C19_27  and  C20_28 
REMARK   14  A    between atoms: C20_28  and  O8_29 
REMARK   15  A    between atoms: C21_31  and  O9_32 
REMARK   16  A    between atoms: C22_34  and  O10_35 
REMARK   17  A    between atoms: C23_37  and  N1_39 
ROOT
HETATM    1  C4  UNL     1      -2.883  -0.431   6.836  1.00  0.00     0.209 C 
HETATM    2  C5  UNL     1      -2.785  -0.886   8.307  1.00  0.00     0.292 C 
HETATM    3  O3  UNL     1      -2.439  -2.214   8.249  1.00  0.00    -0.348 OA
HETATM    4  C13 UNL     1      -3.438  -2.977   7.730  1.00  0.00     0.179 C 
HETATM    5  C16 UNL     1      -4.537  -2.306   7.029  1.00  0.00     0.181 C 
HETATM    6  C17 UNL     1      -4.211  -0.986   6.388  1.00  0.00     0.190 C 
ENDROOT
BRANCH   6   7
HETATM    7  O6  UNL     1      -5.181  -0.071   6.785  1.00  0.00    -0.348 OA
BRANCH   7   8
HETATM    8  C18 UNL     1      -6.480  -0.411   6.495  1.00  0.00     0.292 C 
HETATM    9  O7  UNL     1      -6.700  -0.777   5.197  1.00  0.00    -0.348 OA
HETATM   10  C19 UNL     1      -8.087  -0.627   5.041  1.00  0.00     0.179 C 
HETATM   11  C21 UNL     1      -8.308   0.787   5.558  1.00  0.00     0.182 C 
HETATM   12  C22 UNL     1      -7.316   0.818   6.713  1.00  0.00     0.204 C 
BRANCH  10  13
HETATM   13  C20 UNL     1      -8.496  -0.694   3.593  1.00  0.00     0.198 C 
BRANCH  13  14
HETATM   14  O8  UNL     1      -8.914  -2.027   3.346  1.00  0.00    -0.398 OA
ATOM     15  H8  UNL     1      -9.783  -1.977   2.967  1.00  0.00     0.209 HD
ENDBRANCH  13  14
ENDBRANCH  10  13
BRANCH  11  16
HETATM   16  O9  UNL     1      -7.873   1.698   4.597  1.00  0.00    -0.390 OA
ATOM     17  H9  UNL     1      -8.127   2.574   4.861  1.00  0.00     0.210 HD
ENDBRANCH  11  16
BRANCH  12  18
HETATM   18  O10 UNL     1      -8.045   0.784   7.901  1.00  0.00    -0.388 OA
ATOM     19  H10 UNL     1      -7.855   1.512   8.479  1.00  0.00     0.210 HD
ENDBRANCH  12  18
ENDBRANCH   7   8
ENDBRANCH   6   7
BRANCH   1  20
HETATM   20  O1  UNL     1      -2.833   0.922   6.847  1.00  0.00    -0.367 OA
BRANCH  20  21
HETATM   21  C3  UNL     1      -2.512   1.614   5.750  1.00  0.00     0.166 C 
BRANCH  21  22
HETATM   22  C2  UNL     1      -1.163   2.183   5.788  1.00  0.00    -0.003 C 
HETATM   23  C1  UNL     1      -0.205   1.852   4.923  1.00  0.00     0.009 C 
ENDBRANCH  21  22
BRANCH  21  24
HETATM   24  C23 UNL     1      -3.492   2.649   5.241  1.00  0.00     0.104 C 
HETATM   25  C24 UNL     1      -4.205   2.016   4.077  1.00  0.00     0.035 C 
BRANCH  24  26
HETATM   26  N1  UNL     1      -4.466   2.972   6.255  1.00  0.00    -0.419 N 
HETATM   27  C25 UNL     1      -5.443   3.939   5.881  1.00  0.00     0.140 C 
ATOM     28  H1  UNL     1      -4.456   2.537   7.177  1.00  0.00     0.153 HD
ENDBRANCH  24  26
ENDBRANCH  21  24
ENDBRANCH  20  21
ENDBRANCH   1  20
BRANCH   5  29
HETATM   29  O5  UNL     1      -5.071  -3.135   6.043  1.00  0.00    -0.390 OA
ATOM     30  H5  UNL     1      -5.407  -2.620   5.319  1.00  0.00     0.210 HD
ENDBRANCH   5  29
BRANCH   2  31
HETATM   31  O2  UNL     1      -3.975  -0.641   8.964  1.00  0.00    -0.354 OA
BRANCH  31  32
HETATM   32  C6  UNL     1      -3.699  -0.025  10.217  1.00  0.00     0.209 C 
BRANCH  32  33
HETATM   33  C7  UNL     1      -4.910  -0.200  11.066  1.00  0.00    -0.035 A 
HETATM   34  C8  UNL     1      -6.127  -0.352  10.412  1.00  0.00     0.009 A 
HETATM   35  C9  UNL     1      -7.272  -0.528  11.132  1.00  0.00     0.001 A 
HETATM   36  C10 UNL     1      -7.251  -0.561  12.527  1.00  0.00     0.000 A 
HETATM   37  C11 UNL     1      -6.039  -0.411  13.182  1.00  0.00     0.001 A 
HETATM   38  C12 UNL     1      -4.897  -0.234  12.454  1.00  0.00     0.009 A 
ENDBRANCH  32  33
ENDBRANCH  31  32
ENDBRANCH   2  31
BRANCH   4  39
HETATM   39  C14 UNL     1      -2.742  -4.051   6.881  1.00  0.00     0.201 C 
BRANCH  39  40
HETATM   40  O4  UNL     1      -3.351  -5.265   7.031  1.00  0.00    -0.393 OA
HETATM   41  C15 UNL     1      -3.763  -5.544   8.307  1.00  0.00     0.201 C 
ENDBRANCH  39  40
ENDBRANCH   4  39
TORSDOF 17
ENDMDL
MODEL 5
REMARK VINA RESULT: -6.680967070      1.599      2.218
REMARK  17 active torsions:
REMARK  status: ('A' for Active; 'I' for Inactive)
REMARK    1  A    between atoms: C2_2  and  C3_3 
REMARK    2  A    between atoms: C3_3  and  O1_4 
REMARK    3  A    between atoms: C3_3  and  C23_37 
REMARK    4  A    between atoms: O1_4  and  C4_5 
REMARK    5  A    between atoms: C5_6  and  O2_7 
REMARK    6  A    between atoms: O2_7  and  C6_8 
REMARK    7  A    between atoms: C6_8  and  C7_9 
REMARK    8  A    between atoms: C13_16  and  C14_17 
REMARK    9  A    between atoms: C14_17  and  O4_18 
REMARK   10  A    between atoms: C16_20  and  O5_21 
REMARK   11  A    between atoms: C17_23  and  O6_24 
REMARK   12  A    between atoms: O6_24  and  C18_25 
REMARK   13  A    between atoms: C19_27  and  C20_28 
REMARK   14  A    between atoms: C20_28  and  O8_29 
REMARK   15  A    between atoms: C21_31  and  O9_32 
REMARK   16  A    between atoms: C22_34  and  O10_35 
REMARK   17  A    between atoms: C23_37  and  N1_39 
ROOT
HETATM    1  C4  UNL     1      -2.992  -0.236   7.427  1.00  0.00     0.209 C 
HETATM    2  C5  UNL     1      -3.082  -0.826   8.850  1.00  0.00     0.292 C 
HETATM    3  O3  UNL     1      -2.678  -2.132   8.722  1.00  0.00    -0.348 OA
HETATM    4  C13 UNL     1      -3.564  -2.870   8.000  1.00  0.00     0.179 C 
HETATM    5  C16 UNL     1      -4.580  -2.165   7.213  1.00  0.00     0.181 C 
HETATM    6  C17 UNL     1      -4.221  -0.781   6.746  1.00  0.00     0.190 C 
ENDROOT
BRANCH   6   7
HETATM    7  O6  UNL     1      -5.273   0.065   7.082  1.00  0.00    -0.348 OA
BRANCH   7   8
HETATM    8  C18 UNL     1      -6.502  -0.271   6.564  1.00  0.00     0.292 C 
HETATM    9  O7  UNL     1      -6.513  -0.497   5.216  1.00  0.00    -0.348 OA
HETATM   10  C19 UNL     1      -7.866  -0.362   4.869  1.00  0.00     0.179 C 
HETATM   11  C21 UNL     1      -8.216   0.980   5.494  1.00  0.00     0.182 C 
HETATM   12  C22 UNL     1      -7.408   0.907   6.782  1.00  0.00     0.204 C 
BRANCH  10  13
HETATM   13  C20 UNL     1      -8.054  -0.280   3.377  1.00  0.00     0.198 C 
BRANCH  13  14
HETATM   14  O8  UNL     1      -9.411   0.063   3.152  1.00  0.00    -0.398 OA
ATOM     15  H8  UNL     1      -9.682  -0.390   2.362  1.00  0.00     0.209 HD
ENDBRANCH  13  14
ENDBRANCH  10  13
BRANCH  11  16
HETATM   16  O9  UNL     1      -7.681   2.001   4.711  1.00  0.00    -0.390 OA
ATOM     17  H9  UNL     1      -8.037   1.938   3.832  1.00  0.00     0.210 HD
ENDBRANCH  11  16
BRANCH  12  18
HETATM   18  O10 UNL     1      -8.303   0.725   7.836  1.00  0.00    -0.388 OA
ATOM     19  H10 UNL     1      -9.097   1.236   7.746  1.00  0.00     0.210 HD
ENDBRANCH  12  18
ENDBRANCH   7   8
ENDBRANCH   6   7
BRANCH   1  20
HETATM   20  O1  UNL     1      -2.999   1.111   7.567  1.00  0.00    -0.367 OA
BRANCH  20  21
HETATM   21  C3  UNL     1      -1.929   1.847   7.253  1.00  0.00     0.166 C 
BRANCH  21  22
HETATM   22  C2  UNL     1      -0.735   1.053   6.958  1.00  0.00    -0.003 C 
HETATM   23  C1  UNL     1       0.417   1.195   7.611  1.00  0.00     0.009 C 
ENDBRANCH  21  22
BRANCH  21  24
HETATM   24  C23 UNL     1      -1.566   3.008   8.154  1.00  0.00     0.104 C 
HETATM   25  C24 UNL     1      -1.990   4.255   7.426  1.00  0.00     0.035 C 
BRANCH  24  26
HETATM   26  N1  UNL     1      -2.292   2.935   9.398  1.00  0.00    -0.419 N 
HETATM   27  C25 UNL     1      -1.508   2.630  10.548  1.00  0.00     0.140 C 
ATOM     28  H1  UNL     1      -3.298   3.091   9.452  1.00  0.00     0.153 HD
ENDBRANCH  24  26
ENDBRANCH  21  24
ENDBRANCH  20  21
ENDBRANCH   1  20
BRANCH   5  29
HETATM   29  O5  UNL     1      -4.937  -2.910   6.089  1.00  0.00    -0.390 OA
ATOM     30  H5  UNL     1      -4.165  -3.261   5.661  1.00  0.00     0.210 HD
ENDBRANCH   5  29
BRANCH   2  31
HETATM   31  O2  UNL     1      -4.362  -0.677   9.350  1.00  0.00    -0.354 OA
BRANCH  31  32
HETATM   32  C6  UNL     1      -4.310   0.091  10.547  1.00  0.00     0.209 C 
BRANCH  32  33
HETATM   33  C7  UNL     1      -5.552  -0.208  11.312  1.00  0.00    -0.035 A 
HETATM   34  C8  UNL     1      -6.707  -0.449  10.578  1.00  0.00     0.009 A 
HETATM   35  C9  UNL     1      -7.875  -0.740  11.219  1.00  0.00     0.001 A 
HETATM   36  C10 UNL     1      -7.939  -0.804  12.612  1.00  0.00     0.000 A 
HETATM   37  C11 UNL     1      -6.789  -0.565  13.346  1.00  0.00     0.001 A 
HETATM   38  C12 UNL     1      -5.623  -0.272  12.697  1.00  0.00     0.009 A 
ENDBRANCH  32  33
ENDBRANCH  31  32
ENDBRANCH   2  31
BRANCH   4  39
HETATM   39  C14 UNL     1      -2.713  -3.838   7.165  1.00  0.00     0.201 C 
BRANCH  39  40
HETATM   40  O4  UNL     1      -3.311  -5.064   7.077  1.00  0.00    -0.393 OA
HETATM   41  C15 UNL     1      -3.797  -5.550   8.262  1.00  0.00     0.201 C 
ENDBRANCH  39  40
ENDBRANCH   4  39
TORSDOF 17
ENDMDL
