MODEL 1
REMARK VINA RESULT: -7.443035985      0.000      0.000
REMARK  16 active torsions:
REMARK  status: ('A' for Active; 'I' for Inactive)
REMARK    1  A    between atoms: C2_2  and  C3_3 
REMARK    2  A    between atoms: C3_3  and  C4_4 
REMARK    3  A    between atoms: C3_3  and  N1_8 
REMARK    4  A    between atoms: C4_4  and  C5_5 
REMARK    5  A    between atoms: C5_5  and  O1_6 
REMARK    6  A    between atoms: N1_8  and  C6_10 
REMARK    7  A    between atoms: C6_10  and  C7_11 
REMARK    8  A    between atoms: C8_13  and  O3_14 
REMARK    9  A    between atoms: O3_14  and  C9_15 
REMARK   10  A    between atoms: C13_19  and  O4_20 
REMARK   11  A    between atoms: C16_23  and  O5_24 
REMARK   12  A    between atoms: C19_28  and  O7_29 
REMARK   13  A    between atoms: C20_31  and  O8_32 
REMARK   14  A    between atoms: C21_34  and  C22_35 
REMARK   15  A    between atoms: C24_38  and  C25_39 
REMARK   16  A    between atoms: C25_39  and  O10_40 
ROOT
HETATM    1  C7  UNL     1      -4.255  -0.974   9.217  1.00  0.00     0.173 C 
HETATM    2  O2  UNL     1      -5.036  -1.073   8.090  1.00  0.00    -0.349 OA
HETATM    3  C8  UNL     1      -4.721  -2.050   7.229  1.00  0.00     0.293 C 
HETATM    4  C21 UNL     1      -3.221  -2.048   6.923  1.00  0.00     0.199 C 
HETATM    5  O9  UNL     1      -2.572  -0.985   7.545  1.00  0.00    -0.367 OA
HETATM    6  C24 UNL     1      -2.829  -1.039   8.941  1.00  0.00     0.176 C 
ENDROOT
BRANCH   3   7
HETATM    7  O3  UNL     1      -5.426  -1.780   6.013  1.00  0.00    -0.348 OA
BRANCH   7   8
HETATM    8  C9  UNL     1      -6.286  -0.700   6.141  1.00  0.00     0.185 C 
HETATM    9  C10 UNL     1      -7.657  -1.102   5.691  1.00  0.00     0.154 C 
HETATM   10  C11 UNL     1      -7.704  -2.077   4.556  1.00  0.00     0.037 C 
HETATM   11  O6  UNL     1      -8.560  -0.106   5.582  1.00  0.00    -0.373 OA
HETATM   12  C12 UNL     1      -7.313  -1.607   3.220  1.00  0.00     0.034 C 
HETATM   13  C13 UNL     1      -8.276  -0.753   2.477  1.00  0.00     0.123 C 
HETATM   14  C15 UNL     1      -7.898   0.721   2.739  1.00  0.00     0.066 C 
HETATM   15  C16 UNL     1      -8.754   1.347   3.782  1.00  0.00     0.154 C 
HETATM   16  C18 UNL     1      -8.221   1.124   5.185  1.00  0.00     0.182 C 
HETATM   17  C19 UNL     1      -6.831   1.586   5.377  1.00  0.00     0.180 C 
HETATM   18  C20 UNL     1      -5.770   0.549   5.487  1.00  0.00     0.181 C 
BRANCH  13  19
HETATM   19  O4  UNL     1      -8.161  -0.948   1.102  1.00  0.00    -0.391 OA
HETATM   20  C14 UNL     1      -7.333  -0.022   0.475  1.00  0.00     0.202 C 
ENDBRANCH  13  19
BRANCH  15  21
HETATM   21  O5  UNL     1     -10.039   0.762   3.764  1.00  0.00    -0.388 OA
HETATM   22  C17 UNL     1     -11.044   1.708   3.864  1.00  0.00     0.202 C 
ENDBRANCH  15  21
BRANCH  17  23
HETATM   23  O7  UNL     1      -6.737   2.491   6.463  1.00  0.00    -0.390 OA
ATOM     24  H7  UNL     1      -5.874   2.887   6.507  1.00  0.00     0.210 HD
ENDBRANCH  17  23
BRANCH  18  25
HETATM   25  O8  UNL     1      -4.776   1.073   6.360  1.00  0.00    -0.390 OA
ATOM     26  H8  UNL     1      -3.993   1.186   5.834  1.00  0.00     0.210 HD
ENDBRANCH  18  25
ENDBRANCH   7   8
ENDBRANCH   3   7
BRANCH   4  27
HETATM   27  C22 UNL     1      -2.599  -3.358   7.142  1.00  0.00    -0.001 C 
HETATM   28  C23 UNL     1      -3.204  -4.507   7.389  1.00  0.00     0.009 C 
ENDBRANCH   4  27
BRANCH   1  29
HETATM   29  C6  UNL     1      -4.767   0.099  10.152  1.00  0.00     0.149 C 
BRANCH  29  30
HETATM   30  N1  UNL     1      -5.239  -0.425  11.377  1.00  0.00    -0.411 N 
ATOM     31  H1  UNL     1      -4.656  -1.066  11.915  1.00  0.00     0.153 HD
BRANCH  30  32
HETATM   32  C3  UNL     1      -6.497  -0.069  11.851  1.00  0.00     0.100 C 
BRANCH  32  33
HETATM   33  C2  UNL     1      -7.518  -0.574  10.820  1.00  0.00    -0.013 C 
HETATM   34  C1  UNL     1      -8.254   0.181  10.208  1.00  0.00     0.009 C 
ENDBRANCH  32  33
BRANCH  32  35
HETATM   35  C4  UNL     1      -6.974  -0.448  13.189  1.00  0.00     0.054 C 
BRANCH  35  36
HETATM   36  C5  UNL     1      -5.920  -0.866  14.180  1.00  0.00     0.166 C 
BRANCH  36  37
HETATM   37  O1  UNL     1      -6.447  -1.243  15.422  1.00  0.00    -0.401 OA
ATOM     38  H1  UNL     1      -5.877  -1.826  15.910  1.00  0.00     0.209 HD
ENDBRANCH  36  37
ENDBRANCH  35  36
ENDBRANCH  32  35
ENDBRANCH  30  32
ENDBRANCH  29  30
ENDBRANCH   1  29
BRANCH   6  39
HETATM   39  C25 UNL     1      -1.890  -0.072   9.562  1.00  0.00     0.198 C 
BRANCH  39  40
HETATM   40  O10 UNL     1      -0.577  -0.190   9.116  1.00  0.00    -0.398 OA
ATOM     41  H10 UNL     1      -0.060   0.600   9.220  1.00  0.00     0.209 HD
ENDBRANCH  39  40
ENDBRANCH   6  39
TORSDOF 16
ENDMDL
MODEL 2
REMARK VINA RESULT: -7.263866346      0.805      1.390
REMARK  16 active torsions:
REMARK  status: ('A' for Active; 'I' for Inactive)
REMARK    1  A    between atoms: C2_2  and  C3_3 
REMARK    2  A    between atoms: C3_3  and  C4_4 
REMARK    3  A    between atoms: C3_3  and  N1_8 
REMARK    4  A    between atoms: C4_4  and  C5_5 
REMARK    5  A    between atoms: C5_5  and  O1_6 
REMARK    6  A    between atoms: N1_8  and  C6_10 
REMARK    7  A    between atoms: C6_10  and  C7_11 
REMARK    8  A    between atoms: C8_13  and  O3_14 
REMARK    9  A    between atoms: O3_14  and  C9_15 
REMARK   10  A    between atoms: C13_19  and  O4_20 
REMARK   11  A    between atoms: C16_23  and  O5_24 
REMARK   12  A    between atoms: C19_28  and  O7_29 
REMARK   13  A    between atoms: C20_31  and  O8_32 
REMARK   14  A    between atoms: C21_34  and  C22_35 
REMARK   15  A    between atoms: C24_38  and  C25_39 
REMARK   16  A    between atoms: C25_39  and  O10_40 
ROOT
HETATM    1  C7  UNL     1      -4.153  -0.890   9.235  1.00  0.00     0.173 C 
HETATM    2  O2  UNL     1      -4.958  -1.004   8.127  1.00  0.00    -0.349 OA
HETATM    3  C8  UNL     1      -4.681  -2.014   7.290  1.00  0.00     0.293 C 
HETATM    4  C21 UNL     1      -3.188  -2.055   6.955  1.00  0.00     0.199 C 
HETATM    5  O9  UNL     1      -2.504  -0.988   7.532  1.00  0.00    -0.367 OA
HETATM    6  C24 UNL     1      -2.734  -0.994   8.934  1.00  0.00     0.176 C 
ENDROOT
BRANCH   3   7
HETATM    7  O3  UNL     1      -5.404  -1.765   6.080  1.00  0.00    -0.348 OA
BRANCH   7   8
HETATM    8  C9  UNL     1      -6.258  -0.678   6.200  1.00  0.00     0.185 C 
HETATM    9  C10 UNL     1      -7.633  -1.079   5.762  1.00  0.00     0.154 C 
HETATM   10  C11 UNL     1      -7.691  -2.066   4.638  1.00  0.00     0.037 C 
HETATM   11  O6  UNL     1      -8.532  -0.080   5.646  1.00  0.00    -0.373 OA
HETATM   12  C12 UNL     1      -7.304  -1.612   3.295  1.00  0.00     0.034 C 
HETATM   13  C13 UNL     1      -8.267  -0.762   2.547  1.00  0.00     0.123 C 
HETATM   14  C15 UNL     1      -7.880   0.713   2.791  1.00  0.00     0.066 C 
HETATM   15  C16 UNL     1      -8.728   1.355   3.832  1.00  0.00     0.154 C 
HETATM   16  C18 UNL     1      -8.189   1.144   5.234  1.00  0.00     0.182 C 
HETATM   17  C19 UNL     1      -6.796   1.601   5.414  1.00  0.00     0.180 C 
HETATM   18  C20 UNL     1      -5.739   0.561   5.530  1.00  0.00     0.181 C 
BRANCH  13  19
HETATM   19  O4  UNL     1      -8.159  -0.972   1.173  1.00  0.00    -0.391 OA
HETATM   20  C14 UNL     1      -7.374  -0.025   0.524  1.00  0.00     0.202 C 
ENDBRANCH  13  19
BRANCH  15  21
HETATM   21  O5  UNL     1     -10.016   0.775   3.826  1.00  0.00    -0.388 OA
HETATM   22  C17 UNL     1     -11.015   1.729   3.916  1.00  0.00     0.202 C 
ENDBRANCH  15  21
BRANCH  17  23
HETATM   23  O7  UNL     1      -6.692   2.518   6.489  1.00  0.00    -0.390 OA
ATOM     24  H7  UNL     1      -7.142   2.196   7.261  1.00  0.00     0.210 HD
ENDBRANCH  17  23
BRANCH  18  25
HETATM   25  O8  UNL     1      -4.738   1.089   6.392  1.00  0.00    -0.390 OA
ATOM     26  H8  UNL     1      -4.594   0.434   7.065  1.00  0.00     0.210 HD
ENDBRANCH  18  25
ENDBRANCH   7   8
ENDBRANCH   3   7
BRANCH   4  27
HETATM   27  C22 UNL     1      -2.590  -3.371   7.202  1.00  0.00    -0.001 C 
HETATM   28  C23 UNL     1      -3.202  -4.471   7.604  1.00  0.00     0.009 C 
ENDBRANCH   4  27
BRANCH   1  29
HETATM   29  C6  UNL     1      -4.622   0.223  10.147  1.00  0.00     0.149 C 
BRANCH  29  30
HETATM   30  N1  UNL     1      -4.598  -0.145  11.512  1.00  0.00    -0.411 N 
ATOM     31  H1  UNL     1      -3.729  -0.075  12.042  1.00  0.00     0.153 HD
BRANCH  30  32
HETATM   32  C3  UNL     1      -5.754  -0.601  12.134  1.00  0.00     0.100 C 
BRANCH  32  33
HETATM   33  C2  UNL     1      -5.477  -0.591  13.645  1.00  0.00    -0.013 C 
HETATM   34  C1  UNL     1      -6.310  -0.940  14.464  1.00  0.00     0.009 C 
ENDBRANCH  32  33
BRANCH  32  35
HETATM   35  C4  UNL     1      -7.069   0.015  11.908  1.00  0.00     0.054 C 
BRANCH  35  36
HETATM   36  C5  UNL     1      -8.111  -0.855  11.255  1.00  0.00     0.166 C 
BRANCH  36  37
HETATM   37  O1  UNL     1      -9.028  -1.397  12.164  1.00  0.00    -0.401 OA
ATOM     38  H1  UNL     1      -9.904  -1.043  12.071  1.00  0.00     0.209 HD
ENDBRANCH  36  37
ENDBRANCH  35  36
ENDBRANCH  32  35
ENDBRANCH  30  32
ENDBRANCH  29  30
ENDBRANCH   1  29
BRANCH   6  39
HETATM   39  C25 UNL     1      -1.762  -0.030   9.507  1.00  0.00     0.198 C 
BRANCH  39  40
HETATM   40  O10 UNL     1      -0.468  -0.169   9.015  1.00  0.00    -0.398 OA
ATOM     41  H10 UNL     1      -0.417  -0.623   8.182  1.00  0.00     0.209 HD
ENDBRANCH  39  40
ENDBRANCH   6  39
TORSDOF 16
ENDMDL
MODEL 3
REMARK VINA RESULT: -7.167439482      1.719      3.015
REMARK  16 active torsions:
REMARK  status: ('A' for Active; 'I' for Inactive)
REMARK    1  A    between atoms: C2_2  and  C3_3 
REMARK    2  A    between atoms: C3_3  and  C4_4 
REMARK    3  A    between atoms: C3_3  and  N1_8 
REMARK    4  A    between atoms: C4_4  and  C5_5 
REMARK    5  A    between atoms: C5_5  and  O1_6 
REMARK    6  A    between atoms: N1_8  and  C6_10 
REMARK    7  A    between atoms: C6_10  and  C7_11 
REMARK    8  A    between atoms: C8_13  and  O3_14 
REMARK    9  A    between atoms: O3_14  and  C9_15 
REMARK   10  A    between atoms: C13_19  and  O4_20 
REMARK   11  A    between atoms: C16_23  and  O5_24 
REMARK   12  A    between atoms: C19_28  and  O7_29 
REMARK   13  A    between atoms: C20_31  and  O8_32 
REMARK   14  A    between atoms: C21_34  and  C22_35 
REMARK   15  A    between atoms: C24_38  and  C25_39 
REMARK   16  A    between atoms: C25_39  and  O10_40 
ROOT
HETATM    1  C7  UNL     1      -3.874  -0.523   9.620  1.00  0.00     0.173 C 
HETATM    2  O2  UNL     1      -5.072  -0.654   8.961  1.00  0.00    -0.349 OA
HETATM    3  C8  UNL     1      -5.154  -1.647   8.063  1.00  0.00     0.293 C 
HETATM    4  C21 UNL     1      -3.947  -1.636   7.122  1.00  0.00     0.199 C 
HETATM    5  O9  UNL     1      -3.110  -0.552   7.375  1.00  0.00    -0.367 OA
HETATM    6  C24 UNL     1      -2.718  -0.579   8.740  1.00  0.00     0.176 C 
ENDROOT
BRANCH   3   7
HETATM    7  O3  UNL     1      -6.331  -1.411   7.284  1.00  0.00    -0.348 OA
BRANCH   7   8
HETATM    8  C9  UNL     1      -6.026  -1.002   5.994  1.00  0.00     0.185 C 
HETATM    9  C10 UNL     1      -6.369   0.447   5.840  1.00  0.00     0.154 C 
HETATM   10  C11 UNL     1      -7.573   0.911   6.600  1.00  0.00     0.037 C 
HETATM   11  O6  UNL     1      -6.303   0.942   4.587  1.00  0.00    -0.373 OA
HETATM   12  C12 UNL     1      -8.897   0.463   6.145  1.00  0.00     0.034 C 
HETATM   13  C13 UNL     1      -9.464   1.103   4.930  1.00  0.00     0.123 C 
HETATM   14  C15 UNL     1      -9.116   0.209   3.721  1.00  0.00     0.066 C 
HETATM   15  C16 UNL     1      -7.944   0.718   2.960  1.00  0.00     0.154 C 
HETATM   16  C18 UNL     1      -6.625   0.213   3.514  1.00  0.00     0.182 C 
HETATM   17  C19 UNL     1      -6.535  -1.260   3.590  1.00  0.00     0.180 C 
HETATM   18  C20 UNL     1      -6.619  -1.887   4.936  1.00  0.00     0.181 C 
BRANCH  13  19
HETATM   19  O4  UNL     1     -10.856   1.152   4.994  1.00  0.00    -0.391 OA
HETATM   20  C14 UNL     1     -11.407   0.220   5.865  1.00  0.00     0.202 C 
ENDBRANCH  13  19
BRANCH  15  21
HETATM   21  O5  UNL     1      -7.884   2.126   3.056  1.00  0.00    -0.388 OA
HETATM   22  C17 UNL     1      -7.769   2.728   1.814  1.00  0.00     0.202 C 
ENDBRANCH  15  21
BRANCH  17  23
HETATM   23  O7  UNL     1      -5.390  -1.739   2.905  1.00  0.00    -0.390 OA
ATOM     24  H7  UNL     1      -5.633  -2.197   2.108  1.00  0.00     0.210 HD
ENDBRANCH  17  23
BRANCH  18  25
HETATM   25  O8  UNL     1      -5.809  -3.055   4.895  1.00  0.00    -0.390 OA
ATOM     26  H8  UNL     1      -6.250  -3.704   5.431  1.00  0.00     0.210 HD
ENDBRANCH  18  25
ENDBRANCH   7   8
ENDBRANCH   3   7
BRANCH   4  27
HETATM   27  C22 UNL     1      -3.267  -2.934   7.061  1.00  0.00    -0.001 C 
HETATM   28  C23 UNL     1      -3.551  -4.026   7.749  1.00  0.00     0.009 C 
ENDBRANCH   4  27
BRANCH   1  29
HETATM   29  C6  UNL     1      -3.937   0.565  10.670  1.00  0.00     0.149 C 
BRANCH  29  30
HETATM   30  N1  UNL     1      -4.168   0.057  11.969  1.00  0.00    -0.411 N 
ATOM     31  H1  UNL     1      -3.426   0.096  12.669  1.00  0.00     0.153 HD
BRANCH  30  32
HETATM   32  C3  UNL     1      -5.401  -0.495  12.295  1.00  0.00     0.100 C 
BRANCH  32  33
HETATM   33  C2  UNL     1      -5.354  -0.827  13.794  1.00  0.00    -0.013 C 
HETATM   34  C1  UNL     1      -6.363  -0.919  14.473  1.00  0.00     0.009 C 
ENDBRANCH  32  33
BRANCH  32  35
HETATM   35  C4  UNL     1      -6.672   0.191  12.019  1.00  0.00     0.054 C 
BRANCH  35  36
HETATM   36  C5  UNL     1      -7.595  -0.482  11.038  1.00  0.00     0.166 C 
BRANCH  36  37
HETATM   37  O1  UNL     1      -7.685   0.189   9.812  1.00  0.00    -0.401 OA
ATOM     38  H1  UNL     1      -8.308   0.905   9.820  1.00  0.00     0.209 HD
ENDBRANCH  36  37
ENDBRANCH  35  36
ENDBRANCH  32  35
ENDBRANCH  30  32
ENDBRANCH  29  30
ENDBRANCH   1  29
BRANCH   6  39
HETATM   39  C25 UNL     1      -1.619   0.412   8.864  1.00  0.00     0.198 C 
BRANCH  39  40
HETATM   40  O10 UNL     1      -0.350  -0.155   8.929  1.00  0.00    -0.398 OA
ATOM     41  H10 UNL     1       0.098  -0.200   8.093  1.00  0.00     0.209 HD
ENDBRANCH  39  40
ENDBRANCH   6  39
TORSDOF 16
ENDMDL
MODEL 4
REMARK VINA RESULT: -7.071356464      1.296      2.847
REMARK  16 active torsions:
REMARK  status: ('A' for Active; 'I' for Inactive)
REMARK    1  A    between atoms: C2_2  and  C3_3 
REMARK    2  A    between atoms: C3_3  and  C4_4 
REMARK    3  A    between atoms: C3_3  and  N1_8 
REMARK    4  A    between atoms: C4_4  and  C5_5 
REMARK    5  A    between atoms: C5_5  and  O1_6 
REMARK    6  A    between atoms: N1_8  and  C6_10 
REMARK    7  A    between atoms: C6_10  and  C7_11 
REMARK    8  A    between atoms: C8_13  and  O3_14 
REMARK    9  A    between atoms: O3_14  and  C9_15 
REMARK   10  A    between atoms: C13_19  and  O4_20 
REMARK   11  A    between atoms: C16_23  and  O5_24 
REMARK   12  A    between atoms: C19_28  and  O7_29 
REMARK   13  A    between atoms: C20_31  and  O8_32 
REMARK   14  A    between atoms: C21_34  and  C22_35 
REMARK   15  A    between atoms: C24_38  and  C25_39 
REMARK   16  A    between atoms: C25_39  and  O10_40 
ROOT
HETATM    1  C7  UNL     1      -4.180  -0.820   9.304  1.00  0.00     0.173 C 
HETATM    2  O2  UNL     1      -5.279  -0.832   8.480  1.00  0.00    -0.349 OA
HETATM    3  C8  UNL     1      -5.274  -1.737   7.491  1.00  0.00     0.293 C 
HETATM    4  C21 UNL     1      -3.948  -1.706   6.726  1.00  0.00     0.199 C 
HETATM    5  O9  UNL     1      -3.112  -0.694   7.190  1.00  0.00    -0.367 OA
HETATM    6  C24 UNL     1      -2.916  -0.859   8.587  1.00  0.00     0.176 C 
ENDROOT
BRANCH   3   7
HETATM    7  O3  UNL     1      -6.321  -1.374   6.585  1.00  0.00    -0.348 OA
BRANCH   7   8
HETATM    8  C9  UNL     1      -5.965  -1.599   5.263  1.00  0.00     0.185 C 
HETATM    9  C10 UNL     1      -5.618  -0.295   4.615  1.00  0.00     0.154 C 
HETATM   10  C11 UNL     1      -6.413   0.887   5.076  1.00  0.00     0.037 C 
HETATM   11  O6  UNL     1      -5.432  -0.328   3.279  1.00  0.00    -0.373 OA
HETATM   12  C12 UNL     1      -7.826   0.971   4.680  1.00  0.00     0.034 C 
HETATM   13  C13 UNL     1      -8.131   1.359   3.279  1.00  0.00     0.123 C 
HETATM   14  C15 UNL     1      -8.327   0.064   2.463  1.00  0.00     0.066 C 
HETATM   15  C16 UNL     1      -7.115  -0.301   1.681  1.00  0.00     0.154 C 
HETATM   16  C18 UNL     1      -6.135  -1.137   2.481  1.00  0.00     0.182 C 
HETATM   17  C19 UNL     1      -6.722  -2.372   3.042  1.00  0.00     0.180 C 
HETATM   18  C20 UNL     1      -6.978  -2.408   4.507  1.00  0.00     0.181 C 
BRANCH  13  19
HETATM   19  O4  UNL     1      -9.337   2.055   3.204  1.00  0.00    -0.391 OA
HETATM   20  C14 UNL     1     -10.388   1.420   3.855  1.00  0.00     0.202 C 
ENDBRANCH  13  19
BRANCH  15  21
HETATM   21  O5  UNL     1      -6.411   0.868   1.316  1.00  0.00    -0.388 OA
HETATM   22  C17 UNL     1      -6.349   1.030  -0.058  1.00  0.00     0.202 C 
ENDBRANCH  15  21
BRANCH  17  23
HETATM   23  O7  UNL     1      -5.982  -3.515   2.652  1.00  0.00    -0.390 OA
ATOM     24  H7  UNL     1      -6.388  -4.313   2.969  1.00  0.00     0.210 HD
ENDBRANCH  17  23
BRANCH  18  25
HETATM   25  O8  UNL     1      -6.798  -3.758   4.920  1.00  0.00    -0.390 OA
ATOM     26  H8  UNL     1      -6.636  -4.258   4.129  1.00  0.00     0.210 HD
ENDBRANCH  18  25
ENDBRANCH   7   8
ENDBRANCH   3   7
BRANCH   4  27
HETATM   27  C22 UNL     1      -3.318  -3.027   6.637  1.00  0.00    -0.001 C 
HETATM   28  C23 UNL     1      -3.768  -4.170   7.126  1.00  0.00     0.009 C 
ENDBRANCH   4  27
BRANCH   1  29
HETATM   29  C6  UNL     1      -4.346   0.175  10.432  1.00  0.00     0.149 C 
BRANCH  29  30
HETATM   30  N1  UNL     1      -4.976  -0.387  11.567  1.00  0.00    -0.411 N 
ATOM     31  H1  UNL     1      -4.516  -1.135  12.086  1.00  0.00     0.153 HD
BRANCH  30  32
HETATM   32  C3  UNL     1      -6.221   0.077  11.977  1.00  0.00     0.100 C 
BRANCH  32  33
HETATM   33  C2  UNL     1      -7.259  -0.553  11.036  1.00  0.00    -0.013 C 
HETATM   34  C1  UNL     1      -8.339  -0.957  11.433  1.00  0.00     0.009 C 
ENDBRANCH  32  33
BRANCH  32  35
HETATM   35  C4  UNL     1      -6.705  -0.072  13.356  1.00  0.00     0.054 C 
BRANCH  35  36
HETATM   36  C5  UNL     1      -5.863  -0.923  14.271  1.00  0.00     0.166 C 
BRANCH  36  37
HETATM   37  O1  UNL     1      -6.527  -1.293  15.448  1.00  0.00    -0.401 OA
ATOM     38  H1  UNL     1      -6.295  -2.163  15.752  1.00  0.00     0.209 HD
ENDBRANCH  36  37
ENDBRANCH  35  36
ENDBRANCH  32  35
ENDBRANCH  30  32
ENDBRANCH  29  30
ENDBRANCH   1  29
BRANCH   6  39
HETATM   39  C25 UNL     1      -1.807   0.059   8.950  1.00  0.00     0.198 C 
BRANCH  39  40
HETATM   40  O10 UNL     1      -0.539  -0.476   8.749  1.00  0.00    -0.398 OA
ATOM     41  H10 UNL     1       0.044  -0.381   9.493  1.00  0.00     0.209 HD
ENDBRANCH  39  40
ENDBRANCH   6  39
TORSDOF 16
ENDMDL
MODEL 5
REMARK VINA RESULT: -7.042626772      1.718      3.297
REMARK  16 active torsions:
REMARK  status: ('A' for Active; 'I' for Inactive)
REMARK    1  A    between atoms: C2_2  and  C3_3 
REMARK    2  A    between atoms: C3_3  and  C4_4 
REMARK    3  A    between atoms: C3_3  and  N1_8 
REMARK    4  A    between atoms: C4_4  and  C5_5 
REMARK    5  A    between atoms: C5_5  and  O1_6 
REMARK    6  A    between atoms: N1_8  and  C6_10 
REMARK    7  A    between atoms: C6_10  and  C7_11 
REMARK    8  A    between atoms: C8_13  and  O3_14 
REMARK    9  A    between atoms: O3_14  and  C9_15 
REMARK   10  A    between atoms: C13_19  and  O4_20 
REMARK   11  A    between atoms: C16_23  and  O5_24 
REMARK   12  A    between atoms: C19_28  and  O7_29 
REMARK   13  A    between atoms: C20_31  and  O8_32 
REMARK   14  A    between atoms: C21_34  and  C22_35 
REMARK   15  A    between atoms: C24_38  and  C25_39 
REMARK   16  A    between atoms: C25_39  and  O10_40 
ROOT
HETATM    1  C7  UNL     1      -3.973  -0.929   9.371  1.00  0.00     0.173 C 
HETATM    2  O2  UNL     1      -5.087  -0.944   8.567  1.00  0.00    -0.349 OA
HETATM    3  C8  UNL     1      -5.099  -1.854   7.582  1.00  0.00     0.293 C 
HETATM    4  C21 UNL     1      -3.788  -1.825   6.793  1.00  0.00     0.199 C 
HETATM    5  O9  UNL     1      -2.945  -0.810   7.237  1.00  0.00    -0.367 OA
HETATM    6  C24 UNL     1      -2.722  -0.970   8.630  1.00  0.00     0.176 C 
ENDROOT
BRANCH   3   7
HETATM    7  O3  UNL     1      -6.163  -1.495   6.694  1.00  0.00    -0.348 OA
BRANCH   7   8
HETATM    8  C9  UNL     1      -5.846  -1.759   5.370  1.00  0.00     0.185 C 
HETATM    9  C10 UNL     1      -5.473  -0.481   4.686  1.00  0.00     0.154 C 
HETATM   10  C11 UNL     1      -6.218   0.736   5.138  1.00  0.00     0.037 C 
HETATM   11  O6  UNL     1      -5.319  -0.549   3.347  1.00  0.00    -0.373 OA
HETATM   12  C12 UNL     1      -7.636   0.857   4.774  1.00  0.00     0.034 C 
HETATM   13  C13 UNL     1      -7.961   1.226   3.371  1.00  0.00     0.123 C 
HETATM   14  C15 UNL     1      -8.218  -0.079   2.589  1.00  0.00     0.066 C 
HETATM   15  C16 UNL     1      -7.037  -0.499   1.787  1.00  0.00     0.154 C 
HETATM   16  C18 UNL     1      -6.066  -1.351   2.583  1.00  0.00     0.182 C 
HETATM   17  C19 UNL     1      -6.679  -2.553   3.184  1.00  0.00     0.180 C 
HETATM   18  C20 UNL     1      -6.902  -2.551   4.654  1.00  0.00     0.181 C 
BRANCH  13  19
HETATM   19  O4  UNL     1      -9.145   1.959   3.308  1.00  0.00    -0.391 OA
HETATM   20  C14 UNL     1     -10.176   1.420   4.070  1.00  0.00     0.202 C 
ENDBRANCH  13  19
BRANCH  15  21
HETATM   21  O5  UNL     1      -6.304   0.637   1.381  1.00  0.00    -0.388 OA
HETATM   22  C17 UNL     1      -6.246   0.754   0.003  1.00  0.00     0.202 C 
ENDBRANCH  15  21
BRANCH  17  23
HETATM   23  O7  UNL     1      -5.985  -3.728   2.802  1.00  0.00    -0.390 OA
ATOM     24  H7  UNL     1      -5.044  -3.595   2.824  1.00  0.00     0.210 HD
ENDBRANCH  17  23
BRANCH  18  25
HETATM   25  O8  UNL     1      -6.755  -3.896   5.092  1.00  0.00    -0.390 OA
ATOM     26  H8  UNL     1      -5.875  -3.967   5.444  1.00  0.00     0.210 HD
ENDBRANCH  18  25
ENDBRANCH   7   8
ENDBRANCH   3   7
BRANCH   4  27
HETATM   27  C22 UNL     1      -3.159  -3.146   6.697  1.00  0.00    -0.001 C 
HETATM   28  C23 UNL     1      -3.663  -4.309   7.073  1.00  0.00     0.009 C 
ENDBRANCH   4  27
BRANCH   1  29
HETATM   29  C6  UNL     1      -4.118   0.070  10.498  1.00  0.00     0.149 C 
BRANCH  29  30
HETATM   30  N1  UNL     1      -5.468   0.396  10.767  1.00  0.00    -0.411 N 
ATOM     31  H1  UNL     1      -5.838   1.303  10.484  1.00  0.00     0.153 HD
BRANCH  30  32
HETATM   32  C3  UNL     1      -6.291  -0.517  11.418  1.00  0.00     0.100 C 
BRANCH  32  33
HETATM   33  C2  UNL     1      -6.162  -0.235  12.922  1.00  0.00    -0.013 C 
HETATM   34  C1  UNL     1      -7.000  -0.602  13.728  1.00  0.00     0.009 C 
ENDBRANCH  32  33
BRANCH  32  35
HETATM   35  C4  UNL     1      -7.719  -0.658  11.100  1.00  0.00     0.054 C 
BRANCH  35  36
HETATM   36  C5  UNL     1      -8.278   0.307  10.088  1.00  0.00     0.166 C 
BRANCH  36  37
HETATM   37  O1  UNL     1      -7.602   0.276   8.861  1.00  0.00    -0.401 OA
ATOM     38  H1  UNL     1      -7.247  -0.580   8.650  1.00  0.00     0.209 HD
ENDBRANCH  36  37
ENDBRANCH  35  36
ENDBRANCH  32  35
ENDBRANCH  30  32
ENDBRANCH  29  30
ENDBRANCH   1  29
BRANCH   6  39
HETATM   39  C25 UNL     1      -1.608  -0.050   8.969  1.00  0.00     0.198 C 
BRANCH  39  40
HETATM   40  O10 UNL     1      -0.358  -0.494   8.549  1.00  0.00    -0.398 OA
ATOM     41  H10 UNL     1       0.332   0.155   8.630  1.00  0.00     0.209 HD
ENDBRANCH  39  40
ENDBRANCH   6  39
TORSDOF 16
ENDMDL
