MODEL 1
REMARK VINA RESULT: -6.947369768      0.000      0.000
REMARK  6 active torsions:
REMARK  status: ('A' for Active; 'I' for Inactive)
REMARK    1  A    between atoms: O1_2  and  C2_3 
REMARK    2  A    between atoms: C2_3  and  C3_5 
REMARK    3  A    between atoms: N1_10  and  C8_12 
REMARK    4  A    between atoms: C10_14  and  O3_15 
REMARK    5  A    between atoms: C12_17  and  O4_18 
REMARK    6  A    between atoms: C14_20  and  O5_21 
ROOT
HETATM    1  C3  UNL     1      71.581  37.867   2.276  1.00  0.00     0.124 C 
HETATM    2  C4  UNL     1      70.258  38.566   2.286  1.00  0.00     0.005 C 
HETATM    3  C5  UNL     1      70.363  40.011   1.780  1.00  0.00     0.011 C 
HETATM    4  C6  UNL     1      69.176  37.883   1.517  1.00  0.00     0.089 C 
HETATM    5  C7  UNL     1      69.728  37.349   0.267  1.00  0.00     0.120 C 
HETATM    6  N1  UNL     1      69.044  37.475  -0.822  1.00  0.00    -0.327 N 
ATOM      7  H1  UNL     1      69.420  37.107  -1.696  1.00  0.00     0.169 HD
HETATM    8  O6  UNL     1      70.969  36.727   0.292  1.00  0.00    -0.328 OA
HETATM    9  C16 UNL     1      71.580  36.553   1.562  1.00  0.00     0.075 C 
HETATM   10  C17 UNL     1      73.035  36.195   1.269  1.00  0.00     0.047 C 
HETATM   11  C18 UNL     1      70.920  35.431   2.295  1.00  0.00     0.047 C 
ENDROOT
BRANCH   6  12
HETATM   12  C8  UNL     1      67.777  38.115  -0.822  1.00  0.00     0.111 A 
HETATM   13  C9  UNL     1      67.774  39.501  -1.009  1.00  0.00     0.088 A 
HETATM   14  C10 UNL     1      66.536  40.143  -1.010  1.00  0.00     0.109 A 
HETATM   15  C12 UNL     1      65.367  39.438  -0.835  1.00  0.00     0.153 A 
HETATM   16  C14 UNL     1      65.414  38.074  -0.655  1.00  0.00     0.180 A 
HETATM   17  N2  UNL     1      66.621  37.429  -0.651  1.00  0.00    -0.321 N 
ATOM     18  H2  UNL     1      66.650  36.418  -0.518  1.00  0.00     0.169 HD
BRANCH  14  19
HETATM   19  O3  UNL     1      66.448  41.511  -1.188  1.00  0.00    -0.353 OA
HETATM   20  C11 UNL     1      67.632  42.206  -1.522  1.00  0.00     0.210 C 
ENDBRANCH  14  19
BRANCH  15  21
HETATM   21  O4  UNL     1      64.180  40.096  -0.843  1.00  0.00    -0.349 OA
HETATM   22  C13 UNL     1      62.932  39.532  -0.496  1.00  0.00     0.210 C 
ENDBRANCH  15  21
BRANCH  16  23
HETATM   23  O5  UNL     1      64.222  37.385  -0.481  1.00  0.00    -0.339 OA
HETATM   24  C15 UNL     1      64.121  36.495   0.611  1.00  0.00     0.211 C 
ENDBRANCH  16  23
ENDBRANCH   6  12
BRANCH   1  25
HETATM   25  C2  UNL     1      72.075  37.755   3.672  1.00  0.00     0.266 C 
HETATM   26  O2  UNL     1      71.316  38.016   4.636  1.00  0.00    -0.265 OA
BRANCH  25  27
HETATM   27  O1  UNL     1      73.372  37.363   3.958  1.00  0.00    -0.326 OA
HETATM   28  C1  UNL     1      73.660  36.397   4.968  1.00  0.00     0.213 C 
ENDBRANCH  25  27
ENDBRANCH   1  25
TORSDOF 6
ENDMDL
MODEL 2
REMARK VINA RESULT: -6.554482399      1.723      2.387
REMARK  6 active torsions:
REMARK  status: ('A' for Active; 'I' for Inactive)
REMARK    1  A    between atoms: O1_2  and  C2_3 
REMARK    2  A    between atoms: C2_3  and  C3_5 
REMARK    3  A    between atoms: N1_10  and  C8_12 
REMARK    4  A    between atoms: C10_14  and  O3_15 
REMARK    5  A    between atoms: C12_17  and  O4_18 
REMARK    6  A    between atoms: C14_20  and  O5_21 
ROOT
HETATM    1  C3  UNL     1      72.778  36.210   2.566  1.00  0.00     0.124 C 
HETATM    2  C4  UNL     1      71.811  37.350   2.503  1.00  0.00     0.005 C 
HETATM    3  C5  UNL     1      72.480  38.649   2.032  1.00  0.00     0.011 C 
HETATM    4  C6  UNL     1      70.607  37.113   1.652  1.00  0.00     0.089 C 
HETATM    5  C7  UNL     1      71.005  36.404   0.431  1.00  0.00     0.120 C 
HETATM    6  N1  UNL     1      70.492  36.767  -0.698  1.00  0.00    -0.327 N 
ATOM      7  H1  UNL     1      70.763  36.280  -1.552  1.00  0.00     0.169 HD
HETATM    8  O6  UNL     1      71.922  35.365   0.526  1.00  0.00    -0.328 OA
HETATM    9  C16 UNL     1      72.337  34.985   1.829  1.00  0.00     0.075 C 
HETATM   10  C17 UNL     1      73.571  34.110   1.625  1.00  0.00     0.047 C 
HETATM   11  C18 UNL     1      71.260  34.194   2.496  1.00  0.00     0.047 C 
ENDROOT
BRANCH   6  12
HETATM   12  C8  UNL     1      69.557  37.832  -0.769  1.00  0.00     0.111 A 
HETATM   13  C9  UNL     1      70.083  39.126  -0.839  1.00  0.00     0.088 A 
HETATM   14  C10 UNL     1      69.175  40.182  -0.908  1.00  0.00     0.109 A 
HETATM   15  C12 UNL     1      67.817  39.956  -0.908  1.00  0.00     0.153 A 
HETATM   16  C14 UNL     1      67.340  38.667  -0.838  1.00  0.00     0.180 A 
HETATM   17  N2  UNL     1      68.218  37.620  -0.770  1.00  0.00    -0.321 N 
ATOM     18  H2  UNL     1      67.860  36.666  -0.719  1.00  0.00     0.169 HD
BRANCH  14  19
HETATM   19  O3  UNL     1      69.615  41.491  -0.980  1.00  0.00    -0.353 OA
HETATM   20  C11 UNL     1      71.004  41.721  -0.875  1.00  0.00     0.210 C 
ENDBRANCH  14  19
BRANCH  15  21
HETATM   21  O4  UNL     1      66.962  41.009  -0.977  1.00  0.00    -0.349 OA
HETATM   22  C13 UNL     1      66.446  41.714   0.132  1.00  0.00     0.210 C 
ENDBRANCH  15  21
BRANCH  16  23
HETATM   23  O5  UNL     1      65.967  38.465  -0.840  1.00  0.00    -0.339 OA
HETATM   24  C15 UNL     1      65.483  37.183  -1.179  1.00  0.00     0.211 C 
ENDBRANCH  16  23
ENDBRANCH   6  12
BRANCH   1  25
HETATM   25  C2  UNL     1      73.098  35.931   3.989  1.00  0.00     0.266 C 
HETATM   26  O2  UNL     1      74.250  35.557   4.317  1.00  0.00    -0.265 OA
BRANCH  25  27
HETATM   27  O1  UNL     1      72.154  36.072   4.991  1.00  0.00    -0.326 OA
HETATM   28  C1  UNL     1      72.480  36.647   6.257  1.00  0.00     0.213 C 
ENDBRANCH  25  27
ENDBRANCH   1  25
TORSDOF 6
ENDMDL
MODEL 3
REMARK VINA RESULT: -6.357902364      2.618      3.680
REMARK  6 active torsions:
REMARK  status: ('A' for Active; 'I' for Inactive)
REMARK    1  A    between atoms: O1_2  and  C2_3 
REMARK    2  A    between atoms: C2_3  and  C3_5 
REMARK    3  A    between atoms: N1_10  and  C8_12 
REMARK    4  A    between atoms: C10_14  and  O3_15 
REMARK    5  A    between atoms: C12_17  and  O4_18 
REMARK    6  A    between atoms: C14_20  and  O5_21 
ROOT
HETATM    1  C3  UNL     1      70.009  39.951  -0.373  1.00  0.00     0.124 C 
HETATM    2  C4  UNL     1      68.729  39.913   0.402  1.00  0.00     0.005 C 
HETATM    3  C5  UNL     1      67.748  41.004  -0.048  1.00  0.00     0.011 C 
HETATM    4  C6  UNL     1      68.011  38.604   0.375  1.00  0.00     0.089 C 
HETATM    5  C7  UNL     1      68.082  38.037  -0.976  1.00  0.00     0.120 C 
HETATM    6  N1  UNL     1      67.027  37.487  -1.480  1.00  0.00    -0.327 N 
ATOM      7  H1  UNL     1      67.067  37.090  -2.419  1.00  0.00     0.169 HD
HETATM    8  O6  UNL     1      69.280  38.111  -1.674  1.00  0.00    -0.328 OA
HETATM    9  C16 UNL     1      70.400  38.642  -0.982  1.00  0.00     0.075 C 
HETATM   10  C17 UNL     1      71.442  38.937  -2.058  1.00  0.00     0.047 C 
HETATM   11  C18 UNL     1      70.935  37.628  -0.024  1.00  0.00     0.047 C 
ENDROOT
BRANCH   6  12
HETATM   12  C8  UNL     1      65.813  37.424  -0.747  1.00  0.00     0.111 A 
HETATM   13  C9  UNL     1      64.827  38.358  -1.082  1.00  0.00     0.088 A 
HETATM   14  C10 UNL     1      63.630  38.308  -0.369  1.00  0.00     0.109 A 
HETATM   15  C12 UNL     1      63.430  37.375   0.624  1.00  0.00     0.153 A 
HETATM   16  C14 UNL     1      64.426  36.474   0.923  1.00  0.00     0.180 A 
HETATM   17  N2  UNL     1      65.606  36.509   0.233  1.00  0.00    -0.321 N 
ATOM     18  H2  UNL     1      66.341  35.838   0.457  1.00  0.00     0.169 HD
BRANCH  14  19
HETATM   19  O3  UNL     1      62.606  39.196  -0.640  1.00  0.00    -0.353 OA
HETATM   20  C11 UNL     1      62.940  40.564  -0.759  1.00  0.00     0.210 C 
ENDBRANCH  14  19
BRANCH  15  21
HETATM   21  O4  UNL     1      62.251  37.356   1.298  1.00  0.00    -0.349 OA
HETATM   22  C13 UNL     1      61.582  36.193   1.737  1.00  0.00     0.210 C 
ENDBRANCH  15  21
BRANCH  16  23
HETATM   23  O5  UNL     1      64.200  35.543   1.929  1.00  0.00    -0.339 OA
HETATM   24  C15 UNL     1      65.174  35.409   2.942  1.00  0.00     0.211 C 
ENDBRANCH  16  23
ENDBRANCH   6  12
BRANCH   1  25
HETATM   25  C2  UNL     1      71.076  40.517   0.491  1.00  0.00     0.266 C 
HETATM   26  O2  UNL     1      71.135  40.213   1.706  1.00  0.00    -0.265 OA
BRANCH  25  27
HETATM   27  O1  UNL     1      72.031  41.387  -0.005  1.00  0.00    -0.326 OA
HETATM   28  C1  UNL     1      73.148  41.805   0.779  1.00  0.00     0.213 C 
ENDBRANCH  25  27
ENDBRANCH   1  25
TORSDOF 6
ENDMDL
MODEL 4
REMARK VINA RESULT: -6.349225356      0.594      2.543
REMARK  6 active torsions:
REMARK  status: ('A' for Active; 'I' for Inactive)
REMARK    1  A    between atoms: O1_2  and  C2_3 
REMARK    2  A    between atoms: C2_3  and  C3_5 
REMARK    3  A    between atoms: N1_10  and  C8_12 
REMARK    4  A    between atoms: C10_14  and  O3_15 
REMARK    5  A    between atoms: C12_17  and  O4_18 
REMARK    6  A    between atoms: C14_20  and  O5_21 
ROOT
HETATM    1  C3  UNL     1      71.677  37.791   2.271  1.00  0.00     0.124 C 
HETATM    2  C4  UNL     1      70.434  38.624   2.272  1.00  0.00     0.005 C 
HETATM    3  C5  UNL     1      70.676  40.025   1.694  1.00  0.00     0.011 C 
HETATM    4  C6  UNL     1      69.269  38.022   1.557  1.00  0.00     0.089 C 
HETATM    5  C7  UNL     1      69.733  37.376   0.325  1.00  0.00     0.120 C 
HETATM    6  N1  UNL     1      69.041  37.521  -0.757  1.00  0.00    -0.327 N 
ATOM      7  H1  UNL     1      69.357  37.076  -1.618  1.00  0.00     0.169 HD
HETATM    8  O6  UNL     1      70.904  36.630   0.357  1.00  0.00    -0.328 OA
HETATM    9  C16 UNL     1      71.523  36.452   1.622  1.00  0.00     0.075 C 
HETATM   10  C17 UNL     1      72.926  35.931   1.321  1.00  0.00     0.047 C 
HETATM   11  C18 UNL     1      70.768  35.441   2.422  1.00  0.00     0.047 C 
ENDROOT
BRANCH   6  12
HETATM   12  C8  UNL     1      67.848  38.290  -0.765  1.00  0.00     0.111 A 
HETATM   13  C9  UNL     1      66.645  37.583  -0.666  1.00  0.00     0.088 A 
HETATM   14  C10 UNL     1      65.465  38.327  -0.674  1.00  0.00     0.109 A 
HETATM   15  C12 UNL     1      65.488  39.699  -0.775  1.00  0.00     0.153 A 
HETATM   16  C14 UNL     1      66.693  40.356  -0.870  1.00  0.00     0.180 A 
HETATM   17  N2  UNL     1      67.860  39.642  -0.864  1.00  0.00    -0.321 N 
ATOM     18  H2  UNL     1      68.751  40.134  -0.933  1.00  0.00     0.169 HD
BRANCH  14  19
HETATM   19  O3  UNL     1      64.235  37.703  -0.580  1.00  0.00    -0.353 OA
HETATM   20  C11 UNL     1      64.101  36.657   0.360  1.00  0.00     0.210 C 
ENDBRANCH  14  19
BRANCH  15  21
HETATM   21  O4  UNL     1      64.318  40.390  -0.779  1.00  0.00    -0.349 OA
HETATM   22  C13 UNL     1      63.030  39.813  -0.749  1.00  0.00     0.210 C 
ENDBRANCH  15  21
BRANCH  16  23
HETATM   23  O5  UNL     1      66.690  41.741  -0.971  1.00  0.00    -0.339 OA
HETATM   24  C15 UNL     1      67.607  42.346  -1.857  1.00  0.00     0.211 C 
ENDBRANCH  16  23
ENDBRANCH   6  12
BRANCH   1  25
HETATM   25  C2  UNL     1      72.189  37.693   3.662  1.00  0.00     0.266 C 
HETATM   26  O2  UNL     1      71.462  38.021   4.630  1.00  0.00    -0.265 OA
BRANCH  25  27
HETATM   27  O1  UNL     1      73.468  37.241   3.938  1.00  0.00    -0.326 OA
HETATM   28  C1  UNL     1      73.722  36.279   4.962  1.00  0.00     0.213 C 
ENDBRANCH  25  27
ENDBRANCH   1  25
TORSDOF 6
ENDMDL
MODEL 5
REMARK VINA RESULT: -6.251807855      1.752      3.600
REMARK  6 active torsions:
REMARK  status: ('A' for Active; 'I' for Inactive)
REMARK    1  A    between atoms: O1_2  and  C2_3 
REMARK    2  A    between atoms: C2_3  and  C3_5 
REMARK    3  A    between atoms: N1_10  and  C8_12 
REMARK    4  A    between atoms: C10_14  and  O3_15 
REMARK    5  A    between atoms: C12_17  and  O4_18 
REMARK    6  A    between atoms: C14_20  and  O5_21 
ROOT
HETATM    1  C3  UNL     1      72.642  36.201   2.393  1.00  0.00     0.124 C 
HETATM    2  C4  UNL     1      71.961  37.532   2.340  1.00  0.00     0.005 C 
HETATM    3  C5  UNL     1      72.872  38.625   1.764  1.00  0.00     0.011 C 
HETATM    4  C6  UNL     1      70.674  37.555   1.584  1.00  0.00     0.089 C 
HETATM    5  C7  UNL     1      70.804  36.736   0.375  1.00  0.00     0.120 C 
HETATM    6  N1  UNL     1      70.304  37.172  -0.734  1.00  0.00    -0.327 N 
ATOM      7  H1  UNL     1      70.390  36.609  -1.580  1.00  0.00     0.169 HD
HETATM    8  O6  UNL     1      71.463  35.516   0.457  1.00  0.00    -0.328 OA
HETATM    9  C16 UNL     1      71.877  35.090   1.747  1.00  0.00     0.075 C 
HETATM   10  C17 UNL     1      72.859  33.946   1.503  1.00  0.00     0.047 C 
HETATM   11  C18 UNL     1      70.701  34.592   2.522  1.00  0.00     0.047 C 
ENDROOT
BRANCH   6  12
HETATM   12  C8  UNL     1      69.635  38.423  -0.793  1.00  0.00     0.111 A 
HETATM   13  C9  UNL     1      68.240  38.386  -0.873  1.00  0.00     0.088 A 
HETATM   14  C10 UNL     1      67.571  39.609  -0.933  1.00  0.00     0.109 A 
HETATM   15  C12 UNL     1      68.260  40.800  -0.913  1.00  0.00     0.153 A 
HETATM   16  C14 UNL     1      69.634  40.792  -0.834  1.00  0.00     0.180 A 
HETATM   17  N2  UNL     1      70.305  39.602  -0.775  1.00  0.00    -0.321 N 
ATOM     18  H2  UNL     1      71.324  39.601  -0.715  1.00  0.00     0.169 HD
BRANCH  14  19
HETATM   19  O3  UNL     1      66.192  39.658  -1.013  1.00  0.00    -0.353 OA
HETATM   20  C11 UNL     1      65.487  38.437  -0.929  1.00  0.00     0.210 C 
ENDBRANCH  14  19
BRANCH  15  21
HETATM   21  O4  UNL     1      67.575  41.972  -0.973  1.00  0.00    -0.349 OA
HETATM   22  C13 UNL     1      67.492  42.811  -2.105  1.00  0.00     0.210 C 
ENDBRANCH  15  21
BRANCH  16  23
HETATM   23  O5  UNL     1      70.306  42.007  -0.816  1.00  0.00    -0.339 OA
HETATM   24  C15 UNL     1      71.695  41.996  -0.563  1.00  0.00     0.211 C 
ENDBRANCH  16  23
ENDBRANCH   6  12
BRANCH   1  25
HETATM   25  C2  UNL     1      72.998  35.900   3.803  1.00  0.00     0.266 C 
HETATM   26  O2  UNL     1      74.125  35.427   4.085  1.00  0.00    -0.265 OA
BRANCH  25  27
HETATM   27  O1  UNL     1      72.113  36.127   4.844  1.00  0.00    -0.326 OA
HETATM   28  C1  UNL     1      72.528  36.741   6.063  1.00  0.00     0.213 C 
ENDBRANCH  25  27
ENDBRANCH   1  25
TORSDOF 6
ENDMDL
