MODEL 1
REMARK VINA RESULT: -6.589611725      0.000      0.000
REMARK  3 active torsions:
REMARK  status: ('A' for Active; 'I' for Inactive)
REMARK    1  A    between atoms: C5_5  and  C6_6 
REMARK    2  A    between atoms: C6_6  and  O2_8 
REMARK    3  A    between atoms: O2_8  and  C7_9 
ROOT
HETATM    1  C1  UNL     1      -3.834   0.717 -23.064  1.00  0.00     0.050 C 
HETATM    2  C2  UNL     1      -5.268   1.143 -22.811  1.00  0.00     0.138 C 
HETATM    3  C3  UNL     1      -6.011  -0.043 -22.284  1.00  0.00     0.050 C 
HETATM    4  C4  UNL     1      -5.243   2.272 -21.873  1.00  0.00     0.027 C 
HETATM    5  C5  UNL     1      -6.092   3.191 -22.273  1.00  0.00     0.051 C 
HETATM    6  C14 UNL     1      -6.742   2.717 -23.508  1.00  0.00     0.152 C 
HETATM    7  C15 UNL     1      -6.900   3.878 -24.471  1.00  0.00     0.051 C 
HETATM    8  C16 UNL     1      -8.091   2.130 -23.135  1.00  0.00     0.051 C 
HETATM    9  N1  UNL     1      -5.879   1.698 -24.018  1.00  0.00    -0.051 N 
ATOM     10  H11 UNL     1      -6.339   1.012 -24.615  1.00  0.00     0.279 HD
ATOM     11  H12 UNL     1      -5.213   2.019 -24.722  1.00  0.00     0.279 HD
ENDROOT
BRANCH   5  12
HETATM   12  C6  UNL     1      -6.365   4.464 -21.622  1.00  0.00     0.292 C 
HETATM   13  O1  UNL     1      -7.014   5.372 -22.156  1.00  0.00    -0.260 OA
BRANCH  12  14
HETATM   14  O2  UNL     1      -5.903   4.724 -20.346  1.00  0.00    -0.312 OA
BRANCH  14  15
HETATM   15  C7  UNL     1      -4.583   4.902 -19.994  1.00  0.00     0.132 C 
HETATM   16  C8  UNL     1      -4.144   6.352 -19.964  1.00  0.00     0.032 C 
HETATM   17  C9  UNL     1      -4.286   6.976 -18.612  1.00  0.00     0.002 C 
HETATM   18  C10 UNL     1      -3.027   6.958 -17.816  1.00  0.00     0.000 C 
HETATM   19  C11 UNL     1      -2.445   5.638 -17.528  1.00  0.00     0.000 C 
HETATM   20  C12 UNL     1      -2.668   4.588 -18.576  1.00  0.00     0.002 C 
HETATM   21  C13 UNL     1      -4.140   4.252 -18.720  1.00  0.00     0.032 C 
ENDBRANCH  14  15
ENDBRANCH  12  14
ENDBRANCH   5  12
TORSDOF 3
ENDMDL
MODEL 2
REMARK VINA RESULT: -6.336704949      5.095      8.694
REMARK  3 active torsions:
REMARK  status: ('A' for Active; 'I' for Inactive)
REMARK    1  A    between atoms: C5_5  and  C6_6 
REMARK    2  A    between atoms: C6_6  and  O2_8 
REMARK    3  A    between atoms: O2_8  and  C7_9 
ROOT
HETATM    1  C1  UNL     1      -7.253   4.300 -23.665  1.00  0.00     0.050 C 
HETATM    2  C2  UNL     1      -7.172   2.825 -24.010  1.00  0.00     0.138 C 
HETATM    3  C3  UNL     1      -7.873   2.064 -22.930  1.00  0.00     0.050 C 
HETATM    4  C4  UNL     1      -7.778   2.638 -25.334  1.00  0.00     0.027 C 
HETATM    5  C5  UNL     1      -7.033   1.824 -26.045  1.00  0.00     0.051 C 
HETATM    6  C14 UNL     1      -5.881   1.412 -25.223  1.00  0.00     0.152 C 
HETATM    7  C15 UNL     1      -4.638   1.359 -26.090  1.00  0.00     0.051 C 
HETATM    8  C16 UNL     1      -6.190   0.049 -24.629  1.00  0.00     0.051 C 
HETATM    9  N1  UNL     1      -5.786   2.396 -24.191  1.00  0.00    -0.051 N 
ATOM     10  H11 UNL     1      -5.326   2.075 -23.339  1.00  0.00     0.279 HD
ATOM     11  H12 UNL     1      -5.130   3.153 -24.385  1.00  0.00     0.279 HD
ENDROOT
BRANCH   5  12
HETATM   12  C6  UNL     1      -7.284   1.385 -27.410  1.00  0.00     0.292 C 
HETATM   13  O1  UNL     1      -7.780   0.286 -27.687  1.00  0.00    -0.260 OA
BRANCH  12  14
HETATM   14  O2  UNL     1      -6.975   2.194 -28.486  1.00  0.00    -0.312 OA
BRANCH  14  15
HETATM   15  C7  UNL     1      -6.190   1.832 -29.559  1.00  0.00     0.132 C 
HETATM   16  C8  UNL     1      -6.803   2.156 -30.907  1.00  0.00     0.032 C 
HETATM   17  C9  UNL     1      -6.390   3.496 -31.428  1.00  0.00     0.002 C 
HETATM   18  C10 UNL     1      -5.241   3.435 -32.374  1.00  0.00     0.000 C 
HETATM   19  C11 UNL     1      -3.988   2.864 -31.857  1.00  0.00     0.000 C 
HETATM   20  C12 UNL     1      -4.142   1.794 -30.818  1.00  0.00     0.002 C 
HETATM   21  C13 UNL     1      -4.780   2.336 -29.553  1.00  0.00     0.032 C 
ENDBRANCH  14  15
ENDBRANCH  12  14
ENDBRANCH   5  12
TORSDOF 3
ENDMDL
MODEL 3
REMARK VINA RESULT: -6.300660569      4.888      8.376
REMARK  3 active torsions:
REMARK  status: ('A' for Active; 'I' for Inactive)
REMARK    1  A    between atoms: C5_5  and  C6_6 
REMARK    2  A    between atoms: C6_6  and  O2_8 
REMARK    3  A    between atoms: O2_8  and  C7_9 
ROOT
HETATM    1  C1  UNL     1      -5.517   2.618 -22.069  1.00  0.00     0.050 C 
HETATM    2  C2  UNL     1      -6.410   2.585 -23.295  1.00  0.00     0.138 C 
HETATM    3  C3  UNL     1      -7.283   3.798 -23.258  1.00  0.00     0.050 C 
HETATM    4  C4  UNL     1      -5.545   2.533 -24.481  1.00  0.00     0.027 C 
HETATM    5  C5  UNL     1      -6.027   1.660 -25.336  1.00  0.00     0.051 C 
HETATM    6  C14 UNL     1      -7.256   1.082 -24.766  1.00  0.00     0.152 C 
HETATM    7  C15 UNL     1      -7.307  -0.401 -25.079  1.00  0.00     0.051 C 
HETATM    8  C16 UNL     1      -8.444   1.808 -25.372  1.00  0.00     0.051 C 
HETATM    9  N1  UNL     1      -7.177   1.342 -23.363  1.00  0.00    -0.051 N 
ATOM     10  H11 UNL     1      -8.078   1.372 -22.885  1.00  0.00     0.279 HD
ATOM     11  H12 UNL     1      -6.791   0.575 -22.810  1.00  0.00     0.279 HD
ENDROOT
BRANCH   5  12
HETATM   12  C6  UNL     1      -5.463   1.312 -26.632  1.00  0.00     0.292 C 
HETATM   13  O1  UNL     1      -4.466   0.592 -26.766  1.00  0.00    -0.260 OA
BRANCH  12  14
HETATM   14  O2  UNL     1      -6.029   1.779 -27.803  1.00  0.00    -0.312 OA
BRANCH  14  15
HETATM   15  C7  UNL     1      -5.553   1.538 -29.073  1.00  0.00     0.132 C 
HETATM   16  C8  UNL     1      -6.555   1.833 -30.171  1.00  0.00     0.032 C 
HETATM   17  C9  UNL     1      -6.441   3.224 -30.707  1.00  0.00     0.002 C 
HETATM   18  C10 UNL     1      -5.610   3.318 -31.940  1.00  0.00     0.000 C 
HETATM   19  C11 UNL     1      -4.213   2.873 -31.833  1.00  0.00     0.000 C 
HETATM   20  C12 UNL     1      -3.958   1.761 -30.858  1.00  0.00     0.002 C 
HETATM   21  C13 UNL     1      -4.257   2.193 -29.434  1.00  0.00     0.032 C 
ENDBRANCH  14  15
ENDBRANCH  12  14
ENDBRANCH   5  12
TORSDOF 3
ENDMDL
MODEL 4
REMARK VINA RESULT: -6.221074034      3.747      7.238
REMARK  3 active torsions:
REMARK  status: ('A' for Active; 'I' for Inactive)
REMARK    1  A    between atoms: C5_5  and  C6_6 
REMARK    2  A    between atoms: C6_6  and  O2_8 
REMARK    3  A    between atoms: O2_8  and  C7_9 
ROOT
HETATM    1  C1  UNL     1      -6.283  -0.875 -21.458  1.00  0.00     0.050 C 
HETATM    2  C2  UNL     1      -5.713   0.075 -22.496  1.00  0.00     0.138 C 
HETATM    3  C3  UNL     1      -4.470  -0.544 -23.049  1.00  0.00     0.050 C 
HETATM    4  C4  UNL     1      -6.747   0.301 -23.514  1.00  0.00     0.027 C 
HETATM    5  C5  UNL     1      -6.787   1.577 -23.821  1.00  0.00     0.051 C 
HETATM    6  C14 UNL     1      -5.766   2.278 -23.022  1.00  0.00     0.152 C 
HETATM    7  C15 UNL     1      -6.317   3.615 -22.562  1.00  0.00     0.051 C 
HETATM    8  C16 UNL     1      -4.535   2.467 -23.890  1.00  0.00     0.051 C 
HETATM    9  N1  UNL     1      -5.478   1.402 -21.930  1.00  0.00    -0.051 N 
ATOM     10  H11 UNL     1      -4.554   1.529 -21.517  1.00  0.00     0.279 HD
ATOM     11  H12 UNL     1      -6.002   1.599 -21.077  1.00  0.00     0.279 HD
ENDROOT
BRANCH   5  12
HETATM   12  C6  UNL     1      -7.673   2.212 -24.785  1.00  0.00     0.292 C 
HETATM   13  O1  UNL     1      -8.830   2.557 -24.516  1.00  0.00    -0.260 OA
BRANCH  12  14
HETATM   14  O2  UNL     1      -7.255   2.466 -26.077  1.00  0.00    -0.312 OA
BRANCH  14  15
HETATM   15  C7  UNL     1      -6.834   1.518 -26.983  1.00  0.00     0.132 C 
HETATM   16  C8  UNL     1      -7.478   1.644 -28.349  1.00  0.00     0.032 C 
HETATM   17  C9  UNL     1      -6.679   2.482 -29.295  1.00  0.00     0.002 C 
HETATM   18  C10 UNL     1      -5.792   1.685 -30.189  1.00  0.00     0.000 C 
HETATM   19  C11 UNL     1      -4.780   0.841 -29.537  1.00  0.00     0.000 C 
HETATM   20  C12 UNL     1      -5.164   0.286 -28.197  1.00  0.00     0.002 C 
HETATM   21  C13 UNL     1      -5.354   1.390 -27.173  1.00  0.00     0.032 C 
ENDBRANCH  14  15
ENDBRANCH  12  14
ENDBRANCH   5  12
TORSDOF 3
ENDMDL
MODEL 5
REMARK VINA RESULT: -6.211473305      4.174      7.612
REMARK  3 active torsions:
REMARK  status: ('A' for Active; 'I' for Inactive)
REMARK    1  A    between atoms: C5_5  and  C6_6 
REMARK    2  A    between atoms: C6_6  and  O2_8 
REMARK    3  A    between atoms: O2_8  and  C7_9 
ROOT
HETATM    1  C1  UNL     1      -7.017   4.062 -22.834  1.00  0.00     0.050 C 
HETATM    2  C2  UNL     1      -6.950   2.737 -23.570  1.00  0.00     0.138 C 
HETATM    3  C3  UNL     1      -8.293   2.481 -24.174  1.00  0.00     0.050 C 
HETATM    4  C4  UNL     1      -5.876   2.830 -24.567  1.00  0.00     0.027 C 
HETATM    5  C5  UNL     1      -5.171   1.721 -24.555  1.00  0.00     0.051 C 
HETATM    6  C14 UNL     1      -5.747   0.817 -23.545  1.00  0.00     0.152 C 
HETATM    7  C15 UNL     1      -4.626   0.105 -22.810  1.00  0.00     0.051 C 
HETATM    8  C16 UNL     1      -6.647  -0.176 -24.259  1.00  0.00     0.051 C 
HETATM    9  N1  UNL     1      -6.517   1.658 -22.683  1.00  0.00    -0.051 N 
ATOM     10  H11 UNL     1      -7.274   1.183 -22.192  1.00  0.00     0.279 HD
ATOM     11  H12 UNL     1      -6.027   1.969 -21.844  1.00  0.00     0.279 HD
ENDROOT
BRANCH   5  12
HETATM   12  C6  UNL     1      -4.020   1.415 -25.391  1.00  0.00     0.292 C 
HETATM   13  O1  UNL     1      -2.961   2.055 -25.346  1.00  0.00    -0.260 OA
BRANCH  12  14
HETATM   14  O2  UNL     1      -4.053   0.371 -26.295  1.00  0.00    -0.312 OA
BRANCH  14  15
HETATM   15  C7  UNL     1      -4.363   0.480 -27.633  1.00  0.00     0.132 C 
HETATM   16  C8  UNL     1      -5.847   0.400 -27.929  1.00  0.00     0.032 C 
HETATM   17  C9  UNL     1      -6.507   1.742 -27.965  1.00  0.00     0.002 C 
HETATM   18  C10 UNL     1      -6.633   2.303 -29.340  1.00  0.00     0.000 C 
HETATM   19  C11 UNL     1      -5.384   2.513 -30.087  1.00  0.00     0.000 C 
HETATM   20  C12 UNL     1      -4.278   1.544 -29.787  1.00  0.00     0.002 C 
HETATM   21  C13 UNL     1      -3.805   1.670 -28.350  1.00  0.00     0.032 C 
ENDBRANCH  14  15
ENDBRANCH  12  14
ENDBRANCH   5  12
TORSDOF 3
ENDMDL
