MODEL 1
REMARK VINA RESULT: -6.766741002      0.000      0.000
REMARK  5 active torsions:
REMARK  status: ('A' for Active; 'I' for Inactive)
REMARK    1  A    between atoms: C2_2  and  O2_4 
REMARK    2  A    between atoms: O2_4  and  C3_5 
REMARK    3  A    between atoms: C3_5  and  C4_6 
REMARK    4  A    between atoms: C7_12  and  N2_13 
REMARK    5  A    between atoms: N2_13  and  C8_15 
ROOT
HETATM    1  C4  UNL     1      -4.235   5.092 -19.494  1.00  0.00     0.043 A 
HETATM    2  C5  UNL     1      -4.359   6.477 -19.284  1.00  0.00     0.041 A 
HETATM    3  C6  UNL     1      -3.493   7.306 -18.411  1.00  0.00     0.071 C 
HETATM    4  N1  UNL     1      -5.395   6.906 -20.011  1.00  0.00    -0.263 N 
ATOM      5  H1  UNL     1      -5.729   7.868 -20.061  1.00  0.00     0.194 HD
HETATM    6  O3  UNL     1      -5.898   5.905 -20.635  1.00  0.00    -0.219 OA
HETATM    7  C7  UNL     1      -5.247   4.800 -20.365  1.00  0.00     0.177 A 
ENDROOT
BRANCH   7   8
HETATM    8  N2  UNL     1      -5.493   3.618 -20.832  1.00  0.00    -0.364 N 
ATOM      9  H2  UNL     1      -5.542   2.859 -20.153  1.00  0.00     0.162 HD
BRANCH   8  10
HETATM   10  C8  UNL     1      -5.701   3.269 -22.196  1.00  0.00     0.083 C 
HETATM   11  C9  UNL     1      -5.239   1.865 -22.527  1.00  0.00     0.025 C 
HETATM   12  C10 UNL     1      -4.814   1.838 -23.974  1.00  0.00     0.002 C 
HETATM   13  C11 UNL     1      -5.928   2.197 -24.917  1.00  0.00     0.000 C 
HETATM   14  C12 UNL     1      -7.268   1.684 -24.464  1.00  0.00     0.000 C 
HETATM   15  C13 UNL     1      -7.794   2.292 -23.222  1.00  0.00     0.002 C 
HETATM   16  C14 UNL     1      -7.069   3.497 -22.729  1.00  0.00     0.025 C 
ENDBRANCH   8  10
ENDBRANCH   7   8
BRANCH   1  17
HETATM   17  C3  UNL     1      -3.150   4.339 -18.873  1.00  0.00     0.224 C 
BRANCH  17  18
HETATM   18  O2  UNL     1      -3.232   3.979 -17.560  1.00  0.00    -0.317 OA
BRANCH  18  19
HETATM   19  C2  UNL     1      -2.193   3.697 -16.698  1.00  0.00     0.255 C 
HETATM   20  C1  UNL     1      -0.835   4.309 -16.868  1.00  0.00     0.126 C 
HETATM   21  O1  UNL     1      -2.393   2.907 -15.748  1.00  0.00    -0.266 OA
ENDBRANCH  18  19
ENDBRANCH  17  18
ENDBRANCH   1  17
TORSDOF 5
ENDMDL
MODEL 2
REMARK VINA RESULT: -6.728506219      2.253      3.973
REMARK  5 active torsions:
REMARK  status: ('A' for Active; 'I' for Inactive)
REMARK    1  A    between atoms: C2_2  and  O2_4 
REMARK    2  A    between atoms: O2_4  and  C3_5 
REMARK    3  A    between atoms: C3_5  and  C4_6 
REMARK    4  A    between atoms: C7_12  and  N2_13 
REMARK    5  A    between atoms: N2_13  and  C8_15 
ROOT
HETATM    1  C4  UNL     1      -4.166   6.259 -19.556  1.00  0.00     0.043 A 
HETATM    2  C5  UNL     1      -3.352   5.667 -18.574  1.00  0.00     0.041 A 
HETATM    3  C6  UNL     1      -2.304   6.355 -17.782  1.00  0.00     0.071 C 
HETATM    4  N1  UNL     1      -3.695   4.379 -18.485  1.00  0.00    -0.263 N 
ATOM      5  H1  UNL     1      -3.277   3.693 -17.857  1.00  0.00     0.194 HD
HETATM    6  O3  UNL     1      -4.638   4.149 -19.324  1.00  0.00    -0.219 OA
HETATM    7  C7  UNL     1      -4.959   5.232 -19.988  1.00  0.00     0.177 A 
ENDROOT
BRANCH   7   8
HETATM    8  N2  UNL     1      -5.871   5.345 -20.899  1.00  0.00    -0.364 N 
ATOM      9  H2  UNL     1      -6.253   6.279 -21.051  1.00  0.00     0.162 HD
BRANCH   8  10
HETATM   10  C8  UNL     1      -6.396   4.301 -21.711  1.00  0.00     0.083 C 
HETATM   11  C9  UNL     1      -6.661   4.734 -23.137  1.00  0.00     0.025 C 
HETATM   12  C10 UNL     1      -7.807   3.913 -23.674  1.00  0.00     0.002 C 
HETATM   13  C11 UNL     1      -7.517   2.438 -23.679  1.00  0.00     0.000 C 
HETATM   14  C12 UNL     1      -6.083   2.123 -24.006  1.00  0.00     0.000 C 
HETATM   15  C13 UNL     1      -5.091   2.563 -23.000  1.00  0.00     0.002 C 
HETATM   16  C14 UNL     1      -5.646   3.019 -21.695  1.00  0.00     0.025 C 
ENDBRANCH   8  10
ENDBRANCH   7   8
BRANCH   1  17
HETATM   17  C3  UNL     1      -4.066   7.686 -19.846  1.00  0.00     0.224 C 
BRANCH  17  18
HETATM   18  O2  UNL     1      -4.760   8.586 -19.093  1.00  0.00    -0.317 OA
BRANCH  18  19
HETATM   19  C2  UNL     1      -4.760   9.961 -19.212  1.00  0.00     0.255 C 
HETATM   20  C1  UNL     1      -4.208  10.650 -20.423  1.00  0.00     0.126 C 
HETATM   21  O1  UNL     1      -5.236  10.648 -18.280  1.00  0.00    -0.266 OA
ENDBRANCH  18  19
ENDBRANCH  17  18
ENDBRANCH   1  17
TORSDOF 5
ENDMDL
MODEL 3
REMARK VINA RESULT: -6.428281010      0.474      1.452
REMARK  5 active torsions:
REMARK  status: ('A' for Active; 'I' for Inactive)
REMARK    1  A    between atoms: C2_2  and  O2_4 
REMARK    2  A    between atoms: O2_4  and  C3_5 
REMARK    3  A    between atoms: C3_5  and  C4_6 
REMARK    4  A    between atoms: C7_12  and  N2_13 
REMARK    5  A    between atoms: N2_13  and  C8_15 
ROOT
HETATM    1  C4  UNL     1      -4.360   5.120 -19.674  1.00  0.00     0.043 A 
HETATM    2  C5  UNL     1      -4.757   6.469 -19.706  1.00  0.00     0.041 A 
HETATM    3  C6  UNL     1      -4.075   7.593 -19.020  1.00  0.00     0.071 C 
HETATM    4  N1  UNL     1      -5.855   6.550 -20.462  1.00  0.00    -0.263 N 
ATOM      5  H1  UNL     1      -6.373   7.404 -20.669  1.00  0.00     0.194 HD
HETATM    6  O3  UNL     1      -6.148   5.375 -20.885  1.00  0.00    -0.219 OA
HETATM    7  C7  UNL     1      -5.292   4.485 -20.447  1.00  0.00     0.177 A 
ENDROOT
BRANCH   7   8
HETATM    8  N2  UNL     1      -5.297   3.214 -20.691  1.00  0.00    -0.364 N 
ATOM      9  H2  UNL     1      -4.880   2.610 -19.983  1.00  0.00     0.162 HD
BRANCH   8  10
HETATM   10  C8  UNL     1      -5.823   2.573 -21.847  1.00  0.00     0.083 C 
HETATM   11  C9  UNL     1      -6.684   3.486 -22.693  1.00  0.00     0.025 C 
HETATM   12  C10 UNL     1      -7.721   2.642 -23.392  1.00  0.00     0.002 C 
HETATM   13  C11 UNL     1      -7.117   1.602 -24.294  1.00  0.00     0.000 C 
HETATM   14  C12 UNL     1      -5.871   2.080 -24.989  1.00  0.00     0.000 C 
HETATM   15  C13 UNL     1      -4.712   2.341 -24.106  1.00  0.00     0.002 C 
HETATM   16  C14 UNL     1      -4.841   1.857 -22.703  1.00  0.00     0.025 C 
ENDBRANCH   8  10
ENDBRANCH   7   8
BRANCH   1  17
HETATM   17  C3  UNL     1      -3.150   4.716 -18.965  1.00  0.00     0.224 C 
BRANCH  17  18
HETATM   18  O2  UNL     1      -3.241   3.994 -17.812  1.00  0.00    -0.317 OA
BRANCH  18  19
HETATM   19  C2  UNL     1      -2.240   3.739 -16.898  1.00  0.00     0.255 C 
HETATM   20  C1  UNL     1      -0.881   4.360 -17.017  1.00  0.00     0.126 C 
HETATM   21  O1  UNL     1      -2.478   2.966 -15.941  1.00  0.00    -0.266 OA
ENDBRANCH  18  19
ENDBRANCH  17  18
ENDBRANCH   1  17
TORSDOF 5
ENDMDL
MODEL 4
REMARK VINA RESULT: -6.395507924      3.911      5.327
REMARK  5 active torsions:
REMARK  status: ('A' for Active; 'I' for Inactive)
REMARK    1  A    between atoms: C2_2  and  O2_4 
REMARK    2  A    between atoms: O2_4  and  C3_5 
REMARK    3  A    between atoms: C3_5  and  C4_6 
REMARK    4  A    between atoms: C7_12  and  N2_13 
REMARK    5  A    between atoms: N2_13  and  C8_15 
ROOT
HETATM    1  C4  UNL     1      -6.517   2.824 -22.645  1.00  0.00     0.043 A 
HETATM    2  C5  UNL     1      -6.714   4.178 -22.316  1.00  0.00     0.041 A 
HETATM    3  C6  UNL     1      -6.011   4.924 -21.244  1.00  0.00     0.071 C 
HETATM    4  N1  UNL     1      -7.644   4.664 -23.142  1.00  0.00    -0.263 N 
ATOM      5  H1  UNL     1      -7.998   5.621 -23.143  1.00  0.00     0.194 HD
HETATM    6  O3  UNL     1      -8.019   3.726 -23.932  1.00  0.00    -0.219 OA
HETATM    7  C7  UNL     1      -7.381   2.609 -23.682  1.00  0.00     0.177 A 
ENDROOT
BRANCH   7   8
HETATM    8  N2  UNL     1      -7.518   1.479 -24.298  1.00  0.00    -0.364 N 
ATOM      9  H2  UNL     1      -7.987   0.732 -23.786  1.00  0.00     0.162 HD
BRANCH   8  10
HETATM   10  C8  UNL     1      -7.081   1.171 -25.617  1.00  0.00     0.083 C 
HETATM   11  C9  UNL     1      -7.289   2.310 -26.593  1.00  0.00     0.025 C 
HETATM   12  C10 UNL     1      -7.508   1.721 -27.964  1.00  0.00     0.002 C 
HETATM   13  C11 UNL     1      -6.341   0.903 -28.442  1.00  0.00     0.000 C 
HETATM   14  C12 UNL     1      -5.014   1.469 -28.015  1.00  0.00     0.000 C 
HETATM   15  C13 UNL     1      -4.751   1.441 -26.558  1.00  0.00     0.002 C 
HETATM   16  C14 UNL     1      -5.701   0.635 -25.741  1.00  0.00     0.025 C 
ENDBRANCH   8  10
ENDBRANCH   7   8
BRANCH   1  17
HETATM   17  C3  UNL     1      -5.512   2.027 -21.949  1.00  0.00     0.224 C 
BRANCH  17  18
HETATM   18  O2  UNL     1      -5.246   0.754 -22.357  1.00  0.00    -0.317 OA
BRANCH  18  19
HETATM   19  C2  UNL     1      -5.870  -0.408 -21.950  1.00  0.00     0.255 C 
HETATM   20  C1  UNL     1      -5.784  -0.899 -20.536  1.00  0.00     0.126 C 
HETATM   21  O1  UNL     1      -6.526  -1.067 -22.788  1.00  0.00    -0.266 OA
ENDBRANCH  18  19
ENDBRANCH  17  18
ENDBRANCH   1  17
TORSDOF 5
ENDMDL
MODEL 5
REMARK VINA RESULT: -6.379206743      2.168      6.444
REMARK  5 active torsions:
REMARK  status: ('A' for Active; 'I' for Inactive)
REMARK    1  A    between atoms: C2_2  and  O2_4 
REMARK    2  A    between atoms: O2_4  and  C3_5 
REMARK    3  A    between atoms: C3_5  and  C4_6 
REMARK    4  A    between atoms: C7_12  and  N2_13 
REMARK    5  A    between atoms: N2_13  and  C8_15 
ROOT
HETATM    1  C4  UNL     1      -5.634   3.740 -21.031  1.00  0.00     0.043 A 
HETATM    2  C5  UNL     1      -6.297   4.667 -21.856  1.00  0.00     0.041 A 
HETATM    3  C6  UNL     1      -6.932   4.370 -23.163  1.00  0.00     0.071 C 
HETATM    4  N1  UNL     1      -6.250   5.856 -21.249  1.00  0.00    -0.263 N 
ATOM      5  H1  UNL     1      -6.648   6.723 -21.608  1.00  0.00     0.194 HD
HETATM    6  O3  UNL     1      -5.621   5.723 -20.139  1.00  0.00    -0.219 OA
HETATM    7  C7  UNL     1      -5.232   4.484 -19.958  1.00  0.00     0.177 A 
ENDROOT
BRANCH   7   8
HETATM    8  N2  UNL     1      -4.581   4.014 -18.943  1.00  0.00    -0.364 N 
ATOM      9  H2  UNL     1      -5.067   3.327 -18.366  1.00  0.00     0.162 HD
BRANCH   8  10
HETATM   10  C8  UNL     1      -3.257   4.355 -18.549  1.00  0.00     0.083 C 
HETATM   11  C9  UNL     1      -3.064   5.842 -18.340  1.00  0.00     0.025 C 
HETATM   12  C10 UNL     1      -1.627   6.179 -18.652  1.00  0.00     0.002 C 
HETATM   13  C11 UNL     1      -0.651   5.452 -17.767  1.00  0.00     0.000 C 
HETATM   14  C12 UNL     1      -1.149   5.286 -16.357  1.00  0.00     0.000 C 
HETATM   15  C13 UNL     1      -2.327   4.404 -16.199  1.00  0.00     0.002 C 
HETATM   16  C14 UNL     1      -2.702   3.599 -17.395  1.00  0.00     0.025 C 
ENDBRANCH   8  10
ENDBRANCH   7   8
BRANCH   1  17
HETATM   17  C3  UNL     1      -5.565   2.330 -21.401  1.00  0.00     0.224 C 
BRANCH  17  18
HETATM   18  O2  UNL     1      -4.645   1.907 -22.314  1.00  0.00    -0.317 OA
BRANCH  18  19
HETATM   19  C2  UNL     1      -4.880   1.449 -23.595  1.00  0.00     0.255 C 
HETATM   20  C1  UNL     1      -4.238   2.082 -24.792  1.00  0.00     0.126 C 
HETATM   21  O1  UNL     1      -5.651   0.475 -23.756  1.00  0.00    -0.266 OA
ENDBRANCH  18  19
ENDBRANCH  17  18
ENDBRANCH   1  17
TORSDOF 5
ENDMDL
