MODEL 1
REMARK VINA RESULT: -5.817038975      0.000      0.000
REMARK  4 active torsions:
REMARK  status: ('A' for Active; 'I' for Inactive)
REMARK    1  A    between atoms: C7_8  and  C8_9 
REMARK    2  A    between atoms: C8_9  and  N1_10 
REMARK       I    between atoms: N1_10  and  C9_12 
REMARK    3  A    between atoms: C9_12  and  O3_14 
REMARK    4  A    between atoms: O3_14  and  C10_15 
ROOT
HETATM    1  C10 UNL     1      -7.061   2.550 -23.766  1.00  0.00     0.153 C 
HETATM    2  C11 UNL     1      -5.723   2.416 -24.482  1.00  0.00     0.063 C 
HETATM    3  C12 UNL     1      -8.155   2.589 -24.823  1.00  0.00     0.063 C 
HETATM    4  C13 UNL     1      -7.038   3.771 -22.964  1.00  0.00     0.097 C 
HETATM    5  N2  UNL     1      -7.028   4.755 -22.333  1.00  0.00    -0.194 NA
ENDROOT
BRANCH   1   6
HETATM    6  O3  UNL     1      -7.261   1.407 -22.987  1.00  0.00    -0.278 OA
BRANCH   6   7
HETATM    7  C9  UNL     1      -6.249   0.719 -22.351  1.00  0.00     0.362 C 
HETATM    8  N1  UNL     1      -6.045  -0.657 -22.584  1.00  0.00    -0.336 N 
ATOM      9  H1  UNL     1      -6.667  -1.132 -23.237  1.00  0.00     0.164 HD
HETATM   10  O2  UNL     1      -5.505   1.333 -21.559  1.00  0.00    -0.238 OA
BRANCH   8  11
HETATM   11  C8  UNL     1      -5.004  -1.429 -21.948  1.00  0.00     0.130 C 
BRANCH  11  12
HETATM   12  C7  UNL     1      -5.483  -2.817 -21.568  1.00  0.00     0.011 C 
HETATM   13  C6  UNL     1      -6.587  -2.720 -20.556  1.00  0.00     0.084 C 
HETATM   14  C5  UNL     1      -6.184  -3.232 -19.219  1.00  0.00     0.128 C 
HETATM   15  C4  UNL     1      -4.763  -2.966 -18.849  1.00  0.00     0.087 C 
HETATM   16  O1  UNL     1      -6.959  -3.820 -18.493  1.00  0.00    -0.298 OA
HETATM   17  C2  UNL     1      -3.894  -3.694 -19.817  1.00  0.00    -0.041 C 
HETATM   18  C1  UNL     1      -2.499  -3.059 -19.709  1.00  0.00     0.015 C 
HETATM   19  C3  UNL     1      -3.699  -5.143 -19.345  1.00  0.00     0.015 C 
HETATM   20  C14 UNL     1      -4.379  -3.734 -21.213  1.00  0.00     0.015 C 
ENDBRANCH  11  12
ENDBRANCH   8  11
ENDBRANCH   6   7
ENDBRANCH   1   6
TORSDOF 4
ENDMDL
MODEL 2
REMARK VINA RESULT: -5.743675976      5.036      8.609
REMARK  4 active torsions:
REMARK  status: ('A' for Active; 'I' for Inactive)
REMARK    1  A    between atoms: C7_8  and  C8_9 
REMARK    2  A    between atoms: C8_9  and  N1_10 
REMARK       I    between atoms: N1_10  and  C9_12 
REMARK    3  A    between atoms: C9_12  and  O3_14 
REMARK    4  A    between atoms: O3_14  and  C10_15 
ROOT
HETATM    1  C10 UNL     1      -6.403   2.780 -23.440  1.00  0.00     0.153 C 
HETATM    2  C11 UNL     1      -7.070   1.483 -23.002  1.00  0.00     0.063 C 
HETATM    3  C12 UNL     1      -4.928   2.490 -23.679  1.00  0.00     0.063 C 
HETATM    4  C13 UNL     1      -6.596   3.779 -22.390  1.00  0.00     0.097 C 
HETATM    5  N2  UNL     1      -6.737   4.575 -21.546  1.00  0.00    -0.194 NA
ENDROOT
BRANCH   1   6
HETATM    6  O3  UNL     1      -6.964   3.174 -24.657  1.00  0.00    -0.278 OA
BRANCH   6   7
HETATM    7  C9  UNL     1      -7.481   2.300 -25.589  1.00  0.00     0.362 C 
HETATM    8  N1  UNL     1      -6.656   1.701 -26.564  1.00  0.00    -0.336 N 
ATOM      9  H1  UNL     1      -5.663   1.932 -26.562  1.00  0.00     0.164 HD
HETATM   10  O2  UNL     1      -8.701   2.038 -25.561  1.00  0.00    -0.238 OA
BRANCH   8  11
HETATM   11  C8  UNL     1      -7.140   0.779 -27.563  1.00  0.00     0.130 C 
BRANCH  11  12
HETATM   12  C7  UNL     1      -7.627   1.499 -28.806  1.00  0.00     0.011 C 
HETATM   13  C6  UNL     1      -8.098   0.504 -29.825  1.00  0.00     0.084 C 
HETATM   14  C5  UNL     1      -7.218   0.454 -31.024  1.00  0.00     0.128 C 
HETATM   15  C4  UNL     1      -5.766   0.655 -30.745  1.00  0.00     0.087 C 
HETATM   16  O1  UNL     1      -7.659   0.265 -32.139  1.00  0.00    -0.298 OA
HETATM   17  C2  UNL     1      -5.592   2.031 -30.198  1.00  0.00    -0.041 C 
HETATM   18  C1  UNL     1      -4.219   2.052 -29.509  1.00  0.00     0.015 C 
HETATM   19  C3  UNL     1      -5.462   3.033 -31.354  1.00  0.00     0.015 C 
HETATM   20  C14 UNL     1      -6.668   2.509 -29.303  1.00  0.00     0.015 C 
ENDBRANCH  11  12
ENDBRANCH   8  11
ENDBRANCH   6   7
ENDBRANCH   1   6
TORSDOF 4
ENDMDL
MODEL 3
REMARK VINA RESULT: -5.715584260      1.588      2.409
REMARK  4 active torsions:
REMARK  status: ('A' for Active; 'I' for Inactive)
REMARK    1  A    between atoms: C7_8  and  C8_9 
REMARK    2  A    between atoms: C8_9  and  N1_10 
REMARK       I    between atoms: N1_10  and  C9_12 
REMARK    3  A    between atoms: C9_12  and  O3_14 
REMARK    4  A    between atoms: O3_14  and  C10_15 
ROOT
HETATM    1  C10 UNL     1      -6.913   3.056 -23.499  1.00  0.00     0.153 C 
HETATM    2  C11 UNL     1      -5.513   2.750 -24.014  1.00  0.00     0.063 C 
HETATM    3  C12 UNL     1      -7.722   3.625 -24.655  1.00  0.00     0.063 C 
HETATM    4  C13 UNL     1      -6.804   4.005 -22.393  1.00  0.00     0.097 C 
HETATM    5  N2  UNL     1      -6.721   4.776 -21.518  1.00  0.00    -0.194 NA
ENDROOT
BRANCH   1   6
HETATM    6  O3  UNL     1      -7.511   1.854 -23.110  1.00  0.00    -0.278 OA
BRANCH   6   7
HETATM    7  C9  UNL     1      -6.926   0.615 -23.262  1.00  0.00     0.362 C 
HETATM    8  N1  UNL     1      -6.205   0.016 -22.209  1.00  0.00    -0.336 N 
ATOM      9  H1  UNL     1      -6.126   0.524 -21.329  1.00  0.00     0.164 HD
HETATM   10  O2  UNL     1      -7.044   0.020 -24.353  1.00  0.00    -0.238 OA
BRANCH   8  11
HETATM   11  C8  UNL     1      -5.572  -1.278 -22.309  1.00  0.00     0.130 C 
BRANCH  11  12
HETATM   12  C7  UNL     1      -4.910  -1.684 -21.006  1.00  0.00     0.011 C 
HETATM   13  C6  UNL     1      -3.753  -2.599 -21.281  1.00  0.00     0.084 C 
HETATM   14  C5  UNL     1      -3.995  -3.987 -20.804  1.00  0.00     0.128 C 
HETATM   15  C4  UNL     1      -5.406  -4.456 -20.932  1.00  0.00     0.087 C 
HETATM   16  O1  UNL     1      -3.106  -4.676 -20.346  1.00  0.00    -0.298 OA
HETATM   17  C2  UNL     1      -6.255  -3.597 -20.059  1.00  0.00    -0.041 C 
HETATM   18  C1  UNL     1      -7.701  -3.784 -20.541  1.00  0.00     0.015 C 
HETATM   19  C3  UNL     1      -6.248  -4.150 -18.627  1.00  0.00     0.015 C 
HETATM   20  C14 UNL     1      -5.873  -2.169 -19.994  1.00  0.00     0.015 C 
ENDBRANCH  11  12
ENDBRANCH   8  11
ENDBRANCH   6   7
ENDBRANCH   1   6
TORSDOF 4
ENDMDL
MODEL 4
REMARK VINA RESULT: -5.547267460      1.480      2.036
REMARK  4 active torsions:
REMARK  status: ('A' for Active; 'I' for Inactive)
REMARK    1  A    between atoms: C7_8  and  C8_9 
REMARK    2  A    between atoms: C8_9  and  N1_10 
REMARK       I    between atoms: N1_10  and  C9_12 
REMARK    3  A    between atoms: C9_12  and  O3_14 
REMARK    4  A    between atoms: O3_14  and  C10_15 
ROOT
HETATM    1  C10 UNL     1      -7.031   3.079 -23.611  1.00  0.00     0.153 C 
HETATM    2  C11 UNL     1      -7.549   3.912 -24.777  1.00  0.00     0.063 C 
HETATM    3  C12 UNL     1      -8.055   1.991 -23.323  1.00  0.00     0.063 C 
HETATM    4  C13 UNL     1      -6.837   3.960 -22.461  1.00  0.00     0.097 C 
HETATM    5  N2  UNL     1      -6.695   4.660 -21.536  1.00  0.00    -0.194 NA
ENDROOT
BRANCH   1   6
HETATM    6  O3  UNL     1      -5.845   2.455 -24.008  1.00  0.00    -0.278 OA
BRANCH   6   7
HETATM    7  C9  UNL     1      -5.541   1.136 -23.748  1.00  0.00     0.362 C 
HETATM    8  N1  UNL     1      -5.122   0.724 -22.466  1.00  0.00    -0.336 N 
ATOM      9  H1  UNL     1      -5.049   1.429 -21.733  1.00  0.00     0.164 HD
HETATM   10  O2  UNL     1      -5.643   0.298 -24.668  1.00  0.00    -0.238 OA
BRANCH   8  11
HETATM   11  C8  UNL     1      -4.791  -0.642 -22.134  1.00  0.00     0.130 C 
BRANCH  11  12
HETATM   12  C7  UNL     1      -5.972  -1.378 -21.532  1.00  0.00     0.011 C 
HETATM   13  C6  UNL     1      -5.839  -1.427 -20.038  1.00  0.00     0.084 C 
HETATM   14  C5  UNL     1      -5.591  -2.804 -19.531  1.00  0.00     0.128 C 
HETATM   15  C4  UNL     1      -4.743  -3.654 -20.417  1.00  0.00     0.087 C 
HETATM   16  O1  UNL     1      -6.049  -3.195 -18.477  1.00  0.00    -0.298 OA
HETATM   17  C2  UNL     1      -5.473  -3.845 -21.703  1.00  0.00    -0.041 C 
HETATM   18  C1  UNL     1      -4.428  -4.311 -22.729  1.00  0.00     0.015 C 
HETATM   19  C3  UNL     1      -6.445  -5.026 -21.574  1.00  0.00     0.015 C 
HETATM   20  C14 UNL     1      -6.241  -2.677 -22.186  1.00  0.00     0.015 C 
ENDBRANCH  11  12
ENDBRANCH   8  11
ENDBRANCH   6   7
ENDBRANCH   1   6
TORSDOF 4
ENDMDL
MODEL 5
REMARK VINA RESULT: -5.510242560      4.756      8.389
REMARK  4 active torsions:
REMARK  status: ('A' for Active; 'I' for Inactive)
REMARK    1  A    between atoms: C7_8  and  C8_9 
REMARK    2  A    between atoms: C8_9  and  N1_10 
REMARK       I    between atoms: N1_10  and  C9_12 
REMARK    3  A    between atoms: C9_12  and  O3_14 
REMARK    4  A    between atoms: O3_14  and  C10_15 
ROOT
HETATM    1  C10 UNL     1      -6.431   2.704 -23.076  1.00  0.00     0.153 C 
HETATM    2  C11 UNL     1      -7.758   1.958 -23.135  1.00  0.00     0.063 C 
HETATM    3  C12 UNL     1      -5.393   1.764 -22.479  1.00  0.00     0.063 C 
HETATM    4  C13 UNL     1      -6.609   3.904 -22.261  1.00  0.00     0.097 C 
HETATM    5  N2  UNL     1      -6.745   4.856 -21.597  1.00  0.00    -0.194 NA
ENDROOT
BRANCH   1   6
HETATM    6  O3  UNL     1      -6.035   3.003 -24.383  1.00  0.00    -0.278 OA
BRANCH   6   7
HETATM    7  C9  UNL     1      -6.020   2.089 -25.414  1.00  0.00     0.362 C 
HETATM    8  N1  UNL     1      -7.172   1.847 -26.191  1.00  0.00    -0.336 N 
ATOM      9  H1  UNL     1      -8.020   2.368 -25.970  1.00  0.00     0.164 HD
HETATM   10  O2  UNL     1      -4.964   1.470 -25.659  1.00  0.00    -0.238 OA
BRANCH   8  11
HETATM   11  C8  UNL     1      -7.216   0.903 -27.282  1.00  0.00     0.130 C 
BRANCH  11  12
HETATM   12  C7  UNL     1      -7.640   1.562 -28.581  1.00  0.00     0.011 C 
HETATM   13  C6  UNL     1      -8.125   0.524 -29.549  1.00  0.00     0.084 C 
HETATM   14  C5  UNL     1      -7.218   0.363 -30.718  1.00  0.00     0.128 C 
HETATM   15  C4  UNL     1      -5.767   0.522 -30.410  1.00  0.00     0.087 C 
HETATM   16  O1  UNL     1      -7.638   0.121 -31.831  1.00  0.00    -0.298 OA
HETATM   17  C2  UNL     1      -5.549   1.922 -29.945  1.00  0.00    -0.041 C 
HETATM   18  C1  UNL     1      -4.194   1.931 -29.221  1.00  0.00     0.015 C 
HETATM   19  C3  UNL     1      -5.347   2.842 -31.158  1.00  0.00     0.015 C 
HETATM   20  C14 UNL     1      -6.626   2.499 -29.113  1.00  0.00     0.015 C 
ENDBRANCH  11  12
ENDBRANCH   8  11
ENDBRANCH   6   7
ENDBRANCH   1   6
TORSDOF 4
ENDMDL
