MODEL 1
REMARK VINA RESULT: -9.061595477      0.000      0.000
REMARK  12 active torsions:
REMARK  status: ('A' for Active; 'I' for Inactive)
REMARK    1  A    between atoms: C2_2  and  C3_4 
REMARK    2  A    between atoms: C3_4  and  C4_5 
REMARK    3  A    between atoms: C5_6  and  O2_7 
REMARK    4  A    between atoms: C9_12  and  C10_13 
REMARK    5  A    between atoms: C11_14  and  C12_15 
REMARK    6  A    between atoms: C12_15  and  N1_16 
REMARK    7  A    between atoms: N1_16  and  C13_19 
REMARK    8  A    between atoms: C13_19  and  O3_20 
REMARK    9  A    between atoms: O3_20  and  C14_21 
REMARK   10  A    between atoms: C14_21  and  C15_23 
REMARK   11  A    between atoms: C16_24  and  C17_25 
REMARK   12  A    between atoms: C21_31  and  C22_32 
ROOT
HETATM    1  C4  UNL     1       4.719  -4.843 -24.549  1.00  0.00     0.021 C 
HETATM    2  C5  UNL     1       3.262  -4.810 -24.887  1.00  0.00     0.168 C 
HETATM    3  C6  UNL     1       2.405  -5.008 -23.628  1.00  0.00     0.077 C 
HETATM    4  C7  UNL     1       2.532  -3.824 -22.742  1.00  0.00    -0.046 A 
HETATM    5  C8  UNL     1       1.298  -3.306 -22.451  1.00  0.00     0.028 A 
HETATM    6  C9  UNL     1       1.159  -2.155 -21.658  1.00  0.00     0.018 A 
HETATM    7  C18 UNL     1       2.305  -1.560 -21.178  1.00  0.00     0.021 A 
HETATM    8  C19 UNL     1       3.552  -2.097 -21.481  1.00  0.00     0.011 A 
HETATM    9  C20 UNL     1       3.689  -3.211 -22.248  1.00  0.00    -0.029 A 
HETATM   10  C21 UNL     1       5.019  -3.684 -22.492  1.00  0.00     0.121 C 
HETATM   11  N2  UNL     1       5.277  -3.712 -23.915  1.00  0.00    -0.380 N 
HETATM   12  C27 UNL     1       5.401  -2.485 -24.560  1.00  0.00     0.150 C 
ENDROOT
BRANCH   6  13
HETATM   13  C10 UNL     1      -0.157  -1.631 -21.366  1.00  0.00    -0.065 C 
HETATM   14  C11 UNL     1      -1.256  -1.187 -21.144  1.00  0.00    -0.073 C 
BRANCH  14  15
HETATM   15  C12 UNL     1      -2.593  -0.624 -20.890  1.00  0.00     0.328 C 
BRANCH  15  16
HETATM   16  N1  UNL     1      -3.592  -1.572 -21.307  1.00  0.00    -0.044 N 
ATOM     17  H12 UNL     1      -4.535  -1.206 -21.186  1.00  0.00     0.280 HD
ATOM     18  H11 UNL     1      -3.602  -1.690 -22.320  1.00  0.00     0.280 HD
BRANCH  16  19
HETATM   19  C13 UNL     1      -3.414  -2.831 -20.623  1.00  0.00     0.411 C 
BRANCH  19  20
HETATM   20  O3  UNL     1      -4.674  -3.440 -20.458  1.00  0.00    -0.291 OA
BRANCH  20  21
HETATM   21  C14 UNL     1      -4.906  -4.409 -19.496  1.00  0.00     0.284 C 
HETATM   22  O4  UNL     1      -5.746  -5.340 -19.768  1.00  0.00    -0.260 OA
BRANCH  21  23
HETATM   23  C15 UNL     1      -4.258  -4.441 -18.197  1.00  0.00     0.081 C 
HETATM   24  C16 UNL     1      -4.732  -3.924 -17.084  1.00  0.00     0.015 C 
BRANCH  24  25
HETATM   25  C17 UNL     1      -6.017  -3.218 -16.975  1.00  0.00     0.201 C 
HETATM   26 CL1  UNL     1      -6.539  -3.279 -15.249  1.00  0.00    -0.104 Cl
HETATM   27 CL2  UNL     1      -5.876  -1.508 -17.440  1.00  0.00    -0.104 Cl
ENDBRANCH  24  25
ENDBRANCH  21  23
ENDBRANCH  20  21
ENDBRANCH  19  20
ENDBRANCH  16  19
ENDBRANCH  15  16
ENDBRANCH  14  15
ENDBRANCH   6  13
BRANCH   2  28
HETATM   28  O2  UNL     1       2.815  -3.705 -25.566  1.00  0.00    -0.389 OA
ATOM     29  H2  UNL     1       2.127  -3.848 -26.204  1.00  0.00     0.210 HD
ENDBRANCH   2  28
BRANCH  10  30
HETATM   30  C22 UNL     1       6.161  -3.193 -21.717  1.00  0.00     0.013 C 
HETATM   31  C23 UNL     1       5.912  -3.155 -20.257  1.00  0.00     0.007 C 
HETATM   32  C24 UNL     1       7.339  -3.189 -19.692  1.00  0.00     0.000 C 
HETATM   33  C25 UNL     1       7.945  -4.297 -20.485  1.00  0.00     0.000 C 
HETATM   34  C26 UNL     1       7.245  -4.286 -21.800  1.00  0.00     0.007 C 
ENDBRANCH  10  30
BRANCH   1  35
HETATM   35  C3  UNL     1       5.593  -5.529 -25.567  1.00  0.00     0.132 C 
BRANCH  35  36
HETATM   36  C2  UNL     1       6.146  -6.821 -25.233  1.00  0.00     0.128 C 
HETATM   37  C1  UNL     1       6.085  -7.272 -23.816  1.00  0.00     0.091 C 
HETATM   38  O1  UNL     1       6.652  -7.553 -26.042  1.00  0.00    -0.298 OA
ENDBRANCH  35  36
ENDBRANCH   1  35
TORSDOF 12
ENDMDL
MODEL 2
REMARK VINA RESULT: -8.993971507      2.746      4.400
REMARK  12 active torsions:
REMARK  status: ('A' for Active; 'I' for Inactive)
REMARK    1  A    between atoms: C2_2  and  C3_4 
REMARK    2  A    between atoms: C3_4  and  C4_5 
REMARK    3  A    between atoms: C5_6  and  O2_7 
REMARK    4  A    between atoms: C9_12  and  C10_13 
REMARK    5  A    between atoms: C11_14  and  C12_15 
REMARK    6  A    between atoms: C12_15  and  N1_16 
REMARK    7  A    between atoms: N1_16  and  C13_19 
REMARK    8  A    between atoms: C13_19  and  O3_20 
REMARK    9  A    between atoms: O3_20  and  C14_21 
REMARK   10  A    between atoms: C14_21  and  C15_23 
REMARK   11  A    between atoms: C16_24  and  C17_25 
REMARK   12  A    between atoms: C21_31  and  C22_32 
ROOT
HETATM    1  C4  UNL     1       8.073  -2.712 -20.683  1.00  0.00     0.021 C 
HETATM    2  C5  UNL     1       7.149  -2.100 -19.678  1.00  0.00     0.168 C 
HETATM    3  C6  UNL     1       6.108  -1.205 -20.369  1.00  0.00     0.077 C 
HETATM    4  C7  UNL     1       5.174  -2.042 -21.162  1.00  0.00    -0.046 A 
HETATM    5  C8  UNL     1       3.877  -1.792 -20.798  1.00  0.00     0.028 A 
HETATM    6  C9  UNL     1       2.808  -2.493 -21.383  1.00  0.00     0.018 A 
HETATM    7  C18 UNL     1       3.103  -3.440 -22.337  1.00  0.00     0.021 A 
HETATM    8  C19 UNL     1       4.424  -3.683 -22.697  1.00  0.00     0.011 A 
HETATM    9  C20 UNL     1       5.461  -3.007 -22.134  1.00  0.00    -0.029 A 
HETATM   10  C21 UNL     1       6.781  -3.331 -22.584  1.00  0.00     0.121 C 
HETATM   11  N2  UNL     1       7.584  -3.779 -21.468  1.00  0.00    -0.380 N 
HETATM   12  C27 UNL     1       7.272  -5.020 -20.921  1.00  0.00     0.150 C 
ENDROOT
BRANCH   6  13
HETATM   13  C10 UNL     1       1.449  -2.207 -20.979  1.00  0.00    -0.065 C 
HETATM   14  C11 UNL     1       0.311  -1.963 -20.662  1.00  0.00    -0.073 C 
BRANCH  14  15
HETATM   15  C12 UNL     1      -1.079  -1.645 -20.295  1.00  0.00     0.328 C 
BRANCH  15  16
HETATM   16  N1  UNL     1      -1.929  -2.744 -20.666  1.00  0.00    -0.044 N 
ATOM     17  H12 UNL     1      -1.867  -2.951 -21.663  1.00  0.00     0.280 HD
ATOM     18  H11 UNL     1      -1.581  -3.632 -20.304  1.00  0.00     0.280 HD
BRANCH  16  19
HETATM   19  C13 UNL     1      -3.291  -2.496 -20.256  1.00  0.00     0.411 C 
BRANCH  19  20
HETATM   20  O3  UNL     1      -4.052  -3.660 -20.481  1.00  0.00    -0.291 OA
BRANCH  20  21
HETATM   21  C14 UNL     1      -4.535  -4.439 -19.441  1.00  0.00     0.284 C 
HETATM   22  O4  UNL     1      -5.512  -5.233 -19.687  1.00  0.00    -0.260 OA
BRANCH  21  23
HETATM   23  C15 UNL     1      -4.006  -4.415 -18.090  1.00  0.00     0.081 C 
HETATM   24  C16 UNL     1      -4.603  -3.904 -17.035  1.00  0.00     0.015 C 
BRANCH  24  25
HETATM   25  C17 UNL     1      -5.926  -3.263 -17.055  1.00  0.00     0.201 C 
HETATM   26 CL1  UNL     1      -6.569  -3.263 -15.371  1.00  0.00    -0.104 Cl
HETATM   27 CL2  UNL     1      -5.835  -1.573 -17.603  1.00  0.00    -0.104 Cl
ENDBRANCH  24  25
ENDBRANCH  21  23
ENDBRANCH  20  21
ENDBRANCH  19  20
ENDBRANCH  16  19
ENDBRANCH  15  16
ENDBRANCH  14  15
ENDBRANCH   6  13
BRANCH   2  28
HETATM   28  O2  UNL     1       6.506  -2.965 -18.830  1.00  0.00    -0.389 OA
ATOM     29  H2  UNL     1       5.581  -3.107 -18.990  1.00  0.00     0.210 HD
ENDBRANCH   2  28
BRANCH  10  30
HETATM   30  C22 UNL     1       7.005  -4.119 -23.799  1.00  0.00     0.013 C 
HETATM   31  C23 UNL     1       6.501  -3.465 -25.029  1.00  0.00     0.007 C 
HETATM   32  C24 UNL     1       7.337  -4.153 -26.117  1.00  0.00     0.000 C 
HETATM   33  C25 UNL     1       8.708  -4.066 -25.536  1.00  0.00     0.000 C 
HETATM   34  C26 UNL     1       8.525  -4.095 -24.058  1.00  0.00     0.007 C 
ENDBRANCH  10  30
BRANCH   1  35
HETATM   35  C3  UNL     1       9.510  -2.819 -20.244  1.00  0.00     0.132 C 
BRANCH  35  36
HETATM   36  C2  UNL     1      10.221  -1.601 -19.929  1.00  0.00     0.128 C 
HETATM   37  C1  UNL     1      10.462  -0.620 -21.022  1.00  0.00     0.091 C 
HETATM   38  O1  UNL     1      10.628  -1.339 -18.828  1.00  0.00    -0.298 OA
ENDBRANCH  35  36
ENDBRANCH   1  35
TORSDOF 12
ENDMDL
MODEL 3
REMARK VINA RESULT: -8.848622270      2.885      4.634
REMARK  12 active torsions:
REMARK  status: ('A' for Active; 'I' for Inactive)
REMARK    1  A    between atoms: C2_2  and  C3_4 
REMARK    2  A    between atoms: C3_4  and  C4_5 
REMARK    3  A    between atoms: C5_6  and  O2_7 
REMARK    4  A    between atoms: C9_12  and  C10_13 
REMARK    5  A    between atoms: C11_14  and  C12_15 
REMARK    6  A    between atoms: C12_15  and  N1_16 
REMARK    7  A    between atoms: N1_16  and  C13_19 
REMARK    8  A    between atoms: C13_19  and  O3_20 
REMARK    9  A    between atoms: O3_20  and  C14_21 
REMARK   10  A    between atoms: C14_21  and  C15_23 
REMARK   11  A    between atoms: C16_24  and  C17_25 
REMARK   12  A    between atoms: C21_31  and  C22_32 
ROOT
HETATM    1  C4  UNL     1       8.213  -2.677 -20.691  1.00  0.00     0.021 C 
HETATM    2  C5  UNL     1       7.309  -2.023 -19.694  1.00  0.00     0.168 C 
HETATM    3  C6  UNL     1       6.292  -1.111 -20.397  1.00  0.00     0.077 C 
HETATM    4  C7  UNL     1       5.332  -1.934 -21.173  1.00  0.00    -0.046 A 
HETATM    5  C8  UNL     1       4.044  -1.642 -20.810  1.00  0.00     0.028 A 
HETATM    6  C9  UNL     1       2.954  -2.322 -21.380  1.00  0.00     0.018 A 
HETATM    7  C18 UNL     1       3.220  -3.293 -22.319  1.00  0.00     0.021 A 
HETATM    8  C19 UNL     1       4.532  -3.579 -22.679  1.00  0.00     0.011 A 
HETATM    9  C20 UNL     1       5.589  -2.923 -22.130  1.00  0.00    -0.029 A 
HETATM   10  C21 UNL     1       6.899  -3.291 -22.578  1.00  0.00     0.121 C 
HETATM   11  N2  UNL     1       7.692  -3.743 -21.456  1.00  0.00    -0.380 N 
HETATM   12  C27 UNL     1       7.347  -4.966 -20.888  1.00  0.00     0.150 C 
ENDROOT
BRANCH   6  13
HETATM   13  C10 UNL     1       1.605  -1.992 -20.978  1.00  0.00    -0.065 C 
HETATM   14  C11 UNL     1       0.486  -1.696 -20.638  1.00  0.00    -0.073 C 
BRANCH  14  15
HETATM   15  C12 UNL     1      -0.870  -1.315 -20.207  1.00  0.00     0.328 C 
BRANCH  15  16
HETATM   16  N1  UNL     1      -1.834  -1.932 -21.079  1.00  0.00    -0.044 N 
ATOM     17  H12 UNL     1      -2.739  -1.465 -21.033  1.00  0.00     0.280 HD
ATOM     18  H11 UNL     1      -1.622  -1.757 -22.061  1.00  0.00     0.280 HD
BRANCH  16  19
HETATM   19  C13 UNL     1      -1.945  -3.343 -20.798  1.00  0.00     0.411 C 
BRANCH  19  20
HETATM   20  O3  UNL     1      -3.061  -3.857 -21.487  1.00  0.00    -0.291 OA
BRANCH  20  21
HETATM   21  C14 UNL     1      -4.347  -3.393 -21.259  1.00  0.00     0.284 C 
HETATM   22  O4  UNL     1      -4.668  -2.247 -21.738  1.00  0.00    -0.260 OA
BRANCH  21  23
HETATM   23  C15 UNL     1      -5.357  -4.121 -20.512  1.00  0.00     0.081 C 
HETATM   24  C16 UNL     1      -5.545  -4.067 -19.211  1.00  0.00     0.015 C 
BRANCH  24  25
HETATM   25  C17 UNL     1      -4.748  -3.246 -18.288  1.00  0.00     0.201 C 
HETATM   26 CL1  UNL     1      -5.774  -1.868 -17.743  1.00  0.00    -0.104 Cl
HETATM   27 CL2  UNL     1      -4.255  -4.161 -16.845  1.00  0.00    -0.104 Cl
ENDBRANCH  24  25
ENDBRANCH  21  23
ENDBRANCH  20  21
ENDBRANCH  19  20
ENDBRANCH  16  19
ENDBRANCH  15  16
ENDBRANCH  14  15
ENDBRANCH   6  13
BRANCH   2  28
HETATM   28  O2  UNL     1       6.646  -2.855 -18.830  1.00  0.00    -0.389 OA
ATOM     29  H2  UNL     1       6.935  -2.845 -17.925  1.00  0.00     0.210 HD
ENDBRANCH   2  28
BRANCH  10  30
HETATM   30  C22 UNL     1       7.097  -4.105 -23.779  1.00  0.00     0.013 C 
HETATM   31  C23 UNL     1       6.567  -3.478 -25.013  1.00  0.00     0.007 C 
HETATM   32  C24 UNL     1       7.380  -4.189 -26.103  1.00  0.00     0.000 C 
HETATM   33  C25 UNL     1       8.763  -4.092 -25.552  1.00  0.00     0.000 C 
HETATM   34  C26 UNL     1       8.611  -4.089 -24.071  1.00  0.00     0.007 C 
ENDBRANCH  10  30
BRANCH   1  35
HETATM   35  C3  UNL     1       9.648  -2.817 -20.253  1.00  0.00     0.132 C 
BRANCH  35  36
HETATM   36  C2  UNL     1      10.373  -1.620 -19.894  1.00  0.00     0.128 C 
HETATM   37  C1  UNL     1      10.619  -0.600 -20.949  1.00  0.00     0.091 C 
HETATM   38  O1  UNL     1      10.787  -1.406 -18.786  1.00  0.00    -0.298 OA
ENDBRANCH  35  36
ENDBRANCH   1  35
TORSDOF 12
ENDMDL
MODEL 4
REMARK VINA RESULT: -8.700844899      1.896      2.814
REMARK  12 active torsions:
REMARK  status: ('A' for Active; 'I' for Inactive)
REMARK    1  A    between atoms: C2_2  and  C3_4 
REMARK    2  A    between atoms: C3_4  and  C4_5 
REMARK    3  A    between atoms: C5_6  and  O2_7 
REMARK    4  A    between atoms: C9_12  and  C10_13 
REMARK    5  A    between atoms: C11_14  and  C12_15 
REMARK    6  A    between atoms: C12_15  and  N1_16 
REMARK    7  A    between atoms: N1_16  and  C13_19 
REMARK    8  A    between atoms: C13_19  and  O3_20 
REMARK    9  A    between atoms: O3_20  and  C14_21 
REMARK   10  A    between atoms: C14_21  and  C15_23 
REMARK   11  A    between atoms: C16_24  and  C17_25 
REMARK   12  A    between atoms: C21_31  and  C22_32 
ROOT
HETATM    1  C4  UNL     1       4.798  -6.091 -26.004  1.00  0.00     0.021 C 
HETATM    2  C5  UNL     1       3.408  -5.539 -25.957  1.00  0.00     0.168 C 
HETATM    3  C6  UNL     1       2.820  -5.662 -24.544  1.00  0.00     0.077 C 
HETATM    4  C7  UNL     1       3.535  -4.746 -23.620  1.00  0.00    -0.046 A 
HETATM    5  C8  UNL     1       2.650  -3.919 -22.981  1.00  0.00     0.028 A 
HETATM    6  C9  UNL     1       3.093  -2.933 -22.082  1.00  0.00     0.018 A 
HETATM    7  C18 UNL     1       4.447  -2.825 -21.860  1.00  0.00     0.021 A 
HETATM    8  C19 UNL     1       5.334  -3.672 -22.515  1.00  0.00     0.011 A 
HETATM    9  C20 UNL     1       4.910  -4.627 -23.385  1.00  0.00    -0.029 A 
HETATM   10  C21 UNL     1       5.908  -5.451 -23.998  1.00  0.00     0.121 C 
HETATM   11  N2  UNL     1       5.836  -5.320 -25.437  1.00  0.00    -0.380 N 
HETATM   12  C27 UNL     1       6.244  -4.107 -25.984  1.00  0.00     0.150 C 
ENDROOT
BRANCH   6  13
HETATM   13  C10 UNL     1       2.135  -2.074 -21.422  1.00  0.00    -0.065 C 
HETATM   14  C11 UNL     1       1.322  -1.373 -20.872  1.00  0.00    -0.073 C 
BRANCH  14  15
HETATM   15  C12 UNL     1       0.309  -0.532 -20.213  1.00  0.00     0.328 C 
BRANCH  15  16
HETATM   16  N1  UNL     1      -0.649  -0.092 -21.192  1.00  0.00    -0.044 N 
ATOM     17  H12 UNL     1      -0.527   0.893 -21.425  1.00  0.00     0.280 HD
ATOM     18  H11 UNL     1      -0.461  -0.491 -22.111  1.00  0.00     0.280 HD
BRANCH  16  19
HETATM   19  C13 UNL     1      -1.994  -0.375 -20.750  1.00  0.00     0.411 C 
BRANCH  19  20
HETATM   20  O3  UNL     1      -2.084  -1.740 -20.414  1.00  0.00    -0.291 OA
BRANCH  20  21
HETATM   21  C14 UNL     1      -3.075  -2.563 -20.923  1.00  0.00     0.284 C 
HETATM   22  O4  UNL     1      -2.725  -3.693 -21.420  1.00  0.00    -0.260 OA
BRANCH  21  23
HETATM   23  C15 UNL     1      -4.488  -2.228 -20.933  1.00  0.00     0.081 C 
HETATM   24  C16 UNL     1      -5.296  -2.255 -19.896  1.00  0.00     0.015 C 
BRANCH  24  25
HETATM   25  C17 UNL     1      -4.892  -2.635 -18.534  1.00  0.00     0.201 C 
HETATM   26 CL1  UNL     1      -6.037  -1.859 -17.377  1.00  0.00    -0.104 Cl
HETATM   27 CL2  UNL     1      -4.975  -4.394 -18.284  1.00  0.00    -0.104 Cl
ENDBRANCH  24  25
ENDBRANCH  21  23
ENDBRANCH  20  21
ENDBRANCH  19  20
ENDBRANCH  16  19
ENDBRANCH  15  16
ENDBRANCH  14  15
ENDBRANCH   6  13
BRANCH   2  28
HETATM   28  O2  UNL     1       3.246  -4.251 -26.402  1.00  0.00    -0.389 OA
ATOM     29  H2  UNL     1       2.570  -3.737 -25.975  1.00  0.00     0.210 HD
ENDBRANCH   2  28
BRANCH  10  30
HETATM   30  C22 UNL     1       7.285  -5.487 -23.499  1.00  0.00     0.013 C 
HETATM   31  C23 UNL     1       7.411  -6.103 -22.157  1.00  0.00     0.007 C 
HETATM   32  C24 UNL     1       8.885  -6.532 -22.145  1.00  0.00     0.000 C 
HETATM   33  C25 UNL     1       9.009  -7.203 -23.471  1.00  0.00     0.000 C 
HETATM   34  C26 UNL     1       8.035  -6.518 -24.366  1.00  0.00     0.007 C 
ENDBRANCH  10  30
BRANCH   1  35
HETATM   35  C3  UNL     1       5.143  -6.839 -27.266  1.00  0.00     0.132 C 
BRANCH  35  36
HETATM   36  C2  UNL     1       5.273  -8.276 -27.195  1.00  0.00     0.128 C 
HETATM   37  C1  UNL     1       6.609  -8.850 -26.881  1.00  0.00     0.091 C 
HETATM   38  O1  UNL     1       4.356  -9.032 -27.376  1.00  0.00    -0.298 OA
ENDBRANCH  35  36
ENDBRANCH   1  35
TORSDOF 12
ENDMDL
MODEL 5
REMARK VINA RESULT: -8.646813365      1.454      1.852
REMARK  12 active torsions:
REMARK  status: ('A' for Active; 'I' for Inactive)
REMARK    1  A    between atoms: C2_2  and  C3_4 
REMARK    2  A    between atoms: C3_4  and  C4_5 
REMARK    3  A    between atoms: C5_6  and  O2_7 
REMARK    4  A    between atoms: C9_12  and  C10_13 
REMARK    5  A    between atoms: C11_14  and  C12_15 
REMARK    6  A    between atoms: C12_15  and  N1_16 
REMARK    7  A    between atoms: N1_16  and  C13_19 
REMARK    8  A    between atoms: C13_19  and  O3_20 
REMARK    9  A    between atoms: O3_20  and  C14_21 
REMARK   10  A    between atoms: C14_21  and  C15_23 
REMARK   11  A    between atoms: C16_24  and  C17_25 
REMARK   12  A    between atoms: C21_31  and  C22_32 
ROOT
HETATM    1  C4  UNL     1       4.994  -5.786 -25.338  1.00  0.00     0.021 C 
HETATM    2  C5  UNL     1       3.534  -5.498 -25.494  1.00  0.00     0.168 C 
HETATM    3  C6  UNL     1       2.813  -5.590 -24.141  1.00  0.00     0.077 C 
HETATM    4  C7  UNL     1       3.245  -4.473 -23.265  1.00  0.00    -0.046 A 
HETATM    5  C8  UNL     1       2.161  -3.764 -22.818  1.00  0.00     0.028 A 
HETATM    6  C9  UNL     1       2.317  -2.631 -22.001  1.00  0.00     0.018 A 
HETATM    7  C18 UNL     1       3.596  -2.253 -21.660  1.00  0.00     0.021 A 
HETATM    8  C19 UNL     1       4.688  -2.982 -22.121  1.00  0.00     0.011 A 
HETATM    9  C20 UNL     1       4.541  -4.079 -22.911  1.00  0.00    -0.029 A 
HETATM   10  C21 UNL     1       5.732  -4.760 -23.322  1.00  0.00     0.121 C 
HETATM   11  N2  UNL     1       5.808  -4.786 -24.766  1.00  0.00    -0.380 N 
HETATM   12  C27 UNL     1       6.062  -3.577 -25.408  1.00  0.00     0.150 C 
ENDROOT
BRANCH   6  13
HETATM   13  C10 UNL     1       1.154  -1.904 -21.544  1.00  0.00    -0.065 C 
HETATM   14  C11 UNL     1       0.195  -1.290 -21.145  1.00  0.00    -0.073 C 
BRANCH  14  15
HETATM   15  C12 UNL     1      -0.967  -0.545 -20.632  1.00  0.00     0.328 C 
BRANCH  15  16
HETATM   16  N1  UNL     1      -2.174  -1.173 -21.098  1.00  0.00    -0.044 N 
ATOM     17  H12 UNL     1      -3.005  -0.652 -20.817  1.00  0.00     0.280 HD
ATOM     18  H11 UNL     1      -2.278  -1.091 -22.109  1.00  0.00     0.280 HD
BRANCH  16  19
HETATM   19  C13 UNL     1      -2.233  -2.548 -20.664  1.00  0.00     0.411 C 
BRANCH  19  20
HETATM   20  O3  UNL     1      -3.235  -3.214 -21.398  1.00  0.00    -0.291 OA
BRANCH  20  21
HETATM   21  C14 UNL     1      -4.576  -3.130 -21.061  1.00  0.00     0.284 C 
HETATM   22  O4  UNL     1      -5.224  -2.083 -21.422  1.00  0.00    -0.260 OA
BRANCH  21  23
HETATM   23  C15 UNL     1      -5.298  -4.151 -20.324  1.00  0.00     0.081 C 
HETATM   24  C16 UNL     1      -5.364  -4.259 -19.015  1.00  0.00     0.015 C 
BRANCH  24  25
HETATM   25  C17 UNL     1      -4.705  -3.345 -18.070  1.00  0.00     0.201 C 
HETATM   26 CL1  UNL     1      -5.793  -1.930 -17.814  1.00  0.00    -0.104 Cl
HETATM   27 CL2  UNL     1      -4.430  -4.112 -16.489  1.00  0.00    -0.104 Cl
ENDBRANCH  24  25
ENDBRANCH  21  23
ENDBRANCH  20  21
ENDBRANCH  19  20
ENDBRANCH  16  19
ENDBRANCH  15  16
ENDBRANCH  14  15
ENDBRANCH   6  13
BRANCH   2  28
HETATM   28  O2  UNL     1       3.204  -4.313 -26.100  1.00  0.00    -0.389 OA
ATOM     29  H2  UNL     1       2.394  -3.904 -25.821  1.00  0.00     0.210 HD
ENDBRANCH   2  28
BRANCH  10  30
HETATM   30  C22 UNL     1       7.025  -4.492 -22.688  1.00  0.00     0.013 C 
HETATM   31  C23 UNL     1       6.980  -4.543 -21.208  1.00  0.00     0.007 C 
HETATM   32  C24 UNL     1       8.449  -4.814 -20.857  1.00  0.00     0.000 C 
HETATM   33  C25 UNL     1       8.778  -5.924 -21.797  1.00  0.00     0.000 C 
HETATM   34  C26 UNL     1       7.919  -5.710 -22.995  1.00  0.00     0.007 C 
ENDBRANCH  10  30
BRANCH   1  35
HETATM   35  C3  UNL     1       5.610  -6.577 -26.464  1.00  0.00     0.132 C 
BRANCH  35  36
HETATM   36  C2  UNL     1       5.868  -7.982 -26.251  1.00  0.00     0.128 C 
HETATM   37  C1  UNL     1       7.122  -8.371 -25.551  1.00  0.00     0.091 C 
HETATM   38  O1  UNL     1       5.122  -8.853 -26.610  1.00  0.00    -0.298 OA
ENDBRANCH  35  36
ENDBRANCH   1  35
TORSDOF 12
ENDMDL
