MODEL 1
REMARK VINA RESULT: -10.303774538      0.000      0.000
REMARK  9 active torsions:
REMARK  status: ('A' for Active; 'I' for Inactive)
REMARK       I    between atoms: C2_2  and  N1_4 
REMARK    1  A    between atoms: C5_7  and  O2_8 
REMARK    2  A    between atoms: C5_7  and  C6_10 
REMARK    3  A    between atoms: C6_10  and  C7_11 
REMARK    4  A    between atoms: C9_13  and  C10_14 
REMARK    5  A    between atoms: C12_16  and  N2_17 
REMARK       I    between atoms: N2_17  and  C13_19 
REMARK    6  A    between atoms: C13_19  and  C14_21 
REMARK    7  A    between atoms: C14_21  and  C15_22 
REMARK    8  A    between atoms: C15_22  and  C16_23 
REMARK    9  A    between atoms: C16_23  and  N3_24 
ROOT
HETATM    1  C10 UNL     1       2.533  -2.175 -21.009  1.00  0.00     0.015 A 
HETATM    2  C11 UNL     1       1.270  -1.662 -20.791  1.00  0.00     0.044 A 
HETATM    3  C12 UNL     1       0.174  -1.986 -21.606  1.00  0.00     0.038 A 
HETATM    4  C21 UNL     1       0.463  -2.852 -22.631  1.00  0.00     0.073 A 
HETATM    5  C22 UNL     1       1.726  -3.370 -22.854  1.00  0.00     0.141 A 
HETATM    6  F1  UNL     1       1.979  -4.227 -23.881  1.00  0.00    -0.204 F 
HETATM    7  C23 UNL     1       2.799  -3.035 -22.036  1.00  0.00     0.085 A 
HETATM    8 CL1  UNL     1       4.384  -3.718 -22.360  1.00  0.00    -0.080 Cl
ENDROOT
BRANCH   1   9
HETATM    9  C9  UNL     1       3.619  -1.766 -20.086  1.00  0.00     0.046 A 
HETATM   10  C8  UNL     1       5.061  -1.695 -20.299  1.00  0.00     0.094 A 
HETATM   11  C7  UNL     1       5.659  -1.227 -18.983  1.00  0.00     0.160 A 
HETATM   12  O4  UNL     1       4.534  -1.058 -18.190  1.00  0.00    -0.274 OA
HETATM   13  N4  UNL     1       3.402  -1.383 -18.848  1.00  0.00    -0.270 N 
ATOM     14  H4  UNL     1       2.474  -1.337 -18.428  1.00  0.00     0.194 HD
BRANCH  11  15
HETATM   15  C6  UNL     1       6.514  -2.320 -18.403  1.00  0.00     0.072 C 
BRANCH  15  16
HETATM   16  C5  UNL     1       7.793  -2.533 -19.157  1.00  0.00     0.063 C 
HETATM   17  C4  UNL     1       8.094  -1.430 -20.146  1.00  0.00     0.057 C 
HETATM   18  C3  UNL     1       9.572  -1.541 -20.484  1.00  0.00     0.128 C 
HETATM   19  N1  UNL     1       9.819  -2.927 -20.861  1.00  0.00    -0.352 N 
HETATM   20  C2  UNL     1      11.111  -3.455 -21.005  1.00  0.00     0.215 C 
HETATM   21  C25 UNL     1       8.659  -3.787 -21.096  1.00  0.00     0.128 C 
HETATM   22  C1  UNL     1      12.282  -2.579 -20.767  1.00  0.00     0.117 C 
HETATM   23  O1  UNL     1      11.282  -4.641 -21.327  1.00  0.00    -0.274 OA
HETATM   24  C24 UNL     1       7.874  -3.882 -19.807  1.00  0.00     0.057 C 
BRANCH  16  25
HETATM   25  O2  UNL     1       8.829  -2.475 -18.199  1.00  0.00    -0.390 OA
ATOM     26  H2  UNL     1       9.308  -3.291 -18.292  1.00  0.00     0.210 HD
ENDBRANCH  16  25
ENDBRANCH  15  16
ENDBRANCH  11  15
ENDBRANCH   1   9
BRANCH   3  27
HETATM   27  N2  UNL     1      -1.074  -1.428 -21.311  1.00  0.00    -0.327 N 
HETATM   28  C13 UNL     1      -2.286  -2.128 -21.188  1.00  0.00     0.222 C 
HETATM   29  O3  UNL     1      -2.459  -3.360 -21.321  1.00  0.00    -0.273 OA
ATOM     30  H2  UNL     1      -1.108  -0.417 -21.172  1.00  0.00     0.169 HD
BRANCH  28  31
HETATM   31  C14 UNL     1      -3.550  -1.366 -20.862  1.00  0.00     0.105 C 
BRANCH  31  32
HETATM   32  C15 UNL     1      -4.793  -2.121 -21.203  1.00  0.00     0.039 C 
BRANCH  32  33
HETATM   33  C16 UNL     1      -5.633  -2.476 -20.028  1.00  0.00     0.273 C 
BRANCH  33  34
HETATM   34  N3  UNL     1      -4.883  -2.491 -18.783  1.00  0.00     0.088 N 
HETATM   35  C17 UNL     1      -4.576  -3.851 -18.458  1.00  0.00     0.272 C 
HETATM   36  C18 UNL     1      -4.597  -3.962 -16.948  1.00  0.00     0.032 C 
HETATM   37  C19 UNL     1      -5.091  -2.648 -16.425  1.00  0.00     0.032 C 
HETATM   38  C20 UNL     1      -5.630  -1.982 -17.677  1.00  0.00     0.272 C 
ENDBRANCH  33  34
ENDBRANCH  32  33
ENDBRANCH  31  32
ENDBRANCH  28  31
ENDBRANCH   3  27
TORSDOF 9
ENDMDL
MODEL 2
REMARK VINA RESULT: -10.083023394      4.049      4.961
REMARK  9 active torsions:
REMARK  status: ('A' for Active; 'I' for Inactive)
REMARK       I    between atoms: C2_2  and  N1_4 
REMARK    1  A    between atoms: C5_7  and  O2_8 
REMARK    2  A    between atoms: C5_7  and  C6_10 
REMARK    3  A    between atoms: C6_10  and  C7_11 
REMARK    4  A    between atoms: C9_13  and  C10_14 
REMARK    5  A    between atoms: C12_16  and  N2_17 
REMARK       I    between atoms: N2_17  and  C13_19 
REMARK    6  A    between atoms: C13_19  and  C14_21 
REMARK    7  A    between atoms: C14_21  and  C15_22 
REMARK    8  A    between atoms: C15_22  and  C16_23 
REMARK    9  A    between atoms: C16_23  and  N3_24 
ROOT
HETATM    1  C10 UNL     1       3.608  -2.881 -21.503  1.00  0.00     0.015 A 
HETATM    2  C11 UNL     1       2.245  -2.691 -21.619  1.00  0.00     0.044 A 
HETATM    3  C12 UNL     1       1.429  -2.403 -20.515  1.00  0.00     0.038 A 
HETATM    4  C21 UNL     1       2.096  -2.325 -19.317  1.00  0.00     0.073 A 
HETATM    5  C22 UNL     1       3.460  -2.514 -19.195  1.00  0.00     0.141 A 
HETATM    6  F1  UNL     1       4.091  -2.430 -17.991  1.00  0.00    -0.204 F 
HETATM    7  C23 UNL     1       4.252  -2.800 -20.301  1.00  0.00     0.085 A 
HETATM    8 CL1  UNL     1       5.981  -3.031 -20.095  1.00  0.00    -0.080 Cl
ENDROOT
BRANCH   1   9
HETATM    9  C9  UNL     1       4.377  -3.180 -22.736  1.00  0.00     0.046 A 
HETATM   10  C8  UNL     1       4.886  -4.449 -23.246  1.00  0.00     0.094 A 
HETATM   11  C7  UNL     1       5.609  -4.122 -24.541  1.00  0.00     0.160 A 
HETATM   12  O4  UNL     1       5.423  -2.752 -24.648  1.00  0.00    -0.274 OA
HETATM   13  N4  UNL     1       4.730  -2.257 -23.602  1.00  0.00    -0.270 N 
ATOM     14  H4  UNL     1       4.504  -1.268 -23.494  1.00  0.00     0.194 HD
BRANCH  11  15
HETATM   15  C6  UNL     1       7.077  -4.411 -24.381  1.00  0.00     0.072 C 
BRANCH  15  16
HETATM   16  C5  UNL     1       7.436  -5.836 -24.684  1.00  0.00     0.063 C 
HETATM   17  C4  UNL     1       6.563  -6.457 -25.751  1.00  0.00     0.057 C 
HETATM   18  C3  UNL     1       7.302  -7.687 -26.255  1.00  0.00     0.128 C 
HETATM   19  N1  UNL     1       7.667  -8.472 -25.082  1.00  0.00    -0.352 N 
HETATM   20  C2  UNL     1       8.565  -9.549 -25.141  1.00  0.00     0.215 C 
HETATM   21  C25 UNL     1       7.062  -8.108 -23.802  1.00  0.00     0.128 C 
HETATM   22  C1  UNL     1       9.175  -9.914 -26.442  1.00  0.00     0.117 C 
HETATM   23  O1  UNL     1       8.854 -10.195 -24.121  1.00  0.00    -0.274 OA
HETATM   24  C24 UNL     1       7.494  -6.700 -23.460  1.00  0.00     0.057 C 
BRANCH  16  25
HETATM   25  O2  UNL     1       8.738  -5.807 -25.229  1.00  0.00    -0.390 OA
ATOM     26  H2  UNL     1       9.011  -6.716 -25.287  1.00  0.00     0.210 HD
ENDBRANCH  16  25
ENDBRANCH  15  16
ENDBRANCH  11  15
ENDBRANCH   1   9
BRANCH   3  27
HETATM   27  N2  UNL     1       0.057  -2.217 -20.720  1.00  0.00    -0.327 N 
HETATM   28  C13 UNL     1      -0.669  -1.046 -20.449  1.00  0.00     0.222 C 
HETATM   29  O3  UNL     1      -0.222   0.024 -19.981  1.00  0.00    -0.273 OA
ATOM     30  H2  UNL     1      -0.464  -3.007 -21.103  1.00  0.00     0.169 HD
BRANCH  28  31
HETATM   31  C14 UNL     1      -2.153  -1.014 -20.734  1.00  0.00     0.105 C 
BRANCH  31  32
HETATM   32  C15 UNL     1      -2.853  -2.271 -20.331  1.00  0.00     0.039 C 
BRANCH  32  33
HETATM   33  C16 UNL     1      -4.337  -2.192 -20.400  1.00  0.00     0.273 C 
BRANCH  33  34
HETATM   34  N3  UNL     1      -4.991  -2.933 -19.335  1.00  0.00     0.088 N 
HETATM   35  C17 UNL     1      -5.491  -1.997 -18.374  1.00  0.00     0.272 C 
HETATM   36  C18 UNL     1      -5.382  -2.655 -17.015  1.00  0.00     0.032 C 
HETATM   37  C19 UNL     1      -4.646  -3.944 -17.217  1.00  0.00     0.032 C 
HETATM   38  C20 UNL     1      -4.096  -3.788 -18.622  1.00  0.00     0.272 C 
ENDBRANCH  33  34
ENDBRANCH  32  33
ENDBRANCH  31  32
ENDBRANCH  28  31
ENDBRANCH   3  27
TORSDOF 9
ENDMDL
MODEL 3
REMARK VINA RESULT: -10.079439163      4.254      6.044
REMARK  9 active torsions:
REMARK  status: ('A' for Active; 'I' for Inactive)
REMARK       I    between atoms: C2_2  and  N1_4 
REMARK    1  A    between atoms: C5_7  and  O2_8 
REMARK    2  A    between atoms: C5_7  and  C6_10 
REMARK    3  A    between atoms: C6_10  and  C7_11 
REMARK    4  A    between atoms: C9_13  and  C10_14 
REMARK    5  A    between atoms: C12_16  and  N2_17 
REMARK       I    between atoms: N2_17  and  C13_19 
REMARK    6  A    between atoms: C13_19  and  C14_21 
REMARK    7  A    between atoms: C14_21  and  C15_22 
REMARK    8  A    between atoms: C15_22  and  C16_23 
REMARK    9  A    between atoms: C16_23  and  N3_24 
ROOT
HETATM    1  C10 UNL     1       3.020  -2.375 -20.830  1.00  0.00     0.015 A 
HETATM    2  C11 UNL     1       1.731  -1.907 -20.987  1.00  0.00     0.044 A 
HETATM    3  C12 UNL     1       0.974  -1.410 -19.915  1.00  0.00     0.038 A 
HETATM    4  C21 UNL     1       1.620  -1.429 -18.704  1.00  0.00     0.073 A 
HETATM    5  C22 UNL     1       2.911  -1.896 -18.541  1.00  0.00     0.141 A 
HETATM    6  F1  UNL     1       3.524  -1.902 -17.324  1.00  0.00    -0.204 F 
HETATM    7  C23 UNL     1       3.645  -2.386 -19.615  1.00  0.00     0.085 A 
HETATM    8 CL1  UNL     1       5.281  -2.969 -19.357  1.00  0.00    -0.080 Cl
ENDROOT
BRANCH   1   9
HETATM    9  C9  UNL     1       3.731  -2.877 -22.032  1.00  0.00     0.046 A 
HETATM   10  C8  UNL     1       3.302  -3.828 -23.052  1.00  0.00     0.094 A 
HETATM   11  C7  UNL     1       4.465  -3.957 -24.021  1.00  0.00     0.160 A 
HETATM   12  O4  UNL     1       5.395  -3.078 -23.488  1.00  0.00    -0.274 OA
HETATM   13  N4  UNL     1       4.945  -2.496 -22.357  1.00  0.00    -0.270 N 
ATOM     14  H4  UNL     1       5.490  -1.829 -21.812  1.00  0.00     0.194 HD
BRANCH  11  15
HETATM   15  C6  UNL     1       5.014  -5.357 -23.959  1.00  0.00     0.072 C 
BRANCH  15  16
HETATM   16  C5  UNL     1       4.444  -6.263 -25.011  1.00  0.00     0.063 C 
HETATM   17  C4  UNL     1       4.128  -5.549 -26.306  1.00  0.00     0.057 C 
HETATM   18  C3  UNL     1       3.999  -6.624 -27.374  1.00  0.00     0.128 C 
HETATM   19  N1  UNL     1       3.068  -7.622 -26.861  1.00  0.00    -0.352 N 
HETATM   20  C2  UNL     1       2.891  -8.875 -27.468  1.00  0.00     0.215 C 
HETATM   21  C25 UNL     1       2.298  -7.285 -25.664  1.00  0.00     0.128 C 
HETATM   22  C1  UNL     1       3.674  -9.210 -28.680  1.00  0.00     0.117 C 
HETATM   23  O1  UNL     1       2.090  -9.700 -27.001  1.00  0.00    -0.274 OA
HETATM   24  C24 UNL     1       3.268  -7.057 -24.527  1.00  0.00     0.057 C 
BRANCH  16  25
HETATM   25  O2  UNL     1       5.463  -7.188 -25.328  1.00  0.00    -0.390 OA
ATOM     26  H2  UNL     1       5.061  -7.818 -25.915  1.00  0.00     0.210 HD
ENDBRANCH  16  25
ENDBRANCH  15  16
ENDBRANCH  11  15
ENDBRANCH   1   9
BRANCH   3  27
HETATM   27  N2  UNL     1      -0.323  -0.948 -20.162  1.00  0.00    -0.327 N 
HETATM   28  C13 UNL     1      -1.420  -1.731 -20.557  1.00  0.00     0.222 C 
HETATM   29  O3  UNL     1      -1.429  -2.966 -20.756  1.00  0.00    -0.273 OA
ATOM     30  H2  UNL     1      -0.488   0.052 -20.044  1.00  0.00     0.169 HD
BRANCH  28  31
HETATM   31  C14 UNL     1      -2.760  -1.068 -20.780  1.00  0.00     0.105 C 
BRANCH  31  32
HETATM   32  C15 UNL     1      -3.835  -2.033 -21.160  1.00  0.00     0.039 C 
BRANCH  32  33
HETATM   33  C16 UNL     1      -4.981  -2.073 -20.213  1.00  0.00     0.273 C 
BRANCH  33  34
HETATM   34  N3  UNL     1      -4.565  -2.263 -18.833  1.00  0.00     0.088 N 
HETATM   35  C17 UNL     1      -4.249  -3.646 -18.642  1.00  0.00     0.272 C 
HETATM   36  C18 UNL     1      -4.636  -3.999 -17.222  1.00  0.00     0.032 C 
HETATM   37  C19 UNL     1      -5.341  -2.803 -16.657  1.00  0.00     0.032 C 
HETATM   38  C20 UNL     1      -5.599  -1.964 -17.894  1.00  0.00     0.272 C 
ENDBRANCH  33  34
ENDBRANCH  32  33
ENDBRANCH  31  32
ENDBRANCH  28  31
ENDBRANCH   3  27
TORSDOF 9
ENDMDL
MODEL 4
REMARK VINA RESULT: -9.985606990      2.988      3.800
REMARK  9 active torsions:
REMARK  status: ('A' for Active; 'I' for Inactive)
REMARK       I    between atoms: C2_2  and  N1_4 
REMARK    1  A    between atoms: C5_7  and  O2_8 
REMARK    2  A    between atoms: C5_7  and  C6_10 
REMARK    3  A    between atoms: C6_10  and  C7_11 
REMARK    4  A    between atoms: C9_13  and  C10_14 
REMARK    5  A    between atoms: C12_16  and  N2_17 
REMARK       I    between atoms: N2_17  and  C13_19 
REMARK    6  A    between atoms: C13_19  and  C14_21 
REMARK    7  A    between atoms: C14_21  and  C15_22 
REMARK    8  A    between atoms: C15_22  and  C16_23 
REMARK    9  A    between atoms: C16_23  and  N3_24 
ROOT
HETATM    1  C10 UNL     1       2.746  -2.477 -21.077  1.00  0.00     0.015 A 
HETATM    2  C11 UNL     1       1.448  -2.053 -21.276  1.00  0.00     0.044 A 
HETATM    3  C12 UNL     1       0.682  -1.466 -20.257  1.00  0.00     0.038 A 
HETATM    4  C21 UNL     1       1.330  -1.351 -19.053  1.00  0.00     0.073 A 
HETATM    5  C22 UNL     1       2.630  -1.773 -18.847  1.00  0.00     0.141 A 
HETATM    6  F1  UNL     1       3.244  -1.644 -17.638  1.00  0.00    -0.204 F 
HETATM    7  C23 UNL     1       3.372  -2.353 -19.869  1.00  0.00     0.085 A 
HETATM    8 CL1  UNL     1       5.021  -2.875 -19.558  1.00  0.00    -0.080 Cl
ENDROOT
BRANCH   1   9
HETATM    9  C9  UNL     1       3.466  -3.082 -22.225  1.00  0.00     0.046 A 
HETATM   10  C8  UNL     1       3.001  -4.023 -23.239  1.00  0.00     0.094 A 
HETATM   11  C7  UNL     1       4.194  -4.292 -24.141  1.00  0.00     0.160 A 
HETATM   12  O4  UNL     1       5.174  -3.485 -23.584  1.00  0.00    -0.274 OA
HETATM   13  N4  UNL     1       4.725  -2.826 -22.497  1.00  0.00    -0.270 N 
ATOM     14  H4  UNL     1       5.303  -2.194 -21.943  1.00  0.00     0.194 HD
BRANCH  11  15
HETATM   15  C6  UNL     1       4.605  -5.733 -24.010  1.00  0.00     0.072 C 
BRANCH  15  16
HETATM   16  C5  UNL     1       6.057  -5.906 -23.669  1.00  0.00     0.063 C 
HETATM   17  C4  UNL     1       6.986  -5.285 -24.687  1.00  0.00     0.057 C 
HETATM   18  C3  UNL     1       8.340  -5.142 -24.009  1.00  0.00     0.128 C 
HETATM   19  N1  UNL     1       8.668  -6.442 -23.440  1.00  0.00    -0.352 N 
HETATM   20  C2  UNL     1       9.726  -6.629 -22.536  1.00  0.00     0.215 C 
HETATM   21  C25 UNL     1       7.851  -7.588 -23.839  1.00  0.00     0.128 C 
HETATM   22  C1  UNL     1      10.551  -5.465 -22.136  1.00  0.00     0.117 C 
HETATM   23  O1  UNL     1       9.976  -7.752 -22.071  1.00  0.00    -0.274 OA
HETATM   24  C24 UNL     1       6.430  -7.331 -23.393  1.00  0.00     0.057 C 
BRANCH  16  25
HETATM   25  O2  UNL     1       6.269  -5.185 -22.473  1.00  0.00    -0.390 OA
ATOM     26  H2  UNL     1       6.027  -5.779 -21.772  1.00  0.00     0.210 HD
ENDBRANCH  16  25
ENDBRANCH  15  16
ENDBRANCH  11  15
ENDBRANCH   1   9
BRANCH   3  27
HETATM   27  N2  UNL     1      -0.625  -1.057 -20.546  1.00  0.00    -0.327 N 
HETATM   28  C13 UNL     1      -1.736  -1.898 -20.720  1.00  0.00     0.222 C 
HETATM   29  O3  UNL     1      -1.752  -3.147 -20.649  1.00  0.00    -0.273 OA
ATOM     30  H2  UNL     1      -0.785  -0.054 -20.638  1.00  0.00     0.169 HD
BRANCH  28  31
HETATM   31  C14 UNL     1      -3.084  -1.287 -21.026  1.00  0.00     0.105 C 
BRANCH  31  32
HETATM   32  C15 UNL     1      -4.180  -2.299 -21.106  1.00  0.00     0.039 C 
BRANCH  32  33
HETATM   33  C16 UNL     1      -5.250  -2.123 -20.088  1.00  0.00     0.273 C 
BRANCH  33  34
HETATM   34  N3  UNL     1      -4.759  -2.260 -18.727  1.00  0.00     0.088 N 
HETATM   35  C17 UNL     1      -4.385  -3.626 -18.516  1.00  0.00     0.272 C 
HETATM   36  C18 UNL     1      -4.688  -3.951 -17.070  1.00  0.00     0.032 C 
HETATM   37  C19 UNL     1      -5.405  -2.765 -16.501  1.00  0.00     0.032 C 
HETATM   38  C20 UNL     1      -5.754  -1.969 -17.744  1.00  0.00     0.272 C 
ENDBRANCH  33  34
ENDBRANCH  32  33
ENDBRANCH  31  32
ENDBRANCH  28  31
ENDBRANCH   3  27
TORSDOF 9
ENDMDL
MODEL 5
REMARK VINA RESULT: -9.982505747      1.696      2.604
REMARK  9 active torsions:
REMARK  status: ('A' for Active; 'I' for Inactive)
REMARK       I    between atoms: C2_2  and  N1_4 
REMARK    1  A    between atoms: C5_7  and  O2_8 
REMARK    2  A    between atoms: C5_7  and  C6_10 
REMARK    3  A    between atoms: C6_10  and  C7_11 
REMARK    4  A    between atoms: C9_13  and  C10_14 
REMARK    5  A    between atoms: C12_16  and  N2_17 
REMARK       I    between atoms: N2_17  and  C13_19 
REMARK    6  A    between atoms: C13_19  and  C14_21 
REMARK    7  A    between atoms: C14_21  and  C15_22 
REMARK    8  A    between atoms: C15_22  and  C16_23 
REMARK    9  A    between atoms: C16_23  and  N3_24 
ROOT
HETATM    1  C10 UNL     1       1.750  -2.340 -20.672  1.00  0.00     0.015 A 
HETATM    2  C11 UNL     1       0.488  -1.985 -20.240  1.00  0.00     0.044 A 
HETATM    3  C12 UNL     1      -0.659  -2.174 -21.026  1.00  0.00     0.038 A 
HETATM    4  C21 UNL     1      -0.420  -2.740 -22.254  1.00  0.00     0.073 A 
HETATM    5  C22 UNL     1       0.841  -3.098 -22.692  1.00  0.00     0.141 A 
HETATM    6  F1  UNL     1       1.043  -3.657 -23.918  1.00  0.00    -0.204 F 
HETATM    7  C23 UNL     1       1.965  -2.901 -21.899  1.00  0.00     0.085 A 
HETATM    8 CL1  UNL     1       3.547  -3.372 -22.500  1.00  0.00    -0.080 Cl
ENDROOT
BRANCH   1   9
HETATM    9  C9  UNL     1       2.893  -2.097 -19.759  1.00  0.00     0.046 A 
HETATM   10  C8  UNL     1       4.327  -2.063 -20.030  1.00  0.00     0.094 A 
HETATM   11  C7  UNL     1       5.001  -1.787 -18.697  1.00  0.00     0.160 A 
HETATM   12  O4  UNL     1       3.921  -1.670 -17.837  1.00  0.00    -0.274 OA
HETATM   13  N4  UNL     1       2.747  -1.862 -18.474  1.00  0.00    -0.270 N 
ATOM     14  H4  UNL     1       1.841  -1.828 -18.008  1.00  0.00     0.194 HD
BRANCH  11  15
HETATM   15  C6  UNL     1       5.826  -2.980 -18.297  1.00  0.00     0.072 C 
BRANCH  15  16
HETATM   16  C5  UNL     1       7.189  -2.994 -18.923  1.00  0.00     0.063 C 
HETATM   17  C4  UNL     1       7.622  -1.640 -19.439  1.00  0.00     0.057 C 
HETATM   18  C3  UNL     1       9.131  -1.706 -19.618  1.00  0.00     0.128 C 
HETATM   19  N1  UNL     1       9.413  -2.897 -20.410  1.00  0.00    -0.352 N 
HETATM   20  C2  UNL     1      10.709  -3.411 -20.570  1.00  0.00     0.215 C 
HETATM   21  C25 UNL     1       8.285  -3.570 -21.055  1.00  0.00     0.128 C 
HETATM   22  C1  UNL     1      11.846  -2.725 -19.914  1.00  0.00     0.117 C 
HETATM   23  O1  UNL     1      10.910  -4.429 -21.251  1.00  0.00    -0.274 OA
HETATM   24  C24 UNL     1       7.342  -4.050 -19.976  1.00  0.00     0.057 C 
BRANCH  16  25
HETATM   25  O2  UNL     1       8.095  -3.311 -17.887  1.00  0.00    -0.390 OA
ATOM     26  H2  UNL     1       7.815  -2.798 -17.138  1.00  0.00     0.210 HD
ENDBRANCH  16  25
ENDBRANCH  15  16
ENDBRANCH  11  15
ENDBRANCH   1   9
BRANCH   3  27
HETATM   27  N2  UNL     1      -1.902  -1.793 -20.509  1.00  0.00    -0.327 N 
HETATM   28  C13 UNL     1      -2.943  -2.659 -20.134  1.00  0.00     0.222 C 
HETATM   29  O3  UNL     1      -2.941  -3.908 -20.197  1.00  0.00    -0.273 OA
ATOM     30  H2  UNL     1      -2.068  -0.793 -20.393  1.00  0.00     0.169 HD
BRANCH  28  31
HETATM   31  C14 UNL     1      -4.227  -2.078 -19.588  1.00  0.00     0.105 C 
BRANCH  31  32
HETATM   32  C15 UNL     1      -5.428  -2.458 -20.390  1.00  0.00     0.039 C 
BRANCH  32  33
HETATM   33  C16 UNL     1      -5.370  -2.035 -21.815  1.00  0.00     0.273 C 
BRANCH  33  34
HETATM   34  N3  UNL     1      -6.506  -2.507 -22.589  1.00  0.00     0.088 N 
HETATM   35  C17 UNL     1      -6.468  -1.880 -23.876  1.00  0.00     0.272 C 
HETATM   36  C18 UNL     1      -7.903  -1.667 -24.308  1.00  0.00     0.032 C 
HETATM   37  C19 UNL     1      -8.766  -2.047 -23.145  1.00  0.00     0.032 C 
HETATM   38  C20 UNL     1      -7.762  -2.143 -22.012  1.00  0.00     0.272 C 
ENDBRANCH  33  34
ENDBRANCH  32  33
ENDBRANCH  31  32
ENDBRANCH  28  31
ENDBRANCH   3  27
TORSDOF 9
ENDMDL
