MODEL 1
REMARK VINA RESULT: -6.957940072      0.000      0.000
REMARK  8 active torsions:
REMARK  status: ('A' for Active; 'I' for Inactive)
REMARK    1  A    between atoms: C2_2  and  C3_3 
REMARK    2  A    between atoms: C3_3  and  O1_4 
REMARK    3  A    between atoms: O1_4  and  C4_5 
REMARK    4  A    between atoms: C4_5  and  C5_6 
REMARK    5  A    between atoms: C5_6  and  O2_7 
REMARK    6  A    between atoms: O2_7  and  C6_8 
REMARK    7  A    between atoms: N2_17  and  C10_18 
REMARK    8  A    between atoms: C14_25  and  C15_26 
ROOT
HETATM    1  C6  UNL     1       5.531  -3.384 -22.388  1.00  0.00     0.174 A 
HETATM    2  C7  UNL     1       4.276  -3.281 -22.926  1.00  0.00     0.130 A 
HETATM    3 BR1  UNL     1       2.743  -2.856 -21.879  1.00  0.00    -0.041 Br
HETATM    4  C8  UNL     1       4.046  -3.538 -24.253  1.00  0.00     0.269 A 
HETATM    5  O3  UNL     1       2.884  -3.442 -24.754  1.00  0.00    -0.266 OA
HETATM    6  N1  UNL     1       5.084  -3.893 -24.996  1.00  0.00    -0.298 N 
ATOM      7  H1  UNL     1       4.954  -4.092 -25.987  1.00  0.00     0.171 HD
HETATM    8  C9  UNL     1       6.321  -3.991 -24.445  1.00  0.00     0.187 A 
HETATM    9  S1  UNL     1       7.485  -4.428 -25.469  1.00  0.00    -0.040 SA
HETATM   10  N2  UNL     1       6.608  -3.756 -23.165  1.00  0.00    -0.272 N 
ENDROOT
BRANCH  10  11
HETATM   11  C10 UNL     1       7.896  -3.914 -22.573  1.00  0.00     0.026 C 
HETATM   12  C11 UNL     1       9.103  -3.564 -23.342  1.00  0.00     0.176 C 
HETATM   13  N3  UNL     1      10.170  -3.285 -22.335  1.00  0.00    -0.356 N 
HETATM   14  C12 UNL     1      10.263  -4.219 -21.296  1.00  0.00     0.218 C 
ATOM     15  H3  UNL     1      10.785  -2.474 -22.400  1.00  0.00     0.162 HD
HETATM   16  O4  UNL     1      11.364  -4.287 -20.650  1.00  0.00    -0.274 OA
HETATM   17  C13 UNL     1       9.202  -5.143 -20.867  1.00  0.00     0.118 C 
HETATM   18  C14 UNL     1       8.057  -5.251 -21.822  1.00  0.00     0.075 C 
BRANCH  18  19
HETATM   19  C15 UNL     1       8.086  -6.426 -22.667  1.00  0.00    -0.048 A 
HETATM   20  C16 UNL     1       9.275  -6.892 -23.179  1.00  0.00     0.009 A 
HETATM   21  C17 UNL     1       9.341  -7.998 -24.005  1.00  0.00     0.024 A 
HETATM   22  C18 UNL     1       8.194  -8.658 -24.332  1.00  0.00     0.034 A 
HETATM   23 CL1  UNL     1       8.271 -10.077 -25.392  1.00  0.00    -0.084 Cl
HETATM   24  C19 UNL     1       6.985  -8.227 -23.843  1.00  0.00     0.024 A 
HETATM   25  C20 UNL     1       6.951  -7.112 -23.014  1.00  0.00     0.009 A 
ENDBRANCH  18  19
ENDBRANCH  10  11
BRANCH   1  26
HETATM   26  O2  UNL     1       5.684  -3.104 -21.060  1.00  0.00    -0.332 OA
BRANCH  26  27
HETATM   27  C5  UNL     1       6.031  -1.989 -20.344  1.00  0.00     0.203 C 
BRANCH  27  28
HETATM   28  C4  UNL     1       6.531  -2.165 -18.941  1.00  0.00     0.194 C 
BRANCH  28  29
HETATM   29  O1  UNL     1       5.841  -1.393 -18.009  1.00  0.00    -0.385 OA
BRANCH  29  30
HETATM   30  C3  UNL     1       4.596  -0.969 -18.424  1.00  0.00     0.194 C 
BRANCH  30  31
HETATM   31  C2  UNL     1       3.511  -1.682 -17.667  1.00  0.00    -0.011 C 
HETATM   32  C1  UNL     1       3.047  -2.859 -18.054  1.00  0.00     0.009 C 
ENDBRANCH  30  31
ENDBRANCH  29  30
ENDBRANCH  28  29
ENDBRANCH  27  28
ENDBRANCH  26  27
ENDBRANCH   1  26
TORSDOF 8
ENDMDL
MODEL 2
REMARK VINA RESULT: -6.908362290      0.585      1.087
REMARK  8 active torsions:
REMARK  status: ('A' for Active; 'I' for Inactive)
REMARK    1  A    between atoms: C2_2  and  C3_3 
REMARK    2  A    between atoms: C3_3  and  O1_4 
REMARK    3  A    between atoms: O1_4  and  C4_5 
REMARK    4  A    between atoms: C4_5  and  C5_6 
REMARK    5  A    between atoms: C5_6  and  O2_7 
REMARK    6  A    between atoms: O2_7  and  C6_8 
REMARK    7  A    between atoms: N2_17  and  C10_18 
REMARK    8  A    between atoms: C14_25  and  C15_26 
ROOT
HETATM    1  C6  UNL     1       5.483  -3.541 -22.654  1.00  0.00     0.174 A 
HETATM    2  C7  UNL     1       4.251  -3.440 -23.244  1.00  0.00     0.130 A 
HETATM    3 BR1  UNL     1       2.659  -3.130 -22.247  1.00  0.00    -0.041 Br
HETATM    4  C8  UNL     1       4.092  -3.614 -24.594  1.00  0.00     0.269 A 
HETATM    5  O3  UNL     1       2.952  -3.519 -25.144  1.00  0.00    -0.266 OA
HETATM    6  N1  UNL     1       5.174  -3.888 -25.308  1.00  0.00    -0.298 N 
ATOM      7  H1  UNL     1       5.096  -4.025 -26.315  1.00  0.00     0.171 HD
HETATM    8  C9  UNL     1       6.387  -3.987 -24.705  1.00  0.00     0.187 A 
HETATM    9  S1  UNL     1       7.611  -4.321 -25.699  1.00  0.00    -0.040 SA
HETATM   10  N2  UNL     1       6.606  -3.829 -23.401  1.00  0.00    -0.272 N 
ENDROOT
BRANCH  10  11
HETATM   11  C10 UNL     1       7.870  -3.988 -22.759  1.00  0.00     0.026 C 
HETATM   12  C11 UNL     1       9.106  -3.620 -23.472  1.00  0.00     0.176 C 
HETATM   13  N3  UNL     1      10.128  -3.351 -22.419  1.00  0.00    -0.356 N 
HETATM   14  C12 UNL     1      10.184  -4.299 -21.391  1.00  0.00     0.218 C 
ATOM     15  H3  UNL     1      10.741  -2.535 -22.446  1.00  0.00     0.162 HD
HETATM   16  O4  UNL     1      11.259  -4.370 -20.700  1.00  0.00    -0.274 OA
HETATM   17  C13 UNL     1       9.114  -5.236 -21.020  1.00  0.00     0.118 C 
HETATM   18  C14 UNL     1       8.009  -5.336 -22.022  1.00  0.00     0.075 C 
BRANCH  18  19
HETATM   19  C15 UNL     1       8.081  -6.498 -22.883  1.00  0.00    -0.048 A 
HETATM   20  C16 UNL     1       6.940  -7.187 -23.227  1.00  0.00     0.009 A 
HETATM   21  C17 UNL     1       6.970  -8.312 -24.029  1.00  0.00     0.024 A 
HETATM   22  C18 UNL     1       8.166  -8.764 -24.501  1.00  0.00     0.034 A 
HETATM   23 CL1  UNL     1       8.212 -10.208 -25.531  1.00  0.00    -0.084 Cl
HETATM   24  C19 UNL     1       9.329  -8.108 -24.182  1.00  0.00     0.024 A 
HETATM   25  C20 UNL     1       9.267  -6.978 -23.374  1.00  0.00     0.009 A 
ENDBRANCH  18  19
ENDBRANCH  10  11
BRANCH   1  26
HETATM   26  O2  UNL     1       5.566  -3.346 -21.305  1.00  0.00    -0.332 OA
BRANCH  26  27
HETATM   27  C5  UNL     1       6.018  -2.331 -20.504  1.00  0.00     0.203 C 
BRANCH  27  28
HETATM   28  C4  UNL     1       5.429  -0.962 -20.680  1.00  0.00     0.194 C 
BRANCH  28  29
HETATM   29  O1  UNL     1       4.418  -0.676 -19.765  1.00  0.00    -0.385 OA
BRANCH  29  30
HETATM   30  C3  UNL     1       4.709  -1.019 -18.461  1.00  0.00     0.194 C 
BRANCH  30  31
HETATM   31  C2  UNL     1       3.529  -1.682 -17.809  1.00  0.00    -0.011 C 
HETATM   32  C1  UNL     1       3.152  -2.909 -18.129  1.00  0.00     0.009 C 
ENDBRANCH  30  31
ENDBRANCH  29  30
ENDBRANCH  28  29
ENDBRANCH  27  28
ENDBRANCH  26  27
ENDBRANCH   1  26
TORSDOF 8
ENDMDL
MODEL 3
REMARK VINA RESULT: -6.420762038      1.321      1.813
REMARK  8 active torsions:
REMARK  status: ('A' for Active; 'I' for Inactive)
REMARK    1  A    between atoms: C2_2  and  C3_3 
REMARK    2  A    between atoms: C3_3  and  O1_4 
REMARK    3  A    between atoms: O1_4  and  C4_5 
REMARK    4  A    between atoms: C4_5  and  C5_6 
REMARK    5  A    between atoms: C5_6  and  O2_7 
REMARK    6  A    between atoms: O2_7  and  C6_8 
REMARK    7  A    between atoms: N2_17  and  C10_18 
REMARK    8  A    between atoms: C14_25  and  C15_26 
ROOT
HETATM    1  C6  UNL     1       5.043  -3.811 -23.173  1.00  0.00     0.174 A 
HETATM    2  C7  UNL     1       3.883  -3.747 -23.898  1.00  0.00     0.130 A 
HETATM    3 BR1  UNL     1       2.170  -3.596 -23.079  1.00  0.00    -0.041 Br
HETATM    4  C8  UNL     1       3.891  -3.846 -25.265  1.00  0.00     0.269 A 
HETATM    5  O3  UNL     1       2.817  -3.785 -25.938  1.00  0.00    -0.266 OA
HETATM    6  N1  UNL     1       5.063  -4.009 -25.860  1.00  0.00    -0.298 N 
ATOM      7  H1  UNL     1       5.110  -4.088 -26.875  1.00  0.00     0.171 HD
HETATM    8  C9  UNL     1       6.203  -4.073 -25.125  1.00  0.00     0.187 A 
HETATM    9  S1  UNL     1       7.552  -4.270 -25.984  1.00  0.00    -0.040 SA
HETATM   10  N2  UNL     1       6.261  -3.984 -23.796  1.00  0.00    -0.272 N 
ENDROOT
BRANCH  10  11
HETATM   11  C10 UNL     1       7.451  -4.107 -23.020  1.00  0.00     0.026 C 
HETATM   12  C11 UNL     1       8.746  -3.701 -23.594  1.00  0.00     0.176 C 
HETATM   13  N3  UNL     1       9.639  -3.403 -22.436  1.00  0.00    -0.356 N 
HETATM   14  C12 UNL     1       9.610  -4.351 -21.406  1.00  0.00     0.218 C 
ATOM     15  H3  UNL     1      10.226  -2.569 -22.397  1.00  0.00     0.162 HD
HETATM   16  O4  UNL     1      10.604  -4.392 -20.602  1.00  0.00    -0.274 OA
HETATM   17  C13 UNL     1       8.533  -5.320 -21.153  1.00  0.00     0.118 C 
HETATM   18  C14 UNL     1       7.548  -5.451 -22.270  1.00  0.00     0.075 C 
BRANCH  18  19
HETATM   19  C15 UNL     1       7.748  -6.609 -23.116  1.00  0.00    -0.048 A 
HETATM   20  C16 UNL     1       6.673  -7.334 -23.577  1.00  0.00     0.009 A 
HETATM   21  C17 UNL     1       6.824  -8.456 -24.370  1.00  0.00     0.024 A 
HETATM   22  C18 UNL     1       8.077  -8.869 -24.711  1.00  0.00     0.034 A 
HETATM   23 CL1  UNL     1       8.279 -10.309 -25.727  1.00  0.00    -0.084 Cl
HETATM   24  C19 UNL     1       9.178  -8.175 -24.273  1.00  0.00     0.024 A 
HETATM   25  C20 UNL     1       8.995  -7.050 -23.478  1.00  0.00     0.009 A 
ENDBRANCH  18  19
ENDBRANCH  10  11
BRANCH   1  26
HETATM   26  O2  UNL     1       4.958  -3.696 -21.815  1.00  0.00    -0.332 OA
BRANCH  26  27
HETATM   27  C5  UNL     1       4.597  -2.694 -20.954  1.00  0.00     0.203 C 
BRANCH  27  28
HETATM   28  C4  UNL     1       5.361  -1.403 -20.994  1.00  0.00     0.194 C 
BRANCH  28  29
HETATM   29  O1  UNL     1       6.173  -1.209 -19.878  1.00  0.00    -0.385 OA
BRANCH  29  30
HETATM   30  C3  UNL     1       7.446  -1.728 -19.997  1.00  0.00     0.194 C 
BRANCH  30  31
HETATM   31  C2  UNL     1       7.804  -2.542 -18.786  1.00  0.00    -0.011 C 
HETATM   32  C1  UNL     1       7.037  -3.531 -18.357  1.00  0.00     0.009 C 
ENDBRANCH  30  31
ENDBRANCH  29  30
ENDBRANCH  28  29
ENDBRANCH  27  28
ENDBRANCH  26  27
ENDBRANCH   1  26
TORSDOF 8
ENDMDL
MODEL 4
REMARK VINA RESULT: -6.373847478      2.645      4.553
REMARK  8 active torsions:
REMARK  status: ('A' for Active; 'I' for Inactive)
REMARK    1  A    between atoms: C2_2  and  C3_3 
REMARK    2  A    between atoms: C3_3  and  O1_4 
REMARK    3  A    between atoms: O1_4  and  C4_5 
REMARK    4  A    between atoms: C4_5  and  C5_6 
REMARK    5  A    between atoms: C5_6  and  O2_7 
REMARK    6  A    between atoms: O2_7  and  C6_8 
REMARK    7  A    between atoms: N2_17  and  C10_18 
REMARK    8  A    between atoms: C14_25  and  C15_26 
ROOT
HETATM    1  C6  UNL     1       5.923  -3.284 -21.842  1.00  0.00     0.174 A 
HETATM    2  C7  UNL     1       6.306  -2.382 -20.885  1.00  0.00     0.130 A 
HETATM    3 BR1  UNL     1       5.392  -0.734 -20.607  1.00  0.00    -0.041 Br
HETATM    4  C8  UNL     1       7.413  -2.596 -20.107  1.00  0.00     0.269 A 
HETATM    5  O3  UNL     1       7.769  -1.762 -19.219  1.00  0.00    -0.266 OA
HETATM    6  N1  UNL     1       8.104  -3.707 -20.316  1.00  0.00    -0.298 N 
ATOM      7  H1  UNL     1       8.934  -3.901 -19.758  1.00  0.00     0.171 HD
HETATM    8  C9  UNL     1       7.711  -4.589 -21.271  1.00  0.00     0.187 A 
HETATM    9  S1  UNL     1       8.643  -5.896 -21.410  1.00  0.00    -0.040 SA
HETATM   10  N2  UNL     1       6.646  -4.439 -22.058  1.00  0.00    -0.272 N 
ENDROOT
BRANCH  10  11
HETATM   11  C10 UNL     1       6.265  -5.337 -23.098  1.00  0.00     0.026 C 
HETATM   12  C11 UNL     1       6.524  -6.780 -22.952  1.00  0.00     0.176 C 
HETATM   13  N3  UNL     1       5.553  -7.469 -23.852  1.00  0.00    -0.356 N 
HETATM   14  C12 UNL     1       5.438  -6.918 -25.134  1.00  0.00     0.218 C 
ATOM     15  H3  UNL     1       5.012  -8.282 -23.554  1.00  0.00     0.162 HD
HETATM   16  O4  UNL     1       4.964  -7.657 -26.063  1.00  0.00    -0.274 OA
HETATM   17  C13 UNL     1       5.814  -5.550 -25.523  1.00  0.00     0.118 C 
HETATM   18  C14 UNL     1       6.634  -4.824 -24.506  1.00  0.00     0.075 C 
BRANCH  18  19
HETATM   19  C15 UNL     1       8.053  -4.789 -24.790  1.00  0.00    -0.048 A 
HETATM   20  C16 UNL     1       8.770  -3.625 -24.634  1.00  0.00     0.009 A 
HETATM   21  C17 UNL     1      10.121  -3.547 -24.914  1.00  0.00     0.024 A 
HETATM   22  C18 UNL     1      10.776  -4.654 -25.363  1.00  0.00     0.034 A 
HETATM   23 CL1  UNL     1      12.510  -4.561 -25.726  1.00  0.00    -0.084 Cl
HETATM   24  C19 UNL     1      10.099  -5.837 -25.534  1.00  0.00     0.024 A 
HETATM   25  C20 UNL     1       8.740  -5.885 -25.243  1.00  0.00     0.009 A 
ENDBRANCH  18  19
ENDBRANCH  10  11
BRANCH   1  26
HETATM   26  O2  UNL     1       4.804  -3.008 -22.573  1.00  0.00    -0.332 OA
BRANCH  26  27
HETATM   27  C5  UNL     1       3.501  -3.429 -22.536  1.00  0.00     0.203 C 
BRANCH  27  28
HETATM   28  C4  UNL     1       2.497  -2.592 -21.800  1.00  0.00     0.194 C 
BRANCH  28  29
HETATM   29  O1  UNL     1       2.340  -2.964 -20.467  1.00  0.00    -0.385 OA
BRANCH  29  30
HETATM   30  C3  UNL     1       1.941  -1.944 -19.629  1.00  0.00     0.194 C 
BRANCH  30  31
HETATM   31  C2  UNL     1       2.593  -2.076 -18.281  1.00  0.00    -0.011 C 
HETATM   32  C1  UNL     1       3.555  -2.956 -18.054  1.00  0.00     0.009 C 
ENDBRANCH  30  31
ENDBRANCH  29  30
ENDBRANCH  28  29
ENDBRANCH  27  28
ENDBRANCH  26  27
ENDBRANCH   1  26
TORSDOF 8
ENDMDL
MODEL 5
REMARK VINA RESULT: -6.351847264      2.994      5.325
REMARK  8 active torsions:
REMARK  status: ('A' for Active; 'I' for Inactive)
REMARK    1  A    between atoms: C2_2  and  C3_3 
REMARK    2  A    between atoms: C3_3  and  O1_4 
REMARK    3  A    between atoms: O1_4  and  C4_5 
REMARK    4  A    between atoms: C4_5  and  C5_6 
REMARK    5  A    between atoms: C5_6  and  O2_7 
REMARK    6  A    between atoms: O2_7  and  C6_8 
REMARK    7  A    between atoms: N2_17  and  C10_18 
REMARK    8  A    between atoms: C14_25  and  C15_26 
ROOT
HETATM    1  C6  UNL     1       5.724  -3.514 -21.978  1.00  0.00     0.174 A 
HETATM    2  C7  UNL     1       6.816  -3.327 -21.174  1.00  0.00     0.130 A 
HETATM    3 BR1  UNL     1       7.056  -1.760 -20.118  1.00  0.00    -0.041 Br
HETATM    4  C8  UNL     1       7.834  -4.244 -21.131  1.00  0.00     0.269 A 
HETATM    5  O3  UNL     1       8.847  -4.073 -20.385  1.00  0.00    -0.266 OA
HETATM    6  N1  UNL     1       7.724  -5.318 -21.899  1.00  0.00    -0.298 N 
ATOM      7  H1  UNL     1       8.461  -6.022 -21.895  1.00  0.00     0.171 HD
HETATM    8  C9  UNL     1       6.634  -5.485 -22.692  1.00  0.00     0.187 A 
HETATM    9  S1  UNL     1       6.635  -6.838 -23.566  1.00  0.00    -0.040 SA
HETATM   10  N2  UNL     1       5.614  -4.632 -22.778  1.00  0.00    -0.272 N 
ENDROOT
BRANCH  10  11
HETATM   11  C10 UNL     1       4.497  -4.780 -23.652  1.00  0.00     0.026 C 
HETATM   12  C11 UNL     1       3.990  -6.125 -23.973  1.00  0.00     0.176 C 
HETATM   13  N3  UNL     1       2.567  -5.946 -24.387  1.00  0.00    -0.356 N 
HETATM   14  C12 UNL     1       2.339  -4.894 -25.282  1.00  0.00     0.218 C 
ATOM     15  H3  UNL     1       1.816  -6.545 -24.042  1.00  0.00     0.162 HD
HETATM   16  O4  UNL     1       1.269  -4.925 -25.982  1.00  0.00    -0.274 OA
HETATM   17  C13 UNL     1       3.222  -3.738 -25.500  1.00  0.00     0.118 C 
HETATM   18  C14 UNL     1       4.584  -3.883 -24.904  1.00  0.00     0.075 C 
BRANCH  18  19
HETATM   19  C15 UNL     1       5.619  -4.251 -25.847  1.00  0.00    -0.048 A 
HETATM   20  C16 UNL     1       6.908  -3.800 -25.686  1.00  0.00     0.009 A 
HETATM   21  C17 UNL     1       7.918  -4.114 -26.576  1.00  0.00     0.024 A 
HETATM   22  C18 UNL     1       7.637  -4.896 -27.656  1.00  0.00     0.034 A 
HETATM   23 CL1  UNL     1       8.928  -5.302 -28.804  1.00  0.00    -0.084 Cl
HETATM   24  C19 UNL     1       6.364  -5.368 -27.857  1.00  0.00     0.024 A 
HETATM   25  C20 UNL     1       5.369  -5.036 -26.944  1.00  0.00     0.009 A 
ENDBRANCH  18  19
ENDBRANCH  10  11
BRANCH   1  26
HETATM   26  O2  UNL     1       4.745  -2.562 -21.962  1.00  0.00    -0.332 OA
BRANCH  26  27
HETATM   27  C5  UNL     1       3.482  -2.487 -21.439  1.00  0.00     0.203 C 
BRANCH  27  28
HETATM   28  C4  UNL     1       3.228  -1.531 -20.311  1.00  0.00     0.194 C 
BRANCH  28  29
HETATM   29  O1  UNL     1       1.876  -1.261 -20.110  1.00  0.00    -0.385 OA
BRANCH  29  30
HETATM   30  C3  UNL     1       1.043  -1.728 -21.106  1.00  0.00     0.194 C 
BRANCH  30  31
HETATM   31  C2  UNL     1       0.022  -0.690 -21.477  1.00  0.00    -0.011 C 
HETATM   32  C1  UNL     1       0.133   0.569 -21.085  1.00  0.00     0.009 C 
ENDBRANCH  30  31
ENDBRANCH  29  30
ENDBRANCH  28  29
ENDBRANCH  27  28
ENDBRANCH  26  27
ENDBRANCH   1  26
TORSDOF 8
ENDMDL
