MODEL 1
REMARK VINA RESULT: -9.661711727      0.000      0.000
REMARK  8 active torsions:
REMARK  status: ('A' for Active; 'I' for Inactive)
REMARK    1  A    between atoms: O1_2  and  C2_3 
REMARK    2  A    between atoms: C4_5  and  C5_6 
REMARK    3  A    between atoms: C8_9  and  N1_10 
REMARK       I    between atoms: N1_10  and  C9_12 
REMARK    4  A    between atoms: C11_15  and  C12_16 
REMARK    5  A    between atoms: C12_16  and  C13_17 
REMARK       I    between atoms: C13_17  and  N2_19 
REMARK    6  A    between atoms: N2_19  and  C14_21 
REMARK    7  A    between atoms: C14_21  and  C15_22 
REMARK    8  A    between atoms: C24_36  and  O4_37 
ROOT
HETATM    1  C5  UNL     1       5.804  -1.913 -18.549  1.00  0.00     0.043 C 
HETATM    2  C6  UNL     1       4.627  -2.054 -19.072  1.00  0.00    -0.017 C 
HETATM    3  C7  UNL     1       4.271  -2.798 -20.289  1.00  0.00     0.072 C 
HETATM    4  C8  UNL     1       3.027  -2.154 -20.863  1.00  0.00     0.103 C 
HETATM    5  C11 UNL     1       2.015  -2.099 -19.756  1.00  0.00     0.084 C 
HETATM    6  S1  UNL     1       3.098  -1.382 -18.448  1.00  0.00    -0.127 SA
ENDROOT
BRANCH   5   7
HETATM    7  C12 UNL     1       0.809  -1.309 -19.990  1.00  0.00     0.120 C 
BRANCH   7   8
HETATM    8  C13 UNL     1      -0.238  -1.856 -20.842  1.00  0.00     0.218 C 
HETATM    9  O3  UNL     1      -0.133  -1.864 -22.083  1.00  0.00    -0.274 OA
HETATM   10  N2  UNL     1      -1.397  -2.386 -20.244  1.00  0.00    -0.360 N 
ATOM     11  H2  UNL     1      -1.466  -2.373 -19.227  1.00  0.00     0.162 HD
BRANCH  10  12
HETATM   12  C14 UNL     1      -2.482  -2.945 -20.993  1.00  0.00     0.135 C 
BRANCH  12  13
HETATM   13  C15 UNL     1      -3.789  -2.237 -20.683  1.00  0.00     0.015 A 
HETATM   14  C16 UNL     1      -3.997  -1.757 -19.254  1.00  0.00     0.023 C 
HETATM   15  C17 UNL     1      -4.944  -2.767 -18.692  1.00  0.00    -0.044 C 
HETATM   16  C18 UNL     1      -5.640  -2.274 -17.441  1.00  0.00     0.015 C 
HETATM   17  C19 UNL     1      -4.294  -4.081 -18.390  1.00  0.00     0.015 C 
HETATM   18  C20 UNL     1      -5.936  -2.950 -19.803  1.00  0.00     0.053 C 
HETATM   19  C21 UNL     1      -5.057  -2.991 -21.014  1.00  0.00     0.114 A 
HETATM   20  F1  UNL     1      -4.938  -4.186 -21.697  1.00  0.00    -0.242 F 
HETATM   21  C22 UNL     1      -4.669  -1.757 -21.744  1.00  0.00     0.059 A 
ENDBRANCH  12  13
ENDBRANCH  10  12
ENDBRANCH   7   8
ENDBRANCH   5   7
BRANCH   4  22
HETATM   22  N1  UNL     1       2.600  -2.985 -21.973  1.00  0.00    -0.355 N 
HETATM   23  C9  UNL     1       3.374  -3.140 -23.146  1.00  0.00     0.213 C 
HETATM   24  C10 UNL     1       2.867  -4.007 -24.235  1.00  0.00     0.117 C 
HETATM   25  O2  UNL     1       4.475  -2.556 -23.271  1.00  0.00    -0.274 OA
ATOM     26  H1  UNL     1       1.709  -3.475 -21.905  1.00  0.00     0.162 HD
ENDBRANCH   4  22
BRANCH   1  27
HETATM   27  C4  UNL     1       7.030  -2.483 -19.092  1.00  0.00     0.038 A 
HETATM   28  C3  UNL     1       7.156  -3.810 -19.422  1.00  0.00     0.069 A 
HETATM   29  C2  UNL     1       8.310  -4.353 -19.938  1.00  0.00     0.108 A 
HETATM   30  C24 UNL     1       9.421  -3.539 -20.146  1.00  0.00     0.158 A 
HETATM   31  C23 UNL     1       9.278  -2.210 -19.810  1.00  0.00     0.225 A 
HETATM   32  N3  UNL     1       8.140  -1.722 -19.311  1.00  0.00    -0.331 N 
HETATM   33  F2  UNL     1      10.339  -1.385 -19.998  1.00  0.00    -0.183 F 
ATOM     34  H3  UNL     1       8.098  -0.729 -19.082  1.00  0.00     0.168 HD
BRANCH  29  35
HETATM   35  O1  UNL     1       8.354  -5.702 -20.244  1.00  0.00    -0.353 OA
HETATM   36  C1  UNL     1       7.872  -6.156 -21.480  1.00  0.00     0.210 C 
ENDBRANCH  29  35
BRANCH  30  37
HETATM   37  O4  UNL     1      10.572  -4.080 -20.661  1.00  0.00    -0.349 OA
HETATM   38  C25 UNL     1      10.873  -3.946 -22.039  1.00  0.00     0.210 C 
ENDBRANCH  30  37
ENDBRANCH   1  27
TORSDOF 8
ENDMDL
MODEL 2
REMARK VINA RESULT: -9.595604793      1.125      1.731
REMARK  8 active torsions:
REMARK  status: ('A' for Active; 'I' for Inactive)
REMARK    1  A    between atoms: O1_2  and  C2_3 
REMARK    2  A    between atoms: C4_5  and  C5_6 
REMARK    3  A    between atoms: C8_9  and  N1_10 
REMARK       I    between atoms: N1_10  and  C9_12 
REMARK    4  A    between atoms: C11_15  and  C12_16 
REMARK    5  A    between atoms: C12_16  and  C13_17 
REMARK       I    between atoms: C13_17  and  N2_19 
REMARK    6  A    between atoms: N2_19  and  C14_21 
REMARK    7  A    between atoms: C14_21  and  C15_22 
REMARK    8  A    between atoms: C24_36  and  O4_37 
ROOT
HETATM    1  C5  UNL     1       5.744  -1.893 -18.492  1.00  0.00     0.043 C 
HETATM    2  C6  UNL     1       4.559  -2.027 -18.997  1.00  0.00    -0.017 C 
HETATM    3  C7  UNL     1       4.176  -2.789 -20.195  1.00  0.00     0.072 C 
HETATM    4  C8  UNL     1       2.934  -2.137 -20.765  1.00  0.00     0.103 C 
HETATM    5  C11 UNL     1       1.938  -2.046 -19.646  1.00  0.00     0.084 C 
HETATM    6  S1  UNL     1       3.049  -1.320 -18.367  1.00  0.00    -0.127 SA
ENDROOT
BRANCH   5   7
HETATM    7  C12 UNL     1       0.741  -1.243 -19.880  1.00  0.00     0.120 C 
BRANCH   7   8
HETATM    8  C13 UNL     1      -0.293  -1.759 -20.767  1.00  0.00     0.218 C 
HETATM    9  O3  UNL     1      -0.223  -1.624 -22.002  1.00  0.00    -0.274 OA
HETATM   10  N2  UNL     1      -1.400  -2.427 -20.208  1.00  0.00    -0.360 N 
ATOM     11  H2  UNL     1      -1.442  -2.530 -19.194  1.00  0.00     0.162 HD
BRANCH  10  12
HETATM   12  C14 UNL     1      -2.468  -2.969 -20.992  1.00  0.00     0.135 C 
BRANCH  12  13
HETATM   13  C15 UNL     1      -3.788  -2.288 -20.674  1.00  0.00     0.015 A 
HETATM   14  C16 UNL     1      -4.002  -1.826 -19.240  1.00  0.00     0.023 C 
HETATM   15  C17 UNL     1      -4.931  -2.858 -18.687  1.00  0.00    -0.044 C 
HETATM   16  C18 UNL     1      -5.634  -2.390 -17.430  1.00  0.00     0.015 C 
HETATM   17  C19 UNL     1      -4.256  -4.163 -18.398  1.00  0.00     0.015 C 
HETATM   18  C20 UNL     1      -5.920  -3.049 -19.798  1.00  0.00     0.053 C 
HETATM   19  C21 UNL     1      -5.042  -3.062 -21.011  1.00  0.00     0.114 A 
HETATM   20  F1  UNL     1      -4.902  -4.248 -21.705  1.00  0.00    -0.242 F 
HETATM   21  C22 UNL     1      -4.677  -1.814 -21.729  1.00  0.00     0.059 A 
ENDBRANCH  12  13
ENDBRANCH  10  12
ENDBRANCH   7   8
ENDBRANCH   5   7
BRANCH   4  22
HETATM   22  N1  UNL     1       2.481  -2.983 -21.854  1.00  0.00    -0.355 N 
HETATM   23  C9  UNL     1       3.235  -3.170 -23.034  1.00  0.00     0.213 C 
HETATM   24  C10 UNL     1       2.702  -4.050 -24.100  1.00  0.00     0.117 C 
HETATM   25  O2  UNL     1       4.343  -2.603 -23.185  1.00  0.00    -0.274 OA
ATOM     26  H1  UNL     1       1.584  -3.460 -21.764  1.00  0.00     0.162 HD
ENDBRANCH   4  22
BRANCH   1  27
HETATM   27  C4  UNL     1       6.955  -2.492 -19.039  1.00  0.00     0.038 A 
HETATM   28  C3  UNL     1       8.104  -1.779 -19.270  1.00  0.00     0.069 A 
HETATM   29  C2  UNL     1       9.251  -2.339 -19.783  1.00  0.00     0.108 A 
HETATM   30  C24 UNL     1       9.274  -3.697 -20.092  1.00  0.00     0.158 A 
HETATM   31  C23 UNL     1       8.112  -4.399 -19.855  1.00  0.00     0.225 A 
HETATM   32  N3  UNL     1       7.020  -3.817 -19.356  1.00  0.00    -0.331 N 
HETATM   33  F2  UNL     1       8.096  -5.725 -20.144  1.00  0.00    -0.183 F 
ATOM     34  H3  UNL     1       6.191  -4.392 -19.204  1.00  0.00     0.168 HD
BRANCH  29  35
HETATM   35  O1  UNL     1      10.369  -1.548 -19.985  1.00  0.00    -0.353 OA
HETATM   36  C1  UNL     1      10.406  -0.649 -21.059  1.00  0.00     0.210 C 
ENDBRANCH  29  35
BRANCH  30  37
HETATM   37  O4  UNL     1      10.418  -4.258 -20.603  1.00  0.00    -0.349 OA
HETATM   38  C25 UNL     1      10.558  -4.453 -22.000  1.00  0.00     0.210 C 
ENDBRANCH  30  37
ENDBRANCH   1  27
TORSDOF 8
ENDMDL
MODEL 3
REMARK VINA RESULT: -9.274095568      1.341      1.446
REMARK  8 active torsions:
REMARK  status: ('A' for Active; 'I' for Inactive)
REMARK    1  A    between atoms: O1_2  and  C2_3 
REMARK    2  A    between atoms: C4_5  and  C5_6 
REMARK    3  A    between atoms: C8_9  and  N1_10 
REMARK       I    between atoms: N1_10  and  C9_12 
REMARK    4  A    between atoms: C11_15  and  C12_16 
REMARK    5  A    between atoms: C12_16  and  C13_17 
REMARK       I    between atoms: C13_17  and  N2_19 
REMARK    6  A    between atoms: N2_19  and  C14_21 
REMARK    7  A    between atoms: C14_21  and  C15_22 
REMARK    8  A    between atoms: C24_36  and  O4_37 
ROOT
HETATM    1  C5  UNL     1       6.034  -2.252 -19.660  1.00  0.00     0.043 C 
HETATM    2  C6  UNL     1       4.986  -2.566 -20.353  1.00  0.00    -0.017 C 
HETATM    3  C7  UNL     1       4.945  -3.178 -21.689  1.00  0.00     0.072 C 
HETATM    4  C8  UNL     1       3.653  -2.741 -22.345  1.00  0.00     0.103 C 
HETATM    5  C11 UNL     1       2.545  -3.074 -21.389  1.00  0.00     0.084 C 
HETATM    6  S1  UNL     1       3.285  -2.344 -19.868  1.00  0.00    -0.127 SA
ENDROOT
BRANCH   5   7
HETATM    7  C12 UNL     1       1.219  -2.540 -21.689  1.00  0.00     0.120 C 
BRANCH   7   8
HETATM    8  C13 UNL     1       0.047  -3.218 -21.151  1.00  0.00     0.218 C 
HETATM    9  O3  UNL     1       0.151  -4.178 -20.365  1.00  0.00    -0.274 OA
HETATM   10  N2  UNL     1      -1.233  -2.773 -21.533  1.00  0.00    -0.360 N 
ATOM     11  H2  UNL     1      -1.300  -1.985 -22.176  1.00  0.00     0.162 HD
BRANCH  10  12
HETATM   12  C14 UNL     1      -2.445  -3.373 -21.062  1.00  0.00     0.135 C 
BRANCH  12  13
HETATM   13  C15 UNL     1      -3.424  -2.323 -20.565  1.00  0.00     0.015 A 
HETATM   14  C16 UNL     1      -3.578  -2.177 -19.059  1.00  0.00     0.023 C 
HETATM   15  C17 UNL     1      -4.881  -2.856 -18.784  1.00  0.00    -0.044 C 
HETATM   16  C18 UNL     1      -5.465  -2.467 -17.443  1.00  0.00     0.015 C 
HETATM   17  C19 UNL     1      -4.793  -4.349 -18.852  1.00  0.00     0.015 C 
HETATM   18  C20 UNL     1      -5.757  -2.362 -19.898  1.00  0.00     0.053 C 
HETATM   19  C21 UNL     1      -4.841  -2.427 -21.080  1.00  0.00     0.114 A 
HETATM   20  F1  UNL     1      -5.104  -3.364 -22.061  1.00  0.00    -0.242 F 
HETATM   21  C22 UNL     1      -3.956  -1.294 -21.452  1.00  0.00     0.059 A 
ENDBRANCH  12  13
ENDBRANCH  10  12
ENDBRANCH   7   8
ENDBRANCH   5   7
BRANCH   4  22
HETATM   22  N1  UNL     1       3.554  -3.468 -23.597  1.00  0.00    -0.355 N 
HETATM   23  C9  UNL     1       4.272  -3.090 -24.754  1.00  0.00     0.213 C 
HETATM   24  C10 UNL     1       4.115  -3.886 -25.993  1.00  0.00     0.117 C 
HETATM   25  O2  UNL     1       5.034  -2.095 -24.739  1.00  0.00    -0.274 OA
ATOM     26  H1  UNL     1       2.942  -4.283 -23.644  1.00  0.00     0.162 HD
ENDBRANCH   4  22
BRANCH   1  27
HETATM   27  C4  UNL     1       7.410  -2.453 -20.094  1.00  0.00     0.038 A 
HETATM   28  C3  UNL     1       7.949  -3.695 -20.323  1.00  0.00     0.069 A 
HETATM   29  C2  UNL     1       9.246  -3.892 -20.736  1.00  0.00     0.108 A 
HETATM   30  C24 UNL     1      10.077  -2.792 -20.941  1.00  0.00     0.158 A 
HETATM   31  C23 UNL     1       9.521  -1.553 -20.708  1.00  0.00     0.225 A 
HETATM   32  N3  UNL     1       8.257  -1.405 -20.306  1.00  0.00    -0.331 N 
HETATM   33  F2  UNL     1      10.300  -0.458 -20.897  1.00  0.00    -0.183 F 
ATOM     34  H3  UNL     1       7.905  -0.460 -20.151  1.00  0.00     0.168 HD
BRANCH  29  35
HETATM   35  O1  UNL     1       9.711  -5.178 -20.944  1.00  0.00    -0.353 OA
HETATM   36  C1  UNL     1       8.966  -6.076 -21.721  1.00  0.00     0.210 C 
ENDBRANCH  29  35
BRANCH  30  37
HETATM   37  O4  UNL     1      11.371  -2.987 -21.354  1.00  0.00    -0.349 OA
HETATM   38  C25 UNL     1      12.435  -2.955 -20.418  1.00  0.00     0.210 C 
ENDBRANCH  30  37
ENDBRANCH   1  27
TORSDOF 8
ENDMDL
MODEL 4
REMARK VINA RESULT: -9.220059985      2.671      3.633
REMARK  8 active torsions:
REMARK  status: ('A' for Active; 'I' for Inactive)
REMARK    1  A    between atoms: O1_2  and  C2_3 
REMARK    2  A    between atoms: C4_5  and  C5_6 
REMARK    3  A    between atoms: C8_9  and  N1_10 
REMARK       I    between atoms: N1_10  and  C9_12 
REMARK    4  A    between atoms: C11_15  and  C12_16 
REMARK    5  A    between atoms: C12_16  and  C13_17 
REMARK       I    between atoms: C13_17  and  N2_19 
REMARK    6  A    between atoms: N2_19  and  C14_21 
REMARK    7  A    between atoms: C14_21  and  C15_22 
REMARK    8  A    between atoms: C24_36  and  O4_37 
ROOT
HETATM    1  C5  UNL     1       4.035  -4.730 -23.755  1.00  0.00     0.043 C 
HETATM    2  C6  UNL     1       3.536  -3.862 -22.934  1.00  0.00    -0.017 C 
HETATM    3  C7  UNL     1       4.263  -2.989 -22.001  1.00  0.00     0.072 C 
HETATM    4  C8  UNL     1       3.333  -2.692 -20.844  1.00  0.00     0.103 C 
HETATM    5  C11 UNL     1       2.055  -2.173 -21.435  1.00  0.00     0.084 C 
HETATM    6  S1  UNL     1       1.808  -3.479 -22.711  1.00  0.00    -0.127 SA
ENDROOT
BRANCH   5   7
HETATM    7  C12 UNL     1       0.911  -2.033 -20.538  1.00  0.00     0.120 C 
BRANCH   7   8
HETATM    8  C13 UNL     1      -0.433  -2.160 -21.083  1.00  0.00     0.218 C 
HETATM    9  O3  UNL     1      -0.883  -1.347 -21.912  1.00  0.00    -0.274 OA
HETATM   10  N2  UNL     1      -1.243  -3.232 -20.660  1.00  0.00    -0.360 N 
ATOM     11  H2  UNL     1      -0.860  -3.890 -19.981  1.00  0.00     0.162 HD
BRANCH  10  12
HETATM   12  C14 UNL     1      -2.577  -3.444 -21.134  1.00  0.00     0.135 C 
BRANCH  12  13
HETATM   13  C15 UNL     1      -3.532  -2.398 -20.585  1.00  0.00     0.015 A 
HETATM   14  C16 UNL     1      -3.620  -2.264 -19.073  1.00  0.00     0.023 C 
HETATM   15  C17 UNL     1      -4.910  -2.945 -18.747  1.00  0.00    -0.044 C 
HETATM   16  C18 UNL     1      -5.434  -2.567 -17.378  1.00  0.00     0.015 C 
HETATM   17  C19 UNL     1      -4.827  -4.437 -18.832  1.00  0.00     0.015 C 
HETATM   18  C20 UNL     1      -5.834  -2.440 -19.817  1.00  0.00     0.053 C 
HETATM   19  C21 UNL     1      -4.970  -2.496 -21.039  1.00  0.00     0.114 A 
HETATM   20  F1  UNL     1      -5.277  -3.425 -22.015  1.00  0.00    -0.242 F 
HETATM   21  C22 UNL     1      -4.102  -1.360 -21.439  1.00  0.00     0.059 A 
ENDBRANCH  12  13
ENDBRANCH  10  12
ENDBRANCH   7   8
ENDBRANCH   5   7
BRANCH   4  22
HETATM   22  N1  UNL     1       4.005  -1.713 -20.009  1.00  0.00    -0.355 N 
HETATM   23  C9  UNL     1       4.643  -2.060 -18.797  1.00  0.00     0.213 C 
HETATM   24  C10 UNL     1       5.307  -1.000 -18.002  1.00  0.00     0.117 C 
HETATM   25  O2  UNL     1       4.653  -3.246 -18.393  1.00  0.00    -0.274 OA
ATOM     26  H1  UNL     1       4.016  -0.738 -20.308  1.00  0.00     0.162 HD
ENDBRANCH   4  22
BRANCH   1  27
HETATM   27  C4  UNL     1       5.456  -5.011 -23.907  1.00  0.00     0.038 A 
HETATM   28  C3  UNL     1       6.014  -6.230 -23.616  1.00  0.00     0.069 A 
HETATM   29  C2  UNL     1       7.355  -6.502 -23.761  1.00  0.00     0.108 A 
HETATM   30  C24 UNL     1       8.213  -5.507 -24.225  1.00  0.00     0.158 A 
HETATM   31  C23 UNL     1       7.636  -4.288 -24.513  1.00  0.00     0.225 A 
HETATM   32  N3  UNL     1       6.329  -4.065 -24.358  1.00  0.00    -0.331 N 
HETATM   33  F2  UNL     1       8.440  -3.293 -24.968  1.00  0.00    -0.183 F 
ATOM     34  H3  UNL     1       5.965  -3.141 -24.589  1.00  0.00     0.168 HD
BRANCH  29  35
HETATM   35  O1  UNL     1       7.837  -7.760 -23.445  1.00  0.00    -0.353 OA
HETATM   36  C1  UNL     1       7.844  -8.772 -24.414  1.00  0.00     0.210 C 
ENDBRANCH  29  35
BRANCH  30  37
HETATM   37  O4  UNL     1       9.550  -5.776 -24.371  1.00  0.00    -0.349 OA
HETATM   38  C25 UNL     1      10.084  -6.087 -25.647  1.00  0.00     0.210 C 
ENDBRANCH  30  37
ENDBRANCH   1  27
TORSDOF 8
ENDMDL
MODEL 5
REMARK VINA RESULT: -9.123583459      2.870      3.941
REMARK  8 active torsions:
REMARK  status: ('A' for Active; 'I' for Inactive)
REMARK    1  A    between atoms: O1_2  and  C2_3 
REMARK    2  A    between atoms: C4_5  and  C5_6 
REMARK    3  A    between atoms: C8_9  and  N1_10 
REMARK       I    between atoms: N1_10  and  C9_12 
REMARK    4  A    between atoms: C11_15  and  C12_16 
REMARK    5  A    between atoms: C12_16  and  C13_17 
REMARK       I    between atoms: C13_17  and  N2_19 
REMARK    6  A    between atoms: N2_19  and  C14_21 
REMARK    7  A    between atoms: C14_21  and  C15_22 
REMARK    8  A    between atoms: C24_36  and  O4_37 
ROOT
HETATM    1  C5  UNL     1       4.199  -4.783 -23.868  1.00  0.00     0.043 C 
HETATM    2  C6  UNL     1       3.673  -3.939 -23.038  1.00  0.00    -0.017 C 
HETATM    3  C7  UNL     1       4.374  -3.045 -22.104  1.00  0.00     0.072 C 
HETATM    4  C8  UNL     1       3.441  -2.790 -20.940  1.00  0.00     0.103 C 
HETATM    5  C11 UNL     1       2.141  -2.315 -21.520  1.00  0.00     0.084 C 
HETATM    6  S1  UNL     1       1.935  -3.622 -22.803  1.00  0.00    -0.127 SA
ENDROOT
BRANCH   5   7
HETATM    7  C12 UNL     1       0.998  -2.223 -20.615  1.00  0.00     0.120 C 
BRANCH   7   8
HETATM    8  C13 UNL     1      -0.347  -2.306 -21.166  1.00  0.00     0.218 C 
HETATM    9  O3  UNL     1      -0.740  -1.522 -22.051  1.00  0.00    -0.274 OA
HETATM   10  N2  UNL     1      -1.223  -3.297 -20.684  1.00  0.00    -0.360 N 
ATOM     11  H2  UNL     1      -0.885  -3.932 -19.961  1.00  0.00     0.162 HD
BRANCH  10  12
HETATM   12  C14 UNL     1      -2.564  -3.460 -21.159  1.00  0.00     0.135 C 
BRANCH  12  13
HETATM   13  C15 UNL     1      -3.486  -2.399 -20.585  1.00  0.00     0.015 A 
HETATM   14  C16 UNL     1      -3.587  -2.313 -19.069  1.00  0.00     0.023 C 
HETATM   15  C17 UNL     1      -4.904  -2.957 -18.780  1.00  0.00    -0.044 C 
HETATM   16  C18 UNL     1      -5.430  -2.606 -17.404  1.00  0.00     0.015 C 
HETATM   17  C19 UNL     1      -4.874  -4.447 -18.915  1.00  0.00     0.015 C 
HETATM   18  C20 UNL     1      -5.797  -2.383 -19.841  1.00  0.00     0.053 C 
HETATM   19  C21 UNL     1      -4.922  -2.429 -21.056  1.00  0.00     0.114 A 
HETATM   20  F1  UNL     1      -5.252  -3.313 -22.066  1.00  0.00    -0.242 F 
HETATM   21  C22 UNL     1      -4.009  -1.313 -21.409  1.00  0.00     0.059 A 
ENDBRANCH  12  13
ENDBRANCH  10  12
ENDBRANCH   7   8
ENDBRANCH   5   7
BRANCH   4  22
HETATM   22  N1  UNL     1       4.081  -1.792 -20.103  1.00  0.00    -0.355 N 
HETATM   23  C9  UNL     1       4.482  -2.060 -18.774  1.00  0.00     0.213 C 
HETATM   24  C10 UNL     1       5.129  -0.986 -17.985  1.00  0.00     0.117 C 
HETATM   25  O2  UNL     1       4.295  -3.189 -18.263  1.00  0.00    -0.274 OA
ATOM     26  H1  UNL     1       4.248  -0.863 -20.488  1.00  0.00     0.162 HD
ENDBRANCH   4  22
BRANCH   1  27
HETATM   27  C4  UNL     1       5.629  -5.009 -24.031  1.00  0.00     0.038 A 
HETATM   28  C3  UNL     1       6.390  -4.348 -24.963  1.00  0.00     0.069 A 
HETATM   29  C2  UNL     1       7.741  -4.555 -25.120  1.00  0.00     0.108 A 
HETATM   30  C24 UNL     1       8.396  -5.475 -24.303  1.00  0.00     0.158 A 
HETATM   31  C23 UNL     1       7.617  -6.130 -23.372  1.00  0.00     0.225 A 
HETATM   32  N3  UNL     1       6.308  -5.900 -23.253  1.00  0.00    -0.331 N 
HETATM   33  F2  UNL     1       8.219  -7.034 -22.559  1.00  0.00    -0.183 F 
ATOM     34  H3  UNL     1       5.788  -6.418 -22.544  1.00  0.00     0.168 HD
BRANCH  29  35
HETATM   35  O1  UNL     1       8.435  -3.847 -26.085  1.00  0.00    -0.353 OA
HETATM   36  C1  UNL     1       8.339  -4.220 -27.432  1.00  0.00     0.210 C 
ENDBRANCH  29  35
BRANCH  30  37
HETATM   37  O4  UNL     1       9.743  -5.682 -24.458  1.00  0.00    -0.349 OA
HETATM   38  C25 UNL     1      10.218  -6.740 -25.273  1.00  0.00     0.210 C 
ENDBRANCH  30  37
ENDBRANCH   1  27
TORSDOF 8
ENDMDL
