MODEL 1
REMARK VINA RESULT: -9.112916322      0.000      0.000
REMARK  10 active torsions:
REMARK  status: ('A' for Active; 'I' for Inactive)
REMARK    1  A    between atoms: N2_3  and  C2_5 
REMARK    2  A    between atoms: C3_9  and  C4_10 
REMARK       I    between atoms: C4_10  and  N4_12 
REMARK    3  A    between atoms: N4_12  and  C5_14 
REMARK    4  A    between atoms: C5_14  and  C6_15 
REMARK    5  A    between atoms: C7_19  and  O2_20 
REMARK    6  A    between atoms: C8_22  and  N6_23 
REMARK    7  A    between atoms: C11_28  and  N8_29 
REMARK    8  A    between atoms: C14_39  and  C15_40 
REMARK    9  A    between atoms: C15_40  and  O4_41 
REMARK   10  A    between atoms: C15_40  and  O5_43 
ROOT
HETATM    1  N1  UNL     1      31.763  -3.297  28.134  1.00  0.00    -0.172 NA
HETATM    2  C1  UNL     1      31.260  -3.976  27.341  1.00  0.00     0.180 C 
HETATM    3  N2  UNL     1      30.642  -4.776  26.373  1.00  0.00    -0.277 N 
ATOM      4  H2  UNL     1      29.971  -4.362  25.725  1.00  0.00     0.175 HD
ENDROOT
BRANCH   3   5
HETATM    5  C2  UNL     1      30.947  -6.174  26.286  1.00  0.00     0.495 C 
HETATM    6  N3  UNL     1      29.999  -7.012  26.953  1.00  0.00    -0.013 N 
HETATM    7  C3  UNL     1      30.726  -8.232  27.209  1.00  0.00     0.317 C 
ATOM      8  H32 UNL     1      29.580  -6.593  27.783  1.00  0.00     0.282 HD
ATOM      9  H31 UNL     1      29.126  -7.144  26.443  1.00  0.00     0.282 HD
HETATM   10  C14 UNL     1      32.127  -7.772  27.468  1.00  0.00     0.284 C 
HETATM   11  N11 UNL     1      32.186  -6.430  26.980  1.00  0.00    -0.017 N 
ATOM     12 2H11 UNL     1      33.010  -6.250  26.406  1.00  0.00     0.282 HD
ATOM     13 1H11 UNL     1      32.382  -5.748  27.712  1.00  0.00     0.282 HD
BRANCH   7  14
HETATM   14  C4  UNL     1      30.712  -9.097  26.001  1.00  0.00     0.251 C 
HETATM   15  O1  UNL     1      31.779  -9.297  25.337  1.00  0.00    -0.271 OA
HETATM   16  N4  UNL     1      29.526  -9.724  25.548  1.00  0.00    -0.355 N 
ATOM     17  H4  UNL     1      28.653  -9.584  26.057  1.00  0.00     0.162 HD
BRANCH  16  18
HETATM   18  C5  UNL     1      29.544 -10.551  24.384  1.00  0.00     0.184 C 
BRANCH  18  19
HETATM   19  C6  UNL     1      29.341 -12.009  24.679  1.00  0.00     0.344 C 
HETATM   20  N5  UNL     1      28.444 -12.616  23.707  1.00  0.00    -0.017 N 
HETATM   21  C7  UNL     1      27.662 -13.503  24.561  1.00  0.00     0.371 C 
ATOM     22  H52 UNL     1      27.903 -11.961  23.142  1.00  0.00     0.283 HD
ATOM     23  H51 UNL     1      28.900 -13.065  22.912  1.00  0.00     0.283 HD
HETATM   24  C8  UNL     1      27.453 -12.532  25.692  1.00  0.00     0.289 C 
HETATM   25  O3  UNL     1      28.754 -12.146  25.924  1.00  0.00    -0.328 OA
BRANCH  21  26
HETATM   26  O2  UNL     1      28.533 -14.531  24.872  1.00  0.00    -0.366 OA
ATOM     27  H2  UNL     1      28.051 -15.066  25.493  1.00  0.00     0.212 HD
ENDBRANCH  21  26
BRANCH  24  28
HETATM   28  N6  UNL     1      26.733 -13.012  26.800  1.00  0.00    -0.295 N 
HETATM   29  C9  UNL     1      25.613 -13.775  26.727  1.00  0.00     0.188 A 
HETATM   30  N7  UNL     1      25.157 -14.075  27.935  1.00  0.00    -0.346 N 
HETATM   31  C10 UNL     1      25.967 -13.516  28.843  1.00  0.00     0.122 A 
ATOM     32  H7  UNL     1      24.331 -14.637  28.139  1.00  0.00     0.167 HD
HETATM   33  C11 UNL     1      26.023 -13.464  30.221  1.00  0.00     0.131 A 
HETATM   34  C13 UNL     1      26.943 -12.857  28.124  1.00  0.00     0.142 A 
HETATM   35  N9  UNL     1      26.987 -12.801  30.871  1.00  0.00    -0.337 N 
HETATM   36  C12 UNL     1      27.919 -12.173  30.142  1.00  0.00     0.183 A 
ATOM     37  H9  UNL     1      27.012 -12.775  31.891  1.00  0.00     0.168 HD
HETATM   38  N10 UNL     1      27.883 -12.210  28.806  1.00  0.00    -0.336 N 
ATOM     39  H10 UNL     1      28.611 -11.719  28.286  1.00  0.00     0.168 HD
BRANCH  33  40
HETATM   40  N8  UNL     1      25.120 -14.072  30.920  1.00  0.00    -0.383 N 
ATOM     41  H82 UNL     1      24.404 -14.604  30.425  1.00  0.00     0.157 HD
ATOM     42  H81 UNL     1      25.143 -14.008  31.937  1.00  0.00     0.157 HD
ENDBRANCH  33  40
ENDBRANCH  24  28
ENDBRANCH  18  19
ENDBRANCH  16  18
ENDBRANCH   7  14
BRANCH  10  43
HETATM   43  C15 UNL     1      32.362  -7.835  28.962  1.00  0.00     0.287 C 
BRANCH  43  44
HETATM   44  O4  UNL     1      33.702  -7.912  29.270  1.00  0.00    -0.369 OA
ATOM     45  H4  UNL     1      34.078  -7.056  29.437  1.00  0.00     0.212 HD
ENDBRANCH  43  44
BRANCH  43  46
HETATM   46  O5  UNL     1      31.771  -6.688  29.532  1.00  0.00    -0.369 OA
ATOM     47  H5  UNL     1      31.400  -6.944  30.368  1.00  0.00     0.212 HD
ENDBRANCH  43  46
ENDBRANCH  10  43
ENDBRANCH   3   5
TORSDOF 10
ENDMDL
MODEL 2
REMARK VINA RESULT: -8.978056127      2.731      8.610
REMARK  10 active torsions:
REMARK  status: ('A' for Active; 'I' for Inactive)
REMARK    1  A    between atoms: N2_3  and  C2_5 
REMARK    2  A    between atoms: C3_9  and  C4_10 
REMARK       I    between atoms: C4_10  and  N4_12 
REMARK    3  A    between atoms: N4_12  and  C5_14 
REMARK    4  A    between atoms: C5_14  and  C6_15 
REMARK    5  A    between atoms: C7_19  and  O2_20 
REMARK    6  A    between atoms: C8_22  and  N6_23 
REMARK    7  A    between atoms: C11_28  and  N8_29 
REMARK    8  A    between atoms: C14_39  and  C15_40 
REMARK    9  A    between atoms: C15_40  and  O4_41 
REMARK   10  A    between atoms: C15_40  and  O5_43 
ROOT
HETATM    1  N1  UNL     1      25.738 -10.159  22.269  1.00  0.00    -0.172 NA
HETATM    2  C1  UNL     1      25.463 -10.326  23.382  1.00  0.00     0.180 C 
HETATM    3  N2  UNL     1      25.106 -10.530  24.721  1.00  0.00    -0.277 N 
ATOM      4  H2  UNL     1      24.121 -10.585  24.981  1.00  0.00     0.175 HD
ENDROOT
BRANCH   3   5
HETATM    5  C2  UNL     1      26.118 -10.663  25.727  1.00  0.00     0.495 C 
HETATM    6  N3  UNL     1      27.349 -11.203  25.237  1.00  0.00    -0.013 N 
HETATM    7  C3  UNL     1      27.992 -11.738  26.413  1.00  0.00     0.317 C 
ATOM      8  H32 UNL     1      27.239 -11.876  24.478  1.00  0.00     0.282 HD
ATOM      9  H31 UNL     1      27.919 -10.539  24.714  1.00  0.00     0.282 HD
HETATM   10  C14 UNL     1      26.856 -12.234  27.254  1.00  0.00     0.284 C 
HETATM   11  N11 UNL     1      25.683 -11.626  26.710  1.00  0.00    -0.017 N 
ATOM     12 2H11 UNL     1      25.076 -11.221  27.423  1.00  0.00     0.282 HD
ATOM     13 1H11 UNL     1      25.018 -12.303  26.338  1.00  0.00     0.282 HD
BRANCH   7  14
HETATM   14  C4  UNL     1      28.702 -10.656  27.143  1.00  0.00     0.251 C 
HETATM   15  O1  UNL     1      28.346 -10.328  28.320  1.00  0.00    -0.271 OA
HETATM   16  N4  UNL     1      29.789  -9.958  26.563  1.00  0.00    -0.355 N 
ATOM     17  H4  UNL     1      30.099 -10.195  25.621  1.00  0.00     0.162 HD
BRANCH  16  18
HETATM   18  C5  UNL     1      30.453  -8.922  27.290  1.00  0.00     0.184 C 
BRANCH  18  19
HETATM   19  C6  UNL     1      30.306  -7.563  26.670  1.00  0.00     0.344 C 
HETATM   20  N5  UNL     1      31.536  -7.159  26.005  1.00  0.00    -0.017 N 
HETATM   21  C7  UNL     1      31.589  -5.742  26.350  1.00  0.00     0.371 C 
ATOM     22  H52 UNL     1      32.364  -7.701  26.251  1.00  0.00     0.283 HD
ATOM     23  H51 UNL     1      31.583  -7.368  25.008  1.00  0.00     0.283 HD
HETATM   24  C8  UNL     1      31.197  -5.890  27.797  1.00  0.00     0.289 C 
HETATM   25  O3  UNL     1      30.047  -6.634  27.661  1.00  0.00    -0.328 OA
BRANCH  21  26
HETATM   26  O2  UNL     1      30.604  -5.165  25.570  1.00  0.00    -0.366 OA
ATOM     27  H2  UNL     1      30.934  -4.293  25.384  1.00  0.00     0.212 HD
ENDBRANCH  21  26
BRANCH  24  28
HETATM   28  N6  UNL     1      31.093  -4.700  28.538  1.00  0.00    -0.295 N 
HETATM   29  C9  UNL     1      30.824  -3.478  28.012  1.00  0.00     0.188 A 
HETATM   30  N7  UNL     1      30.787  -2.548  28.956  1.00  0.00    -0.346 N 
HETATM   31  C10 UNL     1      31.031  -3.132  30.135  1.00  0.00     0.122 A 
ATOM     32  H7  UNL     1      30.604  -1.555  28.808  1.00  0.00     0.167 HD
HETATM   33  C11 UNL     1      31.125  -2.713  31.447  1.00  0.00     0.131 A 
HETATM   34  C13 UNL     1      31.219  -4.471  29.862  1.00  0.00     0.142 A 
HETATM   35  N9  UNL     1      31.391  -3.560  32.449  1.00  0.00    -0.337 N 
HETATM   36  C12 UNL     1      31.568  -4.852  32.148  1.00  0.00     0.183 A 
ATOM     37  H9  UNL     1      31.456  -3.231  33.412  1.00  0.00     0.168 HD
HETATM   38  N10 UNL     1      31.481  -5.280  30.884  1.00  0.00    -0.336 N 
ATOM     39  H10 UNL     1      31.622  -6.272  30.695  1.00  0.00     0.168 HD
BRANCH  33  40
HETATM   40  N8  UNL     1      30.954  -1.462  31.731  1.00  0.00    -0.383 N 
ATOM     41  H82 UNL     1      30.093  -1.011  31.421  1.00  0.00     0.157 HD
ATOM     42  H81 UNL     1      31.673  -0.962  32.253  1.00  0.00     0.157 HD
ENDBRANCH  33  40
ENDBRANCH  24  28
ENDBRANCH  18  19
ENDBRANCH  16  18
ENDBRANCH   7  14
BRANCH  10  43
HETATM   43  C15 UNL     1      26.815 -13.742  27.126  1.00  0.00     0.287 C 
BRANCH  43  44
HETATM   44  O4  UNL     1      27.570 -14.191  26.067  1.00  0.00    -0.369 OA
ATOM     45  H4  UNL     1      27.437 -15.116  25.902  1.00  0.00     0.212 HD
ENDBRANCH  43  44
BRANCH  43  46
HETATM   46  O5  UNL     1      27.272 -14.282  28.347  1.00  0.00    -0.369 OA
ATOM     47  H5  UNL     1      26.537 -14.290  28.948  1.00  0.00     0.212 HD
ENDBRANCH  43  46
ENDBRANCH  10  43
ENDBRANCH   3   5
TORSDOF 10
ENDMDL
MODEL 3
REMARK VINA RESULT: -8.953902104      2.397      8.670
REMARK  10 active torsions:
REMARK  status: ('A' for Active; 'I' for Inactive)
REMARK    1  A    between atoms: N2_3  and  C2_5 
REMARK    2  A    between atoms: C3_9  and  C4_10 
REMARK       I    between atoms: C4_10  and  N4_12 
REMARK    3  A    between atoms: N4_12  and  C5_14 
REMARK    4  A    between atoms: C5_14  and  C6_15 
REMARK    5  A    between atoms: C7_19  and  O2_20 
REMARK    6  A    between atoms: C8_22  and  N6_23 
REMARK    7  A    between atoms: C11_28  and  N8_29 
REMARK    8  A    between atoms: C14_39  and  C15_40 
REMARK    9  A    between atoms: C15_40  and  O4_41 
REMARK   10  A    between atoms: C15_40  and  O5_43 
ROOT
HETATM    1  N1  UNL     1      25.730 -10.187  22.616  1.00  0.00    -0.172 NA
HETATM    2  C1  UNL     1      25.451 -10.372  23.725  1.00  0.00     0.180 C 
HETATM    3  N2  UNL     1      25.091 -10.598  25.059  1.00  0.00    -0.277 N 
ATOM      4  H2  UNL     1      24.105 -10.631  25.320  1.00  0.00     0.175 HD
ENDROOT
BRANCH   3   5
HETATM    5  C2  UNL     1      26.100 -10.783  26.060  1.00  0.00     0.495 C 
HETATM    6  N3  UNL     1      27.162 -11.652  25.653  1.00  0.00    -0.013 N 
HETATM    7  C3  UNL     1      27.734 -12.115  26.893  1.00  0.00     0.317 C 
ATOM      8  H32 UNL     1      26.873 -12.398  25.020  1.00  0.00     0.282 HD
ATOM      9  H31 UNL     1      27.833 -11.222  25.017  1.00  0.00     0.282 HD
HETATM   10  C14 UNL     1      26.562 -12.207  27.821  1.00  0.00     0.284 C 
HETATM   11  N11 UNL     1      25.520 -11.454  27.197  1.00  0.00    -0.017 N 
ATOM     12 2H11 UNL     1      25.049 -10.816  27.840  1.00  0.00     0.282 HD
ATOM     13 1H11 UNL     1      24.708 -12.021  26.955  1.00  0.00     0.282 HD
BRANCH   7  14
HETATM   14  C4  UNL     1      28.693 -11.111  27.419  1.00  0.00     0.251 C 
HETATM   15  O1  UNL     1      28.448 -10.484  28.499  1.00  0.00    -0.271 OA
HETATM   16  N4  UNL     1      29.904 -10.816  26.747  1.00  0.00    -0.355 N 
ATOM     17  H4  UNL     1      30.132 -11.299  25.877  1.00  0.00     0.162 HD
BRANCH  16  18
HETATM   18  C5  UNL     1      30.809  -9.846  27.277  1.00  0.00     0.184 C 
BRANCH  18  19
HETATM   19  C6  UNL     1      30.488  -8.437  26.868  1.00  0.00     0.344 C 
HETATM   20  N5  UNL     1      31.532  -7.893  26.014  1.00  0.00    -0.017 N 
HETATM   21  C7  UNL     1      31.612  -6.522  26.507  1.00  0.00     0.371 C 
ATOM     22  H52 UNL     1      32.412  -8.410  26.014  1.00  0.00     0.283 HD
ATOM     23  H51 UNL     1      31.372  -7.988  25.011  1.00  0.00     0.283 HD
HETATM   24  C8  UNL     1      31.544  -6.849  27.975  1.00  0.00     0.289 C 
HETATM   25  O3  UNL     1      30.416  -7.639  27.995  1.00  0.00    -0.328 OA
BRANCH  21  26
HETATM   26  O2  UNL     1      30.464  -5.920  26.024  1.00  0.00    -0.366 OA
ATOM     27  H2  UNL     1      30.748  -5.472  25.235  1.00  0.00     0.212 HD
ENDBRANCH  21  26
BRANCH  24  28
HETATM   28  N6  UNL     1      31.562  -5.756  28.858  1.00  0.00    -0.295 N 
HETATM   29  C9  UNL     1      31.625  -5.850  30.211  1.00  0.00     0.188 A 
HETATM   30  N7  UNL     1      31.627  -4.651  30.775  1.00  0.00    -0.346 N 
HETATM   31  C10 UNL     1      31.565  -3.728  29.808  1.00  0.00     0.122 A 
ATOM     32  H7  UNL     1      31.669  -4.464  31.777  1.00  0.00     0.167 HD
HETATM   33  C11 UNL     1      31.535  -2.349  29.756  1.00  0.00     0.131 A 
HETATM   34  C13 UNL     1      31.525  -4.428  28.619  1.00  0.00     0.142 A 
HETATM   35  N9  UNL     1      31.470  -1.680  28.599  1.00  0.00    -0.337 N 
HETATM   36  C12 UNL     1      31.432  -2.391  27.464  1.00  0.00     0.183 A 
ATOM     37  H9  UNL     1      31.448  -0.660  28.581  1.00  0.00     0.168 HD
HETATM   38  N10 UNL     1      31.461  -3.727  27.491  1.00  0.00    -0.336 N 
ATOM     39  H10 UNL     1      31.431  -4.233  26.606  1.00  0.00     0.168 HD
BRANCH  33  40
HETATM   40  N8  UNL     1      31.571  -1.668  30.856  1.00  0.00    -0.383 N 
ATOM     41  H82 UNL     1      32.477  -1.343  31.193  1.00  0.00     0.157 HD
ATOM     42  H81 UNL     1      30.703  -1.473  31.355  1.00  0.00     0.157 HD
ENDBRANCH  33  40
ENDBRANCH  24  28
ENDBRANCH  18  19
ENDBRANCH  16  18
ENDBRANCH   7  14
BRANCH  10  43
HETATM   43  C15 UNL     1      26.193 -13.669  27.952  1.00  0.00     0.287 C 
BRANCH  43  44
HETATM   44  O4  UNL     1      25.919 -14.243  26.731  1.00  0.00    -0.369 OA
ATOM     45  H4  UNL     1      26.045 -15.185  26.745  1.00  0.00     0.212 HD
ENDBRANCH  43  44
BRANCH  43  46
HETATM   46  O5  UNL     1      27.268 -14.321  28.594  1.00  0.00    -0.369 OA
ATOM     47  H5  UNL     1      27.033 -14.426  29.508  1.00  0.00     0.212 HD
ENDBRANCH  43  46
ENDBRANCH  10  43
ENDBRANCH   3   5
TORSDOF 10
ENDMDL
MODEL 4
REMARK VINA RESULT: -8.940391560      2.872      8.665
REMARK  10 active torsions:
REMARK  status: ('A' for Active; 'I' for Inactive)
REMARK    1  A    between atoms: N2_3  and  C2_5 
REMARK    2  A    between atoms: C3_9  and  C4_10 
REMARK       I    between atoms: C4_10  and  N4_12 
REMARK    3  A    between atoms: N4_12  and  C5_14 
REMARK    4  A    between atoms: C5_14  and  C6_15 
REMARK    5  A    between atoms: C7_19  and  O2_20 
REMARK    6  A    between atoms: C8_22  and  N6_23 
REMARK    7  A    between atoms: C11_28  and  N8_29 
REMARK    8  A    between atoms: C14_39  and  C15_40 
REMARK    9  A    between atoms: C15_40  and  O4_41 
REMARK   10  A    between atoms: C15_40  and  O5_43 
ROOT
HETATM    1  N1  UNL     1      25.696  -9.453  21.831  1.00  0.00    -0.172 NA
HETATM    2  C1  UNL     1      25.696 -10.189  22.725  1.00  0.00     0.180 C 
HETATM    3  N2  UNL     1      25.673 -11.086  23.800  1.00  0.00    -0.277 N 
ATOM      4  H2  UNL     1      24.792 -11.518  24.081  1.00  0.00     0.175 HD
ENDROOT
BRANCH   3   5
HETATM    5  C2  UNL     1      26.879 -11.400  24.508  1.00  0.00     0.495 C 
HETATM    6  N3  UNL     1      28.051 -11.371  23.688  1.00  0.00    -0.013 N 
HETATM    7  C3  UNL     1      28.999 -12.193  24.398  1.00  0.00     0.317 C 
ATOM      8  H32 UNL     1      27.893 -11.655  22.721  1.00  0.00     0.282 HD
ATOM      9  H31 UNL     1      28.389 -10.433  23.473  1.00  0.00     0.282 HD
HETATM   10  C14 UNL     1      28.154 -13.254  25.034  1.00  0.00     0.284 C 
HETATM   11  N11 UNL     1      26.814 -12.764  24.972  1.00  0.00    -0.017 N 
ATOM     12 2H11 UNL     1      26.312 -12.861  25.855  1.00  0.00     0.282 HD
ATOM     13 1H11 UNL     1      26.201 -13.350  24.406  1.00  0.00     0.282 HD
BRANCH   7  14
HETATM   14  C4  UNL     1      29.667 -11.400  25.462  1.00  0.00     0.251 C 
HETATM   15  O1  UNL     1      30.865 -11.656  25.805  1.00  0.00    -0.271 OA
HETATM   16  N4  UNL     1      29.002 -10.341  26.128  1.00  0.00    -0.355 N 
ATOM     17  H4  UNL     1      28.040 -10.110  25.879  1.00  0.00     0.162 HD
BRANCH  16  18
HETATM   18  C5  UNL     1      29.670  -9.595  27.147  1.00  0.00     0.184 C 
BRANCH  18  19
HETATM   19  C6  UNL     1      30.347  -8.356  26.638  1.00  0.00     0.344 C 
HETATM   20  N5  UNL     1      31.775  -8.575  26.467  1.00  0.00    -0.017 N 
HETATM   21  C7  UNL     1      32.313  -7.303  26.936  1.00  0.00     0.371 C 
ATOM     22  H52 UNL     1      32.148  -9.405  26.928  1.00  0.00     0.283 HD
ATOM     23  H51 UNL     1      32.065  -8.854  25.530  1.00  0.00     0.283 HD
HETATM   24  C8  UNL     1      31.428  -7.162  28.146  1.00  0.00     0.289 C 
HETATM   25  O3  UNL     1      30.192  -7.339  27.563  1.00  0.00    -0.328 OA
BRANCH  21  26
HETATM   26  O2  UNL     1      32.008  -6.411  25.924  1.00  0.00    -0.366 OA
ATOM     27  H2  UNL     1      32.805  -5.907  25.808  1.00  0.00     0.212 HD
ENDBRANCH  21  26
BRANCH  24  28
HETATM   28  N6  UNL     1      31.600  -5.996  28.912  1.00  0.00    -0.295 N 
HETATM   29  C9  UNL     1      31.903  -5.974  30.235  1.00  0.00     0.188 A 
HETATM   30  N7  UNL     1      32.004  -4.730  30.683  1.00  0.00    -0.346 N 
HETATM   31  C10 UNL     1      31.770  -3.894  29.664  1.00  0.00     0.122 A 
ATOM     32  H7  UNL     1      32.223  -4.457  31.640  1.00  0.00     0.167 HD
HETATM   33  C11 UNL     1      31.728  -2.525  29.497  1.00  0.00     0.131 A 
HETATM   34  C13 UNL     1      31.520  -4.694  28.568  1.00  0.00     0.142 A 
HETATM   35  N9  UNL     1      31.456  -1.958  28.315  1.00  0.00    -0.337 N 
HETATM   36  C12 UNL     1      31.219  -2.764  27.273  1.00  0.00     0.183 A 
ATOM     37  H9  UNL     1      31.431  -0.943  28.212  1.00  0.00     0.168 HD
HETATM   38  N10 UNL     1      31.254  -4.093  27.412  1.00  0.00    -0.336 N 
ATOM     39  H10 UNL     1      31.068  -4.673  26.594  1.00  0.00     0.168 HD
BRANCH  33  40
HETATM   40  N8  UNL     1      31.958  -1.751  30.508  1.00  0.00    -0.383 N 
ATOM     41  H82 UNL     1      32.911  -1.420  30.656  1.00  0.00     0.157 HD
ATOM     42  H81 UNL     1      31.191  -1.492  31.128  1.00  0.00     0.157 HD
ENDBRANCH  33  40
ENDBRANCH  24  28
ENDBRANCH  18  19
ENDBRANCH  16  18
ENDBRANCH   7  14
BRANCH  10  43
HETATM   43  C15 UNL     1      28.324 -14.523  24.226  1.00  0.00     0.287 C 
BRANCH  43  44
HETATM   44  O4  UNL     1      28.808 -14.268  22.962  1.00  0.00    -0.369 OA
ATOM     45  H4  UNL     1      29.333 -14.987  22.631  1.00  0.00     0.212 HD
ENDBRANCH  43  44
BRANCH  43  46
HETATM   46  O5  UNL     1      29.193 -15.370  24.945  1.00  0.00    -0.369 OA
ATOM     47  H5  UNL     1      29.576 -15.979  24.324  1.00  0.00     0.212 HD
ENDBRANCH  43  46
ENDBRANCH  10  43
ENDBRANCH   3   5
TORSDOF 10
ENDMDL
MODEL 5
REMARK VINA RESULT: -8.914317528      2.639      8.691
REMARK  10 active torsions:
REMARK  status: ('A' for Active; 'I' for Inactive)
REMARK    1  A    between atoms: N2_3  and  C2_5 
REMARK    2  A    between atoms: C3_9  and  C4_10 
REMARK       I    between atoms: C4_10  and  N4_12 
REMARK    3  A    between atoms: N4_12  and  C5_14 
REMARK    4  A    between atoms: C5_14  and  C6_15 
REMARK    5  A    between atoms: C7_19  and  O2_20 
REMARK    6  A    between atoms: C8_22  and  N6_23 
REMARK    7  A    between atoms: C11_28  and  N8_29 
REMARK    8  A    between atoms: C14_39  and  C15_40 
REMARK    9  A    between atoms: C15_40  and  O4_41 
REMARK   10  A    between atoms: C15_40  and  O5_43 
ROOT
HETATM    1  N1  UNL     1      25.973  -9.440  22.024  1.00  0.00    -0.172 NA
HETATM    2  C1  UNL     1      25.533 -10.112  22.859  1.00  0.00     0.180 C 
HETATM    3  N2  UNL     1      24.986 -10.934  23.852  1.00  0.00    -0.277 N 
ATOM      4  H2  UNL     1      24.144 -11.476  23.655  1.00  0.00     0.175 HD
ENDROOT
BRANCH   3   5
HETATM    5  C2  UNL     1      25.602 -11.017  25.143  1.00  0.00     0.495 C 
HETATM    6  N3  UNL     1      26.759 -11.858  25.176  1.00  0.00    -0.013 N 
HETATM    7  C3  UNL     1      26.889 -12.225  26.565  1.00  0.00     0.317 C 
ATOM      8  H32 UNL     1      26.718 -12.651  24.536  1.00  0.00     0.282 HD
ATOM      9  H31 UNL     1      27.595 -11.435  24.775  1.00  0.00     0.282 HD
HETATM   10  C14 UNL     1      25.475 -12.318  27.050  1.00  0.00     0.284 C 
HETATM   11  N11 UNL     1      24.688 -11.649  26.063  1.00  0.00    -0.017 N 
ATOM     12 2H11 UNL     1      24.013 -10.998  26.465  1.00  0.00     0.282 HD
ATOM     13 1H11 UNL     1      24.019 -12.265  25.602  1.00  0.00     0.282 HD
BRANCH   7  14
HETATM   14  C4  UNL     1      27.591 -11.151  27.313  1.00  0.00     0.251 C 
HETATM   15  O1  UNL     1      27.025 -10.568  28.292  1.00  0.00    -0.271 OA
HETATM   16  N4  UNL     1      28.901 -10.739  26.968  1.00  0.00    -0.355 N 
ATOM     17  H4  UNL     1      29.384 -11.184  26.188  1.00  0.00     0.162 HD
BRANCH  16  18
HETATM   18  C5  UNL     1      29.552  -9.703  27.707  1.00  0.00     0.184 C 
BRANCH  18  19
HETATM   19  C6  UNL     1      30.319  -8.742  26.846  1.00  0.00     0.344 C 
HETATM   20  N5  UNL     1      31.752  -8.931  27.005  1.00  0.00    -0.017 N 
HETATM   21  C7  UNL     1      32.222  -7.549  26.987  1.00  0.00     0.371 C 
ATOM     22  H52 UNL     1      32.034  -9.478  27.818  1.00  0.00     0.283 HD
ATOM     23  H51 UNL     1      32.191  -9.550  26.324  1.00  0.00     0.283 HD
HETATM   24  C8  UNL     1      31.150  -6.979  27.878  1.00  0.00     0.289 C 
HETATM   25  O3  UNL     1      30.026  -7.447  27.235  1.00  0.00    -0.328 OA
BRANCH  21  26
HETATM   26  O2  UNL     1      32.099  -7.166  25.664  1.00  0.00    -0.366 OA
ATOM     27  H2  UNL     1      31.938  -7.978  25.199  1.00  0.00     0.212 HD
ENDBRANCH  21  26
BRANCH  24  28
HETATM   28  N6  UNL     1      31.209  -5.594  28.114  1.00  0.00    -0.295 N 
HETATM   29  C9  UNL     1      30.940  -4.636  27.191  1.00  0.00     0.188 A 
HETATM   30  N7  UNL     1      31.078  -3.423  27.705  1.00  0.00    -0.346 N 
HETATM   31  C10 UNL     1      31.443  -3.546  28.987  1.00  0.00     0.122 A 
ATOM     32  H7  UNL     1      30.931  -2.544  27.209  1.00  0.00     0.167 HD
HETATM   33  C11 UNL     1      31.731  -2.679  30.022  1.00  0.00     0.131 A 
HETATM   34  C13 UNL     1      31.521  -4.902  29.230  1.00  0.00     0.142 A 
HETATM   35  N9  UNL     1      32.080  -3.113  31.240  1.00  0.00    -0.337 N 
HETATM   36  C12 UNL     1      32.146  -4.435  31.440  1.00  0.00     0.183 A 
ATOM     37  H9  UNL     1      32.290  -2.456  31.992  1.00  0.00     0.168 HD
HETATM   38  N10 UNL     1      31.870  -5.293  30.451  1.00  0.00    -0.336 N 
ATOM     39  H10 UNL     1      31.931  -6.292  30.644  1.00  0.00     0.168 HD
BRANCH  33  40
HETATM   40  N8  UNL     1      31.667  -1.402  29.822  1.00  0.00    -0.383 N 
ATOM     41  H82 UNL     1      32.177  -1.012  29.029  1.00  0.00     0.157 HD
ATOM     42  H81 UNL     1      31.114  -0.822  30.452  1.00  0.00     0.157 HD
ENDBRANCH  33  40
ENDBRANCH  24  28
ENDBRANCH  18  19
ENDBRANCH  16  18
ENDBRANCH   7  14
BRANCH  10  43
HETATM   43  C15 UNL     1      25.119 -13.786  27.149  1.00  0.00     0.287 C 
BRANCH  43  44
HETATM   44  O4  UNL     1      26.144 -14.596  26.714  1.00  0.00    -0.369 OA
ATOM     45  H4  UNL     1      25.911 -15.072  25.926  1.00  0.00     0.212 HD
ENDBRANCH  43  44
BRANCH  43  46
HETATM   46  O5  UNL     1      24.793 -14.052  28.496  1.00  0.00    -0.369 OA
ATOM     47  H5  UNL     1      24.651 -14.988  28.574  1.00  0.00     0.212 HD
ENDBRANCH  43  46
ENDBRANCH  10  43
ENDBRANCH   3   5
TORSDOF 10
ENDMDL
