MODEL 1
REMARK VINA RESULT: -8.923983618      0.000      0.000
REMARK  13 active torsions:
REMARK  status: ('A' for Active; 'I' for Inactive)
REMARK    1  A    between atoms: O1_2  and  C2_3 
REMARK    2  A    between atoms: C2_3  and  C3_5 
REMARK    3  A    between atoms: C5_8  and  O4_9 
REMARK    4  A    between atoms: N1_12  and  N2_13 
REMARK    5  A    between atoms: N2_13  and  C7_15 
REMARK    6  A    between atoms: C7_15  and  O5_16 
REMARK       I    between atoms: N4_21  and  C9_22 
REMARK    7  A    between atoms: N5_25  and  N6_26 
REMARK    8  A    between atoms: N6_26  and  N7_27 
REMARK    9  A    between atoms: C11_30  and  C12_31 
REMARK   10  A    between atoms: C12_31  and  O7_32 
REMARK   11  A    between atoms: C12_31  and  O8_34 
REMARK   12  A    between atoms: C13_36  and  C14_37 
REMARK   13  A    between atoms: C14_37  and  O9_38 
ROOT
HETATM    1  C3  UNL     1      27.344 -12.280  24.924  1.00  0.00     0.124 C 
HETATM    2  C4  UNL     1      26.306 -11.729  23.985  1.00  0.00     0.198 C 
HETATM    3  O3  UNL     1      25.984 -10.514  24.537  1.00  0.00    -0.358 OA
HETATM    4  C5  UNL     1      27.146  -9.967  25.062  1.00  0.00     0.283 C 
HETATM    5  C6  UNL     1      28.196 -11.048  25.114  1.00  0.00     0.188 C 
HETATM    6  N1  UNL     1      28.691 -11.295  26.443  1.00  0.00    -0.278 N 
HETATM    7  C11 UNL     1      27.629 -11.947  27.156  1.00  0.00     0.089 C 
HETATM    8  C13 UNL     1      26.828 -12.529  26.302  1.00  0.00    -0.005 C 
ENDROOT
BRANCH   6   9
HETATM    9  N2  UNL     1      29.946 -10.958  26.915  1.00  0.00    -0.274 N 
ATOM     10  H2  UNL     1      30.628 -11.699  27.071  1.00  0.00     0.189 HD
BRANCH   9  11
HETATM   11  C7  UNL     1      30.319  -9.608  27.191  1.00  0.00     0.205 C 
HETATM   12  C8  UNL     1      31.207  -8.981  26.413  1.00  0.00     0.214 A 
HETATM   13  N3  UNL     1      31.982  -9.267  25.271  1.00  0.00    -0.254 N 
HETATM   14  N5  UNL     1      31.778  -7.684  26.409  1.00  0.00    -0.134 N 
HETATM   15  N4  UNL     1      32.532  -7.992  25.282  1.00  0.00    -0.138 N 
ATOM     16  H3  UNL     1      32.095 -10.086  24.674  1.00  0.00     0.191 HD
HETATM   17  C9  UNL     1      33.481  -7.294  24.465  1.00  0.00     0.255 C 
HETATM   18  C10 UNL     1      33.847  -5.896  24.776  1.00  0.00     0.121 C 
HETATM   19  O6  UNL     1      34.015  -7.849  23.480  1.00  0.00    -0.270 OA
BRANCH  11  20
HETATM   20  O5  UNL     1      29.764  -8.960  28.256  1.00  0.00    -0.342 OA
ATOM     21  H5  UNL     1      30.244  -8.257  28.678  1.00  0.00     0.219 HD
ENDBRANCH  11  20
BRANCH  14  22
HETATM   22  N6  UNL     1      31.646  -6.551  27.206  1.00  0.00    -0.003 NA
BRANCH  22  23
HETATM   23  N7  UNL     1      30.412  -5.956  26.918  1.00  0.00    -0.327 N 
ATOM     24  H72 UNL     1      29.653  -6.399  26.399  1.00  0.00     0.174 HD
ATOM     25  H71 UNL     1      30.411  -5.017  27.315  1.00  0.00     0.174 HD
ENDBRANCH  22  23
ENDBRANCH  14  22
ENDBRANCH   9  11
ENDBRANCH   6   9
BRANCH   7  26
HETATM   26  C12 UNL     1      27.570 -11.895  28.656  1.00  0.00     0.307 C 
BRANCH  26  27
HETATM   27  O7  UNL     1      28.648 -12.398  29.310  1.00  0.00    -0.366 OA
ATOM     28  H7  UNL     1      28.845 -13.312  29.146  1.00  0.00     0.213 HD
ENDBRANCH  26  27
BRANCH  26  29
HETATM   29  O8  UNL     1      27.474 -10.538  29.070  1.00  0.00    -0.366 OA
ATOM     30  H8  UNL     1      26.599 -10.218  28.888  1.00  0.00     0.213 HD
ENDBRANCH  26  29
ENDBRANCH   7  26
BRANCH   1  31
HETATM   31  C2  UNL     1      28.092 -13.408  24.393  1.00  0.00     0.276 C 
HETATM   32  O2  UNL     1      29.058 -13.217  23.629  1.00  0.00    -0.264 OA
BRANCH  31  33
HETATM   33  O1  UNL     1      27.742 -14.696  24.728  1.00  0.00    -0.326 OA
HETATM   34  C1  UNL     1      27.341 -15.647  23.769  1.00  0.00     0.213 C 
ENDBRANCH  31  33
ENDBRANCH   1  31
BRANCH   4  35
HETATM   35  O4  UNL     1      26.827  -9.476  26.336  1.00  0.00    -0.369 OA
ATOM     36  H4  UNL     1      27.122 -10.126  26.963  1.00  0.00     0.212 HD
ENDBRANCH   4  35
BRANCH   8  37
HETATM   37  C14 UNL     1      25.596 -13.335  26.547  1.00  0.00     0.202 C 
BRANCH  37  38
HETATM   38  O9  UNL     1      25.907 -14.666  26.914  1.00  0.00    -0.397 OA
ATOM     39  H9  UNL     1      26.035 -14.750  27.852  1.00  0.00     0.209 HD
ENDBRANCH  37  38
ENDBRANCH   8  37
TORSDOF 13
ENDMDL
MODEL 2
REMARK VINA RESULT: -8.612276918      1.418      1.988
REMARK  13 active torsions:
REMARK  status: ('A' for Active; 'I' for Inactive)
REMARK    1  A    between atoms: O1_2  and  C2_3 
REMARK    2  A    between atoms: C2_3  and  C3_5 
REMARK    3  A    between atoms: C5_8  and  O4_9 
REMARK    4  A    between atoms: N1_12  and  N2_13 
REMARK    5  A    between atoms: N2_13  and  C7_15 
REMARK    6  A    between atoms: C7_15  and  O5_16 
REMARK       I    between atoms: N4_21  and  C9_22 
REMARK    7  A    between atoms: N5_25  and  N6_26 
REMARK    8  A    between atoms: N6_26  and  N7_27 
REMARK    9  A    between atoms: C11_30  and  C12_31 
REMARK   10  A    between atoms: C12_31  and  O7_32 
REMARK   11  A    between atoms: C12_31  and  O8_34 
REMARK   12  A    between atoms: C13_36  and  C14_37 
REMARK   13  A    between atoms: C14_37  and  O9_38 
ROOT
HETATM    1  C3  UNL     1      27.201 -12.581  25.223  1.00  0.00     0.124 C 
HETATM    2  C4  UNL     1      26.299 -12.079  24.127  1.00  0.00     0.198 C 
HETATM    3  O3  UNL     1      26.013 -10.792  24.510  1.00  0.00    -0.358 OA
HETATM    4  C5  UNL     1      27.156 -10.259  25.090  1.00  0.00     0.283 C 
HETATM    5  C6  UNL     1      28.116 -11.389  25.366  1.00  0.00     0.188 C 
HETATM    6  N1  UNL     1      28.462 -11.512  26.758  1.00  0.00    -0.278 N 
HETATM    7  C11 UNL     1      27.293 -12.014  27.424  1.00  0.00     0.089 C 
HETATM    8  C13 UNL     1      26.538 -12.640  26.559  1.00  0.00    -0.005 C 
ENDROOT
BRANCH   6   9
HETATM    9  N2  UNL     1      29.687 -11.200  27.318  1.00  0.00    -0.274 N 
ATOM     10  H2  UNL     1      29.857 -11.439  28.295  1.00  0.00     0.189 HD
BRANCH   9  11
HETATM   11  C7  UNL     1      30.722 -10.554  26.577  1.00  0.00     0.205 C 
HETATM   12  C8  UNL     1      30.799  -9.221  26.547  1.00  0.00     0.214 A 
HETATM   13  N3  UNL     1      30.099  -8.121  27.080  1.00  0.00    -0.254 N 
HETATM   14  N5  UNL     1      31.674  -8.293  25.928  1.00  0.00    -0.134 N 
HETATM   15  N4  UNL     1      30.964  -7.226  26.466  1.00  0.00    -0.138 N 
ATOM     16  H3  UNL     1      29.279  -8.020  27.679  1.00  0.00     0.191 HD
HETATM   17  C9  UNL     1      31.073  -5.797  26.416  1.00  0.00     0.255 C 
HETATM   18  C10 UNL     1      32.157  -5.158  25.639  1.00  0.00     0.121 C 
HETATM   19  O6  UNL     1      30.260  -5.067  27.023  1.00  0.00    -0.270 OA
BRANCH  11  20
HETATM   20  O5  UNL     1      31.633 -11.309  25.896  1.00  0.00    -0.342 OA
ATOM     21  H5  UNL     1      31.497 -11.487  24.973  1.00  0.00     0.219 HD
ENDBRANCH  11  20
BRANCH  14  22
HETATM   22  N6  UNL     1      32.794  -8.397  25.109  1.00  0.00    -0.003 NA
BRANCH  22  23
HETATM   23  N7  UNL     1      32.502  -9.303  24.082  1.00  0.00    -0.327 N 
ATOM     24  H72 UNL     1      33.146 -10.006  23.719  1.00  0.00     0.174 HD
ATOM     25  H71 UNL     1      31.546  -9.133  23.771  1.00  0.00     0.174 HD
ENDBRANCH  22  23
ENDBRANCH  14  22
ENDBRANCH   9  11
ENDBRANCH   6   9
BRANCH   7  26
HETATM   26  C12 UNL     1      27.094 -11.788  28.895  1.00  0.00     0.307 C 
BRANCH  26  27
HETATM   27  O7  UNL     1      27.936 -12.463  29.719  1.00  0.00    -0.366 OA
ATOM     28  H7  UNL     1      28.861 -12.271  29.616  1.00  0.00     0.213 HD
ENDBRANCH  26  27
BRANCH  26  29
HETATM   29  O8  UNL     1      27.303 -10.412  29.186  1.00  0.00    -0.366 OA
ATOM     30  H8  UNL     1      27.170  -9.902  28.396  1.00  0.00     0.213 HD
ENDBRANCH  26  29
ENDBRANCH   7  26
BRANCH   1  31
HETATM   31  C2  UNL     1      27.914 -13.805  24.896  1.00  0.00     0.276 C 
HETATM   32  O2  UNL     1      29.160 -13.823  24.889  1.00  0.00    -0.264 OA
BRANCH  31  33
HETATM   33  O1  UNL     1      27.221 -14.955  24.591  1.00  0.00    -0.326 OA
HETATM   34  C1  UNL     1      27.605 -15.817  23.545  1.00  0.00     0.213 C 
ENDBRANCH  31  33
ENDBRANCH   1  31
BRANCH   4  35
HETATM   35  O4  UNL     1      26.752  -9.609  26.264  1.00  0.00    -0.369 OA
ATOM     36  H4  UNL     1      27.227 -10.012  26.981  1.00  0.00     0.212 HD
ENDBRANCH   4  35
BRANCH   8  37
HETATM   37  C14 UNL     1      25.234 -13.337  26.761  1.00  0.00     0.202 C 
BRANCH  37  38
HETATM   38  O9  UNL     1      25.392 -14.743  26.790  1.00  0.00    -0.397 OA
ATOM     39  H9  UNL     1      24.806 -15.175  26.179  1.00  0.00     0.209 HD
ENDBRANCH  37  38
ENDBRANCH   8  37
TORSDOF 13
ENDMDL
MODEL 3
REMARK VINA RESULT: -8.405017190      1.601      2.312
REMARK  13 active torsions:
REMARK  status: ('A' for Active; 'I' for Inactive)
REMARK    1  A    between atoms: O1_2  and  C2_3 
REMARK    2  A    between atoms: C2_3  and  C3_5 
REMARK    3  A    between atoms: C5_8  and  O4_9 
REMARK    4  A    between atoms: N1_12  and  N2_13 
REMARK    5  A    between atoms: N2_13  and  C7_15 
REMARK    6  A    between atoms: C7_15  and  O5_16 
REMARK       I    between atoms: N4_21  and  C9_22 
REMARK    7  A    between atoms: N5_25  and  N6_26 
REMARK    8  A    between atoms: N6_26  and  N7_27 
REMARK    9  A    between atoms: C11_30  and  C12_31 
REMARK   10  A    between atoms: C12_31  and  O7_32 
REMARK   11  A    between atoms: C12_31  and  O8_34 
REMARK   12  A    between atoms: C13_36  and  C14_37 
REMARK   13  A    between atoms: C14_37  and  O9_38 
ROOT
HETATM    1  C3  UNL     1      27.057 -12.191  25.223  1.00  0.00     0.124 C 
HETATM    2  C4  UNL     1      26.141 -11.511  24.243  1.00  0.00     0.198 C 
HETATM    3  O3  UNL     1      26.337 -10.175  24.491  1.00  0.00    -0.358 OA
HETATM    4  C5  UNL     1      27.681  -9.992  24.787  1.00  0.00     0.283 C 
HETATM    5  C6  UNL     1      28.296 -11.346  25.042  1.00  0.00     0.188 C 
HETATM    6  N1  UNL     1      28.870 -11.468  26.358  1.00  0.00    -0.278 N 
HETATM    7  C11 UNL     1      27.767 -11.520  27.277  1.00  0.00     0.089 C 
HETATM    8  C13 UNL     1      26.698 -11.935  26.649  1.00  0.00    -0.005 C 
ENDROOT
BRANCH   6   9
HETATM    9  N2  UNL     1      30.219 -11.522  26.650  1.00  0.00    -0.274 N 
ATOM     10  H2  UNL     1      30.549 -12.207  27.329  1.00  0.00     0.189 HD
BRANCH   9  11
HETATM   11  C7  UNL     1      31.168 -10.651  26.033  1.00  0.00     0.205 C 
HETATM   12  C8  UNL     1      31.095  -9.330  26.224  1.00  0.00     0.214 A 
HETATM   13  N3  UNL     1      30.281  -8.419  26.925  1.00  0.00    -0.254 N 
HETATM   14  N5  UNL     1      31.854  -8.221  25.774  1.00  0.00    -0.134 N 
HETATM   15  N4  UNL     1      31.035  -7.344  26.475  1.00  0.00    -0.138 N 
ATOM     16  H3  UNL     1      29.461  -8.511  27.526  1.00  0.00     0.191 HD
HETATM   17  C9  UNL     1      30.981  -5.923  26.662  1.00  0.00     0.255 C 
HETATM   18  C10 UNL     1      31.979  -5.047  26.010  1.00  0.00     0.121 C 
HETATM   19  O6  UNL     1      30.098  -5.399  27.374  1.00  0.00    -0.270 OA
BRANCH  11  20
HETATM   20  O5  UNL     1      32.151 -11.176  25.245  1.00  0.00    -0.342 OA
ATOM     21  H5  UNL     1      31.953 -11.416  24.348  1.00  0.00     0.219 HD
ENDBRANCH  11  20
BRANCH  14  22
HETATM   22  N6  UNL     1      32.970  -8.062  24.958  1.00  0.00    -0.003 NA
BRANCH  22  23
HETATM   23  N7  UNL     1      32.844  -8.935  23.871  1.00  0.00    -0.327 N 
ATOM     24  H72 UNL     1      32.009  -9.475  23.645  1.00  0.00     0.174 HD
ATOM     25  H71 UNL     1      33.725  -8.932  23.357  1.00  0.00     0.174 HD
ENDBRANCH  22  23
ENDBRANCH  14  22
ENDBRANCH   9  11
ENDBRANCH   6   9
BRANCH   7  26
HETATM   26  C12 UNL     1      27.954 -11.133  28.716  1.00  0.00     0.307 C 
BRANCH  26  27
HETATM   27  O7  UNL     1      28.649 -12.012  29.482  1.00  0.00    -0.366 OA
ATOM     28  H7  UNL     1      28.328 -12.135  30.368  1.00  0.00     0.213 HD
ENDBRANCH  26  27
BRANCH  26  29
HETATM   29  O8  UNL     1      28.687  -9.915  28.779  1.00  0.00    -0.366 OA
ATOM     30  H8  UNL     1      29.352  -9.917  28.101  1.00  0.00     0.213 HD
ENDBRANCH  26  29
ENDBRANCH   7  26
BRANCH   1  31
HETATM   31  C2  UNL     1      27.290 -13.599  24.947  1.00  0.00     0.276 C 
HETATM   32  O2  UNL     1      26.837 -14.472  25.713  1.00  0.00    -0.264 OA
BRANCH  31  33
HETATM   33  O1  UNL     1      28.010 -13.982  23.838  1.00  0.00    -0.326 OA
HETATM   34  C1  UNL     1      28.144 -15.330  23.450  1.00  0.00     0.213 C 
ENDBRANCH  31  33
ENDBRANCH   1  31
BRANCH   4  35
HETATM   35  O4  UNL     1      27.741  -9.161  25.914  1.00  0.00    -0.369 OA
ATOM     36  H4  UNL     1      28.473  -9.461  26.439  1.00  0.00     0.212 HD
ENDBRANCH   4  35
BRANCH   8  37
HETATM   37  C14 UNL     1      25.317 -12.163  27.166  1.00  0.00     0.202 C 
BRANCH  37  38
HETATM   38  O9  UNL     1      24.644 -10.943  27.414  1.00  0.00    -0.397 OA
ATOM     39  H9  UNL     1      24.264 -10.923  28.284  1.00  0.00     0.209 HD
ENDBRANCH  37  38
ENDBRANCH   8  37
TORSDOF 13
ENDMDL
MODEL 4
REMARK VINA RESULT: -8.347270619      1.779      2.455
REMARK  13 active torsions:
REMARK  status: ('A' for Active; 'I' for Inactive)
REMARK    1  A    between atoms: O1_2  and  C2_3 
REMARK    2  A    between atoms: C2_3  and  C3_5 
REMARK    3  A    between atoms: C5_8  and  O4_9 
REMARK    4  A    between atoms: N1_12  and  N2_13 
REMARK    5  A    between atoms: N2_13  and  C7_15 
REMARK    6  A    between atoms: C7_15  and  O5_16 
REMARK       I    between atoms: N4_21  and  C9_22 
REMARK    7  A    between atoms: N5_25  and  N6_26 
REMARK    8  A    between atoms: N6_26  and  N7_27 
REMARK    9  A    between atoms: C11_30  and  C12_31 
REMARK   10  A    between atoms: C12_31  and  O7_32 
REMARK   11  A    between atoms: C12_31  and  O8_34 
REMARK   12  A    between atoms: C13_36  and  C14_37 
REMARK   13  A    between atoms: C14_37  and  O9_38 
ROOT
HETATM    1  C3  UNL     1      27.963 -11.668  24.636  1.00  0.00     0.124 C 
HETATM    2  C4  UNL     1      26.868 -11.181  23.725  1.00  0.00     0.198 C 
HETATM    3  O3  UNL     1      26.522  -9.964  24.259  1.00  0.00    -0.358 OA
HETATM    4  C5  UNL     1      27.683  -9.360  24.723  1.00  0.00     0.283 C 
HETATM    5  C6  UNL     1      28.774 -10.401  24.760  1.00  0.00     0.188 C 
HETATM    6  N1  UNL     1      29.330 -10.593  26.074  1.00  0.00    -0.278 N 
HETATM    7  C11 UNL     1      28.321 -11.266  26.845  1.00  0.00     0.089 C 
HETATM    8  C13 UNL     1      27.510 -11.899  26.039  1.00  0.00    -0.005 C 
ENDROOT
BRANCH   6   9
HETATM    9  N2  UNL     1      30.588 -10.198  26.487  1.00  0.00    -0.274 N 
ATOM     10  H2  UNL     1      31.064 -10.743  27.206  1.00  0.00     0.189 HD
BRANCH   9  11
HETATM   11  C7  UNL     1      31.245  -9.054  25.941  1.00  0.00     0.205 C 
HETATM   12  C8  UNL     1      31.111  -7.858  26.522  1.00  0.00     0.214 A 
HETATM   13  N3  UNL     1      30.447  -7.305  27.635  1.00  0.00    -0.254 N 
HETATM   14  N5  UNL     1      31.611  -6.562  26.246  1.00  0.00    -0.134 N 
HETATM   15  N4  UNL     1      30.946  -6.042  27.350  1.00  0.00    -0.138 N 
ATOM     16  H3  UNL     1      29.840  -7.683  28.363  1.00  0.00     0.191 HD
HETATM   17  C9  UNL     1      30.821  -4.746  27.951  1.00  0.00     0.255 C 
HETATM   18  C10 UNL     1      31.514  -3.580  27.362  1.00  0.00     0.121 C 
HETATM   19  O6  UNL     1      30.129  -4.577  28.979  1.00  0.00    -0.270 OA
BRANCH  11  20
HETATM   20  O5  UNL     1      32.011  -9.189  24.820  1.00  0.00    -0.342 OA
ATOM     21  H5  UNL     1      31.981  -8.517  24.149  1.00  0.00     0.219 HD
ENDBRANCH  11  20
BRANCH  14  22
HETATM   22  N6  UNL     1      32.436  -6.016  25.267  1.00  0.00    -0.003 NA
BRANCH  22  23
HETATM   23  N7  UNL     1      33.644  -6.723  25.270  1.00  0.00    -0.327 N 
ATOM     24  H72 UNL     1      34.422  -6.555  25.908  1.00  0.00     0.174 HD
ATOM     25  H71 UNL     1      33.605  -7.424  24.530  1.00  0.00     0.174 HD
ENDBRANCH  22  23
ENDBRANCH  14  22
ENDBRANCH   9  11
ENDBRANCH   6   9
BRANCH   7  26
HETATM   26  C12 UNL     1      28.320 -11.176  28.344  1.00  0.00     0.307 C 
BRANCH  26  27
HETATM   27  O7  UNL     1      29.144 -12.039  28.992  1.00  0.00    -0.366 OA
ATOM     28  H7  UNL     1      29.655 -11.671  29.703  1.00  0.00     0.213 HD
ENDBRANCH  26  27
BRANCH  26  29
HETATM   29  O8  UNL     1      28.751  -9.877  28.733  1.00  0.00    -0.366 OA
ATOM     30  H8  UNL     1      29.212  -9.938  29.562  1.00  0.00     0.213 HD
ENDBRANCH  26  29
ENDBRANCH   7  26
BRANCH   1  31
HETATM   31  C2  UNL     1      28.732 -12.782  24.103  1.00  0.00     0.276 C 
HETATM   32  O2  UNL     1      29.479 -12.615  23.120  1.00  0.00    -0.264 OA
BRANCH  31  33
HETATM   33  O1  UNL     1      28.641 -14.028  24.679  1.00  0.00    -0.326 OA
HETATM   34  C1  UNL     1      28.050 -15.126  24.023  1.00  0.00     0.213 C 
ENDBRANCH  31  33
ENDBRANCH   1  31
BRANCH   4  35
HETATM   35  O4  UNL     1      27.395  -8.849  25.996  1.00  0.00    -0.369 OA
ATOM     36  H4  UNL     1      27.399  -7.902  25.920  1.00  0.00     0.212 HD
ENDBRANCH   4  35
BRANCH   8  37
HETATM   37  C14 UNL     1      26.320 -12.743  26.354  1.00  0.00     0.202 C 
BRANCH  37  38
HETATM   38  O9  UNL     1      26.690 -13.948  26.998  1.00  0.00    -0.397 OA
ATOM     39  H9  UNL     1      25.957 -14.338  27.459  1.00  0.00     0.209 HD
ENDBRANCH  37  38
ENDBRANCH   8  37
TORSDOF 13
ENDMDL
MODEL 5
REMARK VINA RESULT: -8.326368509      1.608      2.350
REMARK  13 active torsions:
REMARK  status: ('A' for Active; 'I' for Inactive)
REMARK    1  A    between atoms: O1_2  and  C2_3 
REMARK    2  A    between atoms: C2_3  and  C3_5 
REMARK    3  A    between atoms: C5_8  and  O4_9 
REMARK    4  A    between atoms: N1_12  and  N2_13 
REMARK    5  A    between atoms: N2_13  and  C7_15 
REMARK    6  A    between atoms: C7_15  and  O5_16 
REMARK       I    between atoms: N4_21  and  C9_22 
REMARK    7  A    between atoms: N5_25  and  N6_26 
REMARK    8  A    between atoms: N6_26  and  N7_27 
REMARK    9  A    between atoms: C11_30  and  C12_31 
REMARK   10  A    between atoms: C12_31  and  O7_32 
REMARK   11  A    between atoms: C12_31  and  O8_34 
REMARK   12  A    between atoms: C13_36  and  C14_37 
REMARK   13  A    between atoms: C14_37  and  O9_38 
ROOT
HETATM    1  C3  UNL     1      27.363 -12.250  24.830  1.00  0.00     0.124 C 
HETATM    2  C4  UNL     1      26.248 -11.730  23.964  1.00  0.00     0.198 C 
HETATM    3  O3  UNL     1      26.048 -10.453  24.428  1.00  0.00    -0.358 OA
HETATM    4  C5  UNL     1      27.288  -9.926  24.763  1.00  0.00     0.283 C 
HETATM    5  C6  UNL     1      28.286 -11.055  24.802  1.00  0.00     0.188 C 
HETATM    6  N1  UNL     1      28.922 -11.206  26.085  1.00  0.00    -0.278 N 
HETATM    7  C11 UNL     1      27.922 -11.731  26.973  1.00  0.00     0.089 C 
HETATM    8  C13 UNL     1      27.001 -12.343  26.275  1.00  0.00    -0.005 C 
ENDROOT
BRANCH   6   9
HETATM    9  N2  UNL     1      30.237 -10.899  26.378  1.00  0.00    -0.274 N 
ATOM     10  H2  UNL     1      30.809 -11.592  26.861  1.00  0.00     0.189 HD
BRANCH   9  11
HETATM   11  C7  UNL     1      30.823  -9.645  26.029  1.00  0.00     0.205 C 
HETATM   12  C8  UNL     1      30.978  -8.692  26.952  1.00  0.00     0.214 A 
HETATM   13  N3  UNL     1      30.716  -8.513  28.325  1.00  0.00    -0.254 N 
HETATM   14  N5  UNL     1      31.507  -7.377  26.939  1.00  0.00    -0.134 N 
HETATM   15  N4  UNL     1      31.237  -7.227  28.294  1.00  0.00    -0.138 N 
ATOM     16  H3  UNL     1      30.305  -9.098  29.053  1.00  0.00     0.191 HD
HETATM   17  C9  UNL     1      31.416  -6.186  29.263  1.00  0.00     0.255 C 
HETATM   18  C10 UNL     1      32.027  -4.898  28.870  1.00  0.00     0.121 C 
HETATM   19  O6  UNL     1      31.064  -6.344  30.452  1.00  0.00    -0.270 OA
BRANCH  11  20
HETATM   20  O5  UNL     1      31.223  -9.425  24.743  1.00  0.00    -0.342 OA
ATOM     21  H5  UNL     1      30.636  -9.637  24.027  1.00  0.00     0.219 HD
ENDBRANCH  11  20
BRANCH  14  22
HETATM   22  N6  UNL     1      32.070  -6.556  25.967  1.00  0.00    -0.003 NA
BRANCH  22  23
HETATM   23  N7  UNL     1      33.296  -7.113  25.582  1.00  0.00    -0.327 N 
ATOM     24  H72 UNL     1      34.205  -6.853  25.965  1.00  0.00     0.174 HD
ATOM     25  H71 UNL     1      33.115  -7.812  24.862  1.00  0.00     0.174 HD
ENDBRANCH  22  23
ENDBRANCH  14  22
ENDBRANCH   9  11
ENDBRANCH   6   9
BRANCH   7  26
HETATM   26  C12 UNL     1      28.041 -11.538  28.457  1.00  0.00     0.307 C 
BRANCH  26  27
HETATM   27  O7  UNL     1      29.013 -12.259  29.074  1.00  0.00    -0.366 OA
ATOM     28  H7  UNL     1      29.449 -12.912  28.539  1.00  0.00     0.213 HD
ENDBRANCH  26  27
BRANCH  26  29
HETATM   29  O8  UNL     1      28.352 -10.177  28.726  1.00  0.00    -0.366 OA
ATOM     30  H8  UNL     1      27.545  -9.681  28.796  1.00  0.00     0.213 HD
ENDBRANCH  26  29
ENDBRANCH   7  26
BRANCH   1  31
HETATM   31  C2  UNL     1      27.993 -13.462  24.331  1.00  0.00     0.276 C 
HETATM   32  O2  UNL     1      28.979 -13.390  23.572  1.00  0.00    -0.264 OA
BRANCH  31  33
HETATM   33  O1  UNL     1      27.506 -14.698  24.690  1.00  0.00    -0.326 OA
HETATM   34  C1  UNL     1      27.281 -15.726  23.753  1.00  0.00     0.213 C 
ENDBRANCH  31  33
ENDBRANCH   1  31
BRANCH   4  35
HETATM   35  O4  UNL     1      27.142  -9.304  26.011  1.00  0.00    -0.369 OA
ATOM     36  H4  UNL     1      26.240  -9.012  26.070  1.00  0.00     0.212 HD
ENDBRANCH   4  35
BRANCH   8  37
HETATM   37  C14 UNL     1      25.771 -13.053  26.734  1.00  0.00     0.202 C 
BRANCH  37  38
HETATM   38  O9  UNL     1      26.065 -14.353  27.209  1.00  0.00    -0.397 OA
ATOM     39  H9  UNL     1      25.482 -14.608  27.914  1.00  0.00     0.209 HD
ENDBRANCH  37  38
ENDBRANCH   8  37
TORSDOF 13
ENDMDL
