MODEL 1
REMARK VINA RESULT: -8.674127028      0.000      0.000
REMARK  11 active torsions:
REMARK  status: ('A' for Active; 'I' for Inactive)
REMARK       I    between atoms: N1_2  and  C2_4 
REMARK    1  A    between atoms: C2_4  and  C3_6 
REMARK    2  A    between atoms: C3_6  and  O2_7 
REMARK    3  A    between atoms: C3_6  and  C4_9 
REMARK    4  A    between atoms: C4_9  and  O3_10 
REMARK    5  A    between atoms: O3_10  and  C5_11 
REMARK    6  A    between atoms: C5_11  and  C6_12 
REMARK    7  A    between atoms: C7_14  and  N2_15 
REMARK    8  A    between atoms: C10_20  and  N4_21 
REMARK    9  A    between atoms: C11_26  and  N6_27 
REMARK   10  A    between atoms: N8_33  and  C13_34 
REMARK   11  A    between atoms: N12_39  and  N13_40 
ROOT
HETATM    1  C6  UNL     1      26.996 -10.612  26.130  1.00  0.00     0.273 C 
HETATM    2  O4  UNL     1      27.352  -9.249  26.001  1.00  0.00    -0.320 OA
HETATM    3  C7  UNL     1      28.509  -9.677  25.378  1.00  0.00     0.362 C 
HETATM    4  N8  UNL     1      27.950 -10.986  25.134  1.00  0.00    -0.140 N 
ENDROOT
BRANCH   3   5
HETATM    5  N2  UNL     1      29.625  -9.645  26.277  1.00  0.00    -0.281 N 
HETATM    6  C8  UNL     1      30.269 -10.655  26.893  1.00  0.00     0.189 A 
HETATM    7  N3  UNL     1      31.258 -10.132  27.645  1.00  0.00    -0.346 N 
HETATM    8  C9  UNL     1      31.257  -8.789  27.519  1.00  0.00     0.123 A 
ATOM      9  H3  UNL     1      31.906 -10.669  28.221  1.00  0.00     0.167 HD
HETATM   10  C10 UNL     1      32.015  -7.760  28.036  1.00  0.00     0.145 A 
HETATM   11  C12 UNL     1      30.233  -8.489  26.662  1.00  0.00     0.158 A 
HETATM   12  N5  UNL     1      31.735  -6.491  27.691  1.00  0.00    -0.175 N 
HETATM   13  C11 UNL     1      30.728  -6.182  26.847  1.00  0.00     0.679 A 
ATOM     14  H5  UNL     1      32.302  -5.737  28.079  1.00  0.00     0.186 HD
HETATM   15  N7  UNL     1      30.001  -7.201  26.354  1.00  0.00    -0.174 N 
ATOM     16  H7  UNL     1      29.236  -6.986  25.715  1.00  0.00     0.186 HD
BRANCH  10  17
HETATM   17  N4  UNL     1      32.986  -8.013  28.845  1.00  0.00    -0.383 N 
ATOM     18  H42 UNL     1      32.854  -8.667  29.616  1.00  0.00     0.157 HD
ATOM     19  H41 UNL     1      33.891  -7.560  28.718  1.00  0.00     0.157 HD
ENDBRANCH  10  17
BRANCH  13  20
HETATM   20  N6  UNL     1      30.483  -4.935  26.532  1.00  0.00    -0.234 N 
ATOM     21  H62 UNL     1      30.396  -4.203  27.238  1.00  0.00     0.174 HD
ATOM     22  H61 UNL     1      30.372  -4.659  25.557  1.00  0.00     0.174 HD
ENDBRANCH  13  20
ENDBRANCH   3   5
BRANCH   4  23
HETATM   23  C13 UNL     1      28.308 -12.042  24.265  1.00  0.00     0.733 C 
HETATM   24  N9  UNL     1      28.970 -11.967  23.152  1.00  0.00    -0.115 N 
HETATM   25  N10 UNL     1      29.135 -13.203  22.569  1.00  0.00     0.008 NA
ATOM     26  H9  UNL     1      29.326 -11.097  22.757  1.00  0.00     0.203 HD
HETATM   27  N11 UNL     1      28.810 -14.178  23.512  1.00  0.00     0.030 NA
HETATM   28  N12 UNL     1      28.022 -13.435  24.416  1.00  0.00    -0.012 N 
BRANCH  28  29
HETATM   29  N13 UNL     1      27.127 -14.013  25.291  1.00  0.00    -0.311 N 
ATOM     30 2H13 UNL     1      27.009 -13.704  26.256  1.00  0.00     0.179 HD
ATOM     31 1H13 UNL     1      26.494 -14.791  25.103  1.00  0.00     0.179 HD
ENDBRANCH  28  29
ENDBRANCH   4  23
BRANCH   1  32
HETATM   32  C5  UNL     1      25.539 -10.750  25.742  1.00  0.00     0.222 C 
BRANCH  32  33
HETATM   33  O3  UNL     1      25.115 -11.996  26.205  1.00  0.00    -0.384 OA
BRANCH  33  34
HETATM   34  C4  UNL     1      24.649 -11.897  27.524  1.00  0.00     0.209 C 
BRANCH  34  35
HETATM   35  C3  UNL     1      24.991 -13.214  28.226  1.00  0.00     0.233 C 
BRANCH  35  36
HETATM   36  C2  UNL     1      26.443 -13.147  28.617  1.00  0.00     0.248 C 
HETATM   37  N1  UNL     1      26.953 -12.018  29.315  1.00  0.00    -0.363 N 
HETATM   38  C1  UNL     1      28.356 -12.020  29.659  1.00  0.00     0.149 C 
ATOM     39  H1  UNL     1      26.349 -11.235  29.564  1.00  0.00     0.162 HD
HETATM   40  O1  UNL     1      27.142 -14.127  28.291  1.00  0.00    -0.271 OA
ENDBRANCH  35  36
BRANCH  35  41
HETATM   41  O2  UNL     1      24.809 -14.293  27.398  1.00  0.00    -0.384 OA
ATOM     42  H2  UNL     1      23.923 -14.616  27.510  1.00  0.00     0.210 HD
ENDBRANCH  35  41
ENDBRANCH  34  35
ENDBRANCH  33  34
ENDBRANCH  32  33
ENDBRANCH   1  32
TORSDOF 11
ENDMDL
MODEL 2
REMARK VINA RESULT: -8.545487985      3.016      7.470
REMARK  11 active torsions:
REMARK  status: ('A' for Active; 'I' for Inactive)
REMARK       I    between atoms: N1_2  and  C2_4 
REMARK    1  A    between atoms: C2_4  and  C3_6 
REMARK    2  A    between atoms: C3_6  and  O2_7 
REMARK    3  A    between atoms: C3_6  and  C4_9 
REMARK    4  A    between atoms: C4_9  and  O3_10 
REMARK    5  A    between atoms: O3_10  and  C5_11 
REMARK    6  A    between atoms: C5_11  and  C6_12 
REMARK    7  A    between atoms: C7_14  and  N2_15 
REMARK    8  A    between atoms: C10_20  and  N4_21 
REMARK    9  A    between atoms: C11_26  and  N6_27 
REMARK   10  A    between atoms: N8_33  and  C13_34 
REMARK   11  A    between atoms: N12_39  and  N13_40 
ROOT
HETATM    1  C6  UNL     1      30.497  -8.367  27.631  1.00  0.00     0.273 C 
HETATM    2  O4  UNL     1      29.892  -9.331  28.469  1.00  0.00    -0.320 OA
HETATM    3  C7  UNL     1      29.890 -10.183  27.379  1.00  0.00     0.362 C 
HETATM    4  N8  UNL     1      30.867  -9.375  26.687  1.00  0.00    -0.140 N 
ENDROOT
BRANCH   3   5
HETATM    5  N2  UNL     1      28.595 -10.239  26.767  1.00  0.00    -0.281 N 
HETATM    6  C8  UNL     1      28.067  -9.477  25.791  1.00  0.00     0.189 A 
HETATM    7  N3  UNL     1      26.812  -9.908  25.547  1.00  0.00    -0.346 N 
HETATM    8  C9  UNL     1      26.528 -10.946  26.360  1.00  0.00     0.123 A 
ATOM      9  H3  UNL     1      26.177  -9.511  24.856  1.00  0.00     0.167 HD
HETATM   10  C10 UNL     1      25.434 -11.762  26.554  1.00  0.00     0.145 A 
HETATM   11  C12 UNL     1      27.647 -11.149  27.122  1.00  0.00     0.158 A 
HETATM   12  N5  UNL     1      25.487 -12.735  27.481  1.00  0.00    -0.175 N 
HETATM   13  C11 UNL     1      26.585 -12.946  28.239  1.00  0.00     0.679 A 
ATOM     14  H5  UNL     1      24.672 -13.333  27.616  1.00  0.00     0.186 HD
HETATM   15  N7  UNL     1      27.640 -12.138  28.034  1.00  0.00    -0.174 N 
ATOM     16  H7  UNL     1      28.478 -12.282  28.598  1.00  0.00     0.186 HD
BRANCH  10  17
HETATM   17  N4  UNL     1      24.367 -11.594  25.851  1.00  0.00    -0.383 N 
ATOM     18  H42 UNL     1      23.525 -12.131  26.059  1.00  0.00     0.157 HD
ATOM     19  H41 UNL     1      24.359 -10.923  25.083  1.00  0.00     0.157 HD
ENDBRANCH  10  17
BRANCH  13  20
HETATM   20  N6  UNL     1      26.602 -13.902  29.133  1.00  0.00    -0.234 N 
ATOM     21  H62 UNL     1      25.997 -14.720  29.065  1.00  0.00     0.174 HD
ATOM     22  H61 UNL     1      27.233 -13.852  29.932  1.00  0.00     0.174 HD
ENDBRANCH  13  20
ENDBRANCH   3   5
BRANCH   4  23
HETATM   23  C13 UNL     1      31.719  -9.622  25.587  1.00  0.00     0.733 C 
HETATM   24  N9  UNL     1      31.871 -10.731  24.931  1.00  0.00    -0.115 N 
HETATM   25  N10 UNL     1      32.790 -10.604  23.915  1.00  0.00     0.008 NA
ATOM     26  H9  UNL     1      31.368 -11.593  25.144  1.00  0.00     0.203 HD
HETATM   27  N11 UNL     1      33.036  -9.246  23.715  1.00  0.00     0.030 NA
HETATM   28  N12 UNL     1      32.608  -8.704  24.946  1.00  0.00    -0.012 N 
BRANCH  28  29
HETATM   29  N13 UNL     1      33.016  -7.473  25.411  1.00  0.00    -0.311 N 
ATOM     30 2H13 UNL     1      33.658  -7.357  26.196  1.00  0.00     0.179 HD
ATOM     31 1H13 UNL     1      32.746  -6.556  25.054  1.00  0.00     0.179 HD
ENDBRANCH  28  29
ENDBRANCH   4  23
BRANCH   1  32
HETATM   32  C5  UNL     1      31.633  -7.728  28.402  1.00  0.00     0.222 C 
BRANCH  32  33
HETATM   33  O3  UNL     1      31.894  -6.502  27.793  1.00  0.00    -0.384 OA
BRANCH  33  34
HETATM   34  C4  UNL     1      31.514  -5.444  28.632  1.00  0.00     0.209 C 
BRANCH  34  35
HETATM   35  C3  UNL     1      30.680  -4.474  27.792  1.00  0.00     0.233 C 
BRANCH  35  36
HETATM   36  C2  UNL     1      31.087  -4.665  26.355  1.00  0.00     0.248 C 
HETATM   37  N1  UNL     1      32.263  -4.046  25.849  1.00  0.00    -0.363 N 
HETATM   38  C1  UNL     1      32.595  -4.271  24.461  1.00  0.00     0.149 C 
ATOM     39  H1  UNL     1      32.851  -3.463  26.444  1.00  0.00     0.162 HD
HETATM   40  O1  UNL     1      30.338  -5.385  25.665  1.00  0.00    -0.271 OA
ENDBRANCH  35  36
BRANCH  35  41
HETATM   41  O2  UNL     1      30.913  -3.169  28.144  1.00  0.00    -0.384 OA
ATOM     42  H2  UNL     1      31.430  -2.758  27.461  1.00  0.00     0.210 HD
ENDBRANCH  35  41
ENDBRANCH  34  35
ENDBRANCH  33  34
ENDBRANCH  32  33
ENDBRANCH   1  32
TORSDOF 11
ENDMDL
MODEL 3
REMARK VINA RESULT: -8.516345603      2.890      7.357
REMARK  11 active torsions:
REMARK  status: ('A' for Active; 'I' for Inactive)
REMARK       I    between atoms: N1_2  and  C2_4 
REMARK    1  A    between atoms: C2_4  and  C3_6 
REMARK    2  A    between atoms: C3_6  and  O2_7 
REMARK    3  A    between atoms: C3_6  and  C4_9 
REMARK    4  A    between atoms: C4_9  and  O3_10 
REMARK    5  A    between atoms: O3_10  and  C5_11 
REMARK    6  A    between atoms: C5_11  and  C6_12 
REMARK    7  A    between atoms: C7_14  and  N2_15 
REMARK    8  A    between atoms: C10_20  and  N4_21 
REMARK    9  A    between atoms: C11_26  and  N6_27 
REMARK   10  A    between atoms: N8_33  and  C13_34 
REMARK   11  A    between atoms: N12_39  and  N13_40 
ROOT
HETATM    1  C6  UNL     1      30.441  -8.209  27.841  1.00  0.00     0.273 C 
HETATM    2  O4  UNL     1      29.952  -9.312  28.580  1.00  0.00    -0.320 OA
HETATM    3  C7  UNL     1      29.996 -10.036  27.403  1.00  0.00     0.362 C 
HETATM    4  N8  UNL     1      30.872  -9.069  26.784  1.00  0.00    -0.140 N 
ENDROOT
BRANCH   3   5
HETATM    5  N2  UNL     1      28.693 -10.149  26.814  1.00  0.00    -0.281 N 
HETATM    6  C8  UNL     1      28.125  -9.428  25.830  1.00  0.00     0.189 A 
HETATM    7  N3  UNL     1      26.881  -9.904  25.618  1.00  0.00    -0.346 N 
HETATM    8  C9  UNL     1      26.643 -10.930  26.461  1.00  0.00     0.123 A 
ATOM      9  H3  UNL     1      26.222  -9.545  24.928  1.00  0.00     0.167 HD
HETATM   10  C10 UNL     1      25.578 -11.775  26.694  1.00  0.00     0.145 A 
HETATM   11  C12 UNL     1      27.780 -11.079  27.208  1.00  0.00     0.158 A 
HETATM   12  N5  UNL     1      25.678 -12.722  27.644  1.00  0.00    -0.175 N 
HETATM   13  C11 UNL     1      26.794 -12.879  28.387  1.00  0.00     0.679 A 
ATOM     14  H5  UNL     1      24.885 -13.341  27.808  1.00  0.00     0.186 HD
HETATM   15  N7  UNL     1      27.820 -12.044  28.144  1.00  0.00    -0.174 N 
ATOM     16  H7  UNL     1      28.671 -12.148  28.696  1.00  0.00     0.186 HD
BRANCH  10  17
HETATM   17  N4  UNL     1      24.496 -11.658  26.006  1.00  0.00    -0.383 N 
ATOM     18  H42 UNL     1      24.128 -10.733  25.780  1.00  0.00     0.157 HD
ATOM     19  H41 UNL     1      24.000 -12.489  25.684  1.00  0.00     0.157 HD
ENDBRANCH  10  17
BRANCH  13  20
HETATM   20  N6  UNL     1      26.857 -13.812  29.304  1.00  0.00    -0.234 N 
ATOM     21  H62 UNL     1      26.490 -13.674  30.245  1.00  0.00     0.174 HD
ATOM     22  H61 UNL     1      27.280 -14.716  29.094  1.00  0.00     0.174 HD
ENDBRANCH  13  20
ENDBRANCH   3   5
BRANCH   4  23
HETATM   23  C13 UNL     1      31.709  -9.113  25.647  1.00  0.00     0.733 C 
HETATM   24  N9  UNL     1      32.558  -8.217  25.249  1.00  0.00    -0.115 N 
HETATM   25  N10 UNL     1      33.203  -8.599  24.094  1.00  0.00     0.008 NA
ATOM     26  H9  UNL     1      32.727  -7.335  25.733  1.00  0.00     0.203 HD
HETATM   27  N11 UNL     1      32.967  -9.958  23.891  1.00  0.00     0.030 NA
HETATM   28  N12 UNL     1      31.812 -10.158  24.676  1.00  0.00    -0.012 N 
BRANCH  28  29
HETATM   29  N13 UNL     1      30.948 -11.216  24.493  1.00  0.00    -0.311 N 
ATOM     30 2H13 UNL     1      30.045 -11.288  24.962  1.00  0.00     0.179 HD
ATOM     31 1H13 UNL     1      31.086 -12.031  23.895  1.00  0.00     0.179 HD
ENDBRANCH  28  29
ENDBRANCH   4  23
BRANCH   1  32
HETATM   32  C5  UNL     1      31.535  -7.553  28.655  1.00  0.00     0.222 C 
BRANCH  32  33
HETATM   33  O3  UNL     1      31.937  -6.419  27.951  1.00  0.00    -0.384 OA
BRANCH  33  34
HETATM   34  C4  UNL     1      31.623  -5.256  28.670  1.00  0.00     0.209 C 
BRANCH  34  35
HETATM   35  C3  UNL     1      30.716  -4.402  27.781  1.00  0.00     0.233 C 
BRANCH  35  36
HETATM   36  C2  UNL     1      31.083  -4.701  26.352  1.00  0.00     0.248 C 
HETATM   37  N1  UNL     1      32.306  -4.226  25.805  1.00  0.00    -0.363 N 
HETATM   38  C1  UNL     1      32.595  -4.550  24.427  1.00  0.00     0.149 C 
ATOM     39  H1  UNL     1      32.956  -3.675  26.365  1.00  0.00     0.162 HD
HETATM   40  O1  UNL     1      30.257  -5.377  25.706  1.00  0.00    -0.271 OA
ENDBRANCH  35  36
BRANCH  35  41
HETATM   41  O2  UNL     1      30.900  -3.061  28.009  1.00  0.00    -0.384 OA
ATOM     42  H2  UNL     1      31.736  -2.939  28.444  1.00  0.00     0.210 HD
ENDBRANCH  35  41
ENDBRANCH  34  35
ENDBRANCH  33  34
ENDBRANCH  32  33
ENDBRANCH   1  32
TORSDOF 11
ENDMDL
MODEL 4
REMARK VINA RESULT: -8.458788943      2.897      7.252
REMARK  11 active torsions:
REMARK  status: ('A' for Active; 'I' for Inactive)
REMARK       I    between atoms: N1_2  and  C2_4 
REMARK    1  A    between atoms: C2_4  and  C3_6 
REMARK    2  A    between atoms: C3_6  and  O2_7 
REMARK    3  A    between atoms: C3_6  and  C4_9 
REMARK    4  A    between atoms: C4_9  and  O3_10 
REMARK    5  A    between atoms: O3_10  and  C5_11 
REMARK    6  A    between atoms: C5_11  and  C6_12 
REMARK    7  A    between atoms: C7_14  and  N2_15 
REMARK    8  A    between atoms: C10_20  and  N4_21 
REMARK    9  A    between atoms: C11_26  and  N6_27 
REMARK   10  A    between atoms: N8_33  and  C13_34 
REMARK   11  A    between atoms: N12_39  and  N13_40 
ROOT
HETATM    1  C6  UNL     1      30.020  -8.695  27.764  1.00  0.00     0.273 C 
HETATM    2  O4  UNL     1      29.483  -9.664  28.644  1.00  0.00    -0.320 OA
HETATM    3  C7  UNL     1      29.441 -10.527  27.564  1.00  0.00     0.362 C 
HETATM    4  N8  UNL     1      30.359  -9.705  26.811  1.00  0.00    -0.140 N 
ENDROOT
BRANCH   3   5
HETATM    5  N2  UNL     1      28.116 -10.619  27.025  1.00  0.00    -0.281 N 
HETATM    6  C8  UNL     1      27.558  -9.966  25.988  1.00  0.00     0.189 A 
HETATM    7  N3  UNL     1      26.283 -10.386  25.859  1.00  0.00    -0.346 N 
HETATM    8  C9  UNL     1      26.015 -11.308  26.806  1.00  0.00     0.123 A 
ATOM      9  H3  UNL     1      25.624 -10.058  25.154  1.00  0.00     0.167 HD
HETATM   10  C10 UNL     1      24.912 -12.061  27.150  1.00  0.00     0.145 A 
HETATM   11  C12 UNL     1      27.165 -11.450  27.533  1.00  0.00     0.158 A 
HETATM   12  N5  UNL     1      24.989 -12.914  28.187  1.00  0.00    -0.175 N 
HETATM   13  C11 UNL     1      26.118 -13.064  28.912  1.00  0.00     0.679 A 
ATOM     14  H5  UNL     1      24.168 -13.467  28.433  1.00  0.00     0.186 HD
HETATM   15  N7  UNL     1      27.181 -12.319  28.559  1.00  0.00    -0.174 N 
ATOM     16  H7  UNL     1      28.042 -12.419  29.097  1.00  0.00     0.186 HD
BRANCH  10  17
HETATM   17  N4  UNL     1      23.816 -11.948  26.483  1.00  0.00    -0.383 N 
ATOM     18  H42 UNL     1      23.614 -11.091  25.968  1.00  0.00     0.157 HD
ATOM     19  H41 UNL     1      23.144 -12.716  26.466  1.00  0.00     0.157 HD
ENDBRANCH  10  17
BRANCH  13  20
HETATM   20  N6  UNL     1      26.157 -13.904  29.916  1.00  0.00    -0.234 N 
ATOM     21  H62 UNL     1      26.064 -14.911  29.785  1.00  0.00     0.174 HD
ATOM     22  H61 UNL     1      26.285 -13.566  30.869  1.00  0.00     0.174 HD
ENDBRANCH  13  20
ENDBRANCH   3   5
BRANCH   4  23
HETATM   23  C13 UNL     1      31.156  -9.944  25.668  1.00  0.00     0.733 C 
HETATM   24  N9  UNL     1      32.117  -9.210  25.201  1.00  0.00    -0.115 N 
HETATM   25  N10 UNL     1      32.673  -9.755  24.066  1.00  0.00     0.008 NA
ATOM     26  H9  UNL     1      32.424  -8.334  25.623  1.00  0.00     0.203 HD
HETATM   27  N11 UNL     1      32.237 -11.075  23.957  1.00  0.00     0.030 NA
HETATM   28  N12 UNL     1      31.083 -11.052  24.768  1.00  0.00    -0.012 N 
BRANCH  28  29
HETATM   29  N13 UNL     1      30.070 -11.982  24.667  1.00  0.00    -0.311 N 
ATOM     30 2H13 UNL     1      29.335 -11.932  23.962  1.00  0.00     0.179 HD
ATOM     31 1H13 UNL     1      29.924 -12.803  25.254  1.00  0.00     0.179 HD
ENDBRANCH  28  29
ENDBRANCH   4  23
BRANCH   1  32
HETATM   32  C5  UNL     1      31.181  -8.024  28.466  1.00  0.00     0.222 C 
BRANCH  32  33
HETATM   33  O3  UNL     1      31.772  -7.169  27.537  1.00  0.00    -0.384 OA
BRANCH  33  34
HETATM   34  C4  UNL     1      30.806  -6.344  26.942  1.00  0.00     0.209 C 
BRANCH  34  35
HETATM   35  C3  UNL     1      31.514  -5.062  26.498  1.00  0.00     0.233 C 
BRANCH  35  36
HETATM   36  C2  UNL     1      31.073  -3.964  27.429  1.00  0.00     0.248 C 
HETATM   37  N1  UNL     1      30.606  -4.269  28.737  1.00  0.00    -0.363 N 
HETATM   38  C1  UNL     1      30.199  -3.167  29.578  1.00  0.00     0.149 C 
ATOM     39  H1  UNL     1      30.558  -5.232  29.069  1.00  0.00     0.162 HD
HETATM   40  O1  UNL     1      31.148  -2.803  26.979  1.00  0.00    -0.271 OA
ENDBRANCH  35  36
BRANCH  35  41
HETATM   41  O2  UNL     1      31.172  -4.712  25.215  1.00  0.00    -0.384 OA
ATOM     42  H2  UNL     1      31.531  -5.358  24.619  1.00  0.00     0.210 HD
ENDBRANCH  35  41
ENDBRANCH  34  35
ENDBRANCH  33  34
ENDBRANCH  32  33
ENDBRANCH   1  32
TORSDOF 11
ENDMDL
MODEL 5
REMARK VINA RESULT: -8.412180130      2.743      3.603
REMARK  11 active torsions:
REMARK  status: ('A' for Active; 'I' for Inactive)
REMARK       I    between atoms: N1_2  and  C2_4 
REMARK    1  A    between atoms: C2_4  and  C3_6 
REMARK    2  A    between atoms: C3_6  and  O2_7 
REMARK    3  A    between atoms: C3_6  and  C4_9 
REMARK    4  A    between atoms: C4_9  and  O3_10 
REMARK    5  A    between atoms: O3_10  and  C5_11 
REMARK    6  A    between atoms: C5_11  and  C6_12 
REMARK    7  A    between atoms: C7_14  and  N2_15 
REMARK    8  A    between atoms: C10_20  and  N4_21 
REMARK    9  A    between atoms: C11_26  and  N6_27 
REMARK   10  A    between atoms: N8_33  and  C13_34 
REMARK   11  A    between atoms: N12_39  and  N13_40 
ROOT
HETATM    1  C6  UNL     1      28.378 -11.350  28.450  1.00  0.00     0.273 C 
HETATM    2  O4  UNL     1      28.358 -10.030  27.941  1.00  0.00    -0.320 OA
HETATM    3  C7  UNL     1      28.071 -10.580  26.706  1.00  0.00     0.362 C 
HETATM    4  N8  UNL     1      27.677 -11.835  27.303  1.00  0.00    -0.140 N 
ENDROOT
BRANCH   3   5
HETATM    5  N2  UNL     1      29.239 -10.634  25.878  1.00  0.00    -0.281 N 
HETATM    6  C8  UNL     1      29.603 -11.544  24.955  1.00  0.00     0.189 A 
HETATM    7  N3  UNL     1      30.790 -11.171  24.435  1.00  0.00    -0.346 N 
HETATM    8  C9  UNL     1      31.195 -10.024  25.017  1.00  0.00     0.123 A 
ATOM      9  H3  UNL     1      31.302 -11.678  23.713  1.00  0.00     0.167 HD
HETATM   10  C10 UNL     1      32.295  -9.201  24.891  1.00  0.00     0.145 A 
HETATM   11  C12 UNL     1      30.222  -9.693  25.920  1.00  0.00     0.158 A 
HETATM   12  N5  UNL     1      32.388  -8.097  25.652  1.00  0.00    -0.175 N 
HETATM   13  C11 UNL     1      31.434  -7.758  26.547  1.00  0.00     0.679 A 
ATOM     14  H5  UNL     1      33.205  -7.495  25.551  1.00  0.00     0.186 HD
HETATM   15  N7  UNL     1      30.371  -8.575  26.653  1.00  0.00    -0.174 N 
ATOM     16  H7  UNL     1      29.641  -8.335  27.324  1.00  0.00     0.186 HD
BRANCH  10  17
HETATM   17  N4  UNL     1      33.226  -9.489  24.049  1.00  0.00    -0.383 N 
ATOM     18  H42 UNL     1      33.417 -10.461  23.807  1.00  0.00     0.157 HD
ATOM     19  H41 UNL     1      33.778  -8.745  23.621  1.00  0.00     0.157 HD
ENDBRANCH  10  17
BRANCH  13  20
HETATM   20  N6  UNL     1      31.557  -6.675  27.272  1.00  0.00    -0.234 N 
ATOM     21  H62 UNL     1      31.336  -5.749  26.907  1.00  0.00     0.174 HD
ATOM     22  H61 UNL     1      31.881  -6.733  28.237  1.00  0.00     0.174 HD
ENDBRANCH  13  20
ENDBRANCH   3   5
BRANCH   4  23
HETATM   23  C13 UNL     1      26.933 -12.939  26.828  1.00  0.00     0.733 C 
HETATM   24  N9  UNL     1      27.268 -13.785  25.903  1.00  0.00    -0.115 N 
HETATM   25  N10 UNL     1      26.293 -14.736  25.701  1.00  0.00     0.008 NA
ATOM     26  H9  UNL     1      28.148 -13.750  25.388  1.00  0.00     0.203 HD
HETATM   27  N11 UNL     1      25.395 -14.673  26.766  1.00  0.00     0.030 NA
HETATM   28  N12 UNL     1      25.643 -13.375  27.260  1.00  0.00    -0.012 N 
BRANCH  28  29
HETATM   29  N13 UNL     1      24.742 -12.678  28.037  1.00  0.00    -0.311 N 
ATOM     30 2H13 UNL     1      24.841 -11.686  28.253  1.00  0.00     0.179 HD
ATOM     31 1H13 UNL     1      23.898 -13.041  28.480  1.00  0.00     0.179 HD
ENDBRANCH  28  29
ENDBRANCH   4  23
BRANCH   1  32
HETATM   32  C5  UNL     1      27.608 -11.357  29.753  1.00  0.00     0.222 C 
BRANCH  32  33
HETATM   33  O3  UNL     1      27.350 -12.692  30.061  1.00  0.00    -0.384 OA
BRANCH  33  34
HETATM   34  C4  UNL     1      26.867 -12.810  31.373  1.00  0.00     0.209 C 
BRANCH  34  35
HETATM   35  C3  UNL     1      25.705 -13.806  31.342  1.00  0.00     0.233 C 
BRANCH  35  36
HETATM   36  C2  UNL     1      25.699 -14.525  32.665  1.00  0.00     0.248 C 
HETATM   37  N1  UNL     1      26.615 -14.161  33.690  1.00  0.00    -0.363 N 
HETATM   38  C1  UNL     1      26.554 -14.892  34.934  1.00  0.00     0.149 C 
ATOM     39  H1  UNL     1      27.292 -13.411  33.551  1.00  0.00     0.162 HD
HETATM   40  O1  UNL     1      24.855 -15.435  32.788  1.00  0.00    -0.271 OA
ENDBRANCH  35  36
BRANCH  35  41
HETATM   41  O2  UNL     1      25.857 -14.732  30.341  1.00  0.00    -0.384 OA
ATOM     42  H2  UNL     1      25.948 -14.273  29.514  1.00  0.00     0.210 HD
ENDBRANCH  35  41
ENDBRANCH  34  35
ENDBRANCH  33  34
ENDBRANCH  32  33
ENDBRANCH   1  32
TORSDOF 11
ENDMDL
