MODEL 1
REMARK VINA RESULT: -8.681970291      0.000      0.000
REMARK  13 active torsions:
REMARK  status: ('A' for Active; 'I' for Inactive)
REMARK    1  A    between atoms: N1_1  and  C1_4 
REMARK    2  A    between atoms: N3_8  and  C3_10 
REMARK    3  A    between atoms: C3_10  and  C4_11 
REMARK    4  A    between atoms: C4_11  and  O1_12 
REMARK    5  A    between atoms: N6_21  and  C8_22 
REMARK    6  A    between atoms: C10_25  and  O3_26 
REMARK    7  A    between atoms: C10_25  and  C11_28 
REMARK    8  A    between atoms: C11_28  and  O4_29 
REMARK    9  A    between atoms: C11_28  and  O5_31 
REMARK   10  A    between atoms: C11_28  and  C12_33 
REMARK       I    between atoms: C12_33  and  N7_35 
REMARK   11  A    between atoms: N7_35  and  N8_37 
REMARK   12  A    between atoms: C13_40  and  C14_41 
REMARK   13  A    between atoms: C14_41  and  O7_42 
ROOT
HETATM    1  C8  UNL     1      28.587  -9.789  26.350  1.00  0.00     0.380 C 
HETATM    2  O2  UNL     1      28.547 -10.261  27.616  1.00  0.00    -0.340 OA
HETATM    3  C9  UNL     1      27.779 -11.342  27.888  1.00  0.00     0.219 C 
HETATM    4  C10 UNL     1      26.646 -11.623  26.972  1.00  0.00     0.173 C 
HETATM    5  C13 UNL     1      27.011 -11.320  25.567  1.00  0.00     0.192 C 
HETATM    6  O8  UNL     1      28.134 -10.589  25.351  1.00  0.00    -0.333 OA
ENDROOT
BRANCH   1   7
HETATM    7  N6  UNL     1      29.961  -9.420  26.049  1.00  0.00    -0.277 N 
HETATM    8  C5  UNL     1      30.489  -8.219  26.334  1.00  0.00     0.158 A 
HETATM    9  N4  UNL     1      30.035  -7.078  26.912  1.00  0.00    -0.174 N 
HETATM   10  C6  UNL     1      31.793  -8.260  25.899  1.00  0.00     0.123 A 
HETATM   11  C2  UNL     1      30.821  -6.001  27.068  1.00  0.00     0.681 A 
ATOM     12  H4  UNL     1      29.069  -7.038  27.237  1.00  0.00     0.186 HD
HETATM   13  N2  UNL     1      32.089  -6.037  26.647  1.00  0.00    -0.175 N 
HETATM   14  N3  UNL     1      30.380  -4.931  27.614  1.00  0.00    -0.224 N 
HETATM   15  C1  UNL     1      32.584  -7.144  26.069  1.00  0.00     0.145 A 
ATOM     16  H2  UNL     1      32.686  -5.218  26.765  1.00  0.00     0.186 HD
ATOM     17  H3  UNL     1      29.407  -4.953  27.918  1.00  0.00     0.177 HD
HETATM   18  N5  UNL     1      32.021  -9.483  25.363  1.00  0.00    -0.346 N 
HETATM   19  C7  UNL     1      30.882 -10.188  25.461  1.00  0.00     0.190 A 
ATOM     20  H5  UNL     1      32.899  -9.809  24.958  1.00  0.00     0.167 HD
BRANCH  15  21
HETATM   21  N1  UNL     1      33.825  -7.166  25.662  1.00  0.00    -0.383 N 
ATOM     22  H12 UNL     1      34.032  -7.389  24.688  1.00  0.00     0.157 HD
ATOM     23  H11 UNL     1      34.579  -6.960  26.318  1.00  0.00     0.157 HD
ENDBRANCH  15  21
BRANCH  14  24
HETATM   24  C3  UNL     1      31.080  -3.717  27.848  1.00  0.00     0.164 C 
BRANCH  24  25
HETATM   25  C4  UNL     1      30.694  -3.019  29.132  1.00  0.00     0.184 C 
BRANCH  25  26
HETATM   26  O1  UNL     1      29.585  -3.618  29.728  1.00  0.00    -0.399 OA
ATOM     27  H1  UNL     1      29.641  -3.596  30.677  1.00  0.00     0.209 HD
ENDBRANCH  25  26
ENDBRANCH  24  25
ENDBRANCH  14  24
ENDBRANCH   1   7
BRANCH   5  28
HETATM   28  C14 UNL     1      25.862 -10.530  24.922  1.00  0.00     0.199 C 
BRANCH  28  29
HETATM   29  O7  UNL     1      24.855 -11.361  24.484  1.00  0.00    -0.398 OA
ATOM     30  H7  UNL     1      24.694 -11.257  23.554  1.00  0.00     0.209 HD
ENDBRANCH  28  29
ENDBRANCH   5  28
BRANCH   4  31
HETATM   31  O3  UNL     1      25.593 -10.760  27.344  1.00  0.00    -0.379 OA
ATOM     32  H3  UNL     1      24.816 -11.297  27.443  1.00  0.00     0.211 HD
ENDBRANCH   4  31
BRANCH   4  33
HETATM   33  C11 UNL     1      26.161 -13.055  27.069  1.00  0.00     0.282 C 
BRANCH  33  34
HETATM   34  O4  UNL     1      24.778 -13.025  26.912  1.00  0.00    -0.356 OA
ATOM     35  H4  UNL     1      24.537 -13.816  26.444  1.00  0.00     0.213 HD
ENDBRANCH  33  34
BRANCH  33  36
HETATM   36  O5  UNL     1      26.690 -13.808  26.026  1.00  0.00    -0.356 OA
ATOM     37  H5  UNL     1      26.030 -14.400  25.686  1.00  0.00     0.213 HD
ENDBRANCH  33  36
BRANCH  33  38
HETATM   38  C12 UNL     1      26.496 -13.707  28.359  1.00  0.00     0.301 C 
HETATM   39  O6  UNL     1      27.371 -14.603  28.426  1.00  0.00    -0.265 OA
HETATM   40  N7  UNL     1      25.846 -13.348  29.570  1.00  0.00    -0.272 N 
ATOM     41  H7  UNL     1      25.128 -12.624  29.571  1.00  0.00     0.189 HD
BRANCH  40  42
HETATM   42  N8  UNL     1      26.196 -13.990  30.758  1.00  0.00    -0.342 N 
ATOM     43  H82 UNL     1      25.675 -14.817  31.048  1.00  0.00     0.176 HD
ATOM     44  H81 UNL     1      26.967 -13.627  31.320  1.00  0.00     0.176 HD
ENDBRANCH  40  42
ENDBRANCH  33  38
ENDBRANCH   4  33
TORSDOF 13
ENDMDL
MODEL 2
REMARK VINA RESULT: -8.561164891      0.997      1.231
REMARK  13 active torsions:
REMARK  status: ('A' for Active; 'I' for Inactive)
REMARK    1  A    between atoms: N1_1  and  C1_4 
REMARK    2  A    between atoms: N3_8  and  C3_10 
REMARK    3  A    between atoms: C3_10  and  C4_11 
REMARK    4  A    between atoms: C4_11  and  O1_12 
REMARK    5  A    between atoms: N6_21  and  C8_22 
REMARK    6  A    between atoms: C10_25  and  O3_26 
REMARK    7  A    between atoms: C10_25  and  C11_28 
REMARK    8  A    between atoms: C11_28  and  O4_29 
REMARK    9  A    between atoms: C11_28  and  O5_31 
REMARK   10  A    between atoms: C11_28  and  C12_33 
REMARK       I    between atoms: C12_33  and  N7_35 
REMARK   11  A    between atoms: N7_35  and  N8_37 
REMARK   12  A    between atoms: C13_40  and  C14_41 
REMARK   13  A    between atoms: C14_41  and  O7_42 
ROOT
HETATM    1  C8  UNL     1      28.533 -10.513  26.554  1.00  0.00     0.380 C 
HETATM    2  O2  UNL     1      28.581 -10.628  27.900  1.00  0.00    -0.340 OA
HETATM    3  C9  UNL     1      27.927 -11.654  28.493  1.00  0.00     0.219 C 
HETATM    4  C10 UNL     1      26.795 -12.263  27.752  1.00  0.00     0.173 C 
HETATM    5  C13 UNL     1      27.082 -12.322  26.299  1.00  0.00     0.192 C 
HETATM    6  O8  UNL     1      28.123 -11.587  25.831  1.00  0.00    -0.333 OA
ENDROOT
BRANCH   1   7
HETATM    7  N6  UNL     1      29.854 -10.128  26.086  1.00  0.00    -0.277 N 
HETATM    8  C5  UNL     1      30.370  -8.899  26.241  1.00  0.00     0.158 A 
HETATM    9  N4  UNL     1      29.943  -7.736  26.795  1.00  0.00    -0.174 N 
HETATM   10  C6  UNL     1      31.622  -8.933  25.673  1.00  0.00     0.123 A 
HETATM   11  C2  UNL     1      30.706  -6.632  26.801  1.00  0.00     0.681 A 
ATOM     12  H4  UNL     1      29.016  -7.700  27.219  1.00  0.00     0.186 HD
HETATM   13  N2  UNL     1      31.923  -6.661  26.250  1.00  0.00    -0.175 N 
HETATM   14  N3  UNL     1      30.291  -5.541  27.327  1.00  0.00    -0.224 N 
HETATM   15  C1  UNL     1      32.390  -7.789  25.690  1.00  0.00     0.145 A 
ATOM     16  H2  UNL     1      32.503  -5.821  26.255  1.00  0.00     0.186 HD
ATOM     17  H3  UNL     1      29.356  -5.569  27.734  1.00  0.00     0.177 HD
HETATM   18  N5  UNL     1      31.832 -10.181  25.189  1.00  0.00    -0.346 N 
HETATM   19  C7  UNL     1      30.733 -10.908  25.450  1.00  0.00     0.190 A 
ATOM     20  H5  UNL     1      32.673 -10.509  24.712  1.00  0.00     0.167 HD
BRANCH  15  21
HETATM   21  N1  UNL     1      33.582  -7.804  25.154  1.00  0.00    -0.383 N 
ATOM     22  H12 UNL     1      34.396  -7.588  25.731  1.00  0.00     0.157 HD
ATOM     23  H11 UNL     1      33.693  -8.032  24.166  1.00  0.00     0.157 HD
ENDBRANCH  15  21
BRANCH  14  24
HETATM   24  C3  UNL     1      30.972  -4.297  27.412  1.00  0.00     0.164 C 
BRANCH  24  25
HETATM   25  C4  UNL     1      30.833  -3.607  28.750  1.00  0.00     0.184 C 
BRANCH  25  26
HETATM   26  O1  UNL     1      29.749  -4.103  29.473  1.00  0.00    -0.399 OA
ATOM     27  H1  UNL     1      30.009  -4.395  30.340  1.00  0.00     0.209 HD
ENDBRANCH  25  26
ENDBRANCH  24  25
ENDBRANCH  14  24
ENDBRANCH   1   7
BRANCH   5  28
HETATM   28  C14 UNL     1      25.842 -11.831  25.535  1.00  0.00     0.199 C 
BRANCH  28  29
HETATM   29  O7  UNL     1      26.100 -11.680  24.191  1.00  0.00    -0.398 OA
ATOM     30  H7  UNL     1      25.342 -11.350  23.723  1.00  0.00     0.209 HD
ENDBRANCH  28  29
ENDBRANCH   5  28
BRANCH   4  31
HETATM   31  O3  UNL     1      25.679 -11.420  27.942  1.00  0.00    -0.379 OA
ATOM     32  H3  UNL     1      25.545 -10.950  27.127  1.00  0.00     0.211 HD
ENDBRANCH   4  31
BRANCH   4  33
HETATM   33  C11 UNL     1      26.451 -13.650  28.254  1.00  0.00     0.282 C 
BRANCH  33  34
HETATM   34  O4  UNL     1      25.673 -14.255  27.270  1.00  0.00    -0.356 OA
ATOM     35  H4  UNL     1      24.772 -14.207  27.564  1.00  0.00     0.213 HD
ENDBRANCH  33  34
BRANCH  33  36
HETATM   36  O5  UNL     1      27.611 -14.404  28.401  1.00  0.00    -0.356 OA
ATOM     37  H5  UNL     1      27.480 -15.076  29.059  1.00  0.00     0.213 HD
ENDBRANCH  33  36
BRANCH  33  38
HETATM   38  C12 UNL     1      25.706 -13.648  29.537  1.00  0.00     0.301 C 
HETATM   39  O6  UNL     1      24.523 -13.236  29.600  1.00  0.00    -0.265 OA
HETATM   40  N7  UNL     1      26.293 -14.109  30.745  1.00  0.00    -0.272 N 
ATOM     41  H7  UNL     1      27.253 -14.455  30.749  1.00  0.00     0.189 HD
BRANCH  40  42
HETATM   42  N8  UNL     1      25.551 -14.086  31.926  1.00  0.00    -0.342 N 
ATOM     43  H82 UNL     1      24.535 -14.166  31.877  1.00  0.00     0.176 HD
ATOM     44  H81 UNL     1      26.030 -13.991  32.822  1.00  0.00     0.176 HD
ENDBRANCH  40  42
ENDBRANCH  33  38
ENDBRANCH   4  33
TORSDOF 13
ENDMDL
MODEL 3
REMARK VINA RESULT: -8.545951564      1.871      2.235
REMARK  13 active torsions:
REMARK  status: ('A' for Active; 'I' for Inactive)
REMARK    1  A    between atoms: N1_1  and  C1_4 
REMARK    2  A    between atoms: N3_8  and  C3_10 
REMARK    3  A    between atoms: C3_10  and  C4_11 
REMARK    4  A    between atoms: C4_11  and  O1_12 
REMARK    5  A    between atoms: N6_21  and  C8_22 
REMARK    6  A    between atoms: C10_25  and  O3_26 
REMARK    7  A    between atoms: C10_25  and  C11_28 
REMARK    8  A    between atoms: C11_28  and  O4_29 
REMARK    9  A    between atoms: C11_28  and  O5_31 
REMARK   10  A    between atoms: C11_28  and  C12_33 
REMARK       I    between atoms: C12_33  and  N7_35 
REMARK   11  A    between atoms: N7_35  and  N8_37 
REMARK   12  A    between atoms: C13_40  and  C14_41 
REMARK   13  A    between atoms: C14_41  and  O7_42 
ROOT
HETATM    1  C8  UNL     1      27.199 -10.573  26.229  1.00  0.00     0.380 C 
HETATM    2  O2  UNL     1      27.441 -10.611  27.559  1.00  0.00    -0.340 OA
HETATM    3  C9  UNL     1      26.705 -11.441  28.335  1.00  0.00     0.219 C 
HETATM    4  C10 UNL     1      25.371 -11.848  27.827  1.00  0.00     0.173 C 
HETATM    5  C13 UNL     1      25.402 -12.055  26.360  1.00  0.00     0.192 C 
HETATM    6  O8  UNL     1      26.477 -11.582  25.678  1.00  0.00    -0.333 OA
ENDROOT
BRANCH   1   7
HETATM    7  N6  UNL     1      28.477 -10.500  25.540  1.00  0.00    -0.277 N 
HETATM    8  C5  UNL     1      29.528  -9.797  25.992  1.00  0.00     0.158 A 
HETATM    9  N4  UNL     1      29.773  -9.018  27.075  1.00  0.00    -0.174 N 
HETATM   10  C6  UNL     1      30.534  -9.978  25.072  1.00  0.00     0.123 A 
HETATM   11  C2  UNL     1      30.962  -8.425  27.267  1.00  0.00     0.681 A 
ATOM     12  H4  UNL     1      29.032  -8.878  27.764  1.00  0.00     0.186 HD
HETATM   13  N2  UNL     1      31.942  -8.597  26.375  1.00  0.00    -0.175 N 
HETATM   14  N3  UNL     1      31.179  -7.691  28.293  1.00  0.00    -0.224 N 
HETATM   15  C1  UNL     1      31.748  -9.360  25.287  1.00  0.00     0.145 A 
ATOM     16  H2  UNL     1      32.846  -8.146  26.522  1.00  0.00     0.186 HD
ATOM     17  H3  UNL     1      30.401  -7.590  28.944  1.00  0.00     0.177 HD
HETATM   18  N5  UNL     1      30.068 -10.783  24.088  1.00  0.00    -0.346 N 
HETATM   19  C7  UNL     1      28.797 -11.098  24.389  1.00  0.00     0.190 A 
ATOM     20  H5  UNL     1      30.588 -11.094  23.267  1.00  0.00     0.167 HD
BRANCH  15  21
HETATM   21  N1  UNL     1      32.715  -9.521  24.424  1.00  0.00    -0.383 N 
ATOM     22  H12 UNL     1      32.960 -10.460  24.111  1.00  0.00     0.157 HD
ATOM     23  H11 UNL     1      33.218  -8.708  24.067  1.00  0.00     0.157 HD
ENDBRANCH  15  21
BRANCH  14  24
HETATM   24  C3  UNL     1      32.373  -6.999  28.636  1.00  0.00     0.164 C 
BRANCH  24  25
HETATM   25  C4  UNL     1      32.159  -5.814  29.549  1.00  0.00     0.184 C 
BRANCH  25  26
HETATM   26  O1  UNL     1      31.399  -6.157  30.667  1.00  0.00    -0.399 OA
ATOM     27  H1  UNL     1      30.537  -5.760  30.640  1.00  0.00     0.209 HD
ENDBRANCH  25  26
ENDBRANCH  24  25
ENDBRANCH  14  24
ENDBRANCH   1   7
BRANCH   5  28
HETATM   28  C14 UNL     1      24.175 -11.367  25.742  1.00  0.00     0.199 C 
BRANCH  28  29
HETATM   29  O7  UNL     1      23.004 -11.999  26.098  1.00  0.00    -0.398 OA
ATOM     30  H7  UNL     1      22.442 -12.145  25.347  1.00  0.00     0.209 HD
ENDBRANCH  28  29
ENDBRANCH   5  28
BRANCH   4  31
HETATM   31  O3  UNL     1      24.486 -10.782  28.098  1.00  0.00    -0.379 OA
ATOM     32  H3  UNL     1      23.865 -10.748  27.379  1.00  0.00     0.211 HD
ENDBRANCH   4  31
BRANCH   4  33
HETATM   33  C11 UNL     1      24.849 -13.100  28.502  1.00  0.00     0.282 C 
BRANCH  33  34
HETATM   34  O4  UNL     1      23.659 -12.752  29.136  1.00  0.00    -0.356 OA
ATOM     35  H4  UNL     1      23.306 -12.005  28.667  1.00  0.00     0.213 HD
ENDBRANCH  33  34
BRANCH  33  36
HETATM   36  O5  UNL     1      24.554 -14.067  27.547  1.00  0.00    -0.356 OA
ATOM     37  H5  UNL     1      23.621 -14.246  27.545  1.00  0.00     0.213 HD
ENDBRANCH  33  36
BRANCH  33  38
HETATM   38  C12 UNL     1      25.788 -13.670  29.499  1.00  0.00     0.301 C 
HETATM   39  O6  UNL     1      26.834 -14.262  29.141  1.00  0.00    -0.265 OA
HETATM   40  N7  UNL     1      25.549 -13.571  30.896  1.00  0.00    -0.272 N 
ATOM     41  H7  UNL     1      24.713 -13.098  31.240  1.00  0.00     0.189 HD
BRANCH  40  42
HETATM   42  N8  UNL     1      26.463 -14.123  31.794  1.00  0.00    -0.342 N 
ATOM     43  H82 UNL     1      27.325 -14.534  31.436  1.00  0.00     0.176 HD
ATOM     44  H81 UNL     1      26.259 -14.110  32.793  1.00  0.00     0.176 HD
ENDBRANCH  40  42
ENDBRANCH  33  38
ENDBRANCH   4  33
TORSDOF 13
ENDMDL
MODEL 4
REMARK VINA RESULT: -8.528550730      1.516      2.402
REMARK  13 active torsions:
REMARK  status: ('A' for Active; 'I' for Inactive)
REMARK    1  A    between atoms: N1_1  and  C1_4 
REMARK    2  A    between atoms: N3_8  and  C3_10 
REMARK    3  A    between atoms: C3_10  and  C4_11 
REMARK    4  A    between atoms: C4_11  and  O1_12 
REMARK    5  A    between atoms: N6_21  and  C8_22 
REMARK    6  A    between atoms: C10_25  and  O3_26 
REMARK    7  A    between atoms: C10_25  and  C11_28 
REMARK    8  A    between atoms: C11_28  and  O4_29 
REMARK    9  A    between atoms: C11_28  and  O5_31 
REMARK   10  A    between atoms: C11_28  and  C12_33 
REMARK       I    between atoms: C12_33  and  N7_35 
REMARK   11  A    between atoms: N7_35  and  N8_37 
REMARK   12  A    between atoms: C13_40  and  C14_41 
REMARK   13  A    between atoms: C14_41  and  O7_42 
ROOT
HETATM    1  C8  UNL     1      30.059 -11.173  26.448  1.00  0.00     0.380 C 
HETATM    2  O2  UNL     1      29.454 -11.850  25.446  1.00  0.00    -0.340 OA
HETATM    3  C9  UNL     1      28.128 -12.105  25.536  1.00  0.00     0.219 C 
HETATM    4  C10 UNL     1      27.525 -12.122  26.892  1.00  0.00     0.173 C 
HETATM    5  C13 UNL     1      28.129 -11.078  27.754  1.00  0.00     0.192 C 
HETATM    6  O8  UNL     1      29.279 -10.496  27.329  1.00  0.00    -0.333 OA
ENDROOT
BRANCH   1   7
HETATM    7  N6  UNL     1      30.996 -10.233  25.855  1.00  0.00    -0.277 N 
HETATM    8  C5  UNL     1      31.395  -9.100  26.456  1.00  0.00     0.158 A 
HETATM    9  N4  UNL     1      31.130  -8.492  27.640  1.00  0.00    -0.174 N 
HETATM   10  C6  UNL     1      32.271  -8.493  25.587  1.00  0.00     0.123 A 
HETATM   11  C2  UNL     1      31.698  -7.323  27.978  1.00  0.00     0.681 A 
ATOM     12  H4  UNL     1      30.482  -8.934  28.291  1.00  0.00     0.186 HD
HETATM   13  N2  UNL     1      32.550  -6.730  27.136  1.00  0.00    -0.175 N 
HETATM   14  N3  UNL     1      31.440  -6.759  29.097  1.00  0.00    -0.224 N 
HETATM   15  C1  UNL     1      32.843  -7.294  25.953  1.00  0.00     0.145 A 
ATOM     16  H2  UNL     1      32.981  -5.841  27.394  1.00  0.00     0.186 HD
ATOM     17  H3  UNL     1      30.784  -7.251  29.705  1.00  0.00     0.177 HD
HETATM   18  N5  UNL     1      32.380  -9.272  24.484  1.00  0.00    -0.346 N 
HETATM   19  C7  UNL     1      31.588 -10.342  24.663  1.00  0.00     0.190 A 
ATOM     20  H5  UNL     1      32.959  -9.080  23.666  1.00  0.00     0.167 HD
BRANCH  15  21
HETATM   21  N1  UNL     1      33.678  -6.703  25.140  1.00  0.00    -0.383 N 
ATOM     22  H12 UNL     1      34.621  -6.482  25.459  1.00  0.00     0.157 HD
ATOM     23  H11 UNL     1      33.383  -6.467  24.192  1.00  0.00     0.157 HD
ENDBRANCH  15  21
BRANCH  14  24
HETATM   24  C3  UNL     1      31.954  -5.532  29.598  1.00  0.00     0.164 C 
BRANCH  24  25
HETATM   25  C4  UNL     1      31.195  -4.310  29.134  1.00  0.00     0.184 C 
BRANCH  25  26
HETATM   26  O1  UNL     1      31.754  -3.765  27.979  1.00  0.00    -0.399 OA
ATOM     27  H1  UNL     1      31.830  -2.819  28.039  1.00  0.00     0.209 HD
ENDBRANCH  25  26
ENDBRANCH  24  25
ENDBRANCH  14  24
ENDBRANCH   1   7
BRANCH   5  28
HETATM   28  C14 UNL     1      28.452 -11.700  29.122  1.00  0.00     0.199 C 
BRANCH  28  29
HETATM   29  O7  UNL     1      27.403 -11.563  30.004  1.00  0.00    -0.398 OA
ATOM     30  H7  UNL     1      26.637 -12.045  29.715  1.00  0.00     0.209 HD
ENDBRANCH  28  29
ENDBRANCH   5  28
BRANCH   4  31
HETATM   31  O3  UNL     1      27.822 -13.380  27.458  1.00  0.00    -0.379 OA
ATOM     32  H3  UNL     1      27.011 -13.723  27.814  1.00  0.00     0.211 HD
ENDBRANCH   4  31
BRANCH   4  33
HETATM   33  C11 UNL     1      26.021 -11.942  26.862  1.00  0.00     0.282 C 
BRANCH  33  34
HETATM   34  O4  UNL     1      25.752 -10.692  27.412  1.00  0.00    -0.356 OA
ATOM     35  H4  UNL     1      24.865 -10.465  27.160  1.00  0.00     0.213 HD
ENDBRANCH  33  34
BRANCH  33  36
HETATM   36  O5  UNL     1      25.569 -11.933  25.546  1.00  0.00    -0.356 OA
ATOM     37  H5  UNL     1      25.285 -12.803  25.294  1.00  0.00     0.213 HD
ENDBRANCH  33  36
BRANCH  33  38
HETATM   38  C12 UNL     1      25.285 -12.982  27.622  1.00  0.00     0.301 C 
HETATM   39  O6  UNL     1      24.836 -14.006  27.054  1.00  0.00    -0.265 OA
HETATM   40  N7  UNL     1      25.058 -12.868  29.020  1.00  0.00    -0.272 N 
ATOM     41  H7  UNL     1      25.403 -12.055  29.530  1.00  0.00     0.189 HD
BRANCH  40  42
HETATM   42  N8  UNL     1      24.361 -13.873  29.690  1.00  0.00    -0.342 N 
ATOM     43  H82 UNL     1      23.636 -13.614  30.360  1.00  0.00     0.176 HD
ATOM     44  H81 UNL     1      24.582 -14.852  29.505  1.00  0.00     0.176 HD
ENDBRANCH  40  42
ENDBRANCH  33  38
ENDBRANCH   4  33
TORSDOF 13
ENDMDL
MODEL 5
REMARK VINA RESULT: -8.419423036      1.861      2.830
REMARK  13 active torsions:
REMARK  status: ('A' for Active; 'I' for Inactive)
REMARK    1  A    between atoms: N1_1  and  C1_4 
REMARK    2  A    between atoms: N3_8  and  C3_10 
REMARK    3  A    between atoms: C3_10  and  C4_11 
REMARK    4  A    between atoms: C4_11  and  O1_12 
REMARK    5  A    between atoms: N6_21  and  C8_22 
REMARK    6  A    between atoms: C10_25  and  O3_26 
REMARK    7  A    between atoms: C10_25  and  C11_28 
REMARK    8  A    between atoms: C11_28  and  O4_29 
REMARK    9  A    between atoms: C11_28  and  O5_31 
REMARK   10  A    between atoms: C11_28  and  C12_33 
REMARK       I    between atoms: C12_33  and  N7_35 
REMARK   11  A    between atoms: N7_35  and  N8_37 
REMARK   12  A    between atoms: C13_40  and  C14_41 
REMARK   13  A    between atoms: C14_41  and  O7_42 
ROOT
HETATM    1  C8  UNL     1      27.604 -11.802  25.096  1.00  0.00     0.380 C 
HETATM    2  O2  UNL     1      27.012 -10.612  25.343  1.00  0.00    -0.340 OA
HETATM    3  C9  UNL     1      26.203 -10.494  26.421  1.00  0.00     0.219 C 
HETATM    4  C10 UNL     1      25.586 -11.735  26.952  1.00  0.00     0.173 C 
HETATM    5  C13 UNL     1      26.531 -12.875  26.868  1.00  0.00     0.192 C 
HETATM    6  O8  UNL     1      27.636 -12.723  26.092  1.00  0.00    -0.333 OA
ENDROOT
BRANCH   1   7
HETATM    7  N6  UNL     1      28.970 -11.547  24.669  1.00  0.00    -0.277 N 
HETATM    8  C5  UNL     1      29.727 -10.548  25.151  1.00  0.00     0.158 A 
HETATM    9  N4  UNL     1      29.551  -9.558  26.062  1.00  0.00    -0.174 N 
HETATM   10  C6  UNL     1      30.939 -10.640  24.508  1.00  0.00     0.123 A 
HETATM   11  C2  UNL     1      30.522  -8.676  26.346  1.00  0.00     0.681 A 
ATOM     12  H4  UNL     1      28.655  -9.481  26.545  1.00  0.00     0.186 HD
HETATM   13  N2  UNL     1      31.701  -8.761  25.723  1.00  0.00    -0.175 N 
HETATM   14  N3  UNL     1      30.343  -7.746  27.207  1.00  0.00    -0.224 N 
HETATM   15  C1  UNL     1      31.923  -9.725  24.813  1.00  0.00     0.145 A 
ATOM     16  H2  UNL     1      32.439  -8.090  25.939  1.00  0.00     0.186 HD
ATOM     17  H3  UNL     1      29.427  -7.722  27.655  1.00  0.00     0.177 HD
HETATM   18  N5  UNL     1      30.885 -11.690  23.654  1.00  0.00    -0.346 N 
HETATM   19  C7  UNL     1      29.665 -12.241  23.764  1.00  0.00     0.190 A 
ATOM     20  H5  UNL     1      31.636 -12.006  23.039  1.00  0.00     0.167 HD
BRANCH  15  21
HETATM   21  N1  UNL     1      33.080  -9.797  24.212  1.00  0.00    -0.383 N 
ATOM     22  H12 UNL     1      33.885 -10.174  24.712  1.00  0.00     0.157 HD
ATOM     23  H11 UNL     1      33.173  -9.478  23.247  1.00  0.00     0.157 HD
ENDBRANCH  15  21
BRANCH  14  24
HETATM   24  C3  UNL     1      31.263  -6.742  27.614  1.00  0.00     0.164 C 
BRANCH  24  25
HETATM   25  C4  UNL     1      30.864  -5.340  27.216  1.00  0.00     0.184 C 
BRANCH  25  26
HETATM   26  O1  UNL     1      30.433  -5.285  25.891  1.00  0.00    -0.399 OA
ATOM     27  H1  UNL     1      29.578  -4.877  25.817  1.00  0.00     0.209 HD
ENDBRANCH  25  26
ENDBRANCH  24  25
ENDBRANCH  14  24
ENDBRANCH   1   7
BRANCH   5  28
HETATM   28  C14 UNL     1      25.782 -14.091  26.301  1.00  0.00     0.199 C 
BRANCH  28  29
HETATM   29  O7  UNL     1      24.816 -14.544  27.172  1.00  0.00    -0.398 OA
ATOM     30  H7  UNL     1      25.062 -15.371  27.569  1.00  0.00     0.209 HD
ENDBRANCH  28  29
ENDBRANCH   5  28
BRANCH   4  31
HETATM   31  O3  UNL     1      24.477 -12.028  26.129  1.00  0.00    -0.379 OA
ATOM     32  H3  UNL     1      24.349 -11.277  25.561  1.00  0.00     0.211 HD
ENDBRANCH   4  31
BRANCH   4  33
HETATM   33  C11 UNL     1      25.108 -11.582  28.381  1.00  0.00     0.282 C 
BRANCH  33  34
HETATM   34  O4  UNL     1      25.138 -10.220  28.673  1.00  0.00    -0.356 OA
ATOM     35  H4  UNL     1      25.927 -10.065  29.178  1.00  0.00     0.213 HD
ENDBRANCH  33  34
BRANCH  33  36
HETATM   36  O5  UNL     1      23.789 -12.009  28.490  1.00  0.00    -0.356 OA
ATOM     37  H5  UNL     1      23.694 -12.579  29.243  1.00  0.00     0.213 HD
ENDBRANCH  33  36
BRANCH  33  38
HETATM   38  C12 UNL     1      25.941 -12.314  29.366  1.00  0.00     0.301 C 
HETATM   39  O6  UNL     1      27.064 -11.880  29.717  1.00  0.00    -0.265 OA
HETATM   40  N7  UNL     1      25.508 -13.532  29.954  1.00  0.00    -0.272 N 
ATOM     41  H7  UNL     1      24.602 -13.928  29.704  1.00  0.00     0.189 HD
BRANCH  40  42
HETATM   42  N8  UNL     1      26.327 -14.184  30.876  1.00  0.00    -0.342 N 
ATOM     43  H82 UNL     1      27.210 -14.586  30.559  1.00  0.00     0.176 HD
ATOM     44  H81 UNL     1      26.037 -14.251  31.852  1.00  0.00     0.176 HD
ENDBRANCH  40  42
ENDBRANCH  33  38
ENDBRANCH   4  33
TORSDOF 13
ENDMDL
