MODEL 1
REMARK VINA RESULT: -8.645164940      0.000      0.000
REMARK  15 active torsions:
REMARK  status: ('A' for Active; 'I' for Inactive)
REMARK    1  A    between atoms: C2_2  and  O1_4 
REMARK    2  A    between atoms: C2_2  and  C4_6 
REMARK    3  A    between atoms: C4_6  and  O2_7 
REMARK    4  A    between atoms: C4_6  and  C5_9 
REMARK    5  A    between atoms: C5_9  and  O3_10 
REMARK    6  A    between atoms: C5_9  and  C6_12 
REMARK    7  A    between atoms: C6_12  and  O4_13 
REMARK    8  A    between atoms: C6_12  and  C7_15 
REMARK    9  A    between atoms: C7_15  and  O5_16 
REMARK   10  A    between atoms: C7_15  and  N1_18 
REMARK   11  A    between atoms: C8_20  and  C9_21 
REMARK   12  A    between atoms: N4_26  and  C10_27 
REMARK   13  A    between atoms: C11_31  and  O6_32 
REMARK   14  A    between atoms: C12_37  and  O7_38 
REMARK   15  A    between atoms: C14_42  and  O9_43 
ROOT
HETATM    1  C9  UNL     1      31.058  -7.563  27.352  1.00  0.00     0.103 A 
HETATM    2  N2  UNL     1      30.351  -6.624  26.650  1.00  0.00    -0.282 N 
ATOM      3  H2  UNL     1      29.802  -6.922  25.844  1.00  0.00     0.188 HD
HETATM    4  N3  UNL     1      30.354  -5.351  26.977  1.00  0.00    -0.235 N 
ATOM      5  H3  UNL     1      29.800  -4.715  26.402  1.00  0.00     0.208 HD
HETATM    6  N4  UNL     1      31.022  -4.831  27.999  1.00  0.00    -0.204 N 
HETATM    7  C13 UNL     1      31.731  -5.718  28.718  1.00  0.00     0.300 A 
HETATM    8  O8  UNL     1      32.394  -5.356  29.694  1.00  0.00    -0.263 OA
HETATM    9  C14 UNL     1      31.772  -7.090  28.424  1.00  0.00     0.166 A 
ENDROOT
BRANCH   1  10
HETATM   10  C8  UNL     1      31.007  -8.954  26.931  1.00  0.00     0.119 C 
HETATM   11  N1  UNL     1      31.124  -9.289  25.709  1.00  0.00    -0.369 N 
ATOM     12  H1  UNL     1      31.256  -8.563  25.005  1.00  0.00     0.161 HD
BRANCH  11  13
HETATM   13  C7  UNL     1      31.074 -10.656  25.296  1.00  0.00     0.249 C 
BRANCH  13  14
HETATM   14  C6  UNL     1      29.788 -10.887  24.517  1.00  0.00     0.197 C 
BRANCH  14  15
HETATM   15  C5  UNL     1      28.792 -11.685  25.334  1.00  0.00     0.182 C 
BRANCH  15  16
HETATM   16  C4  UNL     1      27.446 -11.538  24.644  1.00  0.00     0.183 C 
BRANCH  16  17
HETATM   17  C2  UNL     1      26.390 -11.008  25.575  1.00  0.00     0.079 C 
HETATM   18  C1  UNL     1      25.059 -10.856  24.899  1.00  0.00     0.048 C 
HETATM   19  C3  UNL     1      26.238 -12.019  26.701  1.00  0.00     0.048 C 
BRANCH  17  20
HETATM   20  O1  UNL     1      26.788  -9.810  26.175  1.00  0.00    -0.388 OA
ATOM     21  H1  UNL     1      27.111  -9.961  27.056  1.00  0.00     0.210 HD
ENDBRANCH  17  20
ENDBRANCH  16  17
BRANCH  16  22
HETATM   22  O2  UNL     1      27.535 -10.666  23.559  1.00  0.00    -0.390 OA
ATOM     23  H2  UNL     1      28.428 -10.693  23.236  1.00  0.00     0.210 HD
ENDBRANCH  16  22
ENDBRANCH  15  16
BRANCH  15  24
HETATM   24  O3  UNL     1      29.169 -13.022  25.236  1.00  0.00    -0.390 OA
ATOM     25  H3  UNL     1      29.946 -13.140  25.769  1.00  0.00     0.210 HD
ENDBRANCH  15  24
ENDBRANCH  14  15
BRANCH  14  26
HETATM   26  O4  UNL     1      30.129 -11.651  23.405  1.00  0.00    -0.389 OA
ATOM     27  H4  UNL     1      29.852 -11.174  22.632  1.00  0.00     0.210 HD
ENDBRANCH  14  26
ENDBRANCH  13  14
BRANCH  13  28
HETATM   28  O5  UNL     1      32.130 -10.960  24.421  1.00  0.00    -0.374 OA
ATOM     29  H5  UNL     1      32.930 -10.882  24.927  1.00  0.00     0.212 HD
ENDBRANCH  13  28
ENDBRANCH  11  13
ENDBRANCH   1  10
BRANCH   9  30
HETATM   30  O9  UNL     1      32.514  -7.952  29.192  1.00  0.00    -0.354 OA
ATOM     31  H9  UNL     1      32.245  -8.152  30.080  1.00  0.00     0.218 HD
ENDBRANCH   9  30
BRANCH   6  32
HETATM   32  C10 UNL     1      30.973  -3.429  28.290  1.00  0.00     0.372 C 
HETATM   33  N5  UNL     1      32.232  -2.812  28.537  1.00  0.00     0.004 N 
HETATM   34  C11 UNL     1      31.840  -1.602  29.242  1.00  0.00     0.527 C 
ATOM     35  H52 UNL     1      32.912  -3.396  29.024  1.00  0.00     0.285 HD
ATOM     36  H51 UNL     1      32.810  -2.664  27.709  1.00  0.00     0.285 HD
HETATM   37  N6  UNL     1      30.889  -2.169  30.214  1.00  0.00     0.007 N 
HETATM   38  C12 UNL     1      30.042  -3.033  29.378  1.00  0.00     0.376 C 
ATOM     39  H62 UNL     1      31.322  -2.638  31.010  1.00  0.00     0.285 HD
ATOM     40  H61 UNL     1      30.381  -1.478  30.767  1.00  0.00     0.285 HD
BRANCH  34  41
HETATM   41  O6  UNL     1      31.127  -0.733  28.400  1.00  0.00    -0.349 OA
ATOM     42  H6  UNL     1      30.607  -0.118  28.903  1.00  0.00     0.213 HD
ENDBRANCH  34  41
BRANCH  38  43
HETATM   43  O7  UNL     1      29.452  -4.043  30.074  1.00  0.00    -0.367 OA
ATOM     44  H7  UNL     1      29.574  -4.039  31.016  1.00  0.00     0.212 HD
ENDBRANCH  38  43
ENDBRANCH   6  32
TORSDOF 15
ENDMDL
MODEL 2
REMARK VINA RESULT: -8.562021137      1.719      2.088
REMARK  15 active torsions:
REMARK  status: ('A' for Active; 'I' for Inactive)
REMARK    1  A    between atoms: C2_2  and  O1_4 
REMARK    2  A    between atoms: C2_2  and  C4_6 
REMARK    3  A    between atoms: C4_6  and  O2_7 
REMARK    4  A    between atoms: C4_6  and  C5_9 
REMARK    5  A    between atoms: C5_9  and  O3_10 
REMARK    6  A    between atoms: C5_9  and  C6_12 
REMARK    7  A    between atoms: C6_12  and  O4_13 
REMARK    8  A    between atoms: C6_12  and  C7_15 
REMARK    9  A    between atoms: C7_15  and  O5_16 
REMARK   10  A    between atoms: C7_15  and  N1_18 
REMARK   11  A    between atoms: C8_20  and  C9_21 
REMARK   12  A    between atoms: N4_26  and  C10_27 
REMARK   13  A    between atoms: C11_31  and  O6_32 
REMARK   14  A    between atoms: C12_37  and  O7_38 
REMARK   15  A    between atoms: C14_42  and  O9_43 
ROOT
HETATM    1  C9  UNL     1      31.799  -6.863  27.341  1.00  0.00     0.103 A 
HETATM    2  N2  UNL     1      32.301  -6.833  28.615  1.00  0.00    -0.282 N 
ATOM      3  H2  UNL     1      32.828  -7.637  28.955  1.00  0.00     0.188 HD
HETATM    4  N3  UNL     1      32.127  -5.805  29.415  1.00  0.00    -0.235 N 
ATOM      5  H3  UNL     1      32.534  -5.861  30.349  1.00  0.00     0.208 HD
HETATM    6  N4  UNL     1      31.464  -4.700  29.099  1.00  0.00    -0.204 N 
HETATM    7  C13 UNL     1      30.953  -4.686  27.856  1.00  0.00     0.300 A 
HETATM    8  O8  UNL     1      30.315  -3.713  27.445  1.00  0.00    -0.263 OA
HETATM    9  C14 UNL     1      31.101  -5.749  26.951  1.00  0.00     0.166 A 
ENDROOT
BRANCH   1  10
HETATM   10  C8  UNL     1      32.030  -8.036  26.513  1.00  0.00     0.119 C 
HETATM   11  N1  UNL     1      31.084  -8.818  26.177  1.00  0.00    -0.369 N 
ATOM     12  H1  UNL     1      30.137  -8.617  26.498  1.00  0.00     0.161 HD
BRANCH  11  13
HETATM   13  C7  UNL     1      31.313  -9.969  25.363  1.00  0.00     0.249 C 
BRANCH  13  14
HETATM   14  C6  UNL     1      30.009 -10.354  24.678  1.00  0.00     0.197 C 
BRANCH  14  15
HETATM   15  C5  UNL     1      28.902 -10.558  25.692  1.00  0.00     0.182 C 
BRANCH  15  16
HETATM   16  C4  UNL     1      27.778 -11.281  24.968  1.00  0.00     0.183 C 
BRANCH  16  17
HETATM   17  C2  UNL     1      26.462 -11.132  25.681  1.00  0.00     0.079 C 
HETATM   18  C1  UNL     1      25.352 -10.736  24.750  1.00  0.00     0.048 C 
HETATM   19  C3  UNL     1      26.119 -12.489  26.277  1.00  0.00     0.048 C 
BRANCH  17  20
HETATM   20  O1  UNL     1      26.556 -10.244  26.756  1.00  0.00    -0.388 OA
ATOM     21  H1  UNL     1      27.279  -9.641  26.637  1.00  0.00     0.210 HD
ENDBRANCH  17  20
ENDBRANCH  16  17
BRANCH  16  22
HETATM   22  O2  UNL     1      27.621 -10.787  23.673  1.00  0.00    -0.390 OA
ATOM     23  H2  UNL     1      28.143 -11.326  23.091  1.00  0.00     0.210 HD
ENDBRANCH  16  22
ENDBRANCH  15  16
BRANCH  15  24
HETATM   24  O3  UNL     1      29.399 -11.422  26.664  1.00  0.00    -0.390 OA
ATOM     25  H3  UNL     1      30.317 -11.570  26.472  1.00  0.00     0.210 HD
ENDBRANCH  15  24
ENDBRANCH  14  15
BRANCH  14  26
HETATM   26  O4  UNL     1      30.236 -11.574  24.051  1.00  0.00    -0.389 OA
ATOM     27  H4  UNL     1      29.947 -11.492  23.149  1.00  0.00     0.210 HD
ENDBRANCH  14  26
ENDBRANCH  13  14
BRANCH  13  28
HETATM   28  O5  UNL     1      32.234  -9.690  24.339  1.00  0.00    -0.374 OA
ATOM     29  H5  UNL     1      32.076  -8.792  24.073  1.00  0.00     0.212 HD
ENDBRANCH  13  28
ENDBRANCH  11  13
ENDBRANCH   1  10
BRANCH   9  30
HETATM   30  O9  UNL     1      30.557  -5.682  25.692  1.00  0.00    -0.354 OA
ATOM     31  H9  UNL     1      30.148  -4.879  25.392  1.00  0.00     0.218 HD
ENDBRANCH   9  30
BRANCH   6  32
HETATM   32  C10 UNL     1      31.319  -3.621  30.031  1.00  0.00     0.372 C 
HETATM   33  N5  UNL     1      29.978  -3.253  30.335  1.00  0.00     0.004 N 
HETATM   34  C11 UNL     1      30.150  -1.912  30.871  1.00  0.00     0.527 C 
ATOM     35  H52 UNL     1      29.322  -3.328  29.558  1.00  0.00     0.285 HD
ATOM     36  H51 UNL     1      29.479  -3.902  30.944  1.00  0.00     0.285 HD
HETATM   37  N6  UNL     1      31.050  -1.343  29.853  1.00  0.00     0.007 N 
HETATM   38  C12 UNL     1      32.076  -2.386  29.703  1.00  0.00     0.376 C 
ATOM     39  H62 UNL     1      30.591  -1.068  28.984  1.00  0.00     0.285 HD
ATOM     40  H61 UNL     1      31.412  -0.416  30.074  1.00  0.00     0.285 HD
BRANCH  34  41
HETATM   41  O6  UNL     1      30.844  -1.939  32.091  1.00  0.00    -0.349 OA
ATOM     42  H6  UNL     1      30.289  -2.253  32.795  1.00  0.00     0.213 HD
ENDBRANCH  34  41
BRANCH  38  43
HETATM   43  O7  UNL     1      32.700  -2.356  28.494  1.00  0.00    -0.367 OA
ATOM     44  H7  UNL     1      33.569  -1.972  28.473  1.00  0.00     0.212 HD
ENDBRANCH  38  43
ENDBRANCH   6  32
TORSDOF 15
ENDMDL
MODEL 3
REMARK VINA RESULT: -8.484407632      0.954      1.391
REMARK  15 active torsions:
REMARK  status: ('A' for Active; 'I' for Inactive)
REMARK    1  A    between atoms: C2_2  and  O1_4 
REMARK    2  A    between atoms: C2_2  and  C4_6 
REMARK    3  A    between atoms: C4_6  and  O2_7 
REMARK    4  A    between atoms: C4_6  and  C5_9 
REMARK    5  A    between atoms: C5_9  and  O3_10 
REMARK    6  A    between atoms: C5_9  and  C6_12 
REMARK    7  A    between atoms: C6_12  and  O4_13 
REMARK    8  A    between atoms: C6_12  and  C7_15 
REMARK    9  A    between atoms: C7_15  and  O5_16 
REMARK   10  A    between atoms: C7_15  and  N1_18 
REMARK   11  A    between atoms: C8_20  and  C9_21 
REMARK   12  A    between atoms: N4_26  and  C10_27 
REMARK   13  A    between atoms: C11_31  and  O6_32 
REMARK   14  A    between atoms: C12_37  and  O7_38 
REMARK   15  A    between atoms: C14_42  and  O9_43 
ROOT
HETATM    1  C9  UNL     1      31.249  -7.468  27.341  1.00  0.00     0.103 A 
HETATM    2  N2  UNL     1      30.577  -6.531  26.601  1.00  0.00    -0.282 N 
ATOM      3  H2  UNL     1      30.097  -6.827  25.752  1.00  0.00     0.188 HD
HETATM    4  N3  UNL     1      30.529  -5.265  26.948  1.00  0.00    -0.235 N 
ATOM      5  H3  UNL     1      30.007  -4.630  26.342  1.00  0.00     0.208 HD
HETATM    6  N4  UNL     1      31.107  -4.749  28.025  1.00  0.00    -0.204 N 
HETATM    7  C13 UNL     1      31.779  -5.634  28.782  1.00  0.00     0.300 A 
HETATM    8  O8  UNL     1      32.359  -5.275  29.810  1.00  0.00    -0.263 OA
HETATM    9  C14 UNL     1      31.870  -6.999  28.471  1.00  0.00     0.166 A 
ENDROOT
BRANCH   1  10
HETATM   10  C8  UNL     1      31.259  -8.852  26.896  1.00  0.00     0.119 C 
HETATM   11  N1  UNL     1      31.358  -9.160  25.665  1.00  0.00    -0.369 N 
ATOM     12  H1  UNL     1      31.431  -8.416  24.972  1.00  0.00     0.161 HD
BRANCH  11  13
HETATM   13  C7  UNL     1      31.367 -10.521  25.229  1.00  0.00     0.249 C 
BRANCH  13  14
HETATM   14  C6  UNL     1      29.971 -10.894  24.753  1.00  0.00     0.197 C 
BRANCH  14  15
HETATM   15  C5  UNL     1      29.300 -11.842  25.727  1.00  0.00     0.182 C 
BRANCH  15  16
HETATM   16  C4  UNL     1      27.984 -11.196  26.127  1.00  0.00     0.183 C 
BRANCH  16  17
HETATM   17  C2  UNL     1      27.519 -11.655  27.481  1.00  0.00     0.079 C 
HETATM   18  C1  UNL     1      28.322 -11.048  28.595  1.00  0.00     0.048 C 
HETATM   19  C3  UNL     1      26.075 -11.203  27.636  1.00  0.00     0.048 C 
BRANCH  17  20
HETATM   20  O1  UNL     1      27.505 -13.049  27.574  1.00  0.00    -0.388 OA
ATOM     21  H1  UNL     1      27.355 -13.330  28.469  1.00  0.00     0.210 HD
ENDBRANCH  17  20
ENDBRANCH  16  17
BRANCH  16  22
HETATM   22  O2  UNL     1      28.104  -9.806  26.165  1.00  0.00    -0.390 OA
ATOM     23  H2  UNL     1      28.999  -9.585  25.940  1.00  0.00     0.210 HD
ENDBRANCH  16  22
ENDBRANCH  15  16
BRANCH  15  24
HETATM   24  O3  UNL     1      28.999 -13.001  25.017  1.00  0.00    -0.390 OA
ATOM     25  H3  UNL     1      29.707 -13.153  24.402  1.00  0.00     0.210 HD
ENDBRANCH  15  24
ENDBRANCH  14  15
BRANCH  14  26
HETATM   26  O4  UNL     1      30.130 -11.571  23.548  1.00  0.00    -0.389 OA
ATOM     27  H4  UNL     1      29.824 -10.998  22.854  1.00  0.00     0.210 HD
ENDBRANCH  14  26
ENDBRANCH  13  14
BRANCH  13  28
HETATM   28  O5  UNL     1      32.223 -10.694  24.127  1.00  0.00    -0.374 OA
ATOM     29  H5  UNL     1      33.101 -10.776  24.479  1.00  0.00     0.212 HD
ENDBRANCH  13  28
ENDBRANCH  11  13
ENDBRANCH   1  10
BRANCH   9  30
HETATM   30  O9  UNL     1      32.571  -7.860  29.279  1.00  0.00    -0.354 OA
ATOM     31  H9  UNL     1      32.303  -8.768  29.353  1.00  0.00     0.218 HD
ENDBRANCH   9  30
BRANCH   6  32
HETATM   32  C10 UNL     1      31.007  -3.353  28.333  1.00  0.00     0.372 C 
HETATM   33  N5  UNL     1      32.231  -2.716  28.685  1.00  0.00     0.004 N 
HETATM   34  C11 UNL     1      31.761  -1.526  29.377  1.00  0.00     0.527 C 
ATOM     35  H52 UNL     1      32.884  -3.295  29.214  1.00  0.00     0.285 HD
ATOM     36  H51 UNL     1      32.868  -2.542  27.907  1.00  0.00     0.285 HD
HETATM   37  N6  UNL     1      30.751  -2.128  30.264  1.00  0.00     0.007 N 
HETATM   38  C12 UNL     1      29.988  -2.993  29.352  1.00  0.00     0.376 C 
ATOM     39  H62 UNL     1      31.131  -2.601  31.084  1.00  0.00     0.285 HD
ATOM     40  H61 UNL     1      30.188  -1.456  30.786  1.00  0.00     0.285 HD
BRANCH  34  41
HETATM   41  O6  UNL     1      31.097  -0.657  28.495  1.00  0.00    -0.349 OA
ATOM     42  H6  UNL     1      31.031   0.217  28.861  1.00  0.00     0.213 HD
ENDBRANCH  34  41
BRANCH  38  43
HETATM   43  O7  UNL     1      29.367  -4.026  29.985  1.00  0.00    -0.367 OA
ATOM     44  H7  UNL     1      29.669  -4.900  29.770  1.00  0.00     0.212 HD
ENDBRANCH  38  43
ENDBRANCH   6  32
TORSDOF 15
ENDMDL
MODEL 4
REMARK VINA RESULT: -8.480089065      1.017      1.136
REMARK  15 active torsions:
REMARK  status: ('A' for Active; 'I' for Inactive)
REMARK    1  A    between atoms: C2_2  and  O1_4 
REMARK    2  A    between atoms: C2_2  and  C4_6 
REMARK    3  A    between atoms: C4_6  and  O2_7 
REMARK    4  A    between atoms: C4_6  and  C5_9 
REMARK    5  A    between atoms: C5_9  and  O3_10 
REMARK    6  A    between atoms: C5_9  and  C6_12 
REMARK    7  A    between atoms: C6_12  and  O4_13 
REMARK    8  A    between atoms: C6_12  and  C7_15 
REMARK    9  A    between atoms: C7_15  and  O5_16 
REMARK   10  A    between atoms: C7_15  and  N1_18 
REMARK   11  A    between atoms: C8_20  and  C9_21 
REMARK   12  A    between atoms: N4_26  and  C10_27 
REMARK   13  A    between atoms: C11_31  and  O6_32 
REMARK   14  A    between atoms: C12_37  and  O7_38 
REMARK   15  A    between atoms: C14_42  and  O9_43 
ROOT
HETATM    1  C9  UNL     1      31.261  -7.245  27.044  1.00  0.00     0.103 A 
HETATM    2  N2  UNL     1      30.615  -6.238  26.377  1.00  0.00    -0.282 N 
ATOM      3  H2  UNL     1      30.170  -6.446  25.483  1.00  0.00     0.188 HD
HETATM    4  N3  UNL     1      30.547  -5.014  26.848  1.00  0.00    -0.235 N 
ATOM      5  H3  UNL     1      30.047  -4.321  26.290  1.00  0.00     0.208 HD
HETATM    6  N4  UNL     1      31.080  -4.610  27.994  1.00  0.00    -0.204 N 
HETATM    7  C13 UNL     1      31.725  -5.567  28.683  1.00  0.00     0.300 A 
HETATM    8  O8  UNL     1      32.262  -5.314  29.766  1.00  0.00    -0.263 OA
HETATM    9  C14 UNL     1      31.835  -6.894  28.239  1.00  0.00     0.166 A 
ENDROOT
BRANCH   1  10
HETATM   10  C8  UNL     1      31.295  -8.577  26.461  1.00  0.00     0.119 C 
HETATM   11  N1  UNL     1      30.725  -9.568  27.019  1.00  0.00    -0.369 N 
ATOM     12  H1  UNL     1      30.230  -9.425  27.900  1.00  0.00     0.161 HD
BRANCH  11  13
HETATM   13  C7  UNL     1      30.759 -10.876  26.446  1.00  0.00     0.249 C 
BRANCH  13  14
HETATM   14  C6  UNL     1      29.441 -11.133  25.730  1.00  0.00     0.197 C 
BRANCH  14  15
HETATM   15  C5  UNL     1      28.272 -11.036  26.690  1.00  0.00     0.182 C 
BRANCH  15  16
HETATM   16  C4  UNL     1      27.137 -11.837  26.075  1.00  0.00     0.183 C 
BRANCH  16  17
HETATM   17  C2  UNL     1      25.820 -11.552  26.743  1.00  0.00     0.079 C 
HETATM   18  C1  UNL     1      24.734 -11.244  25.753  1.00  0.00     0.048 C 
HETATM   19  C3  UNL     1      25.424 -12.806  27.506  1.00  0.00     0.048 C 
BRANCH  17  20
HETATM   20  O1  UNL     1      25.935 -10.535  27.694  1.00  0.00    -0.388 OA
ATOM     21  H1  UNL     1      25.089 -10.322  28.070  1.00  0.00     0.210 HD
ENDBRANCH  17  20
ENDBRANCH  16  17
BRANCH  16  22
HETATM   22  O2  UNL     1      26.999 -11.546  24.718  1.00  0.00    -0.390 OA
ATOM     23  H2  UNL     1      27.870 -11.482  24.345  1.00  0.00     0.210 HD
ENDBRANCH  16  22
ENDBRANCH  15  16
BRANCH  15  24
HETATM   24  O3  UNL     1      28.657 -11.683  27.860  1.00  0.00    -0.390 OA
ATOM     25  H3  UNL     1      29.444 -12.180  27.668  1.00  0.00     0.210 HD
ENDBRANCH  15  24
ENDBRANCH  14  15
BRANCH  14  26
HETATM   26  O4  UNL     1      29.493 -12.442  25.261  1.00  0.00    -0.389 OA
ATOM     27  H4  UNL     1      30.299 -12.539  24.768  1.00  0.00     0.210 HD
ENDBRANCH  14  26
ENDBRANCH  13  14
BRANCH  13  28
HETATM   28  O5  UNL     1      31.767 -10.976  25.471  1.00  0.00    -0.374 OA
ATOM     29  H5  UNL     1      32.370 -11.644  25.776  1.00  0.00     0.212 HD
ENDBRANCH  13  28
ENDBRANCH  11  13
ENDBRANCH   1  10
BRANCH   9  30
HETATM   30  O9  UNL     1      32.507  -7.832  28.983  1.00  0.00    -0.354 OA
ATOM     31  H9  UNL     1      32.189  -8.073  29.845  1.00  0.00     0.218 HD
ENDBRANCH   9  30
BRANCH   6  32
HETATM   32  C10 UNL     1      30.961  -3.253  28.439  1.00  0.00     0.372 C 
HETATM   33  N5  UNL     1      32.190  -2.598  28.737  1.00  0.00     0.004 N 
HETATM   34  C11 UNL     1      31.746  -1.496  29.575  1.00  0.00     0.527 C 
ATOM     35  H52 UNL     1      32.909  -3.194  29.149  1.00  0.00     0.285 HD
ATOM     36  H51 UNL     1      32.744  -2.328  27.924  1.00  0.00     0.285 HD
HETATM   37  N6  UNL     1      30.845  -2.217  30.490  1.00  0.00     0.007 N 
HETATM   38  C12 UNL     1      30.030  -3.030  29.574  1.00  0.00     0.376 C 
ATOM     39  H62 UNL     1      31.315  -2.745  31.225  1.00  0.00     0.285 HD
ATOM     40  H61 UNL     1      30.310  -1.620  31.122  1.00  0.00     0.285 HD
BRANCH  34  41
HETATM   41  O6  UNL     1      30.973  -0.581  28.842  1.00  0.00    -0.349 OA
ATOM     42  H6  UNL     1      30.964   0.272  29.260  1.00  0.00     0.213 HD
ENDBRANCH  34  41
BRANCH  38  43
HETATM   43  O7  UNL     1      29.507  -4.140  30.162  1.00  0.00    -0.367 OA
ATOM     44  H7  UNL     1      29.363  -4.892  29.600  1.00  0.00     0.212 HD
ENDBRANCH  38  43
ENDBRANCH   6  32
TORSDOF 15
ENDMDL
MODEL 5
REMARK VINA RESULT: -8.460393329      1.924      2.500
REMARK  15 active torsions:
REMARK  status: ('A' for Active; 'I' for Inactive)
REMARK    1  A    between atoms: C2_2  and  O1_4 
REMARK    2  A    between atoms: C2_2  and  C4_6 
REMARK    3  A    between atoms: C4_6  and  O2_7 
REMARK    4  A    between atoms: C4_6  and  C5_9 
REMARK    5  A    between atoms: C5_9  and  O3_10 
REMARK    6  A    between atoms: C5_9  and  C6_12 
REMARK    7  A    between atoms: C6_12  and  O4_13 
REMARK    8  A    between atoms: C6_12  and  C7_15 
REMARK    9  A    between atoms: C7_15  and  O5_16 
REMARK   10  A    between atoms: C7_15  and  N1_18 
REMARK   11  A    between atoms: C8_20  and  C9_21 
REMARK   12  A    between atoms: N4_26  and  C10_27 
REMARK   13  A    between atoms: C11_31  and  O6_32 
REMARK   14  A    between atoms: C12_37  and  O7_38 
REMARK   15  A    between atoms: C14_42  and  O9_43 
ROOT
HETATM    1  C9  UNL     1      31.569  -6.437  27.506  1.00  0.00     0.103 A 
HETATM    2  N2  UNL     1      32.027  -6.342  28.793  1.00  0.00    -0.282 N 
ATOM      3  H2  UNL     1      32.407  -7.174  29.243  1.00  0.00     0.188 HD
HETATM    4  N3  UNL     1      31.995  -5.215  29.469  1.00  0.00    -0.235 N 
ATOM      5  H3  UNL     1      32.356  -5.228  30.424  1.00  0.00     0.208 HD
HETATM    6  N4  UNL     1      31.528  -4.063  29.004  1.00  0.00    -0.204 N 
HETATM    7  C13 UNL     1      31.067  -4.110  27.743  1.00  0.00     0.300 A 
HETATM    8  O8  UNL     1      30.607  -3.102  27.199  1.00  0.00    -0.263 OA
HETATM    9  C14 UNL     1      31.072  -5.278  26.965  1.00  0.00     0.166 A 
ENDROOT
BRANCH   1  10
HETATM   10  C8  UNL     1      31.636  -7.717  26.820  1.00  0.00     0.119 C 
HETATM   11  N1  UNL     1      30.591  -8.397  26.565  1.00  0.00    -0.369 N 
ATOM     12  H1  UNL     1      29.682  -8.035  26.850  1.00  0.00     0.161 HD
BRANCH  11  13
HETATM   13  C7  UNL     1      30.659  -9.655  25.890  1.00  0.00     0.249 C 
BRANCH  13  14
HETATM   14  C6  UNL     1      29.254 -10.066  25.474  1.00  0.00     0.197 C 
BRANCH  14  15
HETATM   15  C5  UNL     1      28.751 -11.219  26.318  1.00  0.00     0.182 C 
BRANCH  15  16
HETATM   16  C4  UNL     1      27.246 -11.050  26.434  1.00  0.00     0.183 C 
BRANCH  16  17
HETATM   17  C2  UNL     1      26.745 -11.381  27.813  1.00  0.00     0.079 C 
HETATM   18  C1  UNL     1      26.231 -12.788  27.909  1.00  0.00     0.048 C 
HETATM   19  C3  UNL     1      27.925 -11.240  28.763  1.00  0.00     0.048 C 
BRANCH  17  20
HETATM   20  O1  UNL     1      25.783 -10.464  28.245  1.00  0.00    -0.388 OA
ATOM     21  H1  UNL     1      25.664  -9.769  27.609  1.00  0.00     0.210 HD
ENDBRANCH  17  20
ENDBRANCH  16  17
BRANCH  16  22
HETATM   22  O2  UNL     1      26.869  -9.737  26.146  1.00  0.00    -0.390 OA
ATOM     23  H2  UNL     1      26.083  -9.770  25.614  1.00  0.00     0.210 HD
ENDBRANCH  16  22
ENDBRANCH  15  16
BRANCH  15  24
HETATM   24  O3  UNL     1      28.988 -12.383  25.592  1.00  0.00    -0.390 OA
ATOM     25  H3  UNL     1      29.591 -12.917  26.096  1.00  0.00     0.210 HD
ENDBRANCH  15  24
ENDBRANCH  14  15
BRANCH  14  26
HETATM   26  O4  UNL     1      29.345 -10.513  24.160  1.00  0.00    -0.389 OA
ATOM     27  H4  UNL     1      30.263 -10.509  23.917  1.00  0.00     0.210 HD
ENDBRANCH  14  26
ENDBRANCH  13  14
BRANCH  13  28
HETATM   28  O5  UNL     1      31.412  -9.556  24.708  1.00  0.00    -0.374 OA
ATOM     29  H5  UNL     1      32.042  -8.859  24.848  1.00  0.00     0.212 HD
ENDBRANCH  13  28
ENDBRANCH  11  13
ENDBRANCH   1  10
BRANCH   9  30
HETATM   30  O9  UNL     1      30.587  -5.270  25.680  1.00  0.00    -0.354 OA
ATOM     31  H9  UNL     1      31.136  -4.969  24.966  1.00  0.00     0.218 HD
ENDBRANCH   9  30
BRANCH   6  32
HETATM   32  C10 UNL     1      31.528  -2.876  29.808  1.00  0.00     0.372 C 
HETATM   33  N5  UNL     1      30.261  -2.249  29.969  1.00  0.00     0.004 N 
HETATM   34  C11 UNL     1      30.641  -0.906  30.377  1.00  0.00     0.527 C 
ATOM     35  H52 UNL     1      29.647  -2.296  29.155  1.00  0.00     0.285 HD
ATOM     36  H51 UNL     1      29.618  -2.727  30.601  1.00  0.00     0.285 HD
HETATM   37  N6  UNL     1      31.686  -0.621  29.378  1.00  0.00     0.007 N 
HETATM   38  C12 UNL     1      32.513  -1.837  29.415  1.00  0.00     0.376 C 
ATOM     39  H62 UNL     1      31.336  -0.372  28.453  1.00  0.00     0.285 HD
ATOM     40  H61 UNL     1      32.197   0.248  29.531  1.00  0.00     0.285 HD
BRANCH  34  41
HETATM   41  O6  UNL     1      31.249  -0.913  31.644  1.00  0.00    -0.349 OA
ATOM     42  H6  UNL     1      30.663  -1.266  32.303  1.00  0.00     0.213 HD
ENDBRANCH  34  41
BRANCH  38  43
HETATM   43  O7  UNL     1      33.201  -2.053  28.260  1.00  0.00    -0.367 OA
ATOM     44  H7  UNL     1      33.163  -2.931  27.900  1.00  0.00     0.212 HD
ENDBRANCH  38  43
ENDBRANCH   6  32
TORSDOF 15
ENDMDL
