MODEL 1
REMARK VINA RESULT: -9.503840863      0.000      0.000
REMARK  12 active torsions:
REMARK  status: ('A' for Active; 'I' for Inactive)
REMARK    1  A    between atoms: N1_2  and  N2_3 
REMARK    2  A    between atoms: N1_2  and  C2_6 
REMARK    3  A    between atoms: N5_14  and  C6_15 
REMARK    4  A    between atoms: C7_17  and  C8_18 
REMARK    5  A    between atoms: C8_18  and  O2_19 
REMARK    6  A    between atoms: C8_18  and  C9_21 
REMARK    7  A    between atoms: C9_21  and  N6_22 
REMARK    8  A    between atoms: C9_21  and  C11_27 
REMARK       I    between atoms: N6_22  and  C10_24 
REMARK    9  A    between atoms: C11_27  and  N8_28 
REMARK   10  A    between atoms: C11_27  and  O4_32 
REMARK   11  A    between atoms: C12_34  and  O5_35 
REMARK   12  A    between atoms: C13_37  and  O6_38 
ROOT
HETATM    1  C6  UNL     1      29.407 -11.364  25.864  1.00  0.00     0.262 C 
HETATM    2  O1  UNL     1      29.745 -10.352  26.728  1.00  0.00    -0.353 OA
HETATM    3  C7  UNL     1      30.944  -9.810  26.342  1.00  0.00     0.186 C 
HETATM    4  C12 UNL     1      31.145 -10.098  24.883  1.00  0.00     0.182 C 
HETATM    5  C13 UNL     1      30.083 -11.095  24.543  1.00  0.00     0.198 C 
ENDROOT
BRANCH   1   6
HETATM    6  N5  UNL     1      27.961 -11.424  25.676  1.00  0.00    -0.297 N 
HETATM    7  C3  UNL     1      27.053 -11.804  26.594  1.00  0.00     0.159 A 
HETATM    8  N3  UNL     1      27.170 -12.210  27.849  1.00  0.00    -0.172 N 
HETATM    9  C4  UNL     1      25.776 -11.736  26.066  1.00  0.00     0.147 A 
HETATM   10  C2  UNL     1      26.112 -12.550  28.606  1.00  0.00     0.702 A 
ATOM     11  H3  UNL     1      28.102 -12.267  28.259  1.00  0.00     0.186 HD
HETATM   12  N9  UNL     1      24.865 -12.478  28.072  1.00  0.00    -0.152 N 
HETATM   13  C14 UNL     1      24.666 -12.076  26.809  1.00  0.00     0.290 A 
ATOM     14  H9  UNL     1      24.061 -12.735  28.644  1.00  0.00     0.187 HD
HETATM   15  O7  UNL     1      23.491 -12.033  26.380  1.00  0.00    -0.265 OA
HETATM   16  N4  UNL     1      25.923 -11.306  24.801  1.00  0.00    -0.345 N 
HETATM   17  C5  UNL     1      27.255 -11.118  24.572  1.00  0.00     0.188 A 
ATOM     18  H4  UNL     1      25.171 -11.147  24.130  1.00  0.00     0.167 HD
BRANCH  10  19
HETATM   19  N1  UNL     1      26.333 -12.972  29.936  1.00  0.00    -0.135 N 
HETATM   20  C1  UNL     1      25.495 -13.966  30.535  1.00  0.00     0.197 C 
BRANCH  19  21
HETATM   21  N2  UNL     1      27.377 -12.408  30.653  1.00  0.00    -0.329 N 
ATOM     22  H22 UNL     1      27.212 -11.538  31.161  1.00  0.00     0.177 HD
ATOM     23  H21 UNL     1      28.293 -12.857  30.673  1.00  0.00     0.177 HD
ENDBRANCH  19  21
ENDBRANCH  10  19
ENDBRANCH   1   6
BRANCH   5  24
HETATM   24  O6  UNL     1      29.125 -10.565  23.682  1.00  0.00    -0.388 OA
ATOM     25  H6  UNL     1      28.484 -11.245  23.514  1.00  0.00     0.210 HD
ENDBRANCH   5  24
BRANCH   3  26
HETATM   26  C8  UNL     1      30.870  -8.309  26.610  1.00  0.00     0.176 C 
BRANCH  26  27
HETATM   27  O2  UNL     1      29.872  -8.016  27.508  1.00  0.00    -0.391 OA
ATOM     28  H2  UNL     1      29.805  -7.080  27.652  1.00  0.00     0.210 HD
ENDBRANCH  26  27
BRANCH  26  29
HETATM   29  C9  UNL     1      32.238  -7.860  27.066  1.00  0.00     0.173 C 
BRANCH  29  30
HETATM   30  N6  UNL     1      32.593  -6.664  26.334  1.00  0.00    -0.334 N 
HETATM   31  C10 UNL     1      33.320  -6.678  25.131  1.00  0.00     0.329 C 
HETATM   32  N7  UNL     1      33.681  -5.535  24.396  1.00  0.00    -0.040 NA
HETATM   33  O3  UNL     1      33.690  -7.803  24.656  1.00  0.00    -0.251 OA
ATOM     34  H6  UNL     1      32.300  -5.762  26.711  1.00  0.00     0.164 HD
ENDBRANCH  29  30
BRANCH  29  35
HETATM   35  C11 UNL     1      32.248  -7.499  28.535  1.00  0.00     0.341 C 
BRANCH  35  36
HETATM   36  N8  UNL     1      31.995  -6.088  28.706  1.00  0.00    -0.051 N 
ATOM     37  H83 UNL     1      32.335  -5.542  27.914  1.00  0.00     0.277 HD
ATOM     38  H82 UNL     1      31.002  -5.868  28.625  1.00  0.00     0.277 HD
ATOM     39  H81 UNL     1      32.386  -5.763  29.589  1.00  0.00     0.277 HD
ENDBRANCH  35  36
BRANCH  35  40
HETATM   40  O4  UNL     1      33.459  -7.844  29.151  1.00  0.00    -0.368 OA
ATOM     41  H4  UNL     1      33.348  -8.539  29.789  1.00  0.00     0.212 HD
ENDBRANCH  35  40
ENDBRANCH  29  35
ENDBRANCH  26  29
ENDBRANCH   3  26
BRANCH   4  42
HETATM   42  O5  UNL     1      32.390 -10.606  24.585  1.00  0.00    -0.390 OA
ATOM     43  H5  UNL     1      32.452 -10.975  23.712  1.00  0.00     0.210 HD
ENDBRANCH   4  42
TORSDOF 12
ENDMDL
MODEL 2
REMARK VINA RESULT: -9.232546021      1.865      3.125
REMARK  12 active torsions:
REMARK  status: ('A' for Active; 'I' for Inactive)
REMARK    1  A    between atoms: N1_2  and  N2_3 
REMARK    2  A    between atoms: N1_2  and  C2_6 
REMARK    3  A    between atoms: N5_14  and  C6_15 
REMARK    4  A    between atoms: C7_17  and  C8_18 
REMARK    5  A    between atoms: C8_18  and  O2_19 
REMARK    6  A    between atoms: C8_18  and  C9_21 
REMARK    7  A    between atoms: C9_21  and  N6_22 
REMARK    8  A    between atoms: C9_21  and  C11_27 
REMARK       I    between atoms: N6_22  and  C10_24 
REMARK    9  A    between atoms: C11_27  and  N8_28 
REMARK   10  A    between atoms: C11_27  and  O4_32 
REMARK   11  A    between atoms: C12_34  and  O5_35 
REMARK   12  A    between atoms: C13_37  and  O6_38 
ROOT
HETATM    1  C6  UNL     1      28.947  -9.821  26.375  1.00  0.00     0.262 C 
HETATM    2  O1  UNL     1      29.858  -9.101  25.643  1.00  0.00    -0.353 OA
HETATM    3  C7  UNL     1      30.679  -8.409  26.497  1.00  0.00     0.186 C 
HETATM    4  C12 UNL     1      30.668  -9.103  27.828  1.00  0.00     0.182 C 
HETATM    5  C13 UNL     1      29.548 -10.089  27.733  1.00  0.00     0.198 C 
ENDROOT
BRANCH   1   6
HETATM    6  N5  UNL     1      28.635 -11.084  25.714  1.00  0.00    -0.297 N 
HETATM    7  C3  UNL     1      27.766 -12.016  26.146  1.00  0.00     0.159 A 
HETATM    8  N3  UNL     1      26.984 -12.080  27.214  1.00  0.00    -0.172 N 
HETATM    9  C4  UNL     1      27.726 -13.084  25.267  1.00  0.00     0.147 A 
HETATM   10  C2  UNL     1      26.174 -13.124  27.462  1.00  0.00     0.702 A 
ATOM     11  H3  UNL     1      26.997 -11.304  27.875  1.00  0.00     0.186 HD
HETATM   12  N9  UNL     1      26.148 -14.164  26.588  1.00  0.00    -0.152 N 
HETATM   13  C14 UNL     1      26.910 -14.172  25.486  1.00  0.00     0.290 A 
ATOM     14  H9  UNL     1      25.534 -14.956  26.775  1.00  0.00     0.187 HD
HETATM   15  O7  UNL     1      26.836 -15.163  24.723  1.00  0.00    -0.265 OA
HETATM   16  N4  UNL     1      28.594 -12.784  24.285  1.00  0.00    -0.345 N 
HETATM   17  C5  UNL     1      29.142 -11.566  24.564  1.00  0.00     0.188 A 
ATOM     18  H4  UNL     1      28.805 -13.365  23.473  1.00  0.00     0.167 HD
BRANCH  10  19
HETATM   19  N1  UNL     1      25.375 -13.104  28.627  1.00  0.00    -0.135 N 
HETATM   20  C1  UNL     1      25.807 -13.768  29.819  1.00  0.00     0.197 C 
BRANCH  19  21
HETATM   21  N2  UNL     1      24.164 -12.431  28.598  1.00  0.00    -0.329 N 
ATOM     22  H22 UNL     1      24.047 -11.601  29.179  1.00  0.00     0.177 HD
ATOM     23  H21 UNL     1      23.403 -12.762  28.003  1.00  0.00     0.177 HD
ENDBRANCH  19  21
ENDBRANCH  10  19
ENDBRANCH   1   6
BRANCH   5  24
HETATM   24  O6  UNL     1      30.007 -11.404  27.736  1.00  0.00    -0.388 OA
ATOM     25  H6  UNL     1      29.434 -11.906  28.303  1.00  0.00     0.210 HD
ENDBRANCH   5  24
BRANCH   3  26
HETATM   26  C8  UNL     1      32.075  -8.406  25.880  1.00  0.00     0.176 C 
BRANCH  26  27
HETATM   27  O2  UNL     1      32.180  -9.353  24.889  1.00  0.00    -0.391 OA
ATOM     28  H2  UNL     1      33.089  -9.552  24.702  1.00  0.00     0.210 HD
ENDBRANCH  26  27
BRANCH  26  29
HETATM   29  C9  UNL     1      32.358  -7.002  25.400  1.00  0.00     0.173 C 
BRANCH  29  30
HETATM   30  N6  UNL     1      32.242  -6.103  26.528  1.00  0.00    -0.334 N 
HETATM   31  C10 UNL     1      31.243  -5.120  26.636  1.00  0.00     0.329 C 
HETATM   32  N7  UNL     1      31.103  -4.232  27.717  1.00  0.00    -0.040 NA
HETATM   33  O3  UNL     1      30.391  -5.009  25.692  1.00  0.00    -0.251 OA
ATOM     34  H6  UNL     1      32.921  -6.186  27.285  1.00  0.00     0.164 HD
ENDBRANCH  29  30
BRANCH  29  35
HETATM   35  C11 UNL     1      33.766  -6.865  24.867  1.00  0.00     0.341 C 
BRANCH  35  36
HETATM   36  N8  UNL     1      34.032  -5.493  24.504  1.00  0.00    -0.051 N 
ATOM     37  H83 UNL     1      35.026  -5.271  24.557  1.00  0.00     0.277 HD
ATOM     38  H82 UNL     1      33.896  -5.330  23.507  1.00  0.00     0.277 HD
ATOM     39  H81 UNL     1      33.470  -4.861  25.073  1.00  0.00     0.277 HD
ENDBRANCH  35  36
BRANCH  35  40
HETATM   40  O4  UNL     1      33.995  -7.703  23.767  1.00  0.00    -0.368 OA
ATOM     41  H4  UNL     1      34.503  -7.271  23.091  1.00  0.00     0.212 HD
ENDBRANCH  35  40
ENDBRANCH  29  35
ENDBRANCH  26  29
ENDBRANCH   3  26
BRANCH   4  42
HETATM   42  O5  UNL     1      30.467  -8.254  28.893  1.00  0.00    -0.390 OA
ATOM     43  H5  UNL     1      29.681  -7.725  28.816  1.00  0.00     0.210 HD
ENDBRANCH   4  42
TORSDOF 12
ENDMDL
MODEL 3
REMARK VINA RESULT: -9.176569618      2.050      7.759
REMARK  12 active torsions:
REMARK  status: ('A' for Active; 'I' for Inactive)
REMARK    1  A    between atoms: N1_2  and  N2_3 
REMARK    2  A    between atoms: N1_2  and  C2_6 
REMARK    3  A    between atoms: N5_14  and  C6_15 
REMARK    4  A    between atoms: C7_17  and  C8_18 
REMARK    5  A    between atoms: C8_18  and  O2_19 
REMARK    6  A    between atoms: C8_18  and  C9_21 
REMARK    7  A    between atoms: C9_21  and  N6_22 
REMARK    8  A    between atoms: C9_21  and  C11_27 
REMARK       I    between atoms: N6_22  and  C10_24 
REMARK    9  A    between atoms: C11_27  and  N8_28 
REMARK   10  A    between atoms: C11_27  and  O4_32 
REMARK   11  A    between atoms: C12_34  and  O5_35 
REMARK   12  A    between atoms: C13_37  and  O6_38 
ROOT
HETATM    1  C6  UNL     1      29.126 -10.421  25.081  1.00  0.00     0.262 C 
HETATM    2  O1  UNL     1      27.952 -11.086  25.333  1.00  0.00    -0.353 OA
HETATM    3  C7  UNL     1      27.860 -12.171  24.499  1.00  0.00     0.186 C 
HETATM    4  C12 UNL     1      29.245 -12.550  24.061  1.00  0.00     0.182 C 
HETATM    5  C13 UNL     1      30.106 -11.408  24.498  1.00  0.00     0.198 C 
ENDROOT
BRANCH   1   6
HETATM    6  N5  UNL     1      29.671  -9.850  26.309  1.00  0.00    -0.297 N 
HETATM    7  C3  UNL     1      30.729  -9.023  26.402  1.00  0.00     0.159 A 
HETATM    8  N3  UNL     1      31.542  -8.508  25.492  1.00  0.00    -0.172 N 
HETATM    9  C4  UNL     1      30.960  -8.683  27.723  1.00  0.00     0.147 A 
HETATM   10  C2  UNL     1      32.559  -7.686  25.804  1.00  0.00     0.702 A 
ATOM     11  H3  UNL     1      31.389  -8.745  24.512  1.00  0.00     0.186 HD
HETATM   12  N9  UNL     1      32.771  -7.363  27.107  1.00  0.00    -0.152 N 
HETATM   13  C14 UNL     1      31.992  -7.844  28.085  1.00  0.00     0.290 A 
ATOM     14  H9  UNL     1      33.542  -6.739  27.346  1.00  0.00     0.187 HD
HETATM   15  O7  UNL     1      32.244  -7.505  29.263  1.00  0.00    -0.265 OA
HETATM   16  N4  UNL     1      30.018  -9.322  28.439  1.00  0.00    -0.345 N 
HETATM   17  C5  UNL     1      29.238 -10.030  27.570  1.00  0.00     0.188 A 
ATOM     18  H4  UNL     1      29.906  -9.285  29.452  1.00  0.00     0.167 HD
BRANCH  10  19
HETATM   19  N1  UNL     1      33.374  -7.185  24.765  1.00  0.00    -0.135 N 
HETATM   20  C1  UNL     1      33.682  -5.789  24.689  1.00  0.00     0.197 C 
BRANCH  19  21
HETATM   21  N2  UNL     1      33.871  -8.067  23.819  1.00  0.00    -0.329 N 
ATOM     22  H22 UNL     1      34.128  -7.709  22.899  1.00  0.00     0.177 HD
ATOM     23  H21 UNL     1      33.978  -9.057  24.040  1.00  0.00     0.177 HD
ENDBRANCH  19  21
ENDBRANCH  10  19
ENDBRANCH   1   6
BRANCH   5  24
HETATM   24  O6  UNL     1      30.985 -11.777  25.514  1.00  0.00    -0.388 OA
ATOM     25  H6  UNL     1      31.869 -11.634  25.194  1.00  0.00     0.210 HD
ENDBRANCH   5  24
BRANCH   3  26
HETATM   26  C8  UNL     1      27.197 -13.296  25.290  1.00  0.00     0.176 C 
BRANCH  26  27
HETATM   27  O2  UNL     1      28.105 -14.280  25.604  1.00  0.00    -0.391 OA
ATOM     28  H2  UNL     1      28.678 -14.463  24.869  1.00  0.00     0.210 HD
ENDBRANCH  26  27
BRANCH  26  29
HETATM   29  C9  UNL     1      26.542 -12.676  26.501  1.00  0.00     0.173 C 
BRANCH  29  30
HETATM   30  N6  UNL     1      25.294 -12.072  26.086  1.00  0.00    -0.334 N 
HETATM   31  C10 UNL     1      24.345 -11.558  26.985  1.00  0.00     0.329 C 
HETATM   32  N7  UNL     1      23.124 -10.966  26.614  1.00  0.00    -0.040 NA
HETATM   33  O3  UNL     1      24.591 -11.624  28.236  1.00  0.00    -0.251 OA
ATOM     34  H6  UNL     1      25.093 -12.018  25.087  1.00  0.00     0.164 HD
ENDBRANCH  29  30
BRANCH  29  35
HETATM   35  C11 UNL     1      26.205 -13.713  27.549  1.00  0.00     0.341 C 
BRANCH  35  36
HETATM   36  N8  UNL     1      27.387 -14.068  28.299  1.00  0.00    -0.051 N 
ATOM     37  H83 UNL     1      27.156 -14.425  29.226  1.00  0.00     0.277 HD
ATOM     38  H82 UNL     1      27.839 -14.902  27.925  1.00  0.00     0.277 HD
ATOM     39  H81 UNL     1      28.028 -13.276  28.345  1.00  0.00     0.277 HD
ENDBRANCH  35  36
BRANCH  35  40
HETATM   40  O4  UNL     1      25.635 -14.862  26.985  1.00  0.00    -0.368 OA
ATOM     41  H4  UNL     1      24.696 -14.776  26.875  1.00  0.00     0.212 HD
ENDBRANCH  35  40
ENDBRANCH  29  35
ENDBRANCH  26  29
ENDBRANCH   3  26
BRANCH   4  42
HETATM   42  O5  UNL     1      29.362 -12.743  22.703  1.00  0.00    -0.390 OA
ATOM     43  H5  UNL     1      29.422 -11.935  22.206  1.00  0.00     0.210 HD
ENDBRANCH   4  42
TORSDOF 12
ENDMDL
MODEL 4
REMARK VINA RESULT: -8.831733870      2.375      7.599
REMARK  12 active torsions:
REMARK  status: ('A' for Active; 'I' for Inactive)
REMARK    1  A    between atoms: N1_2  and  N2_3 
REMARK    2  A    between atoms: N1_2  and  C2_6 
REMARK    3  A    between atoms: N5_14  and  C6_15 
REMARK    4  A    between atoms: C7_17  and  C8_18 
REMARK    5  A    between atoms: C8_18  and  O2_19 
REMARK    6  A    between atoms: C8_18  and  C9_21 
REMARK    7  A    between atoms: C9_21  and  N6_22 
REMARK    8  A    between atoms: C9_21  and  C11_27 
REMARK       I    between atoms: N6_22  and  C10_24 
REMARK    9  A    between atoms: C11_27  and  N8_28 
REMARK   10  A    between atoms: C11_27  and  O4_32 
REMARK   11  A    between atoms: C12_34  and  O5_35 
REMARK   12  A    between atoms: C13_37  and  O6_38 
ROOT
HETATM    1  C6  UNL     1      26.641 -10.498  26.268  1.00  0.00     0.262 C 
HETATM    2  O1  UNL     1      26.412 -11.156  27.451  1.00  0.00    -0.353 OA
HETATM    3  C7  UNL     1      25.073 -11.429  27.564  1.00  0.00     0.186 C 
HETATM    4  C12 UNL     1      24.475 -11.441  26.187  1.00  0.00     0.182 C 
HETATM    5  C13 UNL     1      25.542 -10.872  25.306  1.00  0.00     0.198 C 
ENDROOT
BRANCH   1   6
HETATM    6  N5  UNL     1      27.936 -10.874  25.709  1.00  0.00    -0.297 N 
HETATM    7  C3  UNL     1      29.081 -10.175  25.810  1.00  0.00     0.159 A 
HETATM    8  N3  UNL     1      29.376  -9.025  26.398  1.00  0.00    -0.172 N 
HETATM    9  C4  UNL     1      30.108 -10.835  25.158  1.00  0.00     0.147 A 
HETATM   10  C2  UNL     1      30.610  -8.492  26.380  1.00  0.00     0.702 A 
ATOM     11  H3  UNL     1      28.634  -8.523  26.885  1.00  0.00     0.186 HD
HETATM   12  N9  UNL     1      31.606  -9.153  25.735  1.00  0.00    -0.152 N 
HETATM   13  C14 UNL     1      31.387 -10.322  25.117  1.00  0.00     0.290 A 
ATOM     14  H9  UNL     1      32.544  -8.751  25.720  1.00  0.00     0.187 HD
HETATM   15  O7  UNL     1      32.350 -10.877  24.541  1.00  0.00    -0.265 OA
HETATM   16  N4  UNL     1      29.564 -11.956  24.653  1.00  0.00    -0.345 N 
HETATM   17  C5  UNL     1      28.242 -11.972  24.993  1.00  0.00     0.188 A 
ATOM     18  H4  UNL     1      30.053 -12.668  24.111  1.00  0.00     0.167 HD
BRANCH  10  19
HETATM   19  N1  UNL     1      30.830  -7.260  27.034  1.00  0.00    -0.135 N 
HETATM   20  C1  UNL     1      31.726  -7.176  28.148  1.00  0.00     0.197 C 
BRANCH  19  21
HETATM   21  N2  UNL     1      30.164  -6.132  26.581  1.00  0.00    -0.329 N 
ATOM     22  H22 UNL     1      30.577  -5.215  26.751  1.00  0.00     0.177 HD
ATOM     23  H21 UNL     1      29.276  -6.220  26.085  1.00  0.00     0.177 HD
ENDBRANCH  19  21
ENDBRANCH  10  19
ENDBRANCH   1   6
BRANCH   5  24
HETATM   24  O6  UNL     1      26.057 -11.822  24.428  1.00  0.00    -0.388 OA
ATOM     25  H6  UNL     1      26.856 -11.466  24.057  1.00  0.00     0.210 HD
ENDBRANCH   5  24
BRANCH   3  26
HETATM   26  C8  UNL     1      24.944 -12.792  28.240  1.00  0.00     0.176 C 
BRANCH  26  27
HETATM   27  O2  UNL     1      25.000 -13.809  27.316  1.00  0.00    -0.391 OA
ATOM     28  H2  UNL     1      25.512 -13.553  26.558  1.00  0.00     0.210 HD
ENDBRANCH  26  27
BRANCH  26  29
HETATM   29  C9  UNL     1      26.021 -12.880  29.295  1.00  0.00     0.173 C 
BRANCH  29  30
HETATM   30  N6  UNL     1      25.699 -13.974  30.185  1.00  0.00    -0.334 N 
HETATM   31  C10 UNL     1      26.029 -13.984  31.551  1.00  0.00     0.329 C 
HETATM   32  N7  UNL     1      25.730 -15.030  32.442  1.00  0.00    -0.040 NA
HETATM   33  O3  UNL     1      26.646 -12.978  32.037  1.00  0.00    -0.251 OA
ATOM     34  H6  UNL     1      25.206 -14.780  29.801  1.00  0.00     0.164 HD
ENDBRANCH  29  30
BRANCH  29  35
HETATM   35  C11 UNL     1      27.374 -13.185  28.690  1.00  0.00     0.341 C 
BRANCH  35  36
HETATM   36  N8  UNL     1      27.559 -14.612  28.573  1.00  0.00    -0.051 N 
ATOM     37  H83 UNL     1      28.546 -14.866  28.545  1.00  0.00     0.277 HD
ATOM     38  H82 UNL     1      27.302 -15.101  29.430  1.00  0.00     0.277 HD
ATOM     39  H81 UNL     1      27.051 -14.969  27.764  1.00  0.00     0.277 HD
ENDBRANCH  35  36
BRANCH  35  40
HETATM   40  O4  UNL     1      28.420 -12.628  29.438  1.00  0.00    -0.368 OA
ATOM     41  H4  UNL     1      28.396 -12.906  30.346  1.00  0.00     0.212 HD
ENDBRANCH  35  40
ENDBRANCH  29  35
ENDBRANCH  26  29
ENDBRANCH   3  26
BRANCH   4  42
HETATM   42  O5  UNL     1      23.321 -10.699  26.078  1.00  0.00    -0.390 OA
ATOM     43  H5  UNL     1      22.594 -11.178  25.697  1.00  0.00     0.210 HD
ENDBRANCH   4  42
TORSDOF 12
ENDMDL
MODEL 5
REMARK VINA RESULT: -8.809785080      0.954      1.161
REMARK  12 active torsions:
REMARK  status: ('A' for Active; 'I' for Inactive)
REMARK    1  A    between atoms: N1_2  and  N2_3 
REMARK    2  A    between atoms: N1_2  and  C2_6 
REMARK    3  A    between atoms: N5_14  and  C6_15 
REMARK    4  A    between atoms: C7_17  and  C8_18 
REMARK    5  A    between atoms: C8_18  and  O2_19 
REMARK    6  A    between atoms: C8_18  and  C9_21 
REMARK    7  A    between atoms: C9_21  and  N6_22 
REMARK    8  A    between atoms: C9_21  and  C11_27 
REMARK       I    between atoms: N6_22  and  C10_24 
REMARK    9  A    between atoms: C11_27  and  N8_28 
REMARK   10  A    between atoms: C11_27  and  O4_32 
REMARK   11  A    between atoms: C12_34  and  O5_35 
REMARK   12  A    between atoms: C13_37  and  O6_38 
ROOT
HETATM    1  C6  UNL     1      29.492 -11.542  25.772  1.00  0.00     0.262 C 
HETATM    2  O1  UNL     1      29.776 -10.724  26.837  1.00  0.00    -0.353 OA
HETATM    3  C7  UNL     1      30.918 -10.014  26.569  1.00  0.00     0.186 C 
HETATM    4  C12 UNL     1      31.098  -9.951  25.081  1.00  0.00     0.182 C 
HETATM    5  C13 UNL     1      30.107 -10.931  24.537  1.00  0.00     0.198 C 
ENDROOT
BRANCH   1   6
HETATM    6  N5  UNL     1      28.050 -11.676  25.591  1.00  0.00    -0.297 N 
HETATM    7  C3  UNL     1      27.158 -12.027  26.534  1.00  0.00     0.159 A 
HETATM    8  N3  UNL     1      27.290 -12.337  27.816  1.00  0.00    -0.172 N 
HETATM    9  C4  UNL     1      25.880 -12.052  26.005  1.00  0.00     0.147 A 
HETATM   10  C2  UNL     1      26.246 -12.666  28.597  1.00  0.00     0.702 A 
ATOM     11  H3  UNL     1      28.222 -12.324  28.227  1.00  0.00     0.186 HD
HETATM   12  N9  UNL     1      24.998 -12.685  28.061  1.00  0.00    -0.152 N 
HETATM   13  C14 UNL     1      24.784 -12.384  26.772  1.00  0.00     0.290 A 
ATOM     14  H9  UNL     1      24.205 -12.934  28.652  1.00  0.00     0.187 HD
HETATM   15  O7  UNL     1      23.608 -12.421  26.343  1.00  0.00    -0.265 OA
HETATM   16  N4  UNL     1      26.010 -11.707  24.712  1.00  0.00    -0.345 N 
HETATM   17  C5  UNL     1      27.333 -11.480  24.468  1.00  0.00     0.188 A 
ATOM     18  H4  UNL     1      25.253 -11.629  24.033  1.00  0.00     0.167 HD
BRANCH  10  19
HETATM   19  N1  UNL     1      26.483 -12.981  29.953  1.00  0.00    -0.135 N 
HETATM   20  C1  UNL     1      25.706 -13.984  30.616  1.00  0.00     0.197 C 
BRANCH  19  21
HETATM   21  N2  UNL     1      27.482 -12.302  30.635  1.00  0.00    -0.329 N 
ATOM     22  H22 UNL     1      27.967 -12.776  31.397  1.00  0.00     0.177 HD
ATOM     23  H21 UNL     1      27.726 -11.346  30.377  1.00  0.00     0.177 HD
ENDBRANCH  19  21
ENDBRANCH  10  19
ENDBRANCH   1   6
BRANCH   5  24
HETATM   24  O6  UNL     1      29.087 -10.302  23.827  1.00  0.00    -0.388 OA
ATOM     25  H6  UNL     1      29.031  -9.406  24.138  1.00  0.00     0.210 HD
ENDBRANCH   5  24
BRANCH   3  26
HETATM   26  C8  UNL     1      30.736  -8.621  27.168  1.00  0.00     0.176 C 
BRANCH  26  27
HETATM   27  O2  UNL     1      29.993  -8.674  28.324  1.00  0.00    -0.391 OA
ATOM     28  H2  UNL     1      29.455  -7.897  28.419  1.00  0.00     0.210 HD
ENDBRANCH  26  27
BRANCH  26  29
HETATM   29  C9  UNL     1      32.111  -8.028  27.366  1.00  0.00     0.173 C 
BRANCH  29  30
HETATM   30  N6  UNL     1      32.194  -6.804  26.600  1.00  0.00    -0.334 N 
HETATM   31  C10 UNL     1      31.093  -5.965  26.357  1.00  0.00     0.329 C 
HETATM   32  N7  UNL     1      31.140  -4.770  25.618  1.00  0.00    -0.040 NA
HETATM   33  O3  UNL     1      29.957  -6.296  26.836  1.00  0.00    -0.251 OA
ATOM     34  H6  UNL     1      33.100  -6.535  26.214  1.00  0.00     0.164 HD
ENDBRANCH  29  30
BRANCH  29  35
HETATM   35  C11 UNL     1      32.360  -7.662  28.813  1.00  0.00     0.341 C 
BRANCH  35  36
HETATM   36  N8  UNL     1      32.165  -6.245  29.011  1.00  0.00    -0.051 N 
ATOM     37  H83 UNL     1      31.503  -5.855  28.342  1.00  0.00     0.277 HD
ATOM     38  H82 UNL     1      31.647  -6.049  29.868  1.00  0.00     0.277 HD
ATOM     39  H81 UNL     1      33.061  -5.759  28.988  1.00  0.00     0.277 HD
ENDBRANCH  35  36
BRANCH  35  40
HETATM   40  O4  UNL     1      33.646  -8.030  29.232  1.00  0.00    -0.368 OA
ATOM     41  H4  UNL     1      34.125  -8.489  28.552  1.00  0.00     0.212 HD
ENDBRANCH  35  40
ENDBRANCH  29  35
ENDBRANCH  26  29
ENDBRANCH   3  26
BRANCH   4  42
HETATM   42  O5  UNL     1      32.369 -10.277  24.663  1.00  0.00    -0.390 OA
ATOM     43  H5  UNL     1      32.449 -11.169  24.345  1.00  0.00     0.210 HD
ENDBRANCH   4  42
TORSDOF 12
ENDMDL
