MODEL 1
REMARK VINA RESULT: -5.221760148      0.000      0.000
REMARK  3 active torsions:
REMARK  status: ('A' for Active; 'I' for Inactive)
REMARK    1  A    between atoms: C3_3  and  N1_4 
REMARK       I    between atoms: N1_4  and  C4_6 
REMARK    2  A    between atoms: C4_6  and  C5_8 
REMARK    3  A    between atoms: C5_8  and  O2_9 
ROOT
HETATM    1  N1  UNL     1      14.131  22.976 -23.082  1.00  0.00    -0.321 N 
ATOM      2  H1  UNL     1      14.836  22.391 -23.530  1.00  0.00     0.169 HD
HETATM    3  C4  UNL     1      12.768  22.659 -23.239  1.00  0.00     0.267 C 
HETATM    4  O1  UNL     1      11.906  23.387 -22.683  1.00  0.00    -0.269 OA
ENDROOT
BRANCH   3   5
HETATM    5  C5  UNL     1      12.276  21.506 -24.028  1.00  0.00     0.188 C 
HETATM    6  C6  UNL     1      10.769  21.339 -23.883  1.00  0.00     0.070 C 
HETATM    7  C7  UNL     1      10.375  19.900 -23.867  1.00  0.00     0.078 C 
HETATM    8  S1  UNL     1       9.822  19.292 -25.470  1.00  0.00    -0.168 SA
HETATM    9  C8  UNL     1      10.669  20.079 -26.846  1.00  0.00     0.084 C 
HETATM   10  C9  UNL     1      12.151  20.205 -26.640  1.00  0.00     0.087 C 
HETATM   11  S2  UNL     1      12.600  21.749 -25.797  1.00  0.00    -0.121 SA
BRANCH   5  12
HETATM   12  O2  UNL     1      12.888  20.325 -23.648  1.00  0.00    -0.371 OA
ATOM     13  H2  UNL     1      12.560  19.583 -24.143  1.00  0.00     0.212 HD
ENDBRANCH   5  12
ENDBRANCH   3   5
BRANCH   1  14
HETATM   14  C3  UNL     1      14.542  24.096 -22.311  1.00  0.00     0.080 A 
HETATM   15  C2  UNL     1      14.595  25.411 -22.763  1.00  0.00     0.035 A 
HETATM   16  C1  UNL     1      14.224  25.841 -24.144  1.00  0.00     0.071 C 
HETATM   17  N2  UNL     1      15.024  26.226 -21.791  1.00  0.00    -0.361 N 
HETATM   18  C11 UNL     1      15.249  25.454 -20.713  1.00  0.00     0.116 A 
HETATM   19  C12 UNL     1      15.205  27.678 -21.904  1.00  0.00     0.155 C 
HETATM   20  C10 UNL     1      14.963  24.140 -20.999  1.00  0.00     0.078 A 
HETATM   21 CL1  UNL     1      15.086  22.738 -19.945  1.00  0.00    -0.080 Cl
ENDBRANCH   1  14
TORSDOF 3
ENDMDL
MODEL 2
REMARK VINA RESULT: -5.145469350      1.763      2.368
REMARK  3 active torsions:
REMARK  status: ('A' for Active; 'I' for Inactive)
REMARK    1  A    between atoms: C3_3  and  N1_4 
REMARK       I    between atoms: N1_4  and  C4_6 
REMARK    2  A    between atoms: C4_6  and  C5_8 
REMARK    3  A    between atoms: C5_8  and  O2_9 
ROOT
HETATM    1  N1  UNL     1      13.404  23.366 -22.203  1.00  0.00    -0.321 N 
ATOM      2  H1  UNL     1      12.594  23.049 -21.671  1.00  0.00     0.169 HD
HETATM    3  C4  UNL     1      13.599  22.893 -23.514  1.00  0.00     0.267 C 
HETATM    4  O1  UNL     1      14.601  23.290 -24.162  1.00  0.00    -0.269 OA
ENDROOT
BRANCH   3   5
HETATM    5  C5  UNL     1      12.686  21.943 -24.191  1.00  0.00     0.188 C 
HETATM    6  C6  UNL     1      11.227  22.306 -23.945  1.00  0.00     0.070 C 
HETATM    7  C7  UNL     1      10.374  21.090 -23.805  1.00  0.00     0.078 C 
HETATM    8  S1  UNL     1       9.523  20.634 -25.326  1.00  0.00    -0.168 SA
HETATM    9  C8  UNL     1      10.473  21.023 -26.802  1.00  0.00     0.084 C 
HETATM   10  C9  UNL     1      11.923  20.645 -26.693  1.00  0.00     0.087 C 
HETATM   11  S2  UNL     1      12.931  21.980 -25.989  1.00  0.00    -0.121 SA
BRANCH   5  12
HETATM   12  O2  UNL     1      12.893  20.642 -23.767  1.00  0.00    -0.371 OA
ATOM     13  H2  UNL     1      12.743  20.015 -24.465  1.00  0.00     0.212 HD
ENDBRANCH   5  12
ENDBRANCH   3   5
BRANCH   1  14
HETATM   14  C3  UNL     1      14.315  24.279 -21.607  1.00  0.00     0.080 A 
HETATM   15  C2  UNL     1      15.213  23.974 -20.589  1.00  0.00     0.035 A 
HETATM   16  C1  UNL     1      15.350  22.624 -19.966  1.00  0.00     0.071 C 
HETATM   17  N2  UNL     1      15.928  25.054 -20.252  1.00  0.00    -0.361 N 
HETATM   18  C11 UNL     1      15.505  26.057 -21.041  1.00  0.00     0.116 A 
HETATM   19  C12 UNL     1      16.969  25.109 -19.219  1.00  0.00     0.155 C 
HETATM   20  C10 UNL     1      14.513  25.615 -21.886  1.00  0.00     0.078 A 
HETATM   21 CL1  UNL     1      13.629  26.520 -23.106  1.00  0.00    -0.080 Cl
ENDBRANCH   1  14
TORSDOF 3
ENDMDL
MODEL 3
REMARK VINA RESULT: -4.960810930      2.451      3.552
REMARK  3 active torsions:
REMARK  status: ('A' for Active; 'I' for Inactive)
REMARK    1  A    between atoms: C3_3  and  N1_4 
REMARK       I    between atoms: N1_4  and  C4_6 
REMARK    2  A    between atoms: C4_6  and  C5_8 
REMARK    3  A    between atoms: C5_8  and  O2_9 
ROOT
HETATM    1  N1  UNL     1      13.689  24.331 -21.201  1.00  0.00    -0.321 N 
ATOM      2  H1  UNL     1      12.824  24.512 -20.693  1.00  0.00     0.169 HD
HETATM    3  C4  UNL     1      13.628  23.825 -22.514  1.00  0.00     0.267 C 
HETATM    4  O1  UNL     1      14.701  23.604 -23.132  1.00  0.00    -0.269 OA
ENDROOT
BRANCH   3   5
HETATM    5  C5  UNL     1      12.362  23.531 -23.224  1.00  0.00     0.188 C 
HETATM    6  C6  UNL     1      12.176  24.450 -24.426  1.00  0.00     0.070 C 
HETATM    7  C7  UNL     1      10.743  24.820 -24.616  1.00  0.00     0.078 C 
HETATM    8  S1  UNL     1       9.899  23.808 -25.844  1.00  0.00    -0.168 SA
HETATM    9  C8  UNL     1      10.507  22.117 -25.892  1.00  0.00     0.084 C 
HETATM   10  C9  UNL     1      10.702  21.515 -24.531  1.00  0.00     0.087 C 
HETATM   11  S2  UNL     1      12.361  21.834 -23.867  1.00  0.00    -0.121 SA
BRANCH   5  12
HETATM   12  O2  UNL     1      11.264  23.665 -22.394  1.00  0.00    -0.371 OA
ATOM     13  H2  UNL     1      10.551  24.125 -22.823  1.00  0.00     0.212 HD
ENDBRANCH   5  12
ENDBRANCH   3   5
BRANCH   1  14
HETATM   14  C3  UNL     1      14.935  24.594 -20.572  1.00  0.00     0.080 A 
HETATM   15  C2  UNL     1      15.624  23.712 -19.745  1.00  0.00     0.035 A 
HETATM   16  C1  UNL     1      15.145  22.342 -19.393  1.00  0.00     0.071 C 
HETATM   17  N2  UNL     1      16.765  24.263 -19.314  1.00  0.00    -0.361 N 
HETATM   18  C11 UNL     1      16.825  25.494 -19.853  1.00  0.00     0.116 A 
HETATM   19  C12 UNL     1      17.746  23.628 -18.426  1.00  0.00     0.155 C 
HETATM   20  C10 UNL     1      15.716  25.729 -20.631  1.00  0.00     0.078 A 
HETATM   21 CL1  UNL     1      15.309  27.172 -21.550  1.00  0.00    -0.080 Cl
ENDBRANCH   1  14
TORSDOF 3
ENDMDL
MODEL 4
REMARK VINA RESULT: -4.935979413      2.063      3.026
REMARK  3 active torsions:
REMARK  status: ('A' for Active; 'I' for Inactive)
REMARK    1  A    between atoms: C3_3  and  N1_4 
REMARK       I    between atoms: N1_4  and  C4_6 
REMARK    2  A    between atoms: C4_6  and  C5_8 
REMARK    3  A    between atoms: C5_8  and  O2_9 
ROOT
HETATM    1  N1  UNL     1      13.745  24.742 -21.250  1.00  0.00    -0.321 N 
ATOM      2  H1  UNL     1      12.905  25.181 -20.875  1.00  0.00     0.169 HD
HETATM    3  C4  UNL     1      13.656  23.962 -22.419  1.00  0.00     0.267 C 
HETATM    4  O1  UNL     1      14.698  23.423 -22.874  1.00  0.00    -0.269 OA
ENDROOT
BRANCH   3   5
HETATM    5  C5  UNL     1      12.394  23.731 -23.160  1.00  0.00     0.188 C 
HETATM    6  C6  UNL     1      12.242  24.714 -24.315  1.00  0.00     0.070 C 
HETATM    7  C7  UNL     1      10.821  25.124 -24.504  1.00  0.00     0.078 C 
HETATM    8  S1  UNL     1       9.973  24.194 -25.793  1.00  0.00    -0.168 SA
HETATM    9  C8  UNL     1      10.547  22.495 -25.920  1.00  0.00     0.084 C 
HETATM   10  C9  UNL     1      10.711  21.820 -24.589  1.00  0.00     0.087 C 
HETATM   11  S2  UNL     1      12.367  22.070 -23.890  1.00  0.00    -0.121 SA
BRANCH   5  12
HETATM   12  O2  UNL     1      11.287  23.846 -22.338  1.00  0.00    -0.371 OA
ATOM     13  H2  UNL     1      11.519  23.757 -21.421  1.00  0.00     0.212 HD
ENDBRANCH   5  12
ENDBRANCH   3   5
BRANCH   1  14
HETATM   14  C3  UNL     1      14.986  24.927 -20.583  1.00  0.00     0.080 A 
HETATM   15  C2  UNL     1      15.751  26.089 -20.609  1.00  0.00     0.035 A 
HETATM   16  C1  UNL     1      15.373  27.327 -21.353  1.00  0.00     0.071 C 
HETATM   17  N2  UNL     1      16.862  25.938 -19.879  1.00  0.00    -0.361 N 
HETATM   18  C11 UNL     1      16.828  24.690 -19.379  1.00  0.00     0.116 A 
HETATM   19  C12 UNL     1      17.904  26.953 -19.677  1.00  0.00     0.155 C 
HETATM   20  C10 UNL     1      15.688  24.042 -19.793  1.00  0.00     0.078 A 
HETATM   21 CL1  UNL     1      15.164  22.404 -19.423  1.00  0.00    -0.080 Cl
ENDBRANCH   1  14
TORSDOF 3
ENDMDL
MODEL 5
REMARK VINA RESULT: -4.914960538      2.082      2.731
REMARK  3 active torsions:
REMARK  status: ('A' for Active; 'I' for Inactive)
REMARK    1  A    between atoms: C3_3  and  N1_4 
REMARK       I    between atoms: N1_4  and  C4_6 
REMARK    2  A    between atoms: C4_6  and  C5_8 
REMARK    3  A    between atoms: C5_8  and  O2_9 
ROOT
HETATM    1  N1  UNL     1      13.215  23.508 -22.419  1.00  0.00    -0.321 N 
ATOM      2  H1  UNL     1      12.324  23.330 -21.956  1.00  0.00     0.169 HD
HETATM    3  C4  UNL     1      13.483  22.901 -23.661  1.00  0.00     0.267 C 
HETATM    4  O1  UNL     1      14.586  23.127 -24.223  1.00  0.00    -0.269 OA
ENDROOT
BRANCH   3   5
HETATM    5  C5  UNL     1      12.537  22.000 -24.359  1.00  0.00     0.188 C 
HETATM    6  C6  UNL     1      12.724  20.554 -23.919  1.00  0.00     0.070 C 
HETATM    7  C7  UNL     1      12.518  19.604 -25.051  1.00  0.00     0.078 C 
HETATM    8  S1  UNL     1      10.865  18.892 -25.097  1.00  0.00    -0.168 SA
HETATM    9  C8  UNL     1       9.601  20.022 -24.500  1.00  0.00     0.084 C 
HETATM   10  C9  UNL     1       9.754  21.419 -25.027  1.00  0.00     0.087 C 
HETATM   11  S2  UNL     1      10.820  22.440 -23.970  1.00  0.00    -0.121 SA
BRANCH   5  12
HETATM   12  O2  UNL     1      12.685  22.065 -25.733  1.00  0.00    -0.371 OA
ATOM     13  H2  UNL     1      11.847  22.133 -26.175  1.00  0.00     0.212 HD
ENDBRANCH   5  12
ENDBRANCH   3   5
BRANCH   1  14
HETATM   14  C3  UNL     1      14.164  24.364 -21.798  1.00  0.00     0.080 A 
HETATM   15  C2  UNL     1      15.025  24.002 -20.767  1.00  0.00     0.035 A 
HETATM   16  C1  UNL     1      15.076  22.641 -20.154  1.00  0.00     0.071 C 
HETATM   17  N2  UNL     1      15.791  25.038 -20.408  1.00  0.00    -0.361 N 
HETATM   18  C11 UNL     1      15.438  26.070 -21.195  1.00  0.00     0.116 A 
HETATM   19  C12 UNL     1      16.815  25.028 -19.355  1.00  0.00     0.155 C 
HETATM   20  C10 UNL     1      14.440  25.689 -22.061  1.00  0.00     0.078 A 
HETATM   21 CL1  UNL     1      13.628  26.652 -23.288  1.00  0.00    -0.080 Cl
ENDBRANCH   1  14
TORSDOF 3
ENDMDL
