MODEL 1
REMARK VINA RESULT: -7.365575669      0.000      0.000
REMARK  4 active torsions:
REMARK  status: ('A' for Active; 'I' for Inactive)
REMARK    1  A    between atoms: C7_8  and  N1_9 
REMARK       I    between atoms: N1_9  and  C8_11 
REMARK    2  A    between atoms: C8_11  and  C9_13 
REMARK    3  A    between atoms: C13_21  and  C14_22 
REMARK    4  A    between atoms: C14_22  and  N3_23 
ROOT
HETATM    1  C1  UNL     1      19.861  30.996 -17.073  1.00  0.00     0.046 C 
HETATM    2  C2  UNL     1      18.352  30.739 -17.023  1.00  0.00     0.058 C 
HETATM    3  C3  UNL     1      17.805  31.782 -16.035  1.00  0.00     0.046 C 
HETATM    4  C4  UNL     1      18.107  29.434 -16.423  1.00  0.00     0.078 C 
HETATM    5  C5  UNL     1      18.220  28.343 -17.510  1.00  0.00    -0.018 A 
HETATM    6  C6  UNL     1      18.039  28.695 -18.817  1.00  0.00     0.016 A 
HETATM    7  S1  UNL     1      18.094  27.220 -19.652  1.00  0.00    -0.073 SA
HETATM    8  C7  UNL     1      18.358  26.170 -18.330  1.00  0.00     0.097 A 
HETATM    9  C13 UNL     1      18.392  27.032 -17.254  1.00  0.00     0.068 A 
HETATM   10  C15 UNL     1      17.923  30.140 -19.253  1.00  0.00     0.215 C 
HETATM   11  O2  UNL     1      17.711  30.977 -18.216  1.00  0.00    -0.376 OA
ENDROOT
BRANCH   8  12
HETATM   12  N1  UNL     1      18.411  24.747 -18.297  1.00  0.00    -0.318 N 
HETATM   13  C8  UNL     1      17.319  23.946 -18.651  1.00  0.00     0.253 C 
HETATM   14  O1  UNL     1      16.233  24.522 -18.943  1.00  0.00    -0.271 OA
ATOM     15  H1  UNL     1      19.277  24.294 -18.004  1.00  0.00     0.169 HD
BRANCH  13  16
HETATM   16  C9  UNL     1      17.455  22.517 -18.674  1.00  0.00     0.280 C 
HETATM   17  C10 UNL     1      16.313  21.782 -17.896  1.00  0.00     0.081 C 
HETATM   18  C11 UNL     1      16.955  20.444 -17.593  1.00  0.00     0.198 C 
HETATM   19  F1  UNL     1      16.914  20.222 -16.220  1.00  0.00    -0.248 F 
HETATM   20  C12 UNL     1      18.450  20.610 -17.908  1.00  0.00     0.270 C 
HETATM   21  N2  UNL     1      18.534  22.083 -17.743  1.00  0.00    -0.060 N 
ATOM     22  H22 UNL     1      19.452  22.495 -17.907  1.00  0.00     0.278 HD
ATOM     23  H21 UNL     1      18.458  22.426 -16.786  1.00  0.00     0.278 HD
ENDBRANCH  13  16
ENDBRANCH   8  12
BRANCH   9  24
HETATM   24  C14 UNL     1      18.620  26.455 -15.905  1.00  0.00    -0.034 C 
BRANCH  24  25
HETATM   25  N3  UNL     1      18.789  25.996 -14.808  1.00  0.00    -0.365 N 
ATOM     26  H32 UNL     1      18.059  26.313 -15.447  1.00  0.00     0.165 HD
ATOM     27  H31 UNL     1      18.946  25.605 -13.879  1.00  0.00     0.165 HD
ENDBRANCH  24  25
ENDBRANCH   9  24
TORSDOF 4
ENDMDL
MODEL 2
REMARK VINA RESULT: -6.465144360      4.591      7.811
REMARK  4 active torsions:
REMARK  status: ('A' for Active; 'I' for Inactive)
REMARK    1  A    between atoms: C7_8  and  N1_9 
REMARK       I    between atoms: N1_9  and  C8_11 
REMARK    2  A    between atoms: C8_11  and  C9_13 
REMARK    3  A    between atoms: C13_21  and  C14_22 
REMARK    4  A    between atoms: C14_22  and  N3_23 
ROOT
HETATM    1  C1  UNL     1      18.847  20.746 -18.691  1.00  0.00     0.046 C 
HETATM    2  C2  UNL     1      17.890  21.280 -17.622  1.00  0.00     0.058 C 
HETATM    3  C3  UNL     1      17.434  20.039 -16.840  1.00  0.00     0.046 C 
HETATM    4  C4  UNL     1      16.701  21.820 -18.270  1.00  0.00     0.078 C 
HETATM    5  C5  UNL     1      16.972  23.276 -18.704  1.00  0.00    -0.018 A 
HETATM    6  C6  UNL     1      17.953  23.981 -18.068  1.00  0.00     0.016 A 
HETATM    7  S1  UNL     1      17.830  25.540 -18.723  1.00  0.00    -0.073 SA
HETATM    8  C7  UNL     1      16.537  25.278 -19.808  1.00  0.00     0.097 A 
HETATM    9  C13 UNL     1      16.238  23.946 -19.615  1.00  0.00     0.068 A 
HETATM   10  C15 UNL     1      18.907  23.329 -17.090  1.00  0.00     0.215 C 
HETATM   11  O2  UNL     1      18.493  22.105 -16.702  1.00  0.00    -0.376 OA
ENDROOT
BRANCH   8  12
HETATM   12  N1  UNL     1      15.839  26.207 -20.631  1.00  0.00    -0.318 N 
HETATM   13  C8  UNL     1      16.369  27.458 -20.971  1.00  0.00     0.253 C 
HETATM   14  O1  UNL     1      17.480  27.786 -20.465  1.00  0.00    -0.271 OA
ATOM     15  H1  UNL     1      14.917  25.953 -20.987  1.00  0.00     0.169 HD
BRANCH  13  16
HETATM   16  C9  UNL     1      15.654  28.321 -21.867  1.00  0.00     0.280 C 
HETATM   17  C10 UNL     1      15.085  29.597 -21.163  1.00  0.00     0.081 C 
HETATM   18  C11 UNL     1      13.972  30.002 -22.107  1.00  0.00     0.198 C 
HETATM   19  F1  UNL     1      12.778  30.078 -21.395  1.00  0.00    -0.248 F 
HETATM   20  C12 UNL     1      13.772  28.814 -23.062  1.00  0.00     0.270 C 
HETATM   21  N2  UNL     1      14.316  27.748 -22.183  1.00  0.00    -0.060 N 
ATOM     22  H22 UNL     1      14.318  26.808 -22.577  1.00  0.00     0.278 HD
ATOM     23  H21 UNL     1      13.739  27.501 -21.379  1.00  0.00     0.278 HD
ENDBRANCH  13  16
ENDBRANCH   8  12
BRANCH   9  24
HETATM   24  C14 UNL     1      15.141  23.352 -20.421  1.00  0.00    -0.034 C 
BRANCH  24  25
HETATM   25  N3  UNL     1      14.258  22.883 -21.086  1.00  0.00    -0.365 N 
ATOM     26  H32 UNL     1      15.259  22.809 -20.907  1.00  0.00     0.165 HD
ATOM     27  H31 UNL     1      13.498  22.495 -21.643  1.00  0.00     0.165 HD
ENDBRANCH  24  25
ENDBRANCH   9  24
TORSDOF 4
ENDMDL
MODEL 3
REMARK VINA RESULT: -6.402458014      1.448      1.650
REMARK  4 active torsions:
REMARK  status: ('A' for Active; 'I' for Inactive)
REMARK    1  A    between atoms: C7_8  and  N1_9 
REMARK       I    between atoms: N1_9  and  C8_11 
REMARK    2  A    between atoms: C8_11  and  C9_13 
REMARK    3  A    between atoms: C13_21  and  C14_22 
REMARK    4  A    between atoms: C14_22  and  N3_23 
ROOT
HETATM    1  C1  UNL     1      21.362  30.509 -18.057  1.00  0.00     0.046 C 
HETATM    2  C2  UNL     1      19.911  30.867 -17.725  1.00  0.00     0.058 C 
HETATM    3  C3  UNL     1      20.003  32.124 -16.846  1.00  0.00     0.046 C 
HETATM    4  C4  UNL     1      19.337  29.819 -16.890  1.00  0.00     0.078 C 
HETATM    5  C5  UNL     1      18.813  28.679 -17.789  1.00  0.00    -0.018 A 
HETATM    6  C6  UNL     1      18.503  28.956 -19.090  1.00  0.00     0.016 A 
HETATM    7  S1  UNL     1      17.839  27.508 -19.672  1.00  0.00    -0.073 SA
HETATM    8  C7  UNL     1      17.972  26.561 -18.256  1.00  0.00     0.097 A 
HETATM    9  C13 UNL     1      18.544  27.432 -17.354  1.00  0.00     0.068 A 
HETATM   10  C15 UNL     1      18.835  30.286 -19.731  1.00  0.00     0.215 C 
HETATM   11  O2  UNL     1      19.166  31.228 -18.823  1.00  0.00    -0.376 OA
ENDROOT
BRANCH   8  12
HETATM   12  N1  UNL     1      17.506  25.239 -18.001  1.00  0.00    -0.318 N 
HETATM   13  C8  UNL     1      18.359  24.128 -18.005  1.00  0.00     0.253 C 
HETATM   14  O1  UNL     1      19.570  24.313 -18.315  1.00  0.00    -0.271 OA
ATOM     15  H1  UNL     1      16.515  25.095 -17.807  1.00  0.00     0.169 HD
BRANCH  13  16
HETATM   16  C9  UNL     1      17.848  22.831 -17.663  1.00  0.00     0.280 C 
HETATM   17  C10 UNL     1      18.972  21.756 -17.494  1.00  0.00     0.081 C 
HETATM   18  C11 UNL     1      18.205  20.468 -17.704  1.00  0.00     0.198 C 
HETATM   19  F1  UNL     1      18.805  19.744 -18.731  1.00  0.00    -0.248 F 
HETATM   20  C12 UNL     1      16.837  20.877 -18.273  1.00  0.00     0.270 C 
HETATM   21  N2  UNL     1      17.238  22.181 -18.857  1.00  0.00    -0.060 N 
ATOM     22  H22 UNL     1      16.495  22.708 -19.316  1.00  0.00     0.278 HD
ATOM     23  H21 UNL     1      17.830  22.132 -19.686  1.00  0.00     0.278 HD
ENDBRANCH  13  16
ENDBRANCH   8  12
BRANCH   9  24
HETATM   24  C14 UNL     1      18.823  26.936 -15.983  1.00  0.00    -0.034 C 
BRANCH  24  25
HETATM   25  N3  UNL     1      19.041  26.518 -14.878  1.00  0.00    -0.365 N 
ATOM     26  H32 UNL     1      19.456  26.601 -15.807  1.00  0.00     0.165 HD
ATOM     27  H31 UNL     1      19.214  26.168 -13.936  1.00  0.00     0.165 HD
ENDBRANCH  24  25
ENDBRANCH   9  24
TORSDOF 4
ENDMDL
MODEL 4
REMARK VINA RESULT: -6.375858531      4.436      7.226
REMARK  4 active torsions:
REMARK  status: ('A' for Active; 'I' for Inactive)
REMARK    1  A    between atoms: C7_8  and  N1_9 
REMARK       I    between atoms: N1_9  and  C8_11 
REMARK    2  A    between atoms: C8_11  and  C9_13 
REMARK    3  A    between atoms: C13_21  and  C14_22 
REMARK    4  A    between atoms: C14_22  and  N3_23 
ROOT
HETATM    1  C1  UNL     1      11.437  24.110 -22.814  1.00  0.00     0.046 C 
HETATM    2  C2  UNL     1      12.739  23.866 -23.581  1.00  0.00     0.058 C 
HETATM    3  C3  UNL     1      12.395  22.779 -24.612  1.00  0.00     0.046 C 
HETATM    4  C4  UNL     1      13.725  23.284 -22.680  1.00  0.00     0.078 C 
HETATM    5  C5  UNL     1      14.437  24.412 -21.903  1.00  0.00    -0.018 A 
HETATM    6  C6  UNL     1      14.450  25.670 -22.434  1.00  0.00     0.016 A 
HETATM    7  S1  UNL     1      15.434  26.555 -21.373  1.00  0.00    -0.073 SA
HETATM    8  C7  UNL     1      15.811  25.317 -20.258  1.00  0.00     0.097 A 
HETATM    9  C13 UNL     1      15.139  24.227 -20.768  1.00  0.00     0.068 A 
HETATM   10  C15 UNL     1      13.632  26.037 -23.654  1.00  0.00     0.215 C 
HETATM   11  O2  UNL     1      13.165  24.953 -24.308  1.00  0.00    -0.376 OA
ENDROOT
BRANCH   8  12
HETATM   12  N1  UNL     1      16.695  25.339 -19.140  1.00  0.00    -0.318 N 
HETATM   13  C8  UNL     1      17.762  26.240 -19.043  1.00  0.00     0.253 C 
HETATM   14  O1  UNL     1      17.977  27.009 -20.022  1.00  0.00    -0.271 OA
ATOM     15  H1  UNL     1      16.544  24.674 -18.381  1.00  0.00     0.169 HD
BRANCH  13  16
HETATM   16  C9  UNL     1      18.570  26.268 -17.858  1.00  0.00     0.280 C 
HETATM   17  C10 UNL     1      17.915  25.516 -16.652  1.00  0.00     0.081 C 
HETATM   18  C11 UNL     1      18.624  26.145 -15.471  1.00  0.00     0.198 C 
HETATM   19  F1  UNL     1      17.675  26.670 -14.599  1.00  0.00    -0.248 F 
HETATM   20  C12 UNL     1      19.358  27.377 -16.024  1.00  0.00     0.270 C 
HETATM   21  N2  UNL     1      18.503  27.610 -17.214  1.00  0.00    -0.060 N 
ATOM     22  H22 UNL     1      18.771  28.398 -17.804  1.00  0.00     0.278 HD
ATOM     23  H21 UNL     1      17.566  27.963 -17.023  1.00  0.00     0.278 HD
ENDBRANCH  13  16
ENDBRANCH   8  12
BRANCH   9  24
HETATM   24  C14 UNL     1      15.233  22.940 -20.032  1.00  0.00    -0.034 C 
BRANCH  24  25
HETATM   25  N3  UNL     1      15.315  21.909 -19.422  1.00  0.00    -0.365 N 
ATOM     26  H32 UNL     1      14.638  22.550 -19.837  1.00  0.00     0.165 HD
ATOM     27  H31 UNL     1      15.399  21.034 -18.904  1.00  0.00     0.165 HD
ENDBRANCH  24  25
ENDBRANCH   9  24
TORSDOF 4
ENDMDL
MODEL 5
REMARK VINA RESULT: -6.315069509      4.591      7.786
REMARK  4 active torsions:
REMARK  status: ('A' for Active; 'I' for Inactive)
REMARK    1  A    between atoms: C7_8  and  N1_9 
REMARK       I    between atoms: N1_9  and  C8_11 
REMARK    2  A    between atoms: C8_11  and  C9_13 
REMARK    3  A    between atoms: C13_21  and  C14_22 
REMARK    4  A    between atoms: C14_22  and  N3_23 
ROOT
HETATM    1  C1  UNL     1      18.842  20.772 -18.701  1.00  0.00     0.046 C 
HETATM    2  C2  UNL     1      17.849  21.303 -17.664  1.00  0.00     0.058 C 
HETATM    3  C3  UNL     1      17.348  20.057 -16.919  1.00  0.00     0.046 C 
HETATM    4  C4  UNL     1      16.694  21.867 -18.350  1.00  0.00     0.078 C 
HETATM    5  C5  UNL     1      17.000  23.326 -18.752  1.00  0.00    -0.018 A 
HETATM    6  C6  UNL     1      17.963  24.009 -18.067  1.00  0.00     0.016 A 
HETATM    7  S1  UNL     1      17.885  25.579 -18.703  1.00  0.00    -0.073 SA
HETATM    8  C7  UNL     1      16.633  25.348 -19.842  1.00  0.00     0.097 A 
HETATM    9  C13 UNL     1      16.311  24.018 -19.681  1.00  0.00     0.068 A 
HETATM   10  C15 UNL     1      18.870  23.332 -17.062  1.00  0.00     0.215 C 
HETATM   11  O2  UNL     1      18.425  22.108 -16.709  1.00  0.00    -0.376 OA
ENDROOT
BRANCH   8  12
HETATM   12  N1  UNL     1      15.979  26.298 -20.679  1.00  0.00    -0.318 N 
HETATM   13  C8  UNL     1      16.529  27.554 -20.963  1.00  0.00     0.253 C 
HETATM   14  O1  UNL     1      17.613  27.867 -20.395  1.00  0.00    -0.271 OA
ATOM     15  H1  UNL     1      15.076  26.055 -21.087  1.00  0.00     0.169 HD
BRANCH  13  16
HETATM   16  C9  UNL     1      15.862  28.439 -21.875  1.00  0.00     0.280 C 
HETATM   17  C10 UNL     1      14.735  27.732 -22.699  1.00  0.00     0.081 C 
HETATM   18  C11 UNL     1      14.605  28.649 -23.897  1.00  0.00     0.198 C 
HETATM   19  F1  UNL     1      14.787  27.906 -25.060  1.00  0.00    -0.248 F 
HETATM   20  C12 UNL     1      15.821  29.587 -23.848  1.00  0.00     0.270 C 
HETATM   21  N2  UNL     1      16.724  28.713 -23.058  1.00  0.00    -0.060 N 
ATOM     22  H22 UNL     1      17.647  29.098 -22.855  1.00  0.00     0.278 HD
ATOM     23  H21 UNL     1      17.082  27.891 -23.545  1.00  0.00     0.278 HD
ENDBRANCH  13  16
ENDBRANCH   8  12
BRANCH   9  24
HETATM   24  C14 UNL     1      15.240  23.449 -20.538  1.00  0.00    -0.034 C 
BRANCH  24  25
HETATM   25  N3  UNL     1      14.371  23.006 -21.239  1.00  0.00    -0.365 N 
ATOM     26  H32 UNL     1      15.004  22.752 -20.480  1.00  0.00     0.165 HD
ATOM     27  H31 UNL     1      13.632  22.642 -21.841  1.00  0.00     0.165 HD
ENDBRANCH  24  25
ENDBRANCH   9  24
TORSDOF 4
ENDMDL
