MODEL 1
REMARK VINA RESULT: -5.758866955      0.000      0.000
REMARK  1 active torsions:
REMARK  status: ('A' for Active; 'I' for Inactive)
REMARK    1  A    between atoms: C5_6  and  C6_7 
ROOT
HETATM    1  C6  UNL     1      -7.787  15.150  -3.556  1.00  0.00     0.080 C 
HETATM    2  C7  UNL     1      -7.254  15.092  -2.157  1.00  0.00     0.054 C 
HETATM    3  C8  UNL     1      -8.208  15.842  -1.234  1.00  0.00     0.240 C 
HETATM    4  N1  UNL     1      -7.510  16.532  -0.186  1.00  0.00    -0.073 N 
ATOM      5  H11 UNL     1      -8.168  16.890   0.507  1.00  0.00     0.277 HD
ATOM      6  H12 UNL     1      -7.126  17.411  -0.530  1.00  0.00     0.277 HD
HETATM    7  C9  UNL     1      -6.489  15.750   0.447  1.00  0.00     0.255 C 
HETATM    8  C10 UNL     1      -5.479  15.197  -0.512  1.00  0.00     0.138 C 
HETATM    9 CL1  UNL     1      -3.824  15.678  -0.155  1.00  0.00    -0.121 Cl
HETATM   10  C11 UNL     1      -5.897  15.634  -1.924  1.00  0.00     0.156 C 
HETATM   11  O1  UNL     1      -4.964  15.122  -2.872  1.00  0.00    -0.330 OA
HETATM   12  C12 UNL     1      -5.349  15.207  -4.178  1.00  0.00     0.150 C 
HETATM   13  N2  UNL     1      -4.490  15.461  -5.139  1.00  0.00    -0.381 N 
ATOM     14  H21 UNL     1      -4.778  15.524  -6.116  1.00  0.00     0.158 HD
ATOM     15  H22 UNL     1      -3.524  15.590  -4.839  1.00  0.00     0.158 HD
HETATM   16  C13 UNL     1      -6.757  15.020  -4.617  1.00  0.00     0.209 C 
HETATM   17  C14 UNL     1      -6.973  16.060  -5.637  1.00  0.00     0.094 C 
HETATM   18  N3  UNL     1      -7.126  16.901  -6.448  1.00  0.00    -0.195 NA
HETATM   19  C15 UNL     1      -6.783  13.697  -5.263  1.00  0.00     0.094 C 
HETATM   20  N4  UNL     1      -6.800  12.656  -5.793  1.00  0.00    -0.195 NA
ENDROOT
BRANCH   1  21
HETATM   21  C5  UNL     1      -8.717  13.962  -3.663  1.00  0.00    -0.004 A 
HETATM   22  C2  UNL     1      -9.859  13.769  -4.377  1.00  0.00    -0.048 A 
HETATM   23  C1  UNL     1     -10.440  14.905  -5.208  1.00  0.00     0.049 C 
HETATM   24  C3  UNL     1     -10.455  12.569  -4.292  1.00  0.00     0.015 A 
HETATM   25  C4  UNL     1      -9.880  11.625  -3.496  1.00  0.00     0.051 A 
HETATM   26  S1  UNL     1      -8.514  12.430  -2.880  1.00  0.00    -0.105 SA
ENDBRANCH   1  21
TORSDOF 1
ENDMDL
MODEL 2
REMARK VINA RESULT: -5.750670982      1.178      1.214
REMARK  1 active torsions:
REMARK  status: ('A' for Active; 'I' for Inactive)
REMARK    1  A    between atoms: C5_6  and  C6_7 
ROOT
HETATM    1  C6  UNL     1      -7.392  15.159  -4.643  1.00  0.00     0.080 C 
HETATM    2  C7  UNL     1      -7.070  14.979  -3.191  1.00  0.00     0.054 C 
HETATM    3  C8  UNL     1      -8.155  15.652  -2.357  1.00  0.00     0.240 C 
HETATM    4  N1  UNL     1      -7.623  16.246  -1.163  1.00  0.00    -0.073 N 
ATOM      5  H11 UNL     1      -8.378  16.547  -0.546  1.00  0.00     0.277 HD
ATOM      6  H12 UNL     1      -7.198  17.150  -1.370  1.00  0.00     0.277 HD
HETATM    7  C9  UNL     1      -6.701  15.407  -0.456  1.00  0.00     0.255 C 
HETATM    8  C10 UNL     1      -5.557  14.933  -1.299  1.00  0.00     0.138 C 
HETATM    9 CL1  UNL     1      -3.975  15.371  -0.663  1.00  0.00    -0.121 Cl
HETATM   10  C11 UNL     1      -5.765  15.491  -2.715  1.00  0.00     0.156 C 
HETATM   11  O1  UNL     1      -4.700  15.057  -3.556  1.00  0.00    -0.330 OA
HETATM   12  C12 UNL     1      -4.889  15.256  -4.893  1.00  0.00     0.150 C 
HETATM   13  N2  UNL     1      -3.900  15.587  -5.692  1.00  0.00    -0.381 N 
ATOM     14  H21 UNL     1      -4.042  15.735  -6.691  1.00  0.00     0.158 HD
ATOM     15  H22 UNL     1      -2.990  15.683  -5.243  1.00  0.00     0.158 HD
HETATM   16  C13 UNL     1      -6.216  15.115  -5.548  1.00  0.00     0.209 C 
HETATM   17  C14 UNL     1      -6.287  16.240  -6.496  1.00  0.00     0.094 C 
HETATM   18  N3  UNL     1      -6.326  17.149  -7.245  1.00  0.00    -0.195 NA
HETATM   19  C15 UNL     1      -6.138  13.852  -6.302  1.00  0.00     0.094 C 
HETATM   20  N4  UNL     1      -6.070  12.861  -6.916  1.00  0.00    -0.195 NA
ENDROOT
BRANCH   1  21
HETATM   21  C5  UNL     1      -8.288  13.990  -4.987  1.00  0.00    -0.004 A 
HETATM   22  C2  UNL     1      -9.278  13.850  -5.909  1.00  0.00    -0.048 A 
HETATM   23  C1  UNL     1      -9.694  15.038  -6.767  1.00  0.00     0.049 C 
HETATM   24  C3  UNL     1      -9.881  12.655  -6.004  1.00  0.00     0.015 A 
HETATM   25  C4  UNL     1      -9.465  11.661  -5.170  1.00  0.00     0.051 A 
HETATM   26  S1  UNL     1      -8.235  12.415  -4.267  1.00  0.00    -0.105 SA
ENDBRANCH   1  21
TORSDOF 1
ENDMDL
MODEL 3
REMARK VINA RESULT: -5.578264286      2.964      5.066
REMARK  1 active torsions:
REMARK  status: ('A' for Active; 'I' for Inactive)
REMARK    1  A    between atoms: C5_6  and  C6_7 
ROOT
HETATM    1  C6  UNL     1      -6.090  14.868  -4.167  1.00  0.00     0.080 C 
HETATM    2  C7  UNL     1      -7.182  15.267  -5.112  1.00  0.00     0.054 C 
HETATM    3  C8  UNL     1      -6.556  15.833  -6.381  1.00  0.00     0.240 C 
HETATM    4  N1  UNL     1      -7.334  16.906  -6.932  1.00  0.00    -0.073 N 
ATOM      5  H11 UNL     1      -6.989  17.160  -7.857  1.00  0.00     0.277 HD
ATOM      6  H12 UNL     1      -7.149  17.776  -6.433  1.00  0.00     0.277 HD
HETATM    7  C9  UNL     1      -8.742  16.642  -6.976  1.00  0.00     0.255 C 
HETATM    8  C10 UNL     1      -9.322  16.269  -5.646  1.00  0.00     0.138 C 
HETATM    9 CL1  UNL     1     -10.631  17.323  -5.120  1.00  0.00    -0.121 Cl
HETATM   10  C11 UNL     1      -8.172  16.256  -4.628  1.00  0.00     0.156 C 
HETATM   11  O1  UNL     1      -8.678  15.898  -3.346  1.00  0.00    -0.330 OA
HETATM   12  C12 UNL     1      -7.737  15.591  -2.407  1.00  0.00     0.150 C 
HETATM   13  N2  UNL     1      -7.887  15.915  -1.142  1.00  0.00    -0.381 N 
ATOM     14  H21 UNL     1      -7.183  15.686  -0.441  1.00  0.00     0.158 HD
ATOM     15  H22 UNL     1      -8.751  16.408  -0.917  1.00  0.00     0.158 HD
HETATM   16  C13 UNL     1      -6.478  14.873  -2.734  1.00  0.00     0.209 C 
HETATM   17  C14 UNL     1      -5.439  15.561  -1.949  1.00  0.00     0.094 C 
HETATM   18  N3  UNL     1      -4.622  16.128  -1.316  1.00  0.00    -0.195 NA
HETATM   19  C15 UNL     1      -6.664  13.513  -2.201  1.00  0.00     0.094 C 
HETATM   20  N4  UNL     1      -6.804  12.440  -1.761  1.00  0.00    -0.195 NA
ENDROOT
BRANCH   1  21
HETATM   21  C5  UNL     1      -5.748  13.446  -4.551  1.00  0.00    -0.004 A 
HETATM   22  C2  UNL     1      -4.579  12.751  -4.500  1.00  0.00    -0.048 A 
HETATM   23  C1  UNL     1      -3.300  13.444  -4.051  1.00  0.00     0.049 C 
HETATM   24  C3  UNL     1      -4.598  11.466  -4.886  1.00  0.00     0.015 A 
HETATM   25  C4  UNL     1      -5.783  10.941  -5.306  1.00  0.00     0.051 A 
HETATM   26  S1  UNL     1      -6.853  12.255  -5.152  1.00  0.00    -0.105 SA
ENDBRANCH   1  21
TORSDOF 1
ENDMDL
MODEL 4
REMARK VINA RESULT: -5.546343783      7.436      9.126
REMARK  1 active torsions:
REMARK  status: ('A' for Active; 'I' for Inactive)
REMARK    1  A    between atoms: C5_6  and  C6_7 
ROOT
HETATM    1  C6  UNL     1     -13.739  13.886   1.182  1.00  0.00     0.080 C 
HETATM    2  C7  UNL     1     -14.962  14.492   1.798  1.00  0.00     0.054 C 
HETATM    3  C8  UNL     1     -16.060  14.572   0.742  1.00  0.00     0.240 C 
HETATM    4  N1  UNL     1     -16.869  15.748   0.896  1.00  0.00    -0.073 N 
ATOM      5  H11 UNL     1     -17.686  15.702   0.288  1.00  0.00     0.277 HD
ATOM      6  H12 UNL     1     -16.401  16.561   0.495  1.00  0.00     0.277 HD
HETATM    7  C9  UNL     1     -17.262  16.011   2.249  1.00  0.00     0.255 C 
HETATM    8  C10 UNL     1     -16.108  16.101   3.200  1.00  0.00     0.138 C 
HETATM    9 CL1  UNL     1     -16.020  17.631   4.068  1.00  0.00    -0.121 Cl
HETATM   10  C11 UNL     1     -14.826  15.839   2.396  1.00  0.00     0.156 C 
HETATM   11  O1  UNL     1     -13.700  15.908   3.266  1.00  0.00    -0.330 OA
HETATM   12  C12 UNL     1     -12.528  15.440   2.748  1.00  0.00     0.150 C 
HETATM   13  N2  UNL     1     -11.373  16.001   3.026  1.00  0.00    -0.381 N 
ATOM     14  H21 UNL     1     -10.497  15.651   2.639  1.00  0.00     0.158 HD
ATOM     15  H22 UNL     1     -11.417  16.805   3.652  1.00  0.00     0.158 HD
HETATM   16  C13 UNL     1     -12.462  14.269   1.835  1.00  0.00     0.209 C 
HETATM   17  C14 UNL     1     -11.482  14.651   0.804  1.00  0.00     0.094 C 
HETATM   18  N3  UNL     1     -10.698  14.979  -0.013  1.00  0.00    -0.195 NA
HETATM   19  C15 UNL     1     -11.903  13.179   2.652  1.00  0.00     0.094 C 
HETATM   20  N4  UNL     1     -11.441  12.319   3.294  1.00  0.00    -0.195 NA
ENDROOT
BRANCH   1  21
HETATM   21  C5  UNL     1     -13.920  12.394   1.354  1.00  0.00    -0.004 A 
HETATM   22  C2  UNL     1     -13.557  11.343   0.570  1.00  0.00    -0.048 A 
HETATM   23  C1  UNL     1     -12.900  11.591  -0.781  1.00  0.00     0.049 C 
HETATM   24  C3  UNL     1     -13.830  10.106   1.015  1.00  0.00     0.015 A 
HETATM   25  C4  UNL     1     -14.452   9.984   2.221  1.00  0.00     0.051 A 
HETATM   26  S1  UNL     1     -14.646  11.602   2.713  1.00  0.00    -0.105 SA
ENDBRANCH   1  21
TORSDOF 1
ENDMDL
MODEL 5
REMARK VINA RESULT: -5.460919119      3.361      5.617
REMARK  1 active torsions:
REMARK  status: ('A' for Active; 'I' for Inactive)
REMARK    1  A    between atoms: C5_6  and  C6_7 
ROOT
HETATM    1  C6  UNL     1      -8.034  15.530  -3.290  1.00  0.00     0.080 C 
HETATM    2  C7  UNL     1      -8.745  15.681  -4.600  1.00  0.00     0.054 C 
HETATM    3  C8  UNL     1      -8.369  17.025  -5.214  1.00  0.00     0.240 C 
HETATM    4  N1  UNL     1      -9.467  17.618  -5.922  1.00  0.00    -0.073 N 
ATOM      5  H11 UNL     1      -9.153  18.429  -6.455  1.00  0.00     0.277 HD
ATOM      6  H12 UNL     1     -10.107  18.076  -5.272  1.00  0.00     0.277 HD
HETATM    7  C9  UNL     1     -10.178  16.705  -6.767  1.00  0.00     0.255 C 
HETATM    8  C10 UNL     1     -10.678  15.490  -6.047  1.00  0.00     0.138 C 
HETATM    9 CL1  UNL     1     -12.420  15.264  -6.161  1.00  0.00    -0.121 Cl
HETATM   10  C11 UNL     1     -10.223  15.601  -4.584  1.00  0.00     0.156 C 
HETATM   11  O1  UNL     1     -10.673  14.458  -3.861  1.00  0.00    -0.330 OA
HETATM   12  C12 UNL     1     -10.122  14.292  -2.624  1.00  0.00     0.150 C 
HETATM   13  N2  UNL     1     -10.817  13.821  -1.613  1.00  0.00    -0.381 N 
ATOM     14  H21 UNL     1     -10.405  13.697  -0.688  1.00  0.00     0.158 HD
ATOM     15  H22 UNL     1     -11.788  13.590  -1.821  1.00  0.00     0.158 HD
HETATM   16  C13 UNL     1      -8.707  14.628  -2.321  1.00  0.00     0.209 C 
HETATM   17  C14 UNL     1      -8.750  15.277  -0.999  1.00  0.00     0.094 C 
HETATM   18  N3  UNL     1      -8.807  15.797   0.057  1.00  0.00    -0.195 NA
HETATM   19  C15 UNL     1      -8.024  13.329  -2.198  1.00  0.00     0.094 C 
HETATM   20  N4  UNL     1      -7.486  12.299  -2.082  1.00  0.00    -0.195 NA
ENDROOT
BRANCH   1  21
HETATM   21  C5  UNL     1      -6.698  14.916  -3.645  1.00  0.00    -0.004 A 
HETATM   22  C2  UNL     1      -5.479  14.994  -3.045  1.00  0.00    -0.048 A 
HETATM   23  C1  UNL     1      -5.286  15.881  -1.822  1.00  0.00     0.049 C 
HETATM   24  C3  UNL     1      -4.469  14.296  -3.588  1.00  0.00     0.015 A 
HETATM   25  C4  UNL     1      -4.728  13.558  -4.703  1.00  0.00     0.051 A 
HETATM   26  S1  UNL     1      -6.382  13.851  -4.974  1.00  0.00    -0.105 SA
ENDBRANCH   1  21
TORSDOF 1
ENDMDL
