MODEL 1
REMARK VINA RESULT: -6.972803917      0.000      0.000
REMARK  1 active torsions:
REMARK  status: ('A' for Active; 'I' for Inactive)
REMARK    1  A    between atoms: C4_5  and  C5_6 
ROOT
HETATM    1  C1  UNL     1      -6.695  12.766  -3.516  1.00  0.00     0.035 C 
HETATM    2  C2  UNL     1      -6.594  13.491  -4.851  1.00  0.00     0.090 C 
HETATM    3  C3  UNL     1      -8.026  13.259  -5.379  1.00  0.00     0.072 C 
HETATM    4  N1  UNL     1      -9.094  13.109  -5.795  1.00  0.00    -0.196 NA
HETATM    5  C4  UNL     1      -6.546  14.935  -4.603  1.00  0.00     0.070 C 
HETATM    6  C11 UNL     1      -5.384  15.623  -5.301  1.00  0.00     0.149 C 
HETATM    7  C12 UNL     1      -5.871  16.384  -6.476  1.00  0.00     0.070 C 
HETATM    8  N2  UNL     1      -6.263  16.945  -7.399  1.00  0.00    -0.197 NA
HETATM    9  C13 UNL     1      -4.288  14.798  -5.745  1.00  0.00     0.019 C 
HETATM   10  N3  UNL     1      -3.092  15.214  -5.761  1.00  0.00    -0.403 N 
ATOM     11  H31 UNL     1      -2.316  14.630  -6.075  1.00  0.00     0.155 HD
ATOM     12  H32 UNL     1      -2.959  16.169  -5.430  1.00  0.00     0.155 HD
HETATM   13  C14 UNL     1      -4.482  13.406  -6.227  1.00  0.00     0.177 C 
HETATM   14  C15 UNL     1      -3.314  12.635  -5.776  1.00  0.00     0.072 C 
HETATM   15  N4  UNL     1      -2.411  12.003  -5.412  1.00  0.00    -0.196 NA
HETATM   16  C16 UNL     1      -5.755  12.792  -5.811  1.00  0.00     0.179 C 
HETATM   17  C17 UNL     1      -6.484  12.474  -7.072  1.00  0.00     0.088 C 
HETATM   18  N5  UNL     1      -7.087  12.225  -8.053  1.00  0.00    -0.195 NA
HETATM   19  C18 UNL     1      -5.439  11.439  -5.275  1.00  0.00     0.088 C 
HETATM   20  N6  UNL     1      -5.209  10.394  -4.833  1.00  0.00    -0.195 NA
ENDROOT
BRANCH   5  21
HETATM   21  C5  UNL     1      -6.364  15.271  -3.148  1.00  0.00    -0.012 A 
HETATM   22  C6  UNL     1      -5.146  15.433  -2.516  1.00  0.00     0.011 A 
HETATM   23  C7  UNL     1      -5.030  15.875  -1.221  1.00  0.00     0.001 A 
HETATM   24  C8  UNL     1      -6.167  16.176  -0.487  1.00  0.00     0.003 A 
HETATM   25  C9  UNL     1      -7.383  16.022  -1.086  1.00  0.00     0.043 A 
HETATM   26  C10 UNL     1      -7.490  15.592  -2.368  1.00  0.00     0.123 A 
HETATM   27  F1  UNL     1      -8.740  15.412  -2.910  1.00  0.00    -0.206 F 
ENDBRANCH   5  21
TORSDOF 1
ENDMDL
MODEL 2
REMARK VINA RESULT: -6.935566205      2.019      2.870
REMARK  1 active torsions:
REMARK  status: ('A' for Active; 'I' for Inactive)
REMARK    1  A    between atoms: C4_5  and  C5_6 
ROOT
HETATM    1  C1  UNL     1      -7.543  13.149  -1.758  1.00  0.00     0.035 C 
HETATM    2  C2  UNL     1      -8.296  13.863  -2.872  1.00  0.00     0.090 C 
HETATM    3  C3  UNL     1      -9.746  13.573  -2.428  1.00  0.00     0.072 C 
HETATM    4  N1  UNL     1     -10.842  13.381  -2.115  1.00  0.00    -0.196 NA
HETATM    5  C4  UNL     1      -8.159  15.311  -2.684  1.00  0.00     0.070 C 
HETATM    6  C11 UNL     1      -7.682  16.033  -3.934  1.00  0.00     0.149 C 
HETATM    7  C12 UNL     1      -8.808  16.763  -4.564  1.00  0.00     0.070 C 
HETATM    8  N2  UNL     1      -9.698  17.299  -5.054  1.00  0.00    -0.197 NA
HETATM    9  C13 UNL     1      -7.050  15.243  -4.962  1.00  0.00     0.019 C 
HETATM   10  N3  UNL     1      -6.123  15.702  -5.693  1.00  0.00    -0.403 N 
ATOM     11  H31 UNL     1      -5.676  15.144  -6.420  1.00  0.00     0.155 HD
ATOM     12  H32 UNL     1      -5.851  16.665  -5.497  1.00  0.00     0.155 HD
HETATM   13  C14 UNL     1      -7.447  13.840  -5.247  1.00  0.00     0.177 C 
HETATM   14  C15 UNL     1      -6.218  13.117  -5.605  1.00  0.00     0.072 C 
HETATM   15  N4  UNL     1      -5.257  12.522  -5.870  1.00  0.00    -0.196 NA
HETATM   16  C16 UNL     1      -8.186  13.184  -4.153  1.00  0.00     0.179 C 
HETATM   17  C17 UNL     1      -9.518  12.827  -4.720  1.00  0.00     0.088 C 
HETATM   18  N5  UNL     1     -10.582  12.545  -5.139  1.00  0.00    -0.195 NA
HETATM   19  C18 UNL     1      -7.561  11.849  -3.936  1.00  0.00     0.088 C 
HETATM   20  N6  UNL     1      -7.074  10.818  -3.738  1.00  0.00    -0.195 NA
ENDROOT
BRANCH   5  21
HETATM   21  C5  UNL     1      -7.146  15.669  -1.632  1.00  0.00    -0.012 A 
HETATM   22  C6  UNL     1      -5.788  15.799  -1.848  1.00  0.00     0.011 A 
HETATM   23  C7  UNL     1      -4.920  16.262  -0.890  1.00  0.00     0.001 A 
HETATM   24  C8  UNL     1      -5.397  16.618   0.363  1.00  0.00     0.003 A 
HETATM   25  C9  UNL     1      -6.734  16.496   0.604  1.00  0.00     0.043 A 
HETATM   26  C10 UNL     1      -7.586  16.045  -0.350  1.00  0.00     0.123 A 
HETATM   27  F1  UNL     1      -8.917  15.899  -0.041  1.00  0.00    -0.206 F 
ENDBRANCH   5  21
TORSDOF 1
ENDMDL
MODEL 3
REMARK VINA RESULT: -6.689012425      2.091      4.526
REMARK  1 active torsions:
REMARK  status: ('A' for Active; 'I' for Inactive)
REMARK    1  A    between atoms: C4_5  and  C5_6 
ROOT
HETATM    1  C1  UNL     1      -5.111  15.701  -4.624  1.00  0.00     0.035 C 
HETATM    2  C2  UNL     1      -6.244  14.690  -4.725  1.00  0.00     0.090 C 
HETATM    3  C3  UNL     1      -5.487  13.522  -5.393  1.00  0.00     0.072 C 
HETATM    4  N1  UNL     1      -4.944  12.627  -5.884  1.00  0.00    -0.196 NA
HETATM    5  C4  UNL     1      -6.548  14.183  -3.383  1.00  0.00     0.070 C 
HETATM    6  C11 UNL     1      -8.025  14.271  -3.032  1.00  0.00     0.149 C 
HETATM    7  C12 UNL     1      -8.647  12.927  -3.095  1.00  0.00     0.070 C 
HETATM    8  N2  UNL     1      -9.119  11.883  -3.178  1.00  0.00    -0.197 NA
HETATM    9  C13 UNL     1      -8.845  15.165  -3.812  1.00  0.00     0.019 C 
HETATM   10  N3  UNL     1      -9.832  15.783  -3.315  1.00  0.00    -0.403 N 
ATOM     11  H31 UNL     1     -10.413  16.415  -3.866  1.00  0.00     0.155 HD
ATOM     12  H32 UNL     1     -10.000  15.610  -2.324  1.00  0.00     0.155 HD
HETATM   13  C14 UNL     1      -8.600  15.417  -5.255  1.00  0.00     0.177 C 
HETATM   14  C15 UNL     1      -8.921  16.831  -5.499  1.00  0.00     0.072 C 
HETATM   15  N4  UNL     1      -9.147  17.949  -5.708  1.00  0.00    -0.196 NA
HETATM   16  C16 UNL     1      -7.245  15.061  -5.712  1.00  0.00     0.179 C 
HETATM   17  C17 UNL     1      -7.430  14.009  -6.752  1.00  0.00     0.088 C 
HETATM   18  N5  UNL     1      -7.548  13.166  -7.568  1.00  0.00    -0.195 NA
HETATM   19  C18 UNL     1      -6.731  16.210  -6.507  1.00  0.00     0.088 C 
HETATM   20  N6  UNL     1      -6.306  17.103  -7.109  1.00  0.00    -0.195 NA
ENDROOT
BRANCH   5  21
HETATM   21  C5  UNL     1      -5.855  14.958  -2.297  1.00  0.00    -0.012 A 
HETATM   22  C6  UNL     1      -6.440  15.946  -1.528  1.00  0.00     0.011 A 
HETATM   23  C7  UNL     1      -5.810  16.528  -0.456  1.00  0.00     0.001 A 
HETATM   24  C8  UNL     1      -4.527  16.134  -0.107  1.00  0.00     0.003 A 
HETATM   25  C9  UNL     1      -3.925  15.162  -0.852  1.00  0.00     0.043 A 
HETATM   26  C10 UNL     1      -4.556  14.586  -1.905  1.00  0.00     0.123 A 
HETATM   27  F1  UNL     1      -3.888  13.643  -2.650  1.00  0.00    -0.206 F 
ENDBRANCH   5  21
TORSDOF 1
ENDMDL
MODEL 4
REMARK VINA RESULT: -6.399406482      2.660      5.463
REMARK  1 active torsions:
REMARK  status: ('A' for Active; 'I' for Inactive)
REMARK    1  A    between atoms: C4_5  and  C5_6 
ROOT
HETATM    1  C1  UNL     1      -8.688  16.603  -2.410  1.00  0.00     0.035 C 
HETATM    2  C2  UNL     1      -7.983  15.348  -2.904  1.00  0.00     0.090 C 
HETATM    3  C3  UNL     1      -6.524  15.724  -2.566  1.00  0.00     0.072 C 
HETATM    4  N1  UNL     1      -5.424  15.974  -2.315  1.00  0.00    -0.196 NA
HETATM    5  C4  UNL     1      -8.278  14.245  -1.984  1.00  0.00     0.070 C 
HETATM    6  C11 UNL     1      -8.792  13.001  -2.688  1.00  0.00     0.149 C 
HETATM    7  C12 UNL     1      -7.732  11.965  -2.735  1.00  0.00     0.070 C 
HETATM    8  N2  UNL     1      -6.890  11.185  -2.788  1.00  0.00    -0.197 NA
HETATM    9  C13 UNL     1      -9.305  13.154  -4.027  1.00  0.00     0.019 C 
HETATM   10  N3  UNL     1     -10.254  12.443  -4.473  1.00  0.00    -0.403 N 
ATOM     11  H31 UNL     1     -10.617  12.552  -5.420  1.00  0.00     0.155 HD
ATOM     12  H32 UNL     1     -10.633  11.761  -3.816  1.00  0.00     0.155 HD
HETATM   13  C14 UNL     1      -8.754  14.148  -4.984  1.00  0.00     0.177 C 
HETATM   14  C15 UNL     1      -9.887  14.651  -5.773  1.00  0.00     0.072 C 
HETATM   15  N4  UNL     1     -10.771  15.078  -6.393  1.00  0.00    -0.196 NA
HETATM   16  C16 UNL     1      -7.982  15.234  -4.353  1.00  0.00     0.179 C 
HETATM   17  C17 UNL     1      -6.603  15.130  -4.911  1.00  0.00     0.088 C 
HETATM   18  N5  UNL     1      -5.502  15.061  -5.327  1.00  0.00    -0.195 NA
HETATM   19  C18 UNL     1      -8.467  16.516  -4.935  1.00  0.00     0.088 C 
HETATM   20  N6  UNL     1      -8.847  17.524  -5.359  1.00  0.00    -0.195 NA
ENDROOT
BRANCH   5  21
HETATM   21  C5  UNL     1      -9.355  14.588  -0.991  1.00  0.00    -0.012 A 
HETATM   22  C6  UNL     1     -10.694  14.279  -1.132  1.00  0.00     0.011 A 
HETATM   23  C7  UNL     1     -11.617  14.488  -0.138  1.00  0.00     0.001 A 
HETATM   24  C8  UNL     1     -11.221  15.037   1.072  1.00  0.00     0.003 A 
HETATM   25  C9  UNL     1      -9.904  15.355   1.237  1.00  0.00     0.043 A 
HETATM   26  C10 UNL     1      -8.997  15.139   0.253  1.00  0.00     0.123 A 
HETATM   27  F1  UNL     1      -7.691  15.518   0.454  1.00  0.00    -0.206 F 
ENDBRANCH   5  21
TORSDOF 1
ENDMDL
MODEL 5
REMARK VINA RESULT: -6.399083533      2.551      4.345
REMARK  1 active torsions:
REMARK  status: ('A' for Active; 'I' for Inactive)
REMARK    1  A    between atoms: C4_5  and  C5_6 
ROOT
HETATM    1  C1  UNL     1      -7.469  14.067  -6.093  1.00  0.00     0.035 C 
HETATM    2  C2  UNL     1      -6.446  14.251  -4.981  1.00  0.00     0.090 C 
HETATM    3  C3  UNL     1      -5.222  14.666  -5.825  1.00  0.00     0.072 C 
HETATM    4  N1  UNL     1      -4.292  14.989  -6.430  1.00  0.00    -0.196 NA
HETATM    5  C4  UNL     1      -6.777  15.467  -4.230  1.00  0.00     0.070 C 
HETATM    6  C11 UNL     1      -6.854  15.239  -2.729  1.00  0.00     0.149 C 
HETATM    7  C12 UNL     1      -5.654  15.801  -2.064  1.00  0.00     0.070 C 
HETATM    8  N2  UNL     1      -4.703  16.216  -1.569  1.00  0.00    -0.197 NA
HETATM    9  C13 UNL     1      -7.009  13.882  -2.266  1.00  0.00     0.019 C 
HETATM   10  N3  UNL     1      -7.661  13.595  -1.219  1.00  0.00    -0.403 N 
ATOM     11  H31 UNL     1      -7.771  12.636  -0.891  1.00  0.00     0.155 HD
ATOM     12  H32 UNL     1      -8.075  14.391  -0.733  1.00  0.00     0.155 HD
HETATM   13  C14 UNL     1      -6.406  12.723  -2.975  1.00  0.00     0.177 C 
HETATM   14  C15 UNL     1      -7.358  11.610  -2.851  1.00  0.00     0.072 C 
HETATM   15  N4  UNL     1      -8.104  10.724  -2.784  1.00  0.00    -0.196 NA
HETATM   16  C16 UNL     1      -6.037  12.994  -4.376  1.00  0.00     0.179 C 
HETATM   17  C17 UNL     1      -4.564  12.782  -4.456  1.00  0.00     0.088 C 
HETATM   18  N5  UNL     1      -3.398  12.633  -4.543  1.00  0.00    -0.195 NA
HETATM   19  C18 UNL     1      -6.568  11.872  -5.197  1.00  0.00     0.088 C 
HETATM   20  N6  UNL     1      -6.994  11.019  -5.855  1.00  0.00    -0.195 NA
ENDROOT
BRANCH   5  21
HETATM   21  C5  UNL     1      -8.123  16.029  -4.595  1.00  0.00    -0.012 A 
HETATM   22  C6  UNL     1      -9.287  15.835  -3.877  1.00  0.00     0.011 A 
HETATM   23  C7  UNL     1     -10.462  16.481  -4.171  1.00  0.00     0.001 A 
HETATM   24  C8  UNL     1     -10.518  17.370  -5.234  1.00  0.00     0.003 A 
HETATM   25  C9  UNL     1      -9.383  17.578  -5.963  1.00  0.00     0.043 A 
HETATM   26  C10 UNL     1      -8.224  16.942  -5.661  1.00  0.00     0.123 A 
HETATM   27  F1  UNL     1      -7.120  17.152  -6.454  1.00  0.00    -0.206 F 
ENDBRANCH   5  21
TORSDOF 1
ENDMDL
