MODEL 1
REMARK VINA RESULT: -6.809717067      0.000      0.000
REMARK  4 active torsions:
REMARK  status: ('A' for Active; 'I' for Inactive)
REMARK    1  A    between atoms: O1_2  and  C2_3 
REMARK    2  A    between atoms: C2_3  and  C3_5 
REMARK    3  A    between atoms: C4_6  and  N1_7 
REMARK    4  A    between atoms: N1_7  and  C5_9 
ROOT
HETATM    1  C3  UNL     1      -6.413  15.202  -2.598  1.00  0.00     0.163 C 
HETATM    2  C4  UNL     1      -6.379  14.413  -1.359  1.00  0.00     0.097 C 
HETATM    3  N2  UNL     1      -6.958  13.262  -1.334  1.00  0.00    -0.334 N 
ATOM      4  H2  UNL     1      -6.957  12.682  -0.495  1.00  0.00     0.168 HD
HETATM    5  C9  UNL     1      -7.595  12.842  -2.526  1.00  0.00     0.095 C 
HETATM    6  N3  UNL     1      -7.577  11.582  -2.834  1.00  0.00    -0.388 N 
ATOM      7  H31 UNL     1      -8.036  11.279  -3.693  1.00  0.00     0.157 HD
ATOM      8  H32 UNL     1      -7.100  10.933  -2.207  1.00  0.00     0.157 HD
HETATM    9  C10 UNL     1      -8.295  13.795  -3.446  1.00  0.00     0.169 C 
HETATM   10  C11 UNL     1      -8.194  13.245  -4.772  1.00  0.00     0.072 C 
HETATM   11  N4  UNL     1      -8.131  12.793  -5.835  1.00  0.00    -0.196 NA
HETATM   12  C12 UNL     1      -7.772  15.205  -3.292  1.00  0.00     0.002 C 
HETATM   13  C13 UNL     1      -8.692  15.891  -2.295  1.00  0.00     0.012 C 
HETATM   14  C14 UNL     1      -9.930  16.463  -2.840  1.00  0.00     0.001 C 
HETATM   15  C15 UNL     1     -10.070  16.472  -4.321  1.00  0.00     0.000 C 
HETATM   16  C16 UNL     1      -8.754  16.865  -4.924  1.00  0.00     0.001 C 
HETATM   17  C17 UNL     1      -7.622  15.953  -4.571  1.00  0.00     0.012 C 
ENDROOT
BRANCH   1  18
HETATM   18  C2  UNL     1      -5.281  14.960  -3.489  1.00  0.00     0.270 C 
HETATM   19  O2  UNL     1      -5.013  15.497  -4.571  1.00  0.00    -0.264 OA
BRANCH  18  20
HETATM   20  O1  UNL     1      -4.366  13.976  -3.055  1.00  0.00    -0.326 OA
HETATM   21  C1  UNL     1      -3.468  13.351  -3.909  1.00  0.00     0.213 C 
ENDBRANCH  18  20
ENDBRANCH   1  18
BRANCH   2  22
HETATM   22  N1  UNL     1      -5.727  14.868  -0.174  1.00  0.00    -0.345 N 
ATOM     23  H1  UNL     1      -5.048  14.279   0.308  1.00  0.00     0.167 HD
BRANCH  22  24
HETATM   24  C5  UNL     1      -6.047  16.158   0.318  1.00  0.00     0.039 A 
HETATM   25  C6  UNL     1      -5.482  17.343   0.389  1.00  0.00     0.072 A 
HETATM   26  C7  UNL     1      -6.639  17.889   1.051  1.00  0.00     0.120 A 
HETATM   27  F1  UNL     1      -6.949  19.135   1.527  1.00  0.00    -0.206 F 
HETATM   28  C8  UNL     1      -7.226  16.704   0.990  1.00  0.00     0.072 A 
ENDBRANCH  22  24
ENDBRANCH   2  22
TORSDOF 4
ENDMDL
MODEL 2
REMARK VINA RESULT: -6.671882202      1.885      2.577
REMARK  4 active torsions:
REMARK  status: ('A' for Active; 'I' for Inactive)
REMARK    1  A    between atoms: O1_2  and  C2_3 
REMARK    2  A    between atoms: C2_3  and  C3_5 
REMARK    3  A    between atoms: C4_6  and  N1_7 
REMARK    4  A    between atoms: N1_7  and  C5_9 
ROOT
HETATM    1  C3  UNL     1      -7.051  15.314  -2.645  1.00  0.00     0.163 C 
HETATM    2  C4  UNL     1      -5.789  14.709  -2.198  1.00  0.00     0.097 C 
HETATM    3  N2  UNL     1      -5.746  13.440  -1.982  1.00  0.00    -0.334 N 
ATOM      4  H2  UNL     1      -4.890  12.979  -1.671  1.00  0.00     0.168 HD
HETATM    5  C9  UNL     1      -6.943  12.715  -2.195  1.00  0.00     0.095 C 
HETATM    6  N3  UNL     1      -6.868  11.509  -2.667  1.00  0.00    -0.388 N 
ATOM      7  H31 UNL     1      -7.731  10.987  -2.821  1.00  0.00     0.157 HD
ATOM      8  H32 UNL     1      -5.947  11.122  -2.873  1.00  0.00     0.157 HD
HETATM    9  C10 UNL     1      -8.296  13.284  -1.891  1.00  0.00     0.169 C 
HETATM   10  C11 UNL     1      -9.222  12.671  -2.808  1.00  0.00     0.072 C 
HETATM   11  N4  UNL     1      -9.968  12.163  -3.529  1.00  0.00    -0.196 NA
HETATM   12  C12 UNL     1      -8.282  14.796  -1.907  1.00  0.00     0.002 C 
HETATM   13  C13 UNL     1      -8.058  15.232  -0.467  1.00  0.00     0.012 C 
HETATM   14  C14 UNL     1      -9.252  15.301   0.384  1.00  0.00     0.001 C 
HETATM   15  C15 UNL     1     -10.566  15.116  -0.288  1.00  0.00     0.000 C 
HETATM   16  C16 UNL     1     -10.549  15.863  -1.588  1.00  0.00     0.001 C 
HETATM   17  C17 UNL     1      -9.479  15.421  -2.534  1.00  0.00     0.012 C 
ENDROOT
BRANCH   1  18
HETATM   18  C2  UNL     1      -7.200  15.377  -4.097  1.00  0.00     0.270 C 
HETATM   19  O2  UNL     1      -7.781  16.226  -4.784  1.00  0.00    -0.264 OA
BRANCH  18  20
HETATM   20  O1  UNL     1      -6.596  14.322  -4.815  1.00  0.00    -0.326 OA
HETATM   21  C1  UNL     1      -7.254  13.613  -5.811  1.00  0.00     0.213 C 
ENDBRANCH  18  20
ENDBRANCH   1  18
BRANCH   2  22
HETATM   22  N1  UNL     1      -4.600  15.470  -1.992  1.00  0.00    -0.345 N 
ATOM     23  H1  UNL     1      -3.913  15.580  -2.738  1.00  0.00     0.167 HD
BRANCH  22  24
HETATM   24  C5  UNL     1      -4.395  16.071  -0.725  1.00  0.00     0.039 A 
HETATM   25  C6  UNL     1      -3.670  15.857   0.352  1.00  0.00     0.072 A 
HETATM   26  C7  UNL     1      -4.225  17.021   0.994  1.00  0.00     0.120 A 
HETATM   27  F1  UNL     1      -4.029  17.602   2.219  1.00  0.00    -0.206 F 
HETATM   28  C8  UNL     1      -4.964  17.253  -0.079  1.00  0.00     0.072 A 
ENDBRANCH  22  24
ENDBRANCH   2  22
TORSDOF 4
ENDMDL
MODEL 3
REMARK VINA RESULT: -6.473277352      1.292      1.407
REMARK  4 active torsions:
REMARK  status: ('A' for Active; 'I' for Inactive)
REMARK    1  A    between atoms: O1_2  and  C2_3 
REMARK    2  A    between atoms: C2_3  and  C3_5 
REMARK    3  A    between atoms: C4_6  and  N1_7 
REMARK    4  A    between atoms: N1_7  and  C5_9 
ROOT
HETATM    1  C3  UNL     1      -5.688  15.356  -3.927  1.00  0.00     0.163 C 
HETATM    2  C4  UNL     1      -5.318  14.586  -2.732  1.00  0.00     0.097 C 
HETATM    3  N2  UNL     1      -5.800  13.401  -2.578  1.00  0.00    -0.334 N 
ATOM      4  H2  UNL     1      -5.569  12.831  -1.763  1.00  0.00     0.168 HD
HETATM    5  C9  UNL     1      -6.665  12.927  -3.593  1.00  0.00     0.095 C 
HETATM    6  N3  UNL     1      -6.636  11.667  -3.901  1.00  0.00    -0.388 N 
ATOM      7  H31 UNL     1      -7.260  11.325  -4.632  1.00  0.00     0.157 HD
ATOM      8  H32 UNL     1      -5.987  11.057  -3.403  1.00  0.00     0.157 HD
HETATM    9  C10 UNL     1      -7.619  13.822  -4.324  1.00  0.00     0.169 C 
HETATM   10  C11 UNL     1      -7.789  13.264  -5.640  1.00  0.00     0.072 C 
HETATM   11  N4  UNL     1      -7.942  12.804  -6.690  1.00  0.00    -0.196 NA
HETATM   12  C12 UNL     1      -7.167  15.264  -4.290  1.00  0.00     0.002 C 
HETATM   13  C13 UNL     1      -7.876  15.902  -3.106  1.00  0.00     0.012 C 
HETATM   14  C14 UNL     1      -9.240  16.387  -3.350  1.00  0.00     0.001 C 
HETATM   15  C15 UNL     1      -9.717  16.369  -4.759  1.00  0.00     0.000 C 
HETATM   16  C16 UNL     1      -8.603  16.839  -5.647  1.00  0.00     0.001 C 
HETATM   17  C17 UNL     1      -7.363  16.005  -5.567  1.00  0.00     0.012 C 
ENDROOT
BRANCH   1  18
HETATM   18  C2  UNL     1      -4.777  15.177  -5.055  1.00  0.00     0.270 C 
HETATM   19  O2  UNL     1      -4.691  15.836  -6.100  1.00  0.00    -0.264 OA
BRANCH  18  20
HETATM   20  O1  UNL     1      -3.869  14.102  -4.939  1.00  0.00    -0.326 OA
HETATM   21  C1  UNL     1      -3.755  13.103  -5.895  1.00  0.00     0.213 C 
ENDBRANCH  18  20
ENDBRANCH   1  18
BRANCH   2  22
HETATM   22  N1  UNL     1      -4.443  15.095  -1.727  1.00  0.00    -0.345 N 
ATOM     23  H1  UNL     1      -3.448  14.872  -1.738  1.00  0.00     0.167 HD
BRANCH  22  24
HETATM   24  C5  UNL     1      -4.990  15.920  -0.713  1.00  0.00     0.039 A 
HETATM   25  C6  UNL     1      -4.681  17.036  -0.088  1.00  0.00     0.072 A 
HETATM   26  C7  UNL     1      -5.878  16.958   0.709  1.00  0.00     0.120 A 
HETATM   27  F1  UNL     1      -6.407  17.754   1.690  1.00  0.00    -0.206 F 
HETATM   28  C8  UNL     1      -6.207  15.834   0.093  1.00  0.00     0.072 A 
ENDBRANCH  22  24
ENDBRANCH   2  22
TORSDOF 4
ENDMDL
MODEL 4
REMARK VINA RESULT: -6.429309092      0.874      1.178
REMARK  4 active torsions:
REMARK  status: ('A' for Active; 'I' for Inactive)
REMARK    1  A    between atoms: O1_2  and  C2_3 
REMARK    2  A    between atoms: C2_3  and  C3_5 
REMARK    3  A    between atoms: C4_6  and  N1_7 
REMARK    4  A    between atoms: N1_7  and  C5_9 
ROOT
HETATM    1  C3  UNL     1      -6.779  14.944  -2.978  1.00  0.00     0.163 C 
HETATM    2  C4  UNL     1      -6.905  14.224  -1.703  1.00  0.00     0.097 C 
HETATM    3  N2  UNL     1      -7.712  13.222  -1.628  1.00  0.00    -0.334 N 
ATOM      4  H2  UNL     1      -7.829  12.695  -0.762  1.00  0.00     0.168 HD
HETATM    5  C9  UNL     1      -8.427  12.889  -2.803  1.00  0.00     0.095 C 
HETATM    6  N3  UNL     1      -8.674  11.639  -3.051  1.00  0.00    -0.388 N 
ATOM      7  H31 UNL     1      -9.189  11.399  -3.898  1.00  0.00     0.157 HD
ATOM      8  H32 UNL     1      -8.341  10.935  -2.392  1.00  0.00     0.157 HD
HETATM    9  C10 UNL     1      -8.917  13.922  -3.770  1.00  0.00     0.169 C 
HETATM   10  C11 UNL     1      -8.937  13.302  -5.069  1.00  0.00     0.072 C 
HETATM   11  N4  UNL     1      -8.974  12.797  -6.109  1.00  0.00    -0.196 NA
HETATM   12  C12 UNL     1      -8.110  15.198  -3.680  1.00  0.00     0.002 C 
HETATM   13  C13 UNL     1      -8.862  16.107  -2.722  1.00  0.00     0.012 C 
HETATM   14  C14 UNL     1      -9.956  16.898  -3.301  1.00  0.00     0.001 C 
HETATM   15  C15 UNL     1     -10.096  16.866  -4.781  1.00  0.00     0.000 C 
HETATM   16  C16 UNL     1      -8.730  16.947  -5.394  1.00  0.00     0.001 C 
HETATM   17  C17 UNL     1      -7.812  15.837  -4.991  1.00  0.00     0.012 C 
ENDROOT
BRANCH   1  18
HETATM   18  C2  UNL     1      -5.726  14.429  -3.850  1.00  0.00     0.270 C 
HETATM   19  O2  UNL     1      -5.480  13.258  -4.167  1.00  0.00    -0.264 OA
BRANCH  18  20
HETATM   20  O1  UNL     1      -4.868  15.402  -4.407  1.00  0.00    -0.326 OA
HETATM   21  C1  UNL     1      -4.260  15.254  -5.645  1.00  0.00     0.213 C 
ENDBRANCH  18  20
ENDBRANCH   1  18
BRANCH   2  22
HETATM   22  N1  UNL     1      -6.169  14.588  -0.537  1.00  0.00    -0.345 N 
ATOM     23  H1  UNL     1      -5.470  13.959  -0.142  1.00  0.00     0.167 HD
BRANCH  22  24
HETATM   24  C5  UNL     1      -6.432  15.846   0.060  1.00  0.00     0.039 A 
HETATM   25  C6  UNL     1      -7.440  16.460   0.643  1.00  0.00     0.072 A 
HETATM   26  C7  UNL     1      -6.640  17.639   0.854  1.00  0.00     0.120 A 
HETATM   27  F1  UNL     1      -6.894  18.855   1.430  1.00  0.00    -0.206 F 
HETATM   28  C8  UNL     1      -5.614  17.040   0.271  1.00  0.00     0.072 A 
ENDBRANCH  22  24
ENDBRANCH   2  22
TORSDOF 4
ENDMDL
MODEL 5
REMARK VINA RESULT: -6.377194506      3.111      4.412
REMARK  4 active torsions:
REMARK  status: ('A' for Active; 'I' for Inactive)
REMARK    1  A    between atoms: O1_2  and  C2_3 
REMARK    2  A    between atoms: C2_3  and  C3_5 
REMARK    3  A    between atoms: C4_6  and  N1_7 
REMARK    4  A    between atoms: N1_7  and  C5_9 
ROOT
HETATM    1  C3  UNL     1      -8.593  13.852  -2.089  1.00  0.00     0.163 C 
HETATM    2  C4  UNL     1      -9.902  14.473  -1.847  1.00  0.00     0.097 C 
HETATM    3  N2  UNL     1     -10.232  15.521  -2.521  1.00  0.00    -0.334 N 
ATOM      4  H2  UNL     1     -11.131  15.983  -2.385  1.00  0.00     0.168 HD
HETATM    5  C9  UNL     1      -9.287  16.000  -3.460  1.00  0.00     0.095 C 
HETATM    6  N3  UNL     1      -9.715  16.518  -4.569  1.00  0.00    -0.388 N 
ATOM      7  H31 UNL     1      -9.034  16.863  -5.246  1.00  0.00     0.157 HD
ATOM      8  H32 UNL     1     -10.721  16.561  -4.732  1.00  0.00     0.157 HD
HETATM    9  C10 UNL     1      -7.809  15.937  -3.220  1.00  0.00     0.169 C 
HETATM   10  C11 UNL     1      -7.182  15.819  -4.511  1.00  0.00     0.072 C 
HETATM   11  N4  UNL     1      -6.677  15.747  -5.549  1.00  0.00    -0.196 NA
HETATM   12  C12 UNL     1      -7.449  14.852  -2.230  1.00  0.00     0.002 C 
HETATM   13  C13 UNL     1      -7.383  15.528  -0.869  1.00  0.00     0.012 C 
HETATM   14  C14 UNL     1      -6.115  16.188  -0.532  1.00  0.00     0.001 C 
HETATM   15  C15 UNL     1      -4.979  15.974  -1.469  1.00  0.00     0.000 C 
HETATM   16  C16 UNL     1      -4.967  14.535  -1.888  1.00  0.00     0.001 C 
HETATM   17  C17 UNL     1      -6.220  14.085  -2.570  1.00  0.00     0.012 C 
ENDROOT
BRANCH   1  18
HETATM   18  C2  UNL     1      -8.610  12.808  -3.110  1.00  0.00     0.270 C 
HETATM   19  O2  UNL     1      -9.026  12.863  -4.275  1.00  0.00    -0.264 OA
BRANCH  18  20
HETATM   20  O1  UNL     1      -8.078  11.562  -2.714  1.00  0.00    -0.326 OA
HETATM   21  C1  UNL     1      -8.627  10.348  -3.103  1.00  0.00     0.213 C 
ENDBRANCH  18  20
ENDBRANCH   1  18
BRANCH   2  22
HETATM   22  N1  UNL     1     -10.832  13.964  -0.891  1.00  0.00    -0.345 N 
ATOM     23  H1  UNL     1     -11.386  13.132  -1.093  1.00  0.00     0.167 HD
BRANCH  22  24
HETATM   24  C5  UNL     1     -10.966  14.643   0.345  1.00  0.00     0.039 A 
HETATM   25  C6  UNL     1     -10.198  15.302   1.186  1.00  0.00     0.072 A 
HETATM   26  C7  UNL     1     -11.315  15.546   2.062  1.00  0.00     0.120 A 
HETATM   27  F1  UNL     1     -11.446  16.202   3.258  1.00  0.00    -0.206 F 
HETATM   28  C8  UNL     1     -12.104  14.887   1.230  1.00  0.00     0.072 A 
ENDBRANCH  22  24
ENDBRANCH   2  22
TORSDOF 4
ENDMDL
