MODEL 1
REMARK VINA RESULT: -5.983936254      0.000      0.000
REMARK  1 active torsions:
REMARK  status: ('A' for Active; 'I' for Inactive)
REMARK    1  A    between atoms: N1_6  and  C5_7 
ROOT
HETATM    1  C1  UNL     1      -7.503  12.724  -1.628  1.00  0.00     0.023 C 
HETATM    2  C2  UNL     1      -7.660  13.637  -2.825  1.00  0.00     0.018 C 
HETATM    3  C3  UNL     1      -8.868  13.190  -3.582  1.00  0.00     0.023 C 
HETATM    4  C4  UNL     1      -6.467  13.430  -3.682  1.00  0.00     0.096 C 
HETATM    5  S1  UNL     1      -6.554  12.412  -4.945  1.00  0.00    -0.064 SA
HETATM    6  N1  UNL     1      -5.246  14.103  -3.426  1.00  0.00    -0.273 N 
HETATM    7  C8  UNL     1      -5.242  15.032  -2.353  1.00  0.00     0.103 C 
HETATM    8  N3  UNL     1      -4.111  15.485  -1.942  1.00  0.00    -0.387 N 
ATOM      9  H31 UNL     1      -4.107  16.152  -1.171  1.00  0.00     0.157 HD
ATOM     10  H32 UNL     1      -3.255  15.166  -2.396  1.00  0.00     0.157 HD
HETATM   11  C9  UNL     1      -6.469  15.489  -1.704  1.00  0.00     0.172 C 
HETATM   12  C10 UNL     1      -6.483  15.119  -0.301  1.00  0.00     0.072 C 
HETATM   13  N4  UNL     1      -6.490  14.842   0.823  1.00  0.00    -0.196 NA
HETATM   14  C11 UNL     1      -7.720  15.087  -2.440  1.00  0.00     0.027 C 
HETATM   15  C12 UNL     1      -7.818  15.905  -3.692  1.00  0.00     0.015 C 
HETATM   16  C13 UNL     1      -9.193  16.501  -3.753  1.00  0.00     0.004 C 
HETATM   17  C14 UNL     1      -9.966  15.973  -2.566  1.00  0.00     0.038 C 
HETATM   18  C15 UNL     1      -8.907  15.453  -1.616  1.00  0.00     0.181 C 
HETATM   19  F1  UNL     1      -8.577  16.536  -0.788  1.00  0.00    -0.249 F 
ENDROOT
BRANCH   6  20
HETATM   20  C5  UNL     1      -4.060  13.857  -4.217  1.00  0.00     0.157 A 
HETATM   21  N2  UNL     1      -3.034  13.072  -3.919  1.00  0.00    -0.346 N 
HETATM   22  C6  UNL     1      -2.047  12.962  -4.742  1.00  0.00     0.097 A 
ATOM     23  H2  UNL     1      -3.026  12.555  -3.039  1.00  0.00     0.167 HD
HETATM   24  C7  UNL     1      -2.101  13.676  -5.911  1.00  0.00     0.070 A 
HETATM   25  S2  UNL     1      -3.611  14.479  -5.743  1.00  0.00    -0.064 SA
ENDBRANCH   6  20
TORSDOF 1
ENDMDL
MODEL 2
REMARK VINA RESULT: -5.929029963      1.581      1.939
REMARK  1 active torsions:
REMARK  status: ('A' for Active; 'I' for Inactive)
REMARK    1  A    between atoms: N1_6  and  C5_7 
ROOT
HETATM    1  C1  UNL     1      -8.469  13.170  -3.683  1.00  0.00     0.023 C 
HETATM    2  C2  UNL     1      -8.154  14.197  -4.749  1.00  0.00     0.018 C 
HETATM    3  C3  UNL     1      -9.056  13.938  -5.911  1.00  0.00     0.023 C 
HETATM    4  C4  UNL     1      -6.755  13.954  -5.179  1.00  0.00     0.096 C 
HETATM    5  S1  UNL     1      -6.468  13.066  -6.508  1.00  0.00    -0.064 SA
HETATM    6  N1  UNL     1      -5.656  14.481  -4.455  1.00  0.00    -0.273 N 
HETATM    7  C8  UNL     1      -5.962  15.306  -3.341  1.00  0.00     0.103 C 
HETATM    8  N3  UNL     1      -5.013  15.609  -2.528  1.00  0.00    -0.387 N 
ATOM      9  H31 UNL     1      -5.232  16.201  -1.727  1.00  0.00     0.157 HD
ATOM     10  H32 UNL     1      -4.075  15.251  -2.705  1.00  0.00     0.157 HD
HETATM   11  C9  UNL     1      -7.306  15.819  -3.088  1.00  0.00     0.172 C 
HETATM   12  C10 UNL     1      -7.820  15.328  -1.823  1.00  0.00     0.072 C 
HETATM   13  N4  UNL     1      -8.226  14.953  -0.806  1.00  0.00    -0.196 NA
HETATM   14  C11 UNL     1      -8.254  15.606  -4.240  1.00  0.00     0.027 C 
HETATM   15  C12 UNL     1      -7.870  16.538  -5.348  1.00  0.00     0.015 C 
HETATM   16  C13 UNL     1      -9.103  17.267  -5.793  1.00  0.00     0.004 C 
HETATM   17  C14 UNL     1     -10.265  16.712  -5.001  1.00  0.00     0.038 C 
HETATM   18  C15 UNL     1      -9.626  16.010  -3.820  1.00  0.00     0.181 C 
HETATM   19  F1  UNL     1      -9.534  16.977  -2.809  1.00  0.00    -0.249 F 
ENDROOT
BRANCH   6  20
HETATM   20  C5  UNL     1      -4.289  14.193  -4.830  1.00  0.00     0.157 A 
HETATM   21  N2  UNL     1      -3.499  14.900  -5.626  1.00  0.00    -0.346 N 
HETATM   22  C6  UNL     1      -2.295  14.500  -5.859  1.00  0.00     0.097 A 
ATOM     23  H2  UNL     1      -3.843  15.760  -6.054  1.00  0.00     0.167 HD
HETATM   24  C7  UNL     1      -1.876  13.338  -5.263  1.00  0.00     0.070 A 
HETATM   25  S2  UNL     1      -3.281  12.888  -4.383  1.00  0.00    -0.064 SA
ENDBRANCH   6  20
TORSDOF 1
ENDMDL
MODEL 3
REMARK VINA RESULT: -5.860002944      2.077      2.436
REMARK  1 active torsions:
REMARK  status: ('A' for Active; 'I' for Inactive)
REMARK    1  A    between atoms: N1_6  and  C5_7 
ROOT
HETATM    1  C1  UNL     1      -6.590  12.726  -2.056  1.00  0.00     0.023 C 
HETATM    2  C2  UNL     1      -7.590  13.492  -2.896  1.00  0.00     0.018 C 
HETATM    3  C3  UNL     1      -8.947  12.943  -2.599  1.00  0.00     0.023 C 
HETATM    4  C4  UNL     1      -7.268  13.204  -4.315  1.00  0.00     0.096 C 
HETATM    5  S1  UNL     1      -8.088  12.044  -5.104  1.00  0.00    -0.064 SA
HETATM    6  N1  UNL     1      -6.258  13.919  -5.005  1.00  0.00    -0.273 N 
HETATM    7  C8  UNL     1      -5.618  14.967  -4.292  1.00  0.00     0.103 C 
HETATM    8  N3  UNL     1      -4.550  15.481  -4.792  1.00  0.00    -0.387 N 
ATOM      9  H31 UNL     1      -4.090  16.233  -4.280  1.00  0.00     0.157 HD
ATOM     10  H32 UNL     1      -4.196  15.124  -5.679  1.00  0.00     0.157 HD
HETATM   11  C9  UNL     1      -6.126  15.479  -3.022  1.00  0.00     0.172 C 
HETATM   12  C10 UNL     1      -5.163  15.274  -1.956  1.00  0.00     0.072 C 
HETATM   13  N4  UNL     1      -4.389  15.130  -1.108  1.00  0.00    -0.196 NA
HETATM   14  C11 UNL     1      -7.506  14.976  -2.683  1.00  0.00     0.027 C 
HETATM   15  C12 UNL     1      -8.491  15.641  -3.596  1.00  0.00     0.015 C 
HETATM   16  C13 UNL     1      -9.597  16.206  -2.757  1.00  0.00     0.004 C 
HETATM   17  C14 UNL     1      -9.323  15.809  -1.324  1.00  0.00     0.038 C 
HETATM   18  C15 UNL     1      -7.859  15.419  -1.305  1.00  0.00     0.181 C 
HETATM   19  F1  UNL     1      -7.157  16.594  -1.004  1.00  0.00    -0.249 F 
ENDROOT
BRANCH   6  20
HETATM   20  C5  UNL     1      -5.893  13.599  -6.368  1.00  0.00     0.157 A 
HETATM   21  N2  UNL     1      -6.371  14.134  -7.483  1.00  0.00    -0.346 N 
HETATM   22  C6  UNL     1      -5.934  13.732  -8.628  1.00  0.00     0.097 A 
ATOM     23  H2  UNL     1      -7.082  14.863  -7.435  1.00  0.00     0.167 HD
HETATM   24  C7  UNL     1      -4.979  12.749  -8.643  1.00  0.00     0.070 A 
HETATM   25  S2  UNL     1      -4.766  12.463  -6.963  1.00  0.00    -0.064 SA
ENDBRANCH   6  20
TORSDOF 1
ENDMDL
MODEL 4
REMARK VINA RESULT: -5.825233812      4.255      6.827
REMARK  1 active torsions:
REMARK  status: ('A' for Active; 'I' for Inactive)
REMARK    1  A    between atoms: N1_6  and  C5_7 
ROOT
HETATM    1  C1  UNL     1      -7.683  13.395  -1.663  1.00  0.00     0.023 C 
HETATM    2  C2  UNL     1      -8.306  14.768  -1.797  1.00  0.00     0.018 C 
HETATM    3  C3  UNL     1      -7.198  15.770  -1.806  1.00  0.00     0.023 C 
HETATM    4  C4  UNL     1      -9.126  14.988  -0.581  1.00  0.00     0.096 C 
HETATM    5  S1  UNL     1      -8.504  15.825   0.665  1.00  0.00    -0.064 SA
HETATM    6  N1  UNL     1     -10.447  14.485  -0.478  1.00  0.00    -0.273 N 
HETATM    7  C8  UNL     1     -10.967  13.819  -1.618  1.00  0.00     0.103 C 
HETATM    8  N3  UNL     1     -12.058  13.151  -1.490  1.00  0.00    -0.387 N 
ATOM      9  H31 UNL     1     -12.433  12.673  -2.309  1.00  0.00     0.157 HD
ATOM     10  H32 UNL     1     -12.516  13.118  -0.579  1.00  0.00     0.157 HD
HETATM   11  C9  UNL     1     -10.312  13.867  -2.923  1.00  0.00     0.172 C 
HETATM   12  C10 UNL     1      -9.909  12.540  -3.352  1.00  0.00     0.072 C 
HETATM   13  N4  UNL     1      -9.604  11.482  -3.705  1.00  0.00    -0.196 NA
HETATM   14  C11 UNL     1      -9.200  14.881  -2.998  1.00  0.00     0.027 C 
HETATM   15  C12 UNL     1      -9.807  16.251  -3.008  1.00  0.00     0.015 C 
HETATM   16  C13 UNL     1      -9.210  17.018  -4.150  1.00  0.00     0.004 C 
HETATM   17  C14 UNL     1      -8.168  16.130  -4.791  1.00  0.00     0.038 C 
HETATM   18  C15 UNL     1      -8.496  14.735  -4.303  1.00  0.00     0.181 C 
HETATM   19  F1  UNL     1      -9.383  14.200  -5.248  1.00  0.00    -0.249 F 
ENDROOT
BRANCH   6  20
HETATM   20  C5  UNL     1     -11.228  14.638   0.730  1.00  0.00     0.157 A 
HETATM   21  N2  UNL     1     -12.014  15.652   1.066  1.00  0.00    -0.346 N 
HETATM   22  C6  UNL     1     -12.646  15.631   2.190  1.00  0.00     0.097 A 
ATOM     23  H2  UNL     1     -12.118  16.446   0.436  1.00  0.00     0.167 HD
HETATM   24  C7  UNL     1     -12.474  14.543   3.006  1.00  0.00     0.070 A 
HETATM   25  S2  UNL     1     -11.386  13.595   2.074  1.00  0.00    -0.064 SA
ENDBRANCH   6  20
TORSDOF 1
ENDMDL
MODEL 5
REMARK VINA RESULT: -5.796886726      2.875      4.021
REMARK  1 active torsions:
REMARK  status: ('A' for Active; 'I' for Inactive)
REMARK    1  A    between atoms: N1_6  and  C5_7 
ROOT
HETATM    1  C1  UNL     1      -9.705  13.979  -3.165  1.00  0.00     0.023 C 
HETATM    2  C2  UNL     1      -8.685  15.080  -2.968  1.00  0.00     0.018 C 
HETATM    3  C3  UNL     1      -9.341  16.173  -2.189  1.00  0.00     0.023 C 
HETATM    4  C4  UNL     1      -8.350  15.602  -4.315  1.00  0.00     0.096 C 
HETATM    5  S1  UNL     1      -9.098  16.934  -4.868  1.00  0.00    -0.064 SA
HETATM    6  N1  UNL     1      -7.388  14.964  -5.138  1.00  0.00    -0.273 N 
HETATM    7  C8  UNL     1      -6.715  13.845  -4.583  1.00  0.00     0.103 C 
HETATM    8  N3  UNL     1      -6.014  13.104  -5.366  1.00  0.00    -0.387 N 
ATOM      9  H31 UNL     1      -5.530  12.300  -4.967  1.00  0.00     0.157 HD
ATOM     10  H32 UNL     1      -5.962  13.340  -6.357  1.00  0.00     0.157 HD
HETATM   11  C9  UNL     1      -6.789  13.507  -3.163  1.00  0.00     0.172 C 
HETATM   12  C10 UNL     1      -7.393  12.202  -2.970  1.00  0.00     0.072 C 
HETATM   13  N4  UNL     1      -7.857  11.154  -2.813  1.00  0.00    -0.196 NA
HETATM   14  C11 UNL     1      -7.421  14.588  -2.324  1.00  0.00     0.027 C 
HETATM   15  C12 UNL     1      -6.462  15.735  -2.226  1.00  0.00     0.015 C 
HETATM   16  C13 UNL     1      -6.324  16.105  -0.779  1.00  0.00     0.004 C 
HETATM   17  C14 UNL     1      -7.273  15.225   0.003  1.00  0.00     0.038 C 
HETATM   18  C15 UNL     1      -7.599  14.080  -0.934  1.00  0.00     0.181 C 
HETATM   19  F1  UNL     1      -6.637  13.093  -0.676  1.00  0.00    -0.249 F 
ENDROOT
BRANCH   6  20
HETATM   20  C5  UNL     1      -7.105  15.428  -6.479  1.00  0.00     0.157 A 
HETATM   21  N2  UNL     1      -7.779  15.163  -7.589  1.00  0.00    -0.346 N 
HETATM   22  C6  UNL     1      -7.389  15.661  -8.713  1.00  0.00     0.097 A 
ATOM     23  H2  UNL     1      -8.605  14.567  -7.554  1.00  0.00     0.167 HD
HETATM   24  C7  UNL     1      -6.272  16.456  -8.712  1.00  0.00     0.070 A 
HETATM   25  S2  UNL     1      -5.847  16.435  -7.048  1.00  0.00    -0.064 SA
ENDBRANCH   6  20
TORSDOF 1
ENDMDL
