MODEL 1
REMARK VINA RESULT: -8.570070735      0.000      0.000
REMARK  4 active torsions:
REMARK  status: ('A' for Active; 'I' for Inactive)
REMARK    1  A    between atoms: C14_15  and  O1_16 
REMARK    2  A    between atoms: C14_15  and  C15_18 
REMARK    3  A    between atoms: N1_19  and  O2_21 
REMARK    4  A    between atoms: O2_21  and  O3_22 
ROOT
HETATM    1  C1  UNL     1      -7.326  12.702  -1.997  1.00  0.00     0.015 C 
HETATM    2  C2  UNL     1      -6.899  14.008  -2.629  1.00  0.00     0.017 C 
HETATM    3  C3  UNL     1      -8.004  14.713  -3.344  1.00  0.00     0.009 C 
HETATM    4  C4  UNL     1      -9.269  14.529  -2.543  1.00  0.00     0.001 C 
HETATM    5  C5  UNL     1      -9.457  15.629  -1.570  1.00  0.00     0.005 C 
HETATM    6  C6  UNL     1      -8.554  15.635  -0.396  1.00  0.00     0.042 C 
HETATM    7  C7  UNL     1      -7.131  15.558  -0.634  1.00  0.00    -0.016 A 
HETATM    8  C8  UNL     1      -6.436  16.331   0.285  1.00  0.00     0.082 A 
HETATM    9  C9  UNL     1      -5.040  16.406   0.245  1.00  0.00    -0.019 A 
HETATM   10  C10 UNL     1      -4.338  15.713  -0.703  1.00  0.00     0.034 A 
HETATM   11  C11 UNL     1      -5.007  14.940  -1.623  1.00  0.00     0.042 A 
HETATM   12 CL1  UNL     1      -4.165  14.032  -2.860  1.00  0.00    -0.084 Cl
HETATM   13  C12 UNL     1      -6.381  14.879  -1.570  1.00  0.00    -0.024 A 
HETATM   14  C13 UNL     1      -4.374  17.254   1.266  1.00  0.00     0.087 C 
HETATM   15  C14 UNL     1      -5.115  18.548   1.515  1.00  0.00     0.117 C 
HETATM   16  C16 UNL     1      -6.589  18.359   1.638  1.00  0.00     0.219 C 
HETATM   17  O4  UNL     1      -7.044  17.070   1.284  1.00  0.00    -0.347 OA
ENDROOT
BRANCH  15  18
HETATM   18  O1  UNL     1      -4.798  19.410   0.458  1.00  0.00    -0.382 OA
ATOM     19  H1  UNL     1      -4.220  20.078   0.810  1.00  0.00     0.211 HD
ENDBRANCH  15  18
BRANCH  15  20
HETATM   20  C15 UNL     1      -4.552  19.127   2.772  1.00  0.00     0.130 C 
HETATM   21  N1  UNL     1      -3.360  19.583   2.790  1.00  0.00    -0.247 N 
ATOM     22  H1  UNL     1      -2.813  19.540   1.931  1.00  0.00     0.196 HD
BRANCH  21  23
HETATM   23  O2  UNL     1      -2.788  20.120   3.892  1.00  0.00    -0.116 OA
BRANCH  23  24
HETATM   24  O3  UNL     1      -3.459  20.754   4.868  1.00  0.00    -0.227 OA
ATOM     25  H3  UNL     1      -3.052  21.182   5.612  1.00  0.00     0.256 HD
ENDBRANCH  23  24
ENDBRANCH  21  23
ENDBRANCH  15  20
TORSDOF 4
ENDMDL
MODEL 2
REMARK VINA RESULT: -7.761583155      1.868      2.921
REMARK  4 active torsions:
REMARK  status: ('A' for Active; 'I' for Inactive)
REMARK    1  A    between atoms: C14_15  and  O1_16 
REMARK    2  A    between atoms: C14_15  and  C15_18 
REMARK    3  A    between atoms: N1_19  and  O2_21 
REMARK    4  A    between atoms: O2_21  and  O3_22 
ROOT
HETATM    1  C1  UNL     1      -8.434  14.979  -2.714  1.00  0.00     0.015 C 
HETATM    2  C2  UNL     1      -7.928  14.402  -1.411  1.00  0.00     0.017 C 
HETATM    3  C3  UNL     1      -6.954  13.284  -1.594  1.00  0.00     0.009 C 
HETATM    4  C4  UNL     1      -6.077  13.618  -2.774  1.00  0.00     0.001 C 
HETATM    5  C5  UNL     1      -4.861  14.351  -2.354  1.00  0.00     0.005 C 
HETATM    6  C6  UNL     1      -5.052  15.756  -1.925  1.00  0.00     0.042 C 
HETATM    7  C7  UNL     1      -6.046  16.028  -0.913  1.00  0.00    -0.016 A 
HETATM    8  C8  UNL     1      -5.623  17.045  -0.069  1.00  0.00     0.082 A 
HETATM    9  C9  UNL     1      -6.430  17.478   0.988  1.00  0.00    -0.019 A 
HETATM   10  C10 UNL     1      -7.653  16.902   1.204  1.00  0.00     0.034 A 
HETATM   11  C11 UNL     1      -8.091  15.893   0.380  1.00  0.00     0.042 A 
HETATM   12 CL1  UNL     1      -9.643  15.118   0.606  1.00  0.00    -0.084 Cl
HETATM   13  C12 UNL     1      -7.283  15.479  -0.654  1.00  0.00    -0.024 A 
HETATM   14  C13 UNL     1      -5.904  18.573   1.842  1.00  0.00     0.087 C 
HETATM   15  C14 UNL     1      -4.429  18.421   2.134  1.00  0.00     0.117 C 
HETATM   16  C16 UNL     1      -3.633  18.051   0.929  1.00  0.00     0.219 C 
HETATM   17  O4  UNL     1      -4.409  17.696  -0.196  1.00  0.00    -0.347 OA
ENDROOT
BRANCH  15  18
HETATM   18  O1  UNL     1      -4.310  17.455   3.140  1.00  0.00    -0.382 OA
ATOM     19  H1  UNL     1      -4.104  17.917   3.945  1.00  0.00     0.211 HD
ENDBRANCH  15  18
BRANCH  15  20
HETATM   20  C15 UNL     1      -3.967  19.729   2.689  1.00  0.00     0.130 C 
HETATM   21  N1  UNL     1      -3.834  19.879   3.949  1.00  0.00    -0.247 N 
ATOM     22  H1  UNL     1      -4.050  19.089   4.556  1.00  0.00     0.196 HD
BRANCH  21  23
HETATM   23  O2  UNL     1      -3.420  21.035   4.519  1.00  0.00    -0.116 OA
BRANCH  23  24
HETATM   24  O3  UNL     1      -2.756  21.115   5.684  1.00  0.00    -0.227 OA
ATOM     25  H3  UNL     1      -1.832  20.920   5.792  1.00  0.00     0.256 HD
ENDBRANCH  23  24
ENDBRANCH  21  23
ENDBRANCH  15  20
TORSDOF 4
ENDMDL
MODEL 3
REMARK VINA RESULT: -7.365431058      2.159      3.103
REMARK  4 active torsions:
REMARK  status: ('A' for Active; 'I' for Inactive)
REMARK    1  A    between atoms: C14_15  and  O1_16 
REMARK    2  A    between atoms: C14_15  and  C15_18 
REMARK    3  A    between atoms: N1_19  and  O2_21 
REMARK    4  A    between atoms: O2_21  and  O3_22 
ROOT
HETATM    1  C1  UNL     1     -10.261  15.160  -2.860  1.00  0.00     0.015 C 
HETATM    2  C2  UNL     1      -9.601  14.307  -1.799  1.00  0.00     0.017 C 
HETATM    3  C3  UNL     1      -9.040  13.028  -2.327  1.00  0.00     0.009 C 
HETATM    4  C4  UNL     1      -8.448  13.304  -3.686  1.00  0.00     0.001 C 
HETATM    5  C5  UNL     1      -7.016  13.666  -3.588  1.00  0.00     0.005 C 
HETATM    6  C6  UNL     1      -6.709  15.004  -3.032  1.00  0.00     0.042 C 
HETATM    7  C7  UNL     1      -7.294  15.361  -1.760  1.00  0.00    -0.016 A 
HETATM    8  C8  UNL     1      -6.412  16.126  -1.010  1.00  0.00     0.082 A 
HETATM    9  C9  UNL     1      -6.769  16.587   0.261  1.00  0.00    -0.019 A 
HETATM   10  C10 UNL     1      -7.999  16.291   0.783  1.00  0.00     0.034 A 
HETATM   11  C11 UNL     1      -8.889  15.536   0.057  1.00  0.00     0.042 A 
HETATM   12 CL1  UNL     1     -10.475  15.124   0.670  1.00  0.00    -0.084 Cl
HETATM   13  C12 UNL     1      -8.520  15.089  -1.192  1.00  0.00    -0.024 A 
HETATM   14  C13 UNL     1      -5.768  17.400   0.997  1.00  0.00     0.087 C 
HETATM   15  C14 UNL     1      -4.362  16.868   0.840  1.00  0.00     0.117 C 
HETATM   16  C16 UNL     1      -4.037  16.490  -0.565  1.00  0.00     0.219 C 
HETATM   17  O4  UNL     1      -5.147  16.484  -1.439  1.00  0.00    -0.347 OA
ENDROOT
BRANCH  15  18
HETATM   18  O1  UNL     1      -4.243  15.772   1.703  1.00  0.00    -0.382 OA
ATOM     19  H1  UNL     1      -3.516  15.248   1.387  1.00  0.00     0.211 HD
ENDBRANCH  15  18
BRANCH  15  20
HETATM   20  C15 UNL     1      -3.442  17.941   1.322  1.00  0.00     0.130 C 
HETATM   21  N1  UNL     1      -3.675  18.537   2.426  1.00  0.00    -0.247 N 
ATOM     22  H1  UNL     1      -4.497  18.260   2.961  1.00  0.00     0.196 HD
BRANCH  21  23
HETATM   23  O2  UNL     1      -2.884  19.517   2.921  1.00  0.00    -0.116 OA
BRANCH  23  24
HETATM   24  O3  UNL     1      -3.333  20.689   3.400  1.00  0.00    -0.227 OA
ATOM     25  H3  UNL     1      -2.892  21.523   3.286  1.00  0.00     0.256 HD
ENDBRANCH  23  24
ENDBRANCH  21  23
ENDBRANCH  15  20
TORSDOF 4
ENDMDL
MODEL 4
REMARK VINA RESULT: -7.066839758      4.336      6.574
REMARK  4 active torsions:
REMARK  status: ('A' for Active; 'I' for Inactive)
REMARK    1  A    between atoms: C14_15  and  O1_16 
REMARK    2  A    between atoms: C14_15  and  C15_18 
REMARK    3  A    between atoms: N1_19  and  O2_21 
REMARK    4  A    between atoms: O2_21  and  O3_22 
ROOT
HETATM    1  C1  UNL     1      -7.021  15.849  -3.181  1.00  0.00     0.015 C 
HETATM    2  C2  UNL     1      -7.232  14.509  -2.511  1.00  0.00     0.017 C 
HETATM    3  C3  UNL     1      -6.036  14.025  -1.759  1.00  0.00     0.009 C 
HETATM    4  C4  UNL     1      -5.389  15.215  -1.097  1.00  0.00     0.001 C 
HETATM    5  C5  UNL     1      -5.920  15.428   0.269  1.00  0.00     0.005 C 
HETATM    6  C6  UNL     1      -7.301  15.954   0.366  1.00  0.00     0.042 C 
HETATM    7  C7  UNL     1      -8.343  15.263  -0.359  1.00  0.00    -0.016 A 
HETATM    8  C8  UNL     1      -9.529  15.268   0.361  1.00  0.00     0.082 A 
HETATM    9  C9  UNL     1     -10.678  14.655  -0.151  1.00  0.00    -0.019 A 
HETATM   10  C10 UNL     1     -10.647  14.043  -1.375  1.00  0.00     0.034 A 
HETATM   11  C11 UNL     1      -9.482  14.027  -2.105  1.00  0.00     0.042 A 
HETATM   12 CL1  UNL     1      -9.380  13.260  -3.674  1.00  0.00    -0.084 Cl
HETATM   13  C12 UNL     1      -8.361  14.634  -1.585  1.00  0.00    -0.024 A 
HETATM   14  C13 UNL     1     -11.906  14.707   0.681  1.00  0.00     0.087 C 
HETATM   15  C14 UNL     1     -11.618  14.488   2.149  1.00  0.00     0.117 C 
HETATM   16  C16 UNL     1     -10.433  15.254   2.630  1.00  0.00     0.219 C 
HETATM   17  O4  UNL     1      -9.672  15.856   1.604  1.00  0.00    -0.347 OA
ENDROOT
BRANCH  15  18
HETATM   18  O1  UNL     1     -11.443  13.111   2.330  1.00  0.00    -0.382 OA
ATOM     19  H1  UNL     1     -11.560  12.936   3.257  1.00  0.00     0.211 HD
ENDBRANCH  15  18
BRANCH  15  20
HETATM   20  C15 UNL     1     -12.848  14.900   2.891  1.00  0.00     0.130 C 
HETATM   21  N1  UNL     1     -13.622  15.790   2.405  1.00  0.00    -0.247 N 
ATOM     22  H1  UNL     1     -13.378  16.206   1.507  1.00  0.00     0.196 HD
BRANCH  21  23
HETATM   23  O2  UNL     1     -14.750  16.211   3.023  1.00  0.00    -0.116 OA
BRANCH  23  24
HETATM   24  O3  UNL     1     -14.775  16.978   4.126  1.00  0.00    -0.227 OA
ATOM     25  H3  UNL     1     -15.543  17.120   4.666  1.00  0.00     0.256 HD
ENDBRANCH  23  24
ENDBRANCH  21  23
ENDBRANCH  15  20
TORSDOF 4
ENDMDL
MODEL 5
REMARK VINA RESULT: -6.992969422      3.417      4.729
REMARK  4 active torsions:
REMARK  status: ('A' for Active; 'I' for Inactive)
REMARK    1  A    between atoms: C14_15  and  O1_16 
REMARK    2  A    between atoms: C14_15  and  C15_18 
REMARK    3  A    between atoms: N1_19  and  O2_21 
REMARK    4  A    between atoms: O2_21  and  O3_22 
ROOT
HETATM    1  C1  UNL     1     -12.929  15.303   1.831  1.00  0.00     0.015 C 
HETATM    2  C2  UNL     1     -11.859  14.248   2.000  1.00  0.00     0.017 C 
HETATM    3  C3  UNL     1     -12.046  13.063   1.111  1.00  0.00     0.009 C 
HETATM    4  C4  UNL     1     -12.553  13.555  -0.222  1.00  0.00     0.001 C 
HETATM    5  C5  UNL     1     -11.437  13.835  -1.154  1.00  0.00     0.005 C 
HETATM    6  C6  UNL     1     -10.621  15.038  -0.867  1.00  0.00     0.042 C 
HETATM    7  C7  UNL     1     -10.072  15.184   0.462  1.00  0.00    -0.016 A 
HETATM    8  C8  UNL     1      -8.812  15.764   0.411  1.00  0.00     0.082 A 
HETATM    9  C9  UNL     1      -8.089  16.004   1.585  1.00  0.00    -0.019 A 
HETATM   10  C10 UNL     1      -8.617  15.669   2.802  1.00  0.00     0.034 A 
HETATM   11  C11 UNL     1      -9.863  15.093   2.874  1.00  0.00     0.042 A 
HETATM   12 CL1  UNL     1     -10.591  14.642   4.400  1.00  0.00    -0.084 Cl
HETATM   13  C12 UNL     1     -10.560  14.863   1.710  1.00  0.00    -0.024 A 
HETATM   14  C13 UNL     1      -6.751  16.630   1.443  1.00  0.00     0.087 C 
HETATM   15  C14 UNL     1      -5.975  16.078   0.270  1.00  0.00     0.117 C 
HETATM   16  C16 UNL     1      -6.801  15.946  -0.964  1.00  0.00     0.219 C 
HETATM   17  O4  UNL     1      -8.186  16.142  -0.762  1.00  0.00    -0.347 OA
ENDROOT
BRANCH  15  18
HETATM   18  O1  UNL     1      -5.455  14.841   0.670  1.00  0.00    -0.382 OA
ATOM     19  H1  UNL     1      -6.114  14.428   1.217  1.00  0.00     0.211 HD
ENDBRANCH  15  18
BRANCH  15  20
HETATM   20  C15 UNL     1      -4.829  17.009   0.038  1.00  0.00     0.130 C 
HETATM   21  N1  UNL     1      -4.225  17.541   1.028  1.00  0.00    -0.247 N 
ATOM     22  H1  UNL     1      -4.545  17.313   1.969  1.00  0.00     0.196 HD
BRANCH  21  23
HETATM   23  O2  UNL     1      -3.182  18.392   0.891  1.00  0.00    -0.116 OA
BRANCH  23  24
HETATM   24  O3  UNL     1      -2.414  18.826   1.905  1.00  0.00    -0.227 OA
ATOM     25  H3  UNL     1      -2.665  19.509   2.516  1.00  0.00     0.256 HD
ENDBRANCH  23  24
ENDBRANCH  21  23
ENDBRANCH  15  20
TORSDOF 4
ENDMDL
