MODEL 1
REMARK VINA RESULT: -4.381182771      0.000      0.000
REMARK  0 active torsions:
REMARK  status: ('A' for Active; 'I' for Inactive)
ROOT
HETATM    1  C1  UNL     1       2.117   0.212  17.150  1.00  0.00     0.046 C 
HETATM    2  C2  UNL     1       3.231  -0.369  16.790  1.00  0.00     0.039 C 
HETATM    3  C3  UNL     1       4.224  -0.339  15.688  1.00  0.00     0.090 C 
HETATM    4  C4  UNL     1       4.382  -1.786  16.103  1.00  0.00     0.181 C 
HETATM    5  O1  UNL     1       4.004  -1.375  17.402  1.00  0.00    -0.356 OA
ENDROOT
TORSDOF 0
ENDMDL
MODEL 2
REMARK VINA RESULT: -4.162922900      1.033      2.254
REMARK  0 active torsions:
REMARK  status: ('A' for Active; 'I' for Inactive)
ROOT
HETATM    1  C1  UNL     1       4.705  -1.809  16.309  1.00  0.00     0.046 C 
HETATM    2  C2  UNL     1       3.768  -0.899  16.286  1.00  0.00     0.039 C 
HETATM    3  C3  UNL     1       3.478   0.420  15.671  1.00  0.00     0.090 C 
HETATM    4  C4  UNL     1       2.677   0.578  16.945  1.00  0.00     0.181 C 
HETATM    5  O1  UNL     1       2.516  -0.827  16.928  1.00  0.00    -0.356 OA
ENDROOT
TORSDOF 0
ENDMDL
MODEL 3
REMARK VINA RESULT: -4.085293546      1.553      1.777
REMARK  0 active torsions:
REMARK  status: ('A' for Active; 'I' for Inactive)
ROOT
HETATM    1  C1  UNL     1       3.770   0.710  15.432  1.00  0.00     0.046 C 
HETATM    2  C2  UNL     1       3.778  -0.528  15.850  1.00  0.00     0.039 C 
HETATM    3  C3  UNL     1       3.900  -1.303  17.109  1.00  0.00     0.090 C 
HETATM    4  C4  UNL     1       4.484  -2.322  16.153  1.00  0.00     0.181 C 
HETATM    5  O1  UNL     1       3.655  -1.751  15.160  1.00  0.00    -0.356 OA
ENDROOT
TORSDOF 0
ENDMDL
MODEL 4
REMARK VINA RESULT: -3.877491009      1.302      2.484
REMARK  0 active torsions:
REMARK  status: ('A' for Active; 'I' for Inactive)
ROOT
HETATM    1  C1  UNL     1       4.441  -2.347  15.960  1.00  0.00     0.046 C 
HETATM    2  C2  UNL     1       4.040  -1.145  16.280  1.00  0.00     0.039 C 
HETATM    3  C3  UNL     1       3.199  -0.458  17.291  1.00  0.00     0.090 C 
HETATM    4  C4  UNL     1       3.011   0.507  16.140  1.00  0.00     0.181 C 
HETATM    5  O1  UNL     1       4.297   0.114  15.701  1.00  0.00    -0.356 OA
ENDROOT
TORSDOF 0
ENDMDL
MODEL 5
REMARK VINA RESULT: -3.689478535      1.008      1.062
REMARK  0 active torsions:
REMARK  status: ('A' for Active; 'I' for Inactive)
ROOT
HETATM    1  C1  UNL     1       2.577   0.462  16.823  1.00  0.00     0.046 C 
HETATM    2  C2  UNL     1       3.332  -0.425  16.232  1.00  0.00     0.039 C 
HETATM    3  C3  UNL     1       3.225  -1.552  15.273  1.00  0.00     0.090 C 
HETATM    4  C4  UNL     1       4.425  -2.033  16.061  1.00  0.00     0.181 C 
HETATM    5  O1  UNL     1       4.719  -0.670  16.298  1.00  0.00    -0.356 OA
ENDROOT
TORSDOF 0
ENDMDL
