MODEL 1
REMARK VINA RESULT: -4.936266076      0.000      0.000
REMARK  0 active torsions:
REMARK  status: ('A' for Active; 'I' for Inactive)
ROOT
HETATM    1  C1  UNL     1       3.649  -3.061  14.825  1.00  0.00     0.014 C 
HETATM    2  C2  UNL     1       3.823  -2.060  15.482  1.00  0.00    -0.092 C 
HETATM    3  C3  UNL     1       4.058  -0.849  16.278  1.00  0.00     0.164 A 
HETATM    4  C4  UNL     1       3.563   0.404  15.635  1.00  0.00     0.082 A 
HETATM    5  C5  UNL     1       2.711   0.361  16.854  1.00  0.00     0.059 A 
HETATM    6  N1  UNL     1       3.144  -0.709  17.390  1.00  0.00    -0.387 N 
ATOM      7  H1  UNL     1       2.936  -1.238  18.237  1.00  0.00     0.159 HD
ENDROOT
TORSDOF 0
ENDMDL
MODEL 2
REMARK VINA RESULT: -4.240886655      1.347      2.968
REMARK  0 active torsions:
REMARK  status: ('A' for Active; 'I' for Inactive)
ROOT
HETATM    1  C1  UNL     1       2.215   0.569  17.295  1.00  0.00     0.014 C 
HETATM    2  C2  UNL     1       2.942  -0.061  16.561  1.00  0.00    -0.092 C 
HETATM    3  C3  UNL     1       3.829  -0.805  15.658  1.00  0.00     0.164 A 
HETATM    4  C4  UNL     1       4.968  -1.479  16.350  1.00  0.00     0.082 A 
HETATM    5  C5  UNL     1       4.237  -2.655  15.804  1.00  0.00     0.059 A 
HETATM    6  N1  UNL     1       3.273  -2.066  15.220  1.00  0.00    -0.387 N 
ATOM      7  H1  UNL     1       2.459  -2.357  14.677  1.00  0.00     0.159 HD
ENDROOT
TORSDOF 0
ENDMDL
MODEL 3
REMARK VINA RESULT: -3.581708622      1.283      1.497
REMARK  0 active torsions:
REMARK  status: ('A' for Active; 'I' for Inactive)
ROOT
HETATM    1  C1  UNL     1       4.644  -2.705  15.976  1.00  0.00     0.014 C 
HETATM    2  C2  UNL     1       3.882  -1.779  15.818  1.00  0.00    -0.092 C 
HETATM    3  C3  UNL     1       2.947  -0.667  15.605  1.00  0.00     0.164 A 
HETATM    4  C4  UNL     1       1.971  -0.475  16.719  1.00  0.00     0.082 A 
HETATM    5  C5  UNL     1       2.719   0.810  16.779  1.00  0.00     0.059 A 
HETATM    6  N1  UNL     1       3.544   0.632  15.827  1.00  0.00    -0.387 N 
ATOM      7  H1  UNL     1       4.300   1.171  15.404  1.00  0.00     0.159 HD
ENDROOT
TORSDOF 0
ENDMDL
MODEL 4
REMARK VINA RESULT: -3.287670442      1.019      1.019
REMARK  0 active torsions:
REMARK  status: ('A' for Active; 'I' for Inactive)
ROOT
HETATM    1  C1  UNL     1       5.063  -2.842  16.048  1.00  0.00     0.014 C 
HETATM    2  C2  UNL     1       4.548  -1.787  16.340  1.00  0.00    -0.092 C 
HETATM    3  C3  UNL     1       3.944  -0.499  16.704  1.00  0.00     0.164 A 
HETATM    4  C4  UNL     1       3.386   0.257  15.543  1.00  0.00     0.082 A 
HETATM    5  C5  UNL     1       2.151   0.012  16.337  1.00  0.00     0.059 A 
HETATM    6  N1  UNL     1       2.642  -0.631  17.319  1.00  0.00    -0.387 N 
ATOM      7  H1  UNL     1       2.276  -1.055  18.171  1.00  0.00     0.159 HD
ENDROOT
TORSDOF 0
ENDMDL
MODEL 5
REMARK VINA RESULT: -2.268726431      1.133      2.582
REMARK  0 active torsions:
REMARK  status: ('A' for Active; 'I' for Inactive)
ROOT
HETATM    1  C1  UNL     1       4.085   1.367  15.076  1.00  0.00     0.014 C 
HETATM    2  C2  UNL     1       3.713   0.293  15.491  1.00  0.00    -0.092 C 
HETATM    3  C3  UNL     1       3.248  -1.012  15.976  1.00  0.00     0.164 A 
HETATM    4  C4  UNL     1       4.334  -2.027  16.117  1.00  0.00     0.082 A 
HETATM    5  C5  UNL     1       3.890  -1.895  17.531  1.00  0.00     0.059 A 
HETATM    6  N1  UNL     1       2.968  -1.029  17.394  1.00  0.00    -0.387 N 
ATOM      7  H1  UNL     1       2.314  -0.554  18.016  1.00  0.00     0.159 HD
ENDROOT
TORSDOF 0
ENDMDL
