MODEL 1
REMARK VINA RESULT: -4.164847357      0.000      0.000
REMARK  0 active torsions:
REMARK  status: ('A' for Active; 'I' for Inactive)
ROOT
HETATM    1  C1  UNL     1       2.666   0.041  16.991  1.00  0.00     0.261 C 
HETATM    2  C2  UNL     1       3.374   0.336  15.702  1.00  0.00     0.197 C 
HETATM    3  O1  UNL     1       4.601  -0.295  15.784  1.00  0.00    -0.363 OA
HETATM    4  C3  UNL     1       4.346  -1.473  16.459  1.00  0.00     0.399 C 
HETATM    5  N1  UNL     1       3.277  -1.210  17.402  1.00  0.00    -0.052 N 
ATOM      6  H11 UNL     1       2.611  -1.978  17.482  1.00  0.00     0.279 HD
ATOM      7  H12 UNL     1       3.585  -1.209  18.374  1.00  0.00     0.279 HD
ENDROOT
TORSDOF 0
ENDMDL
MODEL 2
REMARK VINA RESULT: -3.913300998      0.944      1.736
REMARK  0 active torsions:
REMARK  status: ('A' for Active; 'I' for Inactive)
ROOT
HETATM    1  C1  UNL     1       4.402  -1.265  16.372  1.00  0.00     0.261 C 
HETATM    2  C2  UNL     1       4.107  -0.018  15.593  1.00  0.00     0.197 C 
HETATM    3  O1  UNL     1       2.778   0.278  15.832  1.00  0.00    -0.363 OA
HETATM    4  C3  UNL     1       2.573  -0.065  17.154  1.00  0.00     0.399 C 
HETATM    5  N1  UNL     1       3.426  -1.201  17.445  1.00  0.00    -0.052 N 
ATOM      6  H11 UNL     1       3.847  -1.163  18.373  1.00  0.00     0.279 HD
ATOM      7  H12 UNL     1       2.911  -2.071  17.575  1.00  0.00     0.279 HD
ENDROOT
TORSDOF 0
ENDMDL
MODEL 3
REMARK VINA RESULT: -3.728032095      1.352      1.898
REMARK  0 active torsions:
REMARK  status: ('A' for Active; 'I' for Inactive)
ROOT
HETATM    1  C1  UNL     1       3.691  -1.188  17.200  1.00  0.00     0.261 C 
HETATM    2  C2  UNL     1       2.576  -0.185  17.181  1.00  0.00     0.197 C 
HETATM    3  O1  UNL     1       3.046   0.897  16.461  1.00  0.00    -0.363 OA
HETATM    4  C3  UNL     1       3.819   0.345  15.459  1.00  0.00     0.399 C 
HETATM    5  N1  UNL     1       4.428  -0.858  15.994  1.00  0.00    -0.052 N 
ATOM      6  H11 UNL     1       4.469  -1.624  15.323  1.00  0.00     0.279 HD
ATOM      7  H12 UNL     1       5.433  -0.770  16.146  1.00  0.00     0.279 HD
ENDROOT
TORSDOF 0
ENDMDL
MODEL 4
REMARK VINA RESULT: -3.623455595      1.476      1.653
REMARK  0 active torsions:
REMARK  status: ('A' for Active; 'I' for Inactive)
ROOT
HETATM    1  C1  UNL     1       2.392  -0.512  15.607  1.00  0.00     0.261 C 
HETATM    2  C2  UNL     1       2.635   0.094  16.957  1.00  0.00     0.197 C 
HETATM    3  O1  UNL     1       3.409  -0.816  17.653  1.00  0.00    -0.363 OA
HETATM    4  C3  UNL     1       4.259  -1.352  16.706  1.00  0.00     0.399 C 
HETATM    5  N1  UNL     1       3.540  -1.387  15.447  1.00  0.00    -0.052 N 
ATOM      6  H11 UNL     1       4.120  -1.150  14.643  1.00  0.00     0.279 HD
ATOM      7  H12 UNL     1       3.290  -2.330  15.149  1.00  0.00     0.279 HD
ENDROOT
TORSDOF 0
ENDMDL
MODEL 5
REMARK VINA RESULT: -3.562502558      1.633      2.332
REMARK  0 active torsions:
REMARK  status: ('A' for Active; 'I' for Inactive)
ROOT
HETATM    1  C1  UNL     1       4.381  -0.428  15.783  1.00  0.00     0.261 C 
HETATM    2  C2  UNL     1       4.000  -1.419  16.843  1.00  0.00     0.197 C 
HETATM    3  O1  UNL     1       3.222  -0.727  17.753  1.00  0.00    -0.363 OA
HETATM    4  C3  UNL     1       2.480   0.150  16.987  1.00  0.00     0.399 C 
HETATM    5  N1  UNL     1       3.298   0.536  15.854  1.00  0.00    -0.052 N 
ATOM      6  H11 UNL     1       2.772   0.617  14.984  1.00  0.00     0.279 HD
ATOM      7  H12 UNL     1       3.620   1.503  15.897  1.00  0.00     0.279 HD
ENDROOT
TORSDOF 0
ENDMDL
