MODEL 1
REMARK VINA RESULT: -4.809089080      0.000      0.000
REMARK  0 active torsions:
REMARK  status: ('A' for Active; 'I' for Inactive)
ROOT
HETATM    1  C1  UNL     1       3.497   0.505  15.600  1.00  0.00     0.068 C 
HETATM    2  C2  UNL     1       2.865   0.205  16.908  1.00  0.00     0.275 C 
HETATM    3  N1  UNL     1       3.445  -1.061  17.058  1.00  0.00     0.097 N 
HETATM    4  C3  UNL     1       4.641  -1.531  16.502  1.00  0.00     0.308 A 
HETATM    5  C4  UNL     1       3.678  -1.007  15.541  1.00  0.00     0.253 A 
ENDROOT
TORSDOF 0
ENDMDL
MODEL 2
REMARK VINA RESULT: -4.655147573      0.513      1.891
REMARK  0 active torsions:
REMARK  status: ('A' for Active; 'I' for Inactive)
ROOT
HETATM    1  C1  UNL     1       3.694  -0.985  15.257  1.00  0.00     0.068 C 
HETATM    2  C2  UNL     1       4.221  -1.447  16.564  1.00  0.00     0.275 C 
HETATM    3  N1  UNL     1       3.471  -0.555  17.342  1.00  0.00     0.097 N 
HETATM    4  C3  UNL     1       2.249   0.049  17.021  1.00  0.00     0.308 A 
HETATM    5  C4  UNL     1       3.316   0.261  16.050  1.00  0.00     0.253 A 
ENDROOT
TORSDOF 0
ENDMDL
MODEL 3
REMARK VINA RESULT: -4.623294549      1.013      1.421
REMARK  0 active torsions:
REMARK  status: ('A' for Active; 'I' for Inactive)
ROOT
HETATM    1  C1  UNL     1       2.550  -0.069  16.646  1.00  0.00     0.068 C 
HETATM    2  C2  UNL     1       3.559   0.480  15.709  1.00  0.00     0.275 C 
HETATM    3  N1  UNL     1       4.454  -0.591  15.822  1.00  0.00     0.097 N 
HETATM    4  C3  UNL     1       4.170  -1.918  16.171  1.00  0.00     0.308 A 
HETATM    5  C4  UNL     1       3.719  -0.916  17.131  1.00  0.00     0.253 A 
ENDROOT
TORSDOF 0
ENDMDL
MODEL 4
REMARK VINA RESULT: -4.421053434      1.085      1.757
REMARK  0 active torsions:
REMARK  status: ('A' for Active; 'I' for Inactive)
ROOT
HETATM    1  C1  UNL     1       2.359  -0.194  17.141  1.00  0.00     0.068 C 
HETATM    2  C2  UNL     1       3.593  -0.996  17.321  1.00  0.00     0.275 C 
HETATM    3  N1  UNL     1       4.177  -0.632  16.101  1.00  0.00     0.097 N 
HETATM    4  C3  UNL     1       3.955   0.531  15.353  1.00  0.00     0.308 A 
HETATM    5  C4  UNL     1       2.757  -0.237  15.671  1.00  0.00     0.253 A 
ENDROOT
TORSDOF 0
ENDMDL
MODEL 5
REMARK VINA RESULT: -4.357959265      1.075      2.257
REMARK  0 active torsions:
REMARK  status: ('A' for Active; 'I' for Inactive)
ROOT
HETATM    1  C1  UNL     1       4.592  -1.582  16.447  1.00  0.00     0.068 C 
HETATM    2  C2  UNL     1       3.661  -1.961  15.357  1.00  0.00     0.275 C 
HETATM    3  N1  UNL     1       3.102  -0.687  15.199  1.00  0.00     0.097 N 
HETATM    4  C3  UNL     1       3.682   0.551  15.504  1.00  0.00     0.308 A 
HETATM    5  C4  UNL     1       3.643  -0.402  16.608  1.00  0.00     0.253 A 
ENDROOT
TORSDOF 0
ENDMDL
