MODEL 1
REMARK VINA RESULT: -6.508319514      0.000      0.000
REMARK  1 active torsions:
REMARK  status: ('A' for Active; 'I' for Inactive)
REMARK    1  A    between atoms: C2_2  and  N1_3 
ROOT
HETATM    1  N1  UNL     1       5.337   8.943  19.472  1.00  0.00    -0.292 N 
HETATM    2  C3  UNL     1       4.024   8.652  19.530  1.00  0.00     0.328 A 
HETATM    3  O1  UNL     1       3.467   7.528  19.347  1.00  0.00    -0.246 OA
HETATM    4  N2  UNL     1       3.396   9.802  19.826  1.00  0.00    -0.291 N 
ATOM      5  H2  UNL     1       2.387   9.898  19.937  1.00  0.00     0.172 HD
HETATM    6  C4  UNL     1       4.281  10.813  19.956  1.00  0.00     0.157 A 
HETATM    7  N3  UNL     1       4.440  12.135  20.217  1.00  0.00    -0.281 N 
ATOM      8  H3  UNL     1       3.694  12.800  20.423  1.00  0.00     0.188 HD
HETATM    9  N4  UNL     1       5.731  12.409  20.157  1.00  0.00    -0.263 N 
ATOM     10  H4  UNL     1       6.139  13.331  20.311  1.00  0.00     0.190 HD
HETATM   11  C5  UNL     1       6.429  11.299  19.864  1.00  0.00     0.290 A 
HETATM   12  O2  UNL     1       7.671  11.157  19.723  1.00  0.00    -0.264 OA
HETATM   13  C6  UNL     1       5.522  10.254  19.728  1.00  0.00     0.154 A 
ENDROOT
BRANCH   1  14
HETATM   14  C2  UNL     1       6.417   8.024  19.184  1.00  0.00     0.130 C 
HETATM   15  C1  UNL     1       6.834   8.220  17.724  1.00  0.00     0.027 C 
ENDBRANCH   1  14
TORSDOF 1
ENDMDL
MODEL 2
REMARK VINA RESULT: -5.943203592      1.620      3.455
REMARK  1 active torsions:
REMARK  status: ('A' for Active; 'I' for Inactive)
REMARK    1  A    between atoms: C2_2  and  N1_3 
ROOT
HETATM    1  N1  UNL     1       6.136  10.572  19.689  1.00  0.00    -0.292 N 
HETATM    2  C3  UNL     1       5.521  11.764  19.814  1.00  0.00     0.328 A 
HETATM    3  O1  UNL     1       6.056  12.911  19.886  1.00  0.00    -0.246 OA
HETATM    4  N2  UNL     1       4.203  11.507  19.848  1.00  0.00    -0.291 N 
ATOM      5  H2  UNL     1       3.477  12.217  19.938  1.00  0.00     0.172 HD
HETATM    6  C4  UNL     1       3.970  10.181  19.749  1.00  0.00     0.157 A 
HETATM    7  N3  UNL     1       3.021   9.211  19.708  1.00  0.00    -0.281 N 
ATOM      8  H3  UNL     1       2.013   9.355  19.762  1.00  0.00     0.188 HD
HETATM    9  N4  UNL     1       3.635   8.047  19.587  1.00  0.00    -0.263 N 
ATOM     10  H4  UNL     1       3.165   7.144  19.533  1.00  0.00     0.190 HD
HETATM   11  C5  UNL     1       4.966   8.225  19.544  1.00  0.00     0.290 A 
HETATM   12  O2  UNL     1       5.878   7.366  19.435  1.00  0.00    -0.264 OA
HETATM   13  C6  UNL     1       5.213   9.590  19.647  1.00  0.00     0.154 A 
ENDROOT
BRANCH   1  14
HETATM   14  C2  UNL     1       7.560  10.336  19.609  1.00  0.00     0.130 C 
HETATM   15  C1  UNL     1       8.104  10.209  21.035  1.00  0.00     0.027 C 
ENDBRANCH   1  14
TORSDOF 1
ENDMDL
MODEL 3
REMARK VINA RESULT: -5.704124670      0.927      3.148
REMARK  1 active torsions:
REMARK  status: ('A' for Active; 'I' for Inactive)
REMARK    1  A    between atoms: C2_2  and  N1_3 
ROOT
HETATM    1  N1  UNL     1       6.661   9.560  19.381  1.00  0.00    -0.292 N 
HETATM    2  C3  UNL     1       7.280  10.681  19.798  1.00  0.00     0.328 A 
HETATM    3  O1  UNL     1       8.513  10.964  19.718  1.00  0.00    -0.246 OA
HETATM    4  N2  UNL     1       6.325  11.464  20.326  1.00  0.00    -0.291 N 
ATOM      5  H2  UNL     1       6.491  12.387  20.727  1.00  0.00     0.172 HD
HETATM    6  C4  UNL     1       5.118  10.865  20.254  1.00  0.00     0.157 A 
HETATM    7  N3  UNL     1       3.794  10.978  20.532  1.00  0.00    -0.281 N 
ATOM      8  H3  UNL     1       3.340  11.774  20.980  1.00  0.00     0.188 HD
HETATM    9  N4  UNL     1       3.197   9.873  20.121  1.00  0.00    -0.263 N 
ATOM     10  H4  UNL     1       2.199   9.684  20.205  1.00  0.00     0.190 HD
HETATM   11  C5  UNL     1       4.095   9.035  19.576  1.00  0.00     0.290 A 
HETATM   12  O2  UNL     1       3.914   7.895  19.076  1.00  0.00    -0.264 OA
HETATM   13  C6  UNL     1       5.342   9.647  19.648  1.00  0.00     0.154 A 
ENDROOT
BRANCH   1  14
HETATM   14  C2  UNL     1       7.275   8.417  18.743  1.00  0.00     0.130 C 
HETATM   15  C1  UNL     1       6.761   8.341  17.302  1.00  0.00     0.027 C 
ENDBRANCH   1  14
TORSDOF 1
ENDMDL
MODEL 4
REMARK VINA RESULT: -5.464917642      8.716      9.338
REMARK  1 active torsions:
REMARK  status: ('A' for Active; 'I' for Inactive)
REMARK    1  A    between atoms: C2_2  and  N1_3 
ROOT
HETATM    1  N1  UNL     1       1.584  14.439  13.541  1.00  0.00    -0.292 N 
HETATM    2  C3  UNL     1       1.855  14.328  12.227  1.00  0.00     0.328 A 
HETATM    3  O1  UNL     1       2.141  13.278  11.576  1.00  0.00    -0.246 OA
HETATM    4  N2  UNL     1       1.764  15.568  11.718  1.00  0.00    -0.291 N 
ATOM      5  H2  UNL     1       1.917  15.804  10.738  1.00  0.00     0.172 HD
HETATM    6  C4  UNL     1       1.443  16.460  12.679  1.00  0.00     0.157 A 
HETATM    7  N3  UNL     1       1.190  17.764  12.957  1.00  0.00    -0.281 N 
ATOM      8  H3  UNL     1       1.201  18.533  12.288  1.00  0.00     0.188 HD
HETATM    9  N4  UNL     1       0.926  17.860  14.248  1.00  0.00    -0.263 N 
ATOM     10  H4  UNL     1       0.701  18.728  14.734  1.00  0.00     0.190 HD
HETATM   11  C5  UNL     1       0.997  16.651  14.829  1.00  0.00     0.290 A 
HETATM   12  O2  UNL     1       0.812  16.337  16.033  1.00  0.00    -0.264 OA
HETATM   13  C6  UNL     1       1.329  15.728  13.843  1.00  0.00     0.154 A 
ENDROOT
BRANCH   1  14
HETATM   14  C2  UNL     1       1.559  13.369  14.513  1.00  0.00     0.130 C 
HETATM   15  C1  UNL     1       0.099  13.106  14.897  1.00  0.00     0.027 C 
ENDBRANCH   1  14
TORSDOF 1
ENDMDL
MODEL 5
REMARK VINA RESULT: -5.347277677      8.841      9.449
REMARK  1 active torsions:
REMARK  status: ('A' for Active; 'I' for Inactive)
REMARK    1  A    between atoms: C2_2  and  N1_3 
ROOT
HETATM    1  N1  UNL     1       1.457  15.456  12.551  1.00  0.00    -0.292 N 
HETATM    2  C3  UNL     1       1.689  14.132  12.476  1.00  0.00     0.328 A 
HETATM    3  O1  UNL     1       1.924  13.441  11.439  1.00  0.00    -0.246 OA
HETATM    4  N2  UNL     1       1.625  13.666  13.734  1.00  0.00    -0.291 N 
ATOM      5  H2  UNL     1       1.760  12.691  13.997  1.00  0.00     0.172 HD
HETATM    6  C4  UNL     1       1.357  14.664  14.603  1.00  0.00     0.157 A 
HETATM    7  N3  UNL     1       1.154  14.991  15.904  1.00  0.00    -0.281 N 
ATOM      8  H3  UNL     1       1.173  14.347  16.695  1.00  0.00     0.188 HD
HETATM    9  N4  UNL     1       0.926  16.291  15.966  1.00  0.00    -0.263 N 
ATOM     10  H4  UNL     1       0.740  16.810  16.824  1.00  0.00     0.190 HD
HETATM   11  C5  UNL     1       0.976  16.831  14.736  1.00  0.00     0.290 A 
HETATM   12  O2  UNL     1       0.813  18.029  14.389  1.00  0.00    -0.264 OA
HETATM   13  C6  UNL     1       1.251  15.807  13.837  1.00  0.00     0.154 A 
ENDROOT
BRANCH   1  14
HETATM   14  C2  UNL     1       1.424  16.394  11.451  1.00  0.00     0.130 C 
HETATM   15  C1  UNL     1       2.868  16.754  11.087  1.00  0.00     0.027 C 
ENDBRANCH   1  14
TORSDOF 1
ENDMDL
