MODEL 1
REMARK VINA RESULT: -5.752428459      0.000      0.000
REMARK  1 active torsions:
REMARK  status: ('A' for Active; 'I' for Inactive)
REMARK    1  A    between atoms: N1_2  and  C2_4 
ROOT
HETATM    1  C2  UNL     1       0.494  15.513  16.570  1.00  0.00     0.147 A 
HETATM    2  N2  UNL     1       0.122  14.253  16.840  1.00  0.00    -0.175 N 
ATOM      3  H2  UNL     1      -0.246  14.024  17.764  1.00  0.00     0.186 HD
HETATM    4  C3  UNL     1       0.229  13.269  15.894  1.00  0.00     0.679 A 
HETATM    5  N3  UNL     1      -0.142  12.073  16.203  1.00  0.00    -0.234 N 
ATOM      6  H31 UNL     1      -0.063  11.340  15.499  1.00  0.00     0.174 HD
ATOM      7  H32 UNL     1      -0.509  11.855  17.130  1.00  0.00     0.174 HD
HETATM    8  N4  UNL     1       0.712  13.555  14.672  1.00  0.00    -0.174 N 
ATOM      9  H4  UNL     1       0.784  12.810  13.979  1.00  0.00     0.186 HD
HETATM   10  C4  UNL     1       1.101  14.801  14.341  1.00  0.00     0.154 A 
HETATM   11  C5  UNL     1       0.985  15.794  15.320  1.00  0.00     0.123 A 
HETATM   12  N5  UNL     1       1.435  16.900  14.724  1.00  0.00    -0.346 N 
ATOM     13  H5  UNL     1       1.483  17.813  15.176  1.00  0.00     0.167 HD
HETATM   14  C6  UNL     1       1.817  16.666  13.462  1.00  0.00     0.184 A 
HETATM   15  N6  UNL     1       1.610  15.352  13.215  1.00  0.00    -0.331 N 
HETATM   16  C7  UNL     1       1.870  14.620  11.987  1.00  0.00     0.158 C 
ENDROOT
BRANCH   1  17
HETATM   17  N1  UNL     1       0.394  16.415  17.440  1.00  0.00    -0.378 N 
HETATM   18  C1  UNL     1       0.854  16.376  18.789  1.00  0.00     0.147 C 
ATOM     19  H1  UNL     1      -0.070  17.275  17.146  1.00  0.00     0.160 HD
ENDBRANCH   1  17
TORSDOF 1
ENDMDL
MODEL 2
REMARK VINA RESULT: -5.733414774      0.748      3.606
REMARK  1 active torsions:
REMARK  status: ('A' for Active; 'I' for Inactive)
REMARK    1  A    between atoms: N1_2  and  C2_4 
ROOT
HETATM    1  C2  UNL     1       0.873  14.513  14.122  1.00  0.00     0.147 A 
HETATM    2  N2  UNL     1       0.360  13.357  14.569  1.00  0.00    -0.175 N 
ATOM      3  H2  UNL     1       0.198  12.591  13.915  1.00  0.00     0.186 HD
HETATM    4  C3  UNL     1       0.050  13.191  15.893  1.00  0.00     0.679 A 
HETATM    5  N3  UNL     1      -0.441  12.060  16.273  1.00  0.00    -0.234 N 
ATOM      6  H31 UNL     1      -0.671  11.936  17.259  1.00  0.00     0.174 HD
ATOM      7  H32 UNL     1      -0.599  11.301  15.610  1.00  0.00     0.174 HD
HETATM    8  N4  UNL     1       0.258  14.191  16.767  1.00  0.00    -0.174 N 
ATOM      9  H4  UNL     1       0.022  14.050  17.750  1.00  0.00     0.186 HD
HETATM   10  C4  UNL     1       0.770  15.374  16.378  1.00  0.00     0.154 A 
HETATM   11  C5  UNL     1       1.081  15.526  15.022  1.00  0.00     0.123 A 
HETATM   12  N5  UNL     1       1.559  16.769  14.931  1.00  0.00    -0.346 N 
ATOM     13  H5  UNL     1       1.879  17.195  14.062  1.00  0.00     0.167 HD
HETATM   14  C6  UNL     1       1.566  17.389  16.118  1.00  0.00     0.184 A 
HETATM   15  N6  UNL     1       1.073  16.520  17.030  1.00  0.00    -0.331 N 
HETATM   16  C7  UNL     1       0.884  16.729  18.455  1.00  0.00     0.158 C 
ENDROOT
BRANCH   1  17
HETATM   17  N1  UNL     1       1.157  14.664  12.906  1.00  0.00    -0.378 N 
HETATM   18  C1  UNL     1       2.255  14.099  12.194  1.00  0.00     0.147 C 
ATOM     19  H1  UNL     1       0.527  15.259  12.368  1.00  0.00     0.160 HD
ENDBRANCH   1  17
TORSDOF 1
ENDMDL
MODEL 3
REMARK VINA RESULT: -5.226247716      6.730      7.776
REMARK  1 active torsions:
REMARK  status: ('A' for Active; 'I' for Inactive)
REMARK    1  A    between atoms: N1_2  and  C2_4 
ROOT
HETATM    1  C2  UNL     1       5.196  12.298  19.538  1.00  0.00     0.147 A 
HETATM    2  N2  UNL     1       4.381  12.351  18.474  1.00  0.00    -0.175 N 
ATOM      3  H2  UNL     1       3.858  13.206  18.282  1.00  0.00     0.186 HD
HETATM    4  C3  UNL     1       4.240  11.273  17.642  1.00  0.00     0.679 A 
HETATM    5  N3  UNL     1       3.443  11.374  16.632  1.00  0.00    -0.234 N 
ATOM      6  H31 UNL     1       3.338  10.571  16.012  1.00  0.00     0.174 HD
ATOM      7  H32 UNL     1       2.926  12.234  16.449  1.00  0.00     0.174 HD
HETATM    8  N4  UNL     1       4.922  10.139  17.881  1.00  0.00    -0.174 N 
ATOM      9  H4  UNL     1       4.805   9.346  17.251  1.00  0.00     0.186 HD
HETATM   10  C4  UNL     1       5.754  10.026  18.933  1.00  0.00     0.154 A 
HETATM   11  C5  UNL     1       5.887  11.137  19.773  1.00  0.00     0.123 A 
HETATM   12  N5  UNL     1       6.756  10.743  20.706  1.00  0.00    -0.346 N 
ATOM     13  H5  UNL     1       7.069  11.331  21.479  1.00  0.00     0.167 HD
HETATM   14  C6  UNL     1       7.166   9.484  20.507  1.00  0.00     0.184 A 
HETATM   15  N6  UNL     1       6.543   9.028  19.397  1.00  0.00    -0.331 N 
HETATM   16  C7  UNL     1       6.662   7.719  18.777  1.00  0.00     0.158 C 
ENDROOT
BRANCH   1  17
HETATM   17  N1  UNL     1       5.324  13.289  20.301  1.00  0.00    -0.378 N 
HETATM   18  C1  UNL     1       4.422  14.381  20.467  1.00  0.00     0.147 C 
ATOM     19  H1  UNL     1       6.173  13.314  20.867  1.00  0.00     0.160 HD
ENDBRANCH   1  17
TORSDOF 1
ENDMDL
MODEL 4
REMARK VINA RESULT: -5.157683386      6.994      8.467
REMARK  1 active torsions:
REMARK  status: ('A' for Active; 'I' for Inactive)
REMARK    1  A    between atoms: N1_2  and  C2_4 
ROOT
HETATM    1  C2  UNL     1       5.747   8.813  19.108  1.00  0.00     0.147 A 
HETATM    2  N2  UNL     1       4.528   8.289  19.307  1.00  0.00    -0.175 N 
ATOM      3  H2  UNL     1       4.372   7.295  19.137  1.00  0.00     0.186 HD
HETATM    4  C3  UNL     1       3.488   9.071  19.735  1.00  0.00     0.679 A 
HETATM    5  N3  UNL     1       2.335   8.520  19.912  1.00  0.00    -0.234 N 
ATOM      6  H31 UNL     1       1.561   9.102  20.231  1.00  0.00     0.174 HD
ATOM      7  H32 UNL     1       2.191   7.525  19.739  1.00  0.00     0.174 HD
HETATM    8  N4  UNL     1       3.677  10.382  19.963  1.00  0.00    -0.174 N 
ATOM      9  H4  UNL     1       2.891  10.950  20.282  1.00  0.00     0.186 HD
HETATM   10  C4  UNL     1       4.877  10.965  19.781  1.00  0.00     0.154 A 
HETATM   11  C5  UNL     1       5.928  10.151  19.343  1.00  0.00     0.123 A 
HETATM   12  N5  UNL     1       6.970  10.980  19.253  1.00  0.00    -0.346 N 
ATOM     13  H5  UNL     1       7.903  10.694  18.955  1.00  0.00     0.167 HD
HETATM   14  C6  UNL     1       6.645  12.232  19.598  1.00  0.00     0.184 A 
HETATM   15  N6  UNL     1       5.333  12.230  19.931  1.00  0.00    -0.331 N 
HETATM   16  C7  UNL     1       4.520  13.350  20.373  1.00  0.00     0.158 C 
ENDROOT
BRANCH   1  17
HETATM   17  N1  UNL     1       6.700   8.093  18.715  1.00  0.00    -0.378 N 
HETATM   18  C1  UNL     1       7.149   7.901  17.375  1.00  0.00     0.147 C 
ATOM     19  H1  UNL     1       7.211   7.589  19.439  1.00  0.00     0.160 HD
ENDBRANCH   1  17
TORSDOF 1
ENDMDL
MODEL 5
REMARK VINA RESULT: -5.058973811      1.900      4.429
REMARK  1 active torsions:
REMARK  status: ('A' for Active; 'I' for Inactive)
REMARK    1  A    between atoms: N1_2  and  C2_4 
ROOT
HETATM    1  C2  UNL     1       0.736  15.049  16.381  1.00  0.00     0.147 A 
HETATM    2  N2  UNL     1       0.564  15.716  15.229  1.00  0.00    -0.175 N 
ATOM      3  H2  UNL     1      -0.092  15.360  14.534  1.00  0.00     0.186 HD
HETATM    4  C3  UNL     1       1.260  16.867  14.972  1.00  0.00     0.679 A 
HETATM    5  N3  UNL     1       1.059  17.471  13.850  1.00  0.00    -0.234 N 
ATOM      6  H31 UNL     1       1.576  18.329  13.659  1.00  0.00     0.174 HD
ATOM      7  H32 UNL     1       0.400  17.106  13.162  1.00  0.00     0.174 HD
HETATM    8  N4  UNL     1       2.129  17.349  15.878  1.00  0.00    -0.174 N 
ATOM      9  H4  UNL     1       2.638  18.209  15.671  1.00  0.00     0.186 HD
HETATM   10  C4  UNL     1       2.344  16.725  17.051  1.00  0.00     0.154 A 
HETATM   11  C5  UNL     1       1.625  15.549  17.297  1.00  0.00     0.123 A 
HETATM   12  N5  UNL     1       2.033  15.160  18.507  1.00  0.00    -0.346 N 
ATOM     13  H5  UNL     1       1.694  14.324  18.982  1.00  0.00     0.167 HD
HETATM   14  C6  UNL     1       2.940  16.000  19.022  1.00  0.00     0.184 A 
HETATM   15  N6  UNL     1       3.140  16.983  18.114  1.00  0.00    -0.331 N 
HETATM   16  C7  UNL     1       4.032  18.126  18.214  1.00  0.00     0.158 C 
ENDROOT
BRANCH   1  17
HETATM   17  N1  UNL     1       0.097  13.992  16.614  1.00  0.00    -0.378 N 
HETATM   18  C1  UNL     1       0.012  12.829  15.794  1.00  0.00     0.147 C 
ATOM     19  H1  UNL     1      -0.421  13.964  17.493  1.00  0.00     0.160 HD
ENDBRANCH   1  17
TORSDOF 1
ENDMDL
