MODEL 1
REMARK VINA RESULT: -5.154990391      0.000      0.000
REMARK  4 active torsions:
REMARK  status: ('A' for Active; 'I' for Inactive)
REMARK    1  A    between atoms: N1_1  and  C1_5 
REMARK    2  A    between atoms: C1_5  and  C2_6 
REMARK    3  A    between atoms: C2_6  and  N2_7 
REMARK    4  A    between atoms: N2_7  and  C3_9 
ROOT
HETATM    1  C3  UNL     1       5.123  11.767  19.294  1.00  0.00     0.147 A 
HETATM    2  N3  UNL     1       6.442  11.612  19.424  1.00  0.00    -0.282 N 
ATOM      3  H3  UNL     1       7.132  12.361  19.385  1.00  0.00     0.188 HD
HETATM    4  N4  UNL     1       6.708  10.336  19.610  1.00  0.00    -0.282 N 
ATOM      5  H4  UNL     1       7.647   9.959  19.736  1.00  0.00     0.188 HD
HETATM    6  C4  UNL     1       5.584   9.590  19.613  1.00  0.00     0.152 A 
HETATM    7  N5  UNL     1       5.038   8.365  19.726  1.00  0.00    -0.336 N 
ATOM      8  H5  UNL     1       5.552   7.497  19.880  1.00  0.00     0.168 HD
HETATM    9  C5  UNL     1       3.703   8.472  19.602  1.00  0.00     0.182 A 
HETATM   10  N6  UNL     1       3.427   9.773  19.411  1.00  0.00    -0.346 N 
ATOM     11  H6  UNL     1       2.487  10.150  19.286  1.00  0.00     0.167 HD
HETATM   12  C6  UNL     1       4.556  10.520  19.408  1.00  0.00     0.124 A 
ENDROOT
BRANCH   1  13
HETATM   13  N2  UNL     1       4.513  12.870  19.102  1.00  0.00    -0.372 N 
ATOM     14  H2  UNL     1       4.051  13.017  18.205  1.00  0.00     0.161 HD
BRANCH  13  15
HETATM   15  C2  UNL     1       4.441  13.923  20.087  1.00  0.00     0.148 C 
BRANCH  15  16
HETATM   16  C1  UNL     1       4.060  15.207  19.342  1.00  0.00     0.249 C 
BRANCH  16  17
HETATM   17  N1  UNL     1       2.608  15.096  19.129  1.00  0.00    -0.078 N 
ATOM     18  H13 UNL     1       2.271  15.585  18.300  1.00  0.00     0.274 HD
ATOM     19  H12 UNL     1       2.300  14.165  18.846  1.00  0.00     0.274 HD
ATOM     20  H11 UNL     1       2.194  15.423  20.002  1.00  0.00     0.274 HD
ENDBRANCH  16  17
ENDBRANCH  15  16
ENDBRANCH  13  15
ENDBRANCH   1  13
TORSDOF 4
ENDMDL
MODEL 2
REMARK VINA RESULT: -5.049710564      1.081      2.240
REMARK  4 active torsions:
REMARK  status: ('A' for Active; 'I' for Inactive)
REMARK    1  A    between atoms: N1_1  and  C1_5 
REMARK    2  A    between atoms: C1_5  and  C2_6 
REMARK    3  A    between atoms: C2_6  and  N2_7 
REMARK    4  A    between atoms: N2_7  and  C3_9 
ROOT
HETATM    1  C3  UNL     1       4.404  10.763  19.955  1.00  0.00     0.147 A 
HETATM    2  N3  UNL     1       3.362   9.929  19.965  1.00  0.00    -0.282 N 
ATOM      3  H3  UNL     1       2.417  10.167  20.264  1.00  0.00     0.188 HD
HETATM    4  N4  UNL     1       3.751   8.751  19.526  1.00  0.00    -0.282 N 
ATOM      5  H4  UNL     1       3.137   7.941  19.438  1.00  0.00     0.188 HD
HETATM    6  C4  UNL     1       5.061   8.748  19.205  1.00  0.00     0.152 A 
HETATM    7  N5  UNL     1       6.113   8.046  18.744  1.00  0.00    -0.336 N 
ATOM      8  H5  UNL     1       6.095   7.066  18.462  1.00  0.00     0.168 HD
HETATM    9  C5  UNL     1       7.191   8.849  18.716  1.00  0.00     0.182 A 
HETATM   10  N6  UNL     1       6.799  10.054  19.164  1.00  0.00    -0.346 N 
ATOM     11  H6  UNL     1       7.414  10.863  19.250  1.00  0.00     0.167 HD
HETATM   12  C6  UNL     1       5.485  10.054  19.485  1.00  0.00     0.124 A 
ENDROOT
BRANCH   1  13
HETATM   13  N2  UNL     1       4.390  11.985  20.316  1.00  0.00    -0.372 N 
ATOM     14  H2  UNL     1       4.047  12.209  21.250  1.00  0.00     0.161 HD
BRANCH  13  15
HETATM   15  C2  UNL     1       4.831  13.071  19.473  1.00  0.00     0.148 C 
BRANCH  15  16
HETATM   16  C1  UNL     1       4.206  14.354  20.031  1.00  0.00     0.249 C 
BRANCH  16  17
HETATM   17  N1  UNL     1       3.268  14.794  18.986  1.00  0.00    -0.078 N 
ATOM     18  H13 UNL     1       2.455  14.188  18.875  1.00  0.00     0.274 HD
ATOM     19  H12 UNL     1       2.749  15.640  19.223  1.00  0.00     0.274 HD
ATOM     20  H11 UNL     1       3.840  14.880  18.146  1.00  0.00     0.274 HD
ENDBRANCH  16  17
ENDBRANCH  15  16
ENDBRANCH  13  15
ENDBRANCH   1  13
TORSDOF 4
ENDMDL
MODEL 3
REMARK VINA RESULT: -5.025406711      1.554      2.063
REMARK  4 active torsions:
REMARK  status: ('A' for Active; 'I' for Inactive)
REMARK    1  A    between atoms: N1_1  and  C1_5 
REMARK    2  A    between atoms: C1_5  and  C2_6 
REMARK    3  A    between atoms: C2_6  and  N2_7 
REMARK    4  A    between atoms: N2_7  and  C3_9 
ROOT
HETATM    1  C3  UNL     1       4.979  10.461  20.026  1.00  0.00     0.147 A 
HETATM    2  N3  UNL     1       5.174   9.857  21.199  1.00  0.00    -0.282 N 
ATOM      3  H3  UNL     1       4.864  10.209  22.105  1.00  0.00     0.188 HD
HETATM    4  N4  UNL     1       5.832   8.734  21.001  1.00  0.00    -0.282 N 
ATOM      5  H4  UNL     1       6.104   8.090  21.744  1.00  0.00     0.188 HD
HETATM    6  C4  UNL     1       6.102   8.542  19.694  1.00  0.00     0.152 A 
HETATM    7  N5  UNL     1       6.662   7.754  18.757  1.00  0.00    -0.336 N 
ATOM      8  H5  UNL     1       7.139   6.870  18.932  1.00  0.00     0.168 HD
HETATM    9  C5  UNL     1       6.489   8.324  17.551  1.00  0.00     0.182 A 
HETATM   10  N6  UNL     1       5.817   9.471  17.749  1.00  0.00    -0.346 N 
ATOM     11  H6  UNL     1       5.545  10.115  17.005  1.00  0.00     0.167 HD
HETATM   12  C6  UNL     1       5.548   9.663  19.061  1.00  0.00     0.124 A 
ENDROOT
BRANCH   1  13
HETATM   13  N2  UNL     1       4.376  11.569  19.844  1.00  0.00    -0.372 N 
ATOM     14  H2  UNL     1       3.393  11.632  20.108  1.00  0.00     0.161 HD
BRANCH  13  15
HETATM   15  C2  UNL     1       5.009  12.739  19.283  1.00  0.00     0.148 C 
BRANCH  15  16
HETATM   16  C1  UNL     1       4.478  13.950  20.059  1.00  0.00     0.249 C 
BRANCH  16  17
HETATM   17  N1  UNL     1       3.512  14.581  19.146  1.00  0.00    -0.078 N 
ATOM     18  H13 UNL     1       2.850  13.930  18.726  1.00  0.00     0.274 HD
ATOM     19  H12 UNL     1       2.818  15.165  19.614  1.00  0.00     0.274 HD
ATOM     20  H11 UNL     1       4.088  15.083  18.469  1.00  0.00     0.274 HD
ENDBRANCH  16  17
ENDBRANCH  15  16
ENDBRANCH  13  15
ENDBRANCH   1  13
TORSDOF 4
ENDMDL
MODEL 4
REMARK VINA RESULT: -4.969655357      1.005      1.039
REMARK  4 active torsions:
REMARK  status: ('A' for Active; 'I' for Inactive)
REMARK    1  A    between atoms: N1_1  and  C1_5 
REMARK    2  A    between atoms: C1_5  and  C2_6 
REMARK    3  A    between atoms: C2_6  and  N2_7 
REMARK    4  A    between atoms: N2_7  and  C3_9 
ROOT
HETATM    1  C3  UNL     1       5.692  11.295  20.451  1.00  0.00     0.147 A 
HETATM    2  N3  UNL     1       6.887  10.743  20.670  1.00  0.00    -0.282 N 
ATOM      3  H3  UNL     1       7.733  11.248  20.932  1.00  0.00     0.188 HD
HETATM    4  N4  UNL     1       6.797   9.442  20.492  1.00  0.00    -0.282 N 
ATOM      5  H4  UNL     1       7.578   8.794  20.600  1.00  0.00     0.188 HD
HETATM    6  C4  UNL     1       5.546   9.072  20.151  1.00  0.00     0.152 A 
HETATM    7  N5  UNL     1       4.709   8.068  19.831  1.00  0.00    -0.336 N 
ATOM      8  H5  UNL     1       4.961   7.081  19.772  1.00  0.00     0.168 HD
HETATM    9  C5  UNL     1       3.487   8.579  19.601  1.00  0.00     0.182 A 
HETATM   10  N6  UNL     1       3.573   9.907  19.781  1.00  0.00    -0.346 N 
ATOM     11  H6  UNL     1       2.791  10.555  19.674  1.00  0.00     0.167 HD
HETATM   12  C6  UNL     1       4.829  10.276  20.124  1.00  0.00     0.124 A 
ENDROOT
BRANCH   1  13
HETATM   13  N2  UNL     1       5.413  12.537  20.534  1.00  0.00    -0.372 N 
ATOM     14  H2  UNL     1       5.565  13.007  21.426  1.00  0.00     0.161 HD
BRANCH  13  15
HETATM   15  C2  UNL     1       4.893  13.313  19.434  1.00  0.00     0.148 C 
BRANCH  15  16
HETATM   16  C1  UNL     1       4.113  14.484  20.041  1.00  0.00     0.249 C 
BRANCH  16  17
HETATM   17  N1  UNL     1       3.142  14.862  19.002  1.00  0.00    -0.078 N 
ATOM     18  H13 UNL     1       3.074  15.867  18.843  1.00  0.00     0.274 HD
ATOM     19  H12 UNL     1       3.430  14.616  18.055  1.00  0.00     0.274 HD
ATOM     20  H11 UNL     1       2.267  14.427  19.297  1.00  0.00     0.274 HD
ENDBRANCH  16  17
ENDBRANCH  15  16
ENDBRANCH  13  15
ENDBRANCH   1  13
TORSDOF 4
ENDMDL
MODEL 5
REMARK VINA RESULT: -4.956051831      1.443      2.395
REMARK  4 active torsions:
REMARK  status: ('A' for Active; 'I' for Inactive)
REMARK    1  A    between atoms: N1_1  and  C1_5 
REMARK    2  A    between atoms: C1_5  and  C2_6 
REMARK    3  A    between atoms: C2_6  and  N2_7 
REMARK    4  A    between atoms: N2_7  and  C3_9 
ROOT
HETATM    1  C3  UNL     1       4.708  12.055  19.849  1.00  0.00     0.147 A 
HETATM    2  N3  UNL     1       3.914  11.185  20.476  1.00  0.00    -0.282 N 
ATOM      3  H3  UNL     1       2.911  11.298  20.623  1.00  0.00     0.188 HD
HETATM    4  N4  UNL     1       4.633  10.157  20.875  1.00  0.00    -0.282 N 
ATOM      5  H4  UNL     1       4.256   9.355  21.380  1.00  0.00     0.188 HD
HETATM    6  C4  UNL     1       5.930  10.296  20.532  1.00  0.00     0.152 A 
HETATM    7  N5  UNL     1       7.170   9.772  20.555  1.00  0.00    -0.336 N 
ATOM      8  H5  UNL     1       7.431   8.881  20.976  1.00  0.00     0.168 HD
HETATM    9  C5  UNL     1       8.009  10.619  19.931  1.00  0.00     0.182 A 
HETATM   10  N6  UNL     1       7.279  11.670  19.522  1.00  0.00    -0.346 N 
ATOM     11  H6  UNL     1       7.657  12.472  19.016  1.00  0.00     0.167 HD
HETATM   12  C6  UNL     1       5.978  11.529  19.867  1.00  0.00     0.124 A 
ENDROOT
BRANCH   1  13
HETATM   13  N2  UNL     1       4.346  13.163  19.333  1.00  0.00    -0.372 N 
ATOM     14  H2  UNL     1       4.183  13.197  18.327  1.00  0.00     0.161 HD
BRANCH  13  15
HETATM   15  C2  UNL     1       4.155  14.373  20.096  1.00  0.00     0.148 C 
BRANCH  15  16
HETATM   16  C1  UNL     1       3.797  15.480  19.098  1.00  0.00     0.249 C 
BRANCH  16  17
HETATM   17  N1  UNL     1       2.502  15.066  18.534  1.00  0.00    -0.078 N 
ATOM     18  H13 UNL     1       2.433  14.067  18.342  1.00  0.00     0.274 HD
ATOM     19  H12 UNL     1       1.727  15.110  19.197  1.00  0.00     0.274 HD
ATOM     20  H11 UNL     1       2.380  15.657  17.712  1.00  0.00     0.274 HD
ENDBRANCH  16  17
ENDBRANCH  15  16
ENDBRANCH  13  15
ENDBRANCH   1  13
TORSDOF 4
ENDMDL
