MODEL 1
REMARK VINA RESULT: -6.992105094      0.000      0.000
REMARK  13 active torsions:
REMARK  status: ('A' for Active; 'I' for Inactive)
REMARK    1  A    between atoms: C2_2  and  O1_3 
REMARK    2  A    between atoms: C2_2  and  C8_20 
REMARK    3  A    between atoms: O1_3  and  C3_4 
REMARK    4  A    between atoms: C3_4  and  C4_6 
REMARK    5  A    between atoms: C4_6  and  S1_7 
REMARK    6  A    between atoms: S1_7  and  C5_8 
REMARK    7  A    between atoms: C6_10  and  N1_11 
REMARK    8  A    between atoms: N1_11  and  N2_13 
REMARK    9  A    between atoms: C8_20  and  O4_22 
REMARK   10  A    between atoms: O4_22  and  C9_23 
REMARK   11  A    between atoms: C12_28  and  N5_29 
REMARK   12  A    between atoms: C14_31  and  C15_32 
REMARK   13  A    between atoms: C19_41  and  O7_42 
ROOT
HETATM    1  O4  UNL     1      23.467  -5.567 -13.608  1.00  0.00    -0.311 OA
ENDROOT
BRANCH   1   2
HETATM    2  C8  UNL     1      23.202  -6.153 -12.402  1.00  0.00     0.288 C 
HETATM    3  O3  UNL     1      22.375  -5.606 -11.629  1.00  0.00    -0.262 OA
BRANCH   2   4
HETATM    4  C2  UNL     1      23.844  -7.420 -11.942  1.00  0.00     0.227 C 
HETATM    5  C1  UNL     1      23.128  -8.641 -12.426  1.00  0.00     0.051 C 
BRANCH   4   6
HETATM    6  O1  UNL     1      23.959  -7.460 -10.537  1.00  0.00    -0.306 OA
BRANCH   6   7
HETATM    7  C3  UNL     1      25.200  -7.343  -9.968  1.00  0.00     0.269 C 
HETATM    8  O2  UNL     1      25.295  -7.253  -8.702  1.00  0.00    -0.264 OA
BRANCH   7   9
HETATM    9  C4  UNL     1      26.466  -7.312 -10.751  1.00  0.00     0.191 C 
BRANCH   9  10
HETATM   10  S1  UNL     1      27.623  -8.585 -10.188  1.00  0.00    -0.109 SA
BRANCH  10  11
HETATM   11  C5  UNL     1      26.784 -10.169 -10.002  1.00  0.00     0.086 A 
HETATM   12  S2  UNL     1      26.468 -11.084  -8.596  1.00  0.00    -0.042 SA
HETATM   13  C6  UNL     1      25.660 -12.392  -9.328  1.00  0.00     0.165 A 
HETATM   14  N3  UNL     1      25.668 -12.069 -10.622  1.00  0.00    -0.322 N 
HETATM   15  C7  UNL     1      26.230 -10.952 -10.982  1.00  0.00     0.142 A 
ATOM     16  H3  UNL     1      25.242 -12.684 -11.315  1.00  0.00     0.169 HD
HETATM   17  N4  UNL     1      26.287 -10.518 -12.376  1.00  0.00    -0.081 NA
BRANCH  13  18
HETATM   18  N1  UNL     1      25.150 -13.464  -8.760  1.00  0.00    -0.286 N 
ATOM     19  H1  UNL     1      25.469 -13.753  -7.836  1.00  0.00     0.188 HD
BRANCH  18  20
HETATM   20  N2  UNL     1      24.184 -14.197  -9.414  1.00  0.00    -0.343 N 
ATOM     21  H22 UNL     1      23.227 -13.844  -9.438  1.00  0.00     0.176 HD
ATOM     22  H21 UNL     1      24.430 -15.077  -9.866  1.00  0.00     0.176 HD
ENDBRANCH  18  20
ENDBRANCH  13  18
ENDBRANCH  10  11
ENDBRANCH   9  10
ENDBRANCH   7   9
ENDBRANCH   6   7
ENDBRANCH   4   6
ENDBRANCH   2   4
ENDBRANCH   1   2
BRANCH   1  23
HETATM   23  C9  UNL     1      22.478  -5.306 -14.611  1.00  0.00     0.165 C 
HETATM   24  C10 UNL     1      22.113  -6.602 -15.227  1.00  0.00     0.066 C 
HETATM   25  C11 UNL     1      23.070  -7.166 -16.227  1.00  0.00     0.148 C 
HETATM   26 CL1  UNL     1      24.672  -7.487 -15.595  1.00  0.00    -0.114 Cl
HETATM   27  S3  UNL     1      23.109  -5.975 -17.626  1.00  0.00    -0.120 SA
HETATM   28  C12 UNL     1      22.355  -4.466 -16.904  1.00  0.00     0.188 C 
HETATM   29  C19 UNL     1      23.010  -4.273 -15.582  1.00  0.00     0.181 C 
BRANCH  28  30
HETATM   30  N5  UNL     1      22.379  -3.350 -17.799  1.00  0.00    -0.292 N 
HETATM   31  C13 UNL     1      23.393  -3.261 -18.672  1.00  0.00     0.114 A 
HETATM   32  C14 UNL     1      23.543  -2.228 -19.601  1.00  0.00     0.048 A 
HETATM   33  C17 UNL     1      22.578  -1.262 -19.594  1.00  0.00     0.261 A 
HETATM   34  O5  UNL     1      22.605  -0.287 -20.379  1.00  0.00    -0.267 OA
HETATM   35  N6  UNL     1      21.567  -1.382 -18.699  1.00  0.00    -0.275 N 
HETATM   36  C18 UNL     1      21.465  -2.390 -17.827  1.00  0.00     0.330 A 
ATOM     37  H6  UNL     1      20.844  -0.662 -18.690  1.00  0.00     0.173 HD
HETATM   38  O6  UNL     1      20.499  -2.432 -17.027  1.00  0.00    -0.246 OA
BRANCH  32  39
HETATM   39  C15 UNL     1      24.696  -2.265 -20.485  1.00  0.00     0.026 C 
HETATM   40  C16 UNL     1      25.498  -3.255 -20.648  1.00  0.00     0.057 C 
HETATM   41 BR1  UNL     1      26.977  -3.079 -21.887  1.00  0.00    -0.064 Br
ENDBRANCH  32  39
ENDBRANCH  28  30
BRANCH  29  42
HETATM   42  O7  UNL     1      22.733  -2.998 -15.114  1.00  0.00    -0.390 OA
ATOM     43  H7  UNL     1      23.456  -2.415 -15.316  1.00  0.00     0.210 HD
ENDBRANCH  29  42
ENDBRANCH   1  23
TORSDOF 13
ENDMDL
MODEL 2
REMARK VINA RESULT: -6.914134515      1.876      2.131
REMARK  13 active torsions:
REMARK  status: ('A' for Active; 'I' for Inactive)
REMARK    1  A    between atoms: C2_2  and  O1_3 
REMARK    2  A    between atoms: C2_2  and  C8_20 
REMARK    3  A    between atoms: O1_3  and  C3_4 
REMARK    4  A    between atoms: C3_4  and  C4_6 
REMARK    5  A    between atoms: C4_6  and  S1_7 
REMARK    6  A    between atoms: S1_7  and  C5_8 
REMARK    7  A    between atoms: C6_10  and  N1_11 
REMARK    8  A    between atoms: N1_11  and  N2_13 
REMARK    9  A    between atoms: C8_20  and  O4_22 
REMARK   10  A    between atoms: O4_22  and  C9_23 
REMARK   11  A    between atoms: C12_28  and  N5_29 
REMARK   12  A    between atoms: C14_31  and  C15_32 
REMARK   13  A    between atoms: C19_41  and  O7_42 
ROOT
HETATM    1  O4  UNL     1      23.940  -5.092 -13.954  1.00  0.00    -0.311 OA
ENDROOT
BRANCH   1   2
HETATM    2  C8  UNL     1      23.819  -5.487 -12.651  1.00  0.00     0.288 C 
HETATM    3  O3  UNL     1      22.762  -5.215 -12.028  1.00  0.00    -0.262 OA
BRANCH   2   4
HETATM    4  C2  UNL     1      24.882  -6.233 -11.914  1.00  0.00     0.227 C 
HETATM    5  C1  UNL     1      24.454  -7.610 -11.517  1.00  0.00     0.051 C 
BRANCH   4   6
HETATM    6  O1  UNL     1      25.318  -5.522 -10.776  1.00  0.00    -0.306 OA
BRANCH   6   7
HETATM    7  C3  UNL     1      26.516  -4.860 -10.824  1.00  0.00     0.269 C 
HETATM    8  O2  UNL     1      26.520  -3.588 -10.848  1.00  0.00    -0.264 OA
BRANCH   7   9
HETATM    9  C4  UNL     1      27.837  -5.547 -10.851  1.00  0.00     0.191 C 
BRANCH   9  10
HETATM   10  S1  UNL     1      28.288  -6.176  -9.215  1.00  0.00    -0.109 SA
BRANCH  10  11
HETATM   11  C5  UNL     1      27.387  -7.694  -8.847  1.00  0.00     0.086 A 
HETATM   12  S2  UNL     1      27.796  -9.318  -9.173  1.00  0.00    -0.042 SA
HETATM   13  C6  UNL     1      26.418 -10.060  -8.503  1.00  0.00     0.165 A 
HETATM   14  N3  UNL     1      25.703  -9.026  -8.056  1.00  0.00    -0.322 N 
HETATM   15  C7  UNL     1      26.174  -7.825  -8.221  1.00  0.00     0.142 A 
ATOM     16  H3  UNL     1      24.805  -9.174  -7.595  1.00  0.00     0.169 HD
HETATM   17  N4  UNL     1      25.460  -6.634  -7.766  1.00  0.00    -0.081 NA
BRANCH  13  18
HETATM   18  N1  UNL     1      26.124 -11.341  -8.437  1.00  0.00    -0.286 N 
ATOM     19  H1  UNL     1      25.966 -11.873  -9.293  1.00  0.00     0.188 HD
BRANCH  18  20
HETATM   20  N2  UNL     1      26.029 -11.964  -7.212  1.00  0.00    -0.343 N 
ATOM     21  H22 UNL     1      25.388 -11.588  -6.514  1.00  0.00     0.176 HD
ATOM     22  H21 UNL     1      26.596 -12.789  -7.014  1.00  0.00     0.176 HD
ENDBRANCH  18  20
ENDBRANCH  13  18
ENDBRANCH  10  11
ENDBRANCH   9  10
ENDBRANCH   7   9
ENDBRANCH   6   7
ENDBRANCH   4   6
ENDBRANCH   2   4
ENDBRANCH   1   2
BRANCH   1  23
HETATM   23  C9  UNL     1      22.831  -4.853 -14.829  1.00  0.00     0.165 C 
HETATM   24  C10 UNL     1      22.378  -6.164 -15.344  1.00  0.00     0.066 C 
HETATM   25  C11 UNL     1      23.192  -6.776 -16.439  1.00  0.00     0.148 C 
HETATM   26 CL1  UNL     1      24.859  -7.095 -16.009  1.00  0.00    -0.114 Cl
HETATM   27  S3  UNL     1      23.058  -5.634 -17.874  1.00  0.00    -0.120 SA
HETATM   28  C12 UNL     1      22.418  -4.091 -17.115  1.00  0.00     0.188 C 
HETATM   29  C19 UNL     1      23.240  -3.861 -15.897  1.00  0.00     0.181 C 
BRANCH  28  30
HETATM   30  N5  UNL     1      22.335  -3.008 -18.045  1.00  0.00    -0.292 N 
HETATM   31  C13 UNL     1      23.318  -2.870 -18.947  1.00  0.00     0.114 A 
HETATM   32  C14 UNL     1      23.366  -1.861 -19.912  1.00  0.00     0.048 A 
HETATM   33  C17 UNL     1      22.329  -0.972 -19.910  1.00  0.00     0.261 A 
HETATM   34  O5  UNL     1      22.262  -0.025 -20.727  1.00  0.00    -0.267 OA
HETATM   35  N6  UNL     1      21.352  -1.139 -18.986  1.00  0.00    -0.275 N 
HETATM   36  C18 UNL     1      21.348  -2.122 -18.080  1.00  0.00     0.330 A 
ATOM     37  H6  UNL     1      20.575  -0.477 -18.981  1.00  0.00     0.173 HD
HETATM   38  O6  UNL     1      20.408  -2.210 -17.255  1.00  0.00    -0.246 OA
BRANCH  32  39
HETATM   39  C15 UNL     1      24.498  -1.840 -20.823  1.00  0.00     0.026 C 
HETATM   40  C16 UNL     1      25.487  -2.658 -20.827  1.00  0.00     0.057 C 
HETATM   41 BR1  UNL     1      26.892  -2.438 -22.144  1.00  0.00    -0.064 Br
ENDBRANCH  32  39
ENDBRANCH  28  30
BRANCH  29  42
HETATM   42  O7  UNL     1      23.038  -2.567 -15.443  1.00  0.00    -0.390 OA
ATOM     43  H7  UNL     1      23.571  -1.961 -15.945  1.00  0.00     0.210 HD
ENDBRANCH  29  42
ENDBRANCH   1  23
TORSDOF 13
ENDMDL
MODEL 3
REMARK VINA RESULT: -6.900621689      4.430     11.082
REMARK  13 active torsions:
REMARK  status: ('A' for Active; 'I' for Inactive)
REMARK    1  A    between atoms: C2_2  and  O1_3 
REMARK    2  A    between atoms: C2_2  and  C8_20 
REMARK    3  A    between atoms: O1_3  and  C3_4 
REMARK    4  A    between atoms: C3_4  and  C4_6 
REMARK    5  A    between atoms: C4_6  and  S1_7 
REMARK    6  A    between atoms: S1_7  and  C5_8 
REMARK    7  A    between atoms: C6_10  and  N1_11 
REMARK    8  A    between atoms: N1_11  and  N2_13 
REMARK    9  A    between atoms: C8_20  and  O4_22 
REMARK   10  A    between atoms: O4_22  and  C9_23 
REMARK   11  A    between atoms: C12_28  and  N5_29 
REMARK   12  A    between atoms: C14_31  and  C15_32 
REMARK   13  A    between atoms: C19_41  and  O7_42 
ROOT
HETATM    1  O4  UNL     1      22.087  -2.480 -17.481  1.00  0.00    -0.311 OA
ENDROOT
BRANCH   1   2
HETATM    2  C8  UNL     1      20.862  -1.910 -17.272  1.00  0.00     0.288 C 
HETATM    3  O3  UNL     1      20.179  -2.281 -16.285  1.00  0.00    -0.262 OA
BRANCH   2   4
HETATM    4  C2  UNL     1      20.279  -0.860 -18.160  1.00  0.00     0.227 C 
HETATM    5  C1  UNL     1      18.806  -0.689 -17.964  1.00  0.00     0.051 C 
BRANCH   4   6
HETATM    6  O1  UNL     1      20.553  -1.121 -19.518  1.00  0.00    -0.306 OA
BRANCH   6   7
HETATM    7  C3  UNL     1      21.123  -0.137 -20.283  1.00  0.00     0.269 C 
HETATM    8  O2  UNL     1      20.426   0.876 -20.609  1.00  0.00    -0.264 OA
BRANCH   7   9
HETATM    9  C4  UNL     1      22.531  -0.181 -20.764  1.00  0.00     0.191 C 
BRANCH   9  10
HETATM   10  S1  UNL     1      23.700   0.143 -19.421  1.00  0.00    -0.109 SA
BRANCH  10  11
HETATM   11  C5  UNL     1      23.328   1.714 -18.620  1.00  0.00     0.086 A 
HETATM   12  S2  UNL     1      22.946   3.230 -19.303  1.00  0.00    -0.042 SA
HETATM   13  C6  UNL     1      22.753   4.112 -17.859  1.00  0.00     0.165 A 
HETATM   14  N3  UNL     1      22.991   3.202 -16.913  1.00  0.00    -0.322 N 
HETATM   15  C7  UNL     1      23.282   1.988 -17.277  1.00  0.00     0.142 A 
ATOM     16  H3  UNL     1      22.944   3.453 -15.926  1.00  0.00     0.169 HD
HETATM   17  N4  UNL     1      23.558   0.927 -16.311  1.00  0.00    -0.081 NA
BRANCH  13  18
HETATM   18  N1  UNL     1      22.445   5.382 -17.707  1.00  0.00    -0.286 N 
ATOM     19  H1  UNL     1      22.907   6.091 -18.277  1.00  0.00     0.188 HD
BRANCH  18  20
HETATM   20  N2  UNL     1      21.498   5.755 -16.779  1.00  0.00    -0.343 N 
ATOM     21  H22 UNL     1      20.854   5.050 -16.418  1.00  0.00     0.176 HD
ATOM     22  H21 UNL     1      21.447   6.723 -16.462  1.00  0.00     0.176 HD
ENDBRANCH  18  20
ENDBRANCH  13  18
ENDBRANCH  10  11
ENDBRANCH   9  10
ENDBRANCH   7   9
ENDBRANCH   6   7
ENDBRANCH   4   6
ENDBRANCH   2   4
ENDBRANCH   1   2
BRANCH   1  23
HETATM   23  C9  UNL     1      22.972  -2.892 -16.433  1.00  0.00     0.165 C 
HETATM   24  C10 UNL     1      24.358  -2.728 -16.927  1.00  0.00     0.066 C 
HETATM   25  C11 UNL     1      24.869  -3.779 -17.860  1.00  0.00     0.148 C 
HETATM   26 CL1  UNL     1      23.955  -3.937 -19.344  1.00  0.00    -0.114 Cl
HETATM   27  S3  UNL     1      24.895  -5.346 -16.899  1.00  0.00    -0.120 SA
HETATM   28  C12 UNL     1      23.831  -4.961 -15.454  1.00  0.00     0.188 C 
HETATM   29  C19 UNL     1      22.617  -4.300 -16.003  1.00  0.00     0.181 C 
BRANCH  28  30
HETATM   30  N5  UNL     1      23.616  -6.092 -14.605  1.00  0.00    -0.292 N 
HETATM   31  C13 UNL     1      23.312  -7.265 -15.180  1.00  0.00     0.114 A 
HETATM   32  C14 UNL     1      23.076  -8.449 -14.475  1.00  0.00     0.048 A 
HETATM   33  C17 UNL     1      23.168  -8.373 -13.115  1.00  0.00     0.261 A 
HETATM   34  O5  UNL     1      22.977  -9.367 -12.378  1.00  0.00    -0.267 OA
HETATM   35  N6  UNL     1      23.477  -7.172 -12.566  1.00  0.00    -0.275 N 
HETATM   36  C18 UNL     1      23.694  -6.064 -13.281  1.00  0.00     0.330 A 
ATOM     37  H6  UNL     1      23.547  -7.111 -11.550  1.00  0.00     0.173 HD
HETATM   38  O6  UNL     1      23.975  -4.989 -12.701  1.00  0.00    -0.246 OA
BRANCH  32  39
HETATM   39  C15 UNL     1      22.756  -9.645 -15.236  1.00  0.00     0.026 C 
HETATM   40  C16 UNL     1      21.803  -9.773 -16.087  1.00  0.00     0.057 C 
HETATM   41 BR1  UNL     1      21.563 -11.471 -16.990  1.00  0.00    -0.064 Br
ENDBRANCH  32  39
ENDBRANCH  28  30
BRANCH  29  42
HETATM   42  O7  UNL     1      21.634  -4.261 -15.027  1.00  0.00    -0.390 OA
ATOM     43  H7  UNL     1      21.895  -4.791 -14.283  1.00  0.00     0.210 HD
ENDBRANCH  29  42
ENDBRANCH   1  23
TORSDOF 13
ENDMDL
MODEL 4
REMARK VINA RESULT: -6.742966000      1.276      2.112
REMARK  13 active torsions:
REMARK  status: ('A' for Active; 'I' for Inactive)
REMARK    1  A    between atoms: C2_2  and  O1_3 
REMARK    2  A    between atoms: C2_2  and  C8_20 
REMARK    3  A    between atoms: O1_3  and  C3_4 
REMARK    4  A    between atoms: C3_4  and  C4_6 
REMARK    5  A    between atoms: C4_6  and  S1_7 
REMARK    6  A    between atoms: S1_7  and  C5_8 
REMARK    7  A    between atoms: C6_10  and  N1_11 
REMARK    8  A    between atoms: N1_11  and  N2_13 
REMARK    9  A    between atoms: C8_20  and  O4_22 
REMARK   10  A    between atoms: O4_22  and  C9_23 
REMARK   11  A    between atoms: C12_28  and  N5_29 
REMARK   12  A    between atoms: C14_31  and  C15_32 
REMARK   13  A    between atoms: C19_41  and  O7_42 
ROOT
HETATM    1  O4  UNL     1      23.490  -5.620 -13.654  1.00  0.00    -0.311 OA
ENDROOT
BRANCH   1   2
HETATM    2  C8  UNL     1      23.229  -6.148 -12.421  1.00  0.00     0.288 C 
HETATM    3  O3  UNL     1      22.418  -5.556 -11.665  1.00  0.00    -0.262 OA
BRANCH   2   4
HETATM    4  C2  UNL     1      23.859  -7.402 -11.911  1.00  0.00     0.227 C 
HETATM    5  C1  UNL     1      23.178  -8.637 -12.410  1.00  0.00     0.051 C 
BRANCH   4   6
HETATM    6  O1  UNL     1      23.907  -7.420 -10.502  1.00  0.00    -0.306 OA
BRANCH   6   7
HETATM    7  C3  UNL     1      25.106  -7.654  -9.880  1.00  0.00     0.269 C 
HETATM    8  O2  UNL     1      25.116  -8.269  -8.766  1.00  0.00    -0.264 OA
BRANCH   7   9
HETATM    9  C4  UNL     1      26.419  -7.226 -10.435  1.00  0.00     0.191 C 
BRANCH   9  10
HETATM   10  S1  UNL     1      27.502  -8.644 -10.742  1.00  0.00    -0.109 SA
BRANCH  10  11
HETATM   11  C5  UNL     1      26.815  -9.701 -12.030  1.00  0.00     0.086 A 
HETATM   12  S2  UNL     1      26.944  -9.584 -13.728  1.00  0.00    -0.042 SA
HETATM   13  C6  UNL     1      26.017 -10.952 -14.141  1.00  0.00     0.165 A 
HETATM   14  N3  UNL     1      25.649 -11.439 -12.955  1.00  0.00    -0.322 N 
HETATM   15  C7  UNL     1      26.041 -10.822 -11.880  1.00  0.00     0.142 A 
ATOM     16  H3  UNL     1      25.072 -12.279 -12.893  1.00  0.00     0.169 HD
HETATM   17  N4  UNL     1      25.685 -11.283 -10.539  1.00  0.00    -0.081 NA
BRANCH  13  18
HETATM   18  N1  UNL     1      25.731 -11.420 -15.337  1.00  0.00    -0.286 N 
ATOM     19  H1  UNL     1      25.476 -10.779 -16.088  1.00  0.00     0.188 HD
BRANCH  18  20
HETATM   20  N2  UNL     1      25.776 -12.776 -15.576  1.00  0.00    -0.343 N 
ATOM     21  H22 UNL     1      25.390 -13.414 -14.880  1.00  0.00     0.176 HD
ATOM     22  H21 UNL     1      26.191 -13.129 -16.438  1.00  0.00     0.176 HD
ENDBRANCH  18  20
ENDBRANCH  13  18
ENDBRANCH  10  11
ENDBRANCH   9  10
ENDBRANCH   7   9
ENDBRANCH   6   7
ENDBRANCH   4   6
ENDBRANCH   2   4
ENDBRANCH   1   2
BRANCH   1  23
HETATM   23  C9  UNL     1      22.488  -5.340 -14.639  1.00  0.00     0.165 C 
HETATM   24  C10 UNL     1      22.113  -6.625 -15.273  1.00  0.00     0.066 C 
HETATM   25  C11 UNL     1      23.057  -7.171 -16.296  1.00  0.00     0.148 C 
HETATM   26 CL1  UNL     1      24.666  -7.503 -15.692  1.00  0.00    -0.114 Cl
HETATM   27  S3  UNL     1      23.077  -5.954 -17.674  1.00  0.00    -0.120 SA
HETATM   28  C12 UNL     1      22.334  -4.458 -16.914  1.00  0.00     0.188 C 
HETATM   29  C19 UNL     1      23.006  -4.290 -15.598  1.00  0.00     0.181 C 
BRANCH  28  30
HETATM   30  N5  UNL     1      22.346  -3.327 -17.788  1.00  0.00    -0.292 N 
HETATM   31  C13 UNL     1      23.351  -3.219 -18.670  1.00  0.00     0.114 A 
HETATM   32  C14 UNL     1      23.488  -2.169 -19.582  1.00  0.00     0.048 A 
HETATM   33  C17 UNL     1      22.521  -1.206 -19.547  1.00  0.00     0.261 A 
HETATM   34  O5  UNL     1      22.537  -0.217 -20.315  1.00  0.00    -0.267 OA
HETATM   35  N6  UNL     1      21.519  -1.345 -18.645  1.00  0.00    -0.275 N 
HETATM   36  C18 UNL     1      21.428  -2.369 -17.790  1.00  0.00     0.330 A 
ATOM     37  H6  UNL     1      20.794  -0.627 -18.616  1.00  0.00     0.173 HD
HETATM   38  O6  UNL     1      20.472  -2.428 -16.982  1.00  0.00    -0.246 OA
BRANCH  32  39
HETATM   39  C15 UNL     1      24.633  -2.187 -20.478  1.00  0.00     0.026 C 
HETATM   40  C16 UNL     1      25.847  -1.910 -20.166  1.00  0.00     0.057 C 
HETATM   41 BR1  UNL     1      27.219  -2.002 -21.533  1.00  0.00    -0.064 Br
ENDBRANCH  32  39
ENDBRANCH  28  30
BRANCH  29  42
HETATM   42  O7  UNL     1      22.737  -3.024 -15.103  1.00  0.00    -0.390 OA
ATOM     43  H7  UNL     1      21.855  -2.763 -15.342  1.00  0.00     0.210 HD
ENDBRANCH  29  42
ENDBRANCH   1  23
TORSDOF 13
ENDMDL
MODEL 5
REMARK VINA RESULT: -6.711485822      5.025     10.919
REMARK  13 active torsions:
REMARK  status: ('A' for Active; 'I' for Inactive)
REMARK    1  A    between atoms: C2_2  and  O1_3 
REMARK    2  A    between atoms: C2_2  and  C8_20 
REMARK    3  A    between atoms: O1_3  and  C3_4 
REMARK    4  A    between atoms: C3_4  and  C4_6 
REMARK    5  A    between atoms: C4_6  and  S1_7 
REMARK    6  A    between atoms: S1_7  and  C5_8 
REMARK    7  A    between atoms: C6_10  and  N1_11 
REMARK    8  A    between atoms: N1_11  and  N2_13 
REMARK    9  A    between atoms: C8_20  and  O4_22 
REMARK   10  A    between atoms: O4_22  and  C9_23 
REMARK   11  A    between atoms: C12_28  and  N5_29 
REMARK   12  A    between atoms: C14_31  and  C15_32 
REMARK   13  A    between atoms: C19_41  and  O7_42 
ROOT
HETATM    1  O4  UNL     1      22.282  -2.608 -17.696  1.00  0.00    -0.311 OA
ENDROOT
BRANCH   1   2
HETATM    2  C8  UNL     1      21.226  -1.740 -17.686  1.00  0.00     0.288 C 
HETATM    3  O3  UNL     1      20.222  -2.010 -16.979  1.00  0.00    -0.262 OA
BRANCH   2   4
HETATM    4  C2  UNL     1      21.193  -0.474 -18.477  1.00  0.00     0.227 C 
HETATM    5  C1  UNL     1      20.290  -0.558 -19.667  1.00  0.00     0.051 C 
BRANCH   4   6
HETATM    6  O1  UNL     1      22.485  -0.085 -18.884  1.00  0.00    -0.306 OA
BRANCH   6   7
HETATM    7  C3  UNL     1      23.262   0.646 -18.023  1.00  0.00     0.269 C 
HETATM    8  O2  UNL     1      22.761   1.048 -16.926  1.00  0.00    -0.264 OA
BRANCH   7   9
HETATM    9  C4  UNL     1      24.681   1.004 -18.298  1.00  0.00     0.191 C 
BRANCH   9  10
HETATM   10  S1  UNL     1      24.881   2.790 -18.522  1.00  0.00    -0.109 SA
BRANCH  10  11
HETATM   11  C5  UNL     1      24.826   3.639 -16.933  1.00  0.00     0.086 A 
HETATM   12  S2  UNL     1      23.628   4.661 -16.277  1.00  0.00    -0.042 SA
HETATM   13  C6  UNL     1      24.380   5.000 -14.787  1.00  0.00     0.165 A 
HETATM   14  N3  UNL     1      25.520   4.312 -14.859  1.00  0.00    -0.322 N 
HETATM   15  C7  UNL     1      25.764   3.620 -15.932  1.00  0.00     0.142 A 
ATOM     16  H3  UNL     1      26.187   4.328 -14.087  1.00  0.00     0.169 HD
HETATM   17  N4  UNL     1      26.986   2.838 -16.099  1.00  0.00    -0.081 NA
BRANCH  13  18
HETATM   18  N1  UNL     1      23.946   5.756 -13.801  1.00  0.00    -0.286 N 
ATOM     19  H1  UNL     1      22.947   5.808 -13.599  1.00  0.00     0.188 HD
BRANCH  18  20
HETATM   20  N2  UNL     1      24.840   6.478 -13.041  1.00  0.00    -0.343 N 
ATOM     21  H22 UNL     1      24.851   6.343 -12.030  1.00  0.00     0.176 HD
ATOM     22  H21 UNL     1      25.478   7.134 -13.490  1.00  0.00     0.176 HD
ENDBRANCH  18  20
ENDBRANCH  13  18
ENDBRANCH  10  11
ENDBRANCH   9  10
ENDBRANCH   7   9
ENDBRANCH   6   7
ENDBRANCH   4   6
ENDBRANCH   2   4
ENDBRANCH   1   2
BRANCH   1  23
HETATM   23  C9  UNL     1      23.070  -2.930 -16.544  1.00  0.00     0.165 C 
HETATM   24  C10 UNL     1      24.492  -2.730 -16.904  1.00  0.00     0.066 C 
HETATM   25  C11 UNL     1      25.135  -3.802 -17.724  1.00  0.00     0.148 C 
HETATM   26 CL1  UNL     1      24.385  -4.072 -19.282  1.00  0.00    -0.114 Cl
HETATM   27  S3  UNL     1      25.122  -5.318 -16.683  1.00  0.00    -0.120 SA
HETATM   28  C12 UNL     1      23.902  -4.909 -15.375  1.00  0.00     0.188 C 
HETATM   29  C19 UNL     1      22.727  -4.329 -16.077  1.00  0.00     0.181 C 
BRANCH  28  30
HETATM   30  N5  UNL     1      23.644  -6.006 -14.494  1.00  0.00    -0.292 N 
HETATM   31  C13 UNL     1      23.281  -7.179 -15.033  1.00  0.00     0.114 A 
HETATM   32  C14 UNL     1      22.999  -8.332 -14.294  1.00  0.00     0.048 A 
HETATM   33  C17 UNL     1      23.108  -8.223 -12.937  1.00  0.00     0.261 A 
HETATM   34  O5  UNL     1      22.881  -9.186 -12.171  1.00  0.00    -0.267 OA
HETATM   35  N6  UNL     1      23.477  -7.023 -12.424  1.00  0.00    -0.275 N 
HETATM   36  C18 UNL     1      23.738  -5.946 -13.172  1.00  0.00     0.330 A 
ATOM     37  H6  UNL     1      23.560  -6.938 -11.411  1.00  0.00     0.173 HD
HETATM   38  O6  UNL     1      24.072  -4.869 -12.624  1.00  0.00    -0.246 OA
BRANCH  32  39
HETATM   39  C15 UNL     1      22.617  -9.532 -15.019  1.00  0.00     0.026 C 
HETATM   40  C16 UNL     1      21.840  -9.589 -16.039  1.00  0.00     0.057 C 
HETATM   41 BR1  UNL     1      21.470 -11.311 -16.850  1.00  0.00    -0.064 Br
ENDBRANCH  32  39
ENDBRANCH  28  30
BRANCH  29  42
HETATM   42  O7  UNL     1      21.647  -4.286 -15.209  1.00  0.00    -0.390 OA
ATOM     43  H7  UNL     1      21.947  -4.394 -14.314  1.00  0.00     0.210 HD
ENDBRANCH  29  42
ENDBRANCH   1  23
TORSDOF 13
ENDMDL
