MODEL 1
REMARK VINA RESULT: -7.529797009      0.000      0.000
REMARK  15 active torsions:
REMARK  status: ('A' for Active; 'I' for Inactive)
REMARK    1  A    between atoms: C2_3  and  C3_7 
REMARK    2  A    between atoms: C3_7  and  C10_25 
REMARK    3  A    between atoms: N3_8  and  C4_10 
REMARK    4  A    between atoms: C4_10  and  C5_11 
REMARK    5  A    between atoms: C5_11  and  N4_12 
REMARK       I    between atoms: N4_12  and  C6_14 
REMARK    6  A    between atoms: C6_14  and  C7_16 
REMARK    7  A    between atoms: C9_19  and  N5_20 
REMARK    8  A    between atoms: C10_25  and  O2_26 
REMARK    9  A    between atoms: C10_25  and  C11_28 
REMARK   10  A    between atoms: C11_28  and  N7_29 
REMARK   11  A    between atoms: C11_28  and  N11_47 
REMARK   12  A    between atoms: N7_29  and  S2_31 
REMARK   13  A    between atoms: S2_31  and  C12_34 
REMARK   14  A    between atoms: N11_47  and  N12_49 
REMARK   15  A    between atoms: N12_49  and  C18_51 
ROOT
HETATM    1  N1  UNL     1      22.535  -7.443 -10.850  1.00  0.00    -0.190 NA
HETATM    2  C1  UNL     1      22.764  -6.633 -11.641  1.00  0.00     0.119 C 
HETATM    3  C2  UNL     1      23.052  -5.561 -12.614  1.00  0.00     0.137 C 
HETATM    4  N2  UNL     1      23.049  -4.376 -12.126  1.00  0.00    -0.389 N 
ATOM      5  H21 UNL     1      23.247  -3.634 -12.798  1.00  0.00     0.157 HD
ATOM      6  H22 UNL     1      22.861  -4.180 -11.143  1.00  0.00     0.157 HD
ENDROOT
BRANCH   3   7
HETATM    7  C3  UNL     1      23.318  -5.837 -14.005  1.00  0.00     0.103 C 
HETATM    8  N3  UNL     1      24.456  -6.334 -14.301  1.00  0.00    -0.384 N 
ATOM      9  H3  UNL     1      24.491  -6.471 -15.311  1.00  0.00     0.159 HD
BRANCH   8  10
HETATM   10  C4  UNL     1      25.634  -6.748 -13.780  1.00  0.00     0.139 C 
BRANCH  10  11
HETATM   11  C5  UNL     1      26.456  -5.610 -13.135  1.00  0.00     0.142 C 
BRANCH  11  12
HETATM   12  N4  UNL     1      27.153  -6.140 -12.007  1.00  0.00    -0.354 N 
HETATM   13  C6  UNL     1      26.780  -5.878 -10.666  1.00  0.00     0.268 C 
HETATM   14  O1  UNL     1      25.776  -5.138 -10.502  1.00  0.00    -0.266 OA
ATOM     15  H4  UNL     1      27.962  -6.737 -12.176  1.00  0.00     0.162 HD
BRANCH  13  16
HETATM   16  C7  UNL     1      27.541  -6.454  -9.524  1.00  0.00     0.109 A 
HETATM   17  C8  UNL     1      28.914  -6.472  -9.548  1.00  0.00     0.088 A 
HETATM   18  S1  UNL     1      29.289  -7.205  -8.051  1.00  0.00    -0.064 SA
HETATM   19  C9  UNL     1      27.697  -7.441  -7.492  1.00  0.00     0.142 A 
HETATM   20  N6  UNL     1      26.949  -6.951  -8.472  1.00  0.00    -0.332 N 
ATOM     21  H6  UNL     1      25.932  -6.962  -8.404  1.00  0.00     0.168 HD
BRANCH  19  22
HETATM   22  N5  UNL     1      27.284  -7.980  -6.361  1.00  0.00    -0.380 N 
ATOM     23  H52 UNL     1      26.614  -7.590  -5.698  1.00  0.00     0.158 HD
ATOM     24  H51 UNL     1      27.547  -8.870  -5.939  1.00  0.00     0.158 HD
ENDBRANCH  19  22
ENDBRANCH  13  16
ENDBRANCH  11  12
ENDBRANCH  10  11
ENDBRANCH   8  10
BRANCH   7  25
HETATM   25  C10 UNL     1      22.418  -5.613 -15.121  1.00  0.00     0.141 C 
BRANCH  25  26
HETATM   26  O2  UNL     1      21.650  -4.553 -14.927  1.00  0.00    -0.355 OA
ATOM     27  H2  UNL     1      22.142  -3.818 -14.579  1.00  0.00     0.218 HD
ENDBRANCH  25  26
BRANCH  25  28
HETATM   28  C11 UNL     1      22.191  -6.281 -16.363  1.00  0.00     0.166 C 
BRANCH  28  29
HETATM   29  N7  UNL     1      21.977  -7.480 -16.616  1.00  0.00    -0.261 N 
ATOM     30  H7  UNL     1      21.204  -7.576 -17.275  1.00  0.00     0.180 HD
BRANCH  29  31
HETATM   31  S2  UNL     1      22.578  -8.968 -16.198  1.00  0.00     0.283 S 
HETATM   32  O3  UNL     1      22.232  -9.236 -14.727  1.00  0.00    -0.199 OA
HETATM   33  O4  UNL     1      24.122  -9.002 -16.252  1.00  0.00    -0.199 OA
BRANCH  31  34
HETATM   34  C12 UNL     1      22.006 -10.338 -17.117  1.00  0.00     0.188 A 
HETATM   35  N8  UNL     1      21.669 -11.503 -16.557  1.00  0.00    -0.279 N 
HETATM   36  N9  UNL     1      21.243 -12.567 -17.208  1.00  0.00    -0.247 N 
ATOM     37  H8  UNL     1      21.749 -11.576 -15.543  1.00  0.00     0.188 HD
HETATM   38  C13 UNL     1      20.857 -13.812 -16.847  1.00  0.00     0.135 A 
HETATM   39  C15 UNL     1      21.120 -12.521 -18.558  1.00  0.00     0.150 A 
HETATM   40  C14 UNL     1      20.501 -14.534 -17.962  1.00  0.00     0.109 A 
HETATM   41  N10 UNL     1      20.671 -13.714 -19.008  1.00  0.00    -0.348 N 
ATOM     42  H10 UNL     1      20.492 -13.951 -19.983  1.00  0.00     0.167 HD
HETATM   43  C16 UNL     1      21.462 -11.323 -19.182  1.00  0.00     0.104 A 
HETATM   44 CL1  UNL     1      21.314 -11.230 -20.923  1.00  0.00    -0.078 Cl
HETATM   45  C17 UNL     1      21.908 -10.210 -18.511  1.00  0.00     0.101 A 
HETATM   46 CL2  UNL     1      22.334  -8.713 -19.298  1.00  0.00    -0.079 Cl
ENDBRANCH  31  34
ENDBRANCH  29  31
ENDBRANCH  28  29
BRANCH  28  47
HETATM   47  N11 UNL     1      22.191  -5.412 -17.557  1.00  0.00    -0.268 N 
ATOM     48  H11 UNL     1      21.717  -5.733 -18.402  1.00  0.00     0.189 HD
BRANCH  47  49
HETATM   49  N12 UNL     1      22.811  -4.189 -17.567  1.00  0.00    -0.131 N 
ATOM     50  H12 UNL     1      23.750  -4.103 -17.178  1.00  0.00     0.205 HD
BRANCH  49  51
HETATM   51  C18 UNL     1      22.168  -3.029 -18.111  1.00  0.00     0.688 C 
HETATM   52  N13 UNL     1      22.685  -2.356 -19.074  1.00  0.00    -0.225 N 
HETATM   53  C19 UNL     1      22.111  -1.190 -19.671  1.00  0.00     0.139 C 
ATOM     54  H13 UNL     1      23.579  -2.678 -19.443  1.00  0.00     0.177 HD
HETATM   55  C20 UNL     1      20.790  -0.771 -19.120  1.00  0.00     0.040 C 
HETATM   56  C21 UNL     1      20.024  -1.883 -18.455  1.00  0.00     0.139 C 
HETATM   57  N14 UNL     1      20.923  -2.596 -17.580  1.00  0.00    -0.225 N 
ATOM     58  H14 UNL     1      20.673  -2.784 -16.609  1.00  0.00     0.177 HD
ENDBRANCH  49  51
ENDBRANCH  47  49
ENDBRANCH  28  47
ENDBRANCH  25  28
ENDBRANCH   7  25
ENDBRANCH   3   7
TORSDOF 15
ENDMDL
MODEL 2
REMARK VINA RESULT: -7.147665568      4.216      7.723
REMARK  15 active torsions:
REMARK  status: ('A' for Active; 'I' for Inactive)
REMARK    1  A    between atoms: C2_3  and  C3_7 
REMARK    2  A    between atoms: C3_7  and  C10_25 
REMARK    3  A    between atoms: N3_8  and  C4_10 
REMARK    4  A    between atoms: C4_10  and  C5_11 
REMARK    5  A    between atoms: C5_11  and  N4_12 
REMARK       I    between atoms: N4_12  and  C6_14 
REMARK    6  A    between atoms: C6_14  and  C7_16 
REMARK    7  A    between atoms: C9_19  and  N5_20 
REMARK    8  A    between atoms: C10_25  and  O2_26 
REMARK    9  A    between atoms: C10_25  and  C11_28 
REMARK   10  A    between atoms: C11_28  and  N7_29 
REMARK   11  A    between atoms: C11_28  and  N11_47 
REMARK   12  A    between atoms: N7_29  and  S2_31 
REMARK   13  A    between atoms: S2_31  and  C12_34 
REMARK   14  A    between atoms: N11_47  and  N12_49 
REMARK   15  A    between atoms: N12_49  and  C18_51 
ROOT
HETATM    1  N1  UNL     1      27.417  -6.102 -13.753  1.00  0.00    -0.190 NA
HETATM    2  C1  UNL     1      27.460  -7.112 -13.194  1.00  0.00     0.119 C 
HETATM    3  C2  UNL     1      27.569  -8.406 -12.491  1.00  0.00     0.137 C 
HETATM    4  N2  UNL     1      28.747  -8.910 -12.468  1.00  0.00    -0.389 N 
ATOM      5  H21 UNL     1      28.822  -9.804 -11.983  1.00  0.00     0.157 HD
ATOM      6  H22 UNL     1      29.552  -8.459 -12.902  1.00  0.00     0.157 HD
ENDROOT
BRANCH   3   7
HETATM    7  C3  UNL     1      26.429  -9.044 -11.877  1.00  0.00     0.103 C 
HETATM    8  N3  UNL     1      25.844  -9.967 -12.536  1.00  0.00    -0.384 N 
ATOM      9  H3  UNL     1      25.067 -10.315 -11.975  1.00  0.00     0.159 HD
BRANCH   8  10
HETATM   10  C4  UNL     1      25.865 -10.659 -13.699  1.00  0.00     0.139 C 
BRANCH  10  11
HETATM   11  C5  UNL     1      26.582 -12.023 -13.591  1.00  0.00     0.142 C 
BRANCH  11  12
HETATM   12  N4  UNL     1      26.207 -12.635 -12.357  1.00  0.00    -0.354 N 
HETATM   13  C6  UNL     1      26.965 -12.516 -11.166  1.00  0.00     0.268 C 
HETATM   14  O1  UNL     1      28.014 -11.826 -11.240  1.00  0.00    -0.266 OA
ATOM     15  H4  UNL     1      25.349 -13.186 -12.331  1.00  0.00     0.162 HD
BRANCH  13  16
HETATM   16  C7  UNL     1      26.531 -13.175  -9.903  1.00  0.00     0.109 A 
HETATM   17  C8  UNL     1      26.490 -14.544  -9.818  1.00  0.00     0.088 A 
HETATM   18  S1  UNL     1      25.952 -14.788  -8.215  1.00  0.00    -0.064 SA
HETATM   19  C9  UNL     1      25.814 -13.153  -7.755  1.00  0.00     0.142 A 
HETATM   20  N6  UNL     1      26.184 -12.493  -8.845  1.00  0.00    -0.332 N 
ATOM     21  H6  UNL     1      26.197 -11.474  -8.856  1.00  0.00     0.168 HD
BRANCH  19  22
HETATM   22  N5  UNL     1      25.433 -12.643  -6.601  1.00  0.00    -0.380 N 
ATOM     23  H52 UNL     1      25.972 -12.597  -5.736  1.00  0.00     0.158 HD
ATOM     24  H51 UNL     1      24.546 -12.205  -6.352  1.00  0.00     0.158 HD
ENDBRANCH  19  22
ENDBRANCH  13  16
ENDBRANCH  11  12
ENDBRANCH  10  11
ENDBRANCH   8  10
BRANCH   7  25
HETATM   25  C10 UNL     1      25.870  -8.749 -10.571  1.00  0.00     0.141 C 
BRANCH  25  26
HETATM   26  O2  UNL     1      26.526  -9.368  -9.604  1.00  0.00    -0.355 OA
ATOM     27  H2  UNL     1      26.615  -8.822  -8.831  1.00  0.00     0.218 HD
ENDBRANCH  25  26
BRANCH  25  28
HETATM   28  C11 UNL     1      24.780  -7.945 -10.117  1.00  0.00     0.166 C 
BRANCH  28  29
HETATM   29  N7  UNL     1      23.877  -7.366 -10.746  1.00  0.00    -0.261 N 
ATOM     30  H7  UNL     1      22.960  -7.706 -10.454  1.00  0.00     0.180 HD
BRANCH  29  31
HETATM   31  S2  UNL     1      23.723  -6.204 -11.919  1.00  0.00     0.283 S 
HETATM   32  O3  UNL     1      24.827  -5.159 -11.715  1.00  0.00    -0.199 OA
HETATM   33  O4  UNL     1      22.402  -5.414 -11.778  1.00  0.00    -0.199 OA
BRANCH  31  34
HETATM   34  C12 UNL     1      23.822  -6.739 -13.579  1.00  0.00     0.188 A 
HETATM   35  N8  UNL     1      24.403  -6.019 -14.543  1.00  0.00    -0.279 N 
HETATM   36  N9  UNL     1      24.494  -6.375 -15.809  1.00  0.00    -0.247 N 
ATOM     37  H8  UNL     1      24.808  -5.121 -14.279  1.00  0.00     0.188 HD
HETATM   38  C13 UNL     1      25.025  -5.813 -16.919  1.00  0.00     0.135 A 
HETATM   39  C15 UNL     1      23.970  -7.559 -16.212  1.00  0.00     0.150 A 
HETATM   40  C14 UNL     1      24.832  -6.640 -18.001  1.00  0.00     0.109 A 
HETATM   41  N10 UNL     1      24.177  -7.714 -17.538  1.00  0.00    -0.348 N 
ATOM     42  H10 UNL     1      23.883  -8.515 -18.095  1.00  0.00     0.167 HD
HETATM   43  C16 UNL     1      23.354  -8.341 -15.235  1.00  0.00     0.104 A 
HETATM   44 CL1  UNL     1      22.668  -9.876 -15.721  1.00  0.00    -0.078 Cl
HETATM   45  C17 UNL     1      23.255  -7.977 -13.914  1.00  0.00     0.101 A 
HETATM   46 CL2  UNL     1      22.484  -8.960 -12.697  1.00  0.00    -0.079 Cl
ENDBRANCH  31  34
ENDBRANCH  29  31
ENDBRANCH  28  29
BRANCH  28  47
HETATM   47  N11 UNL     1      24.688  -7.775  -8.652  1.00  0.00    -0.268 N 
ATOM     48  H11 UNL     1      24.175  -8.467  -8.106  1.00  0.00     0.189 HD
BRANCH  47  49
HETATM   49  N12 UNL     1      25.269  -6.715  -8.005  1.00  0.00    -0.131 N 
ATOM     50  H12 UNL     1      24.791  -6.295  -7.208  1.00  0.00     0.205 HD
BRANCH  49  51
HETATM   51  C18 UNL     1      26.534  -6.185  -8.423  1.00  0.00     0.688 C 
HETATM   52  N13 UNL     1      27.639  -6.783  -8.165  1.00  0.00    -0.225 N 
HETATM   53  C19 UNL     1      28.939  -6.323  -8.545  1.00  0.00     0.139 C 
ATOM     54  H13 UNL     1      27.587  -7.660  -7.647  1.00  0.00     0.177 HD
HETATM   55  C20 UNL     1      28.967  -5.053  -9.326  1.00  0.00     0.040 C 
HETATM   56  C21 UNL     1      27.684  -4.755 -10.055  1.00  0.00     0.139 C 
HETATM   57  N14 UNL     1      26.583  -4.961  -9.143  1.00  0.00    -0.225 N 
ATOM     58  H14 UNL     1      25.863  -4.249  -9.020  1.00  0.00     0.177 HD
ENDBRANCH  49  51
ENDBRANCH  47  49
ENDBRANCH  28  47
ENDBRANCH  25  28
ENDBRANCH   7  25
ENDBRANCH   3   7
TORSDOF 15
ENDMDL
MODEL 3
REMARK VINA RESULT: -7.131437658      3.298      9.349
REMARK  15 active torsions:
REMARK  status: ('A' for Active; 'I' for Inactive)
REMARK    1  A    between atoms: C2_3  and  C3_7 
REMARK    2  A    between atoms: C3_7  and  C10_25 
REMARK    3  A    between atoms: N3_8  and  C4_10 
REMARK    4  A    between atoms: C4_10  and  C5_11 
REMARK    5  A    between atoms: C5_11  and  N4_12 
REMARK       I    between atoms: N4_12  and  C6_14 
REMARK    6  A    between atoms: C6_14  and  C7_16 
REMARK    7  A    between atoms: C9_19  and  N5_20 
REMARK    8  A    between atoms: C10_25  and  O2_26 
REMARK    9  A    between atoms: C10_25  and  C11_28 
REMARK   10  A    between atoms: C11_28  and  N7_29 
REMARK   11  A    between atoms: C11_28  and  N11_47 
REMARK   12  A    between atoms: N7_29  and  S2_31 
REMARK   13  A    between atoms: S2_31  and  C12_34 
REMARK   14  A    between atoms: N11_47  and  N12_49 
REMARK   15  A    between atoms: N12_49  and  C18_51 
ROOT
HETATM    1  N1  UNL     1      21.622  -3.821 -17.105  1.00  0.00    -0.190 NA
HETATM    2  C1  UNL     1      22.406  -4.620 -17.394  1.00  0.00     0.119 C 
HETATM    3  C2  UNL     1      23.428  -5.604 -17.801  1.00  0.00     0.137 C 
HETATM    4  N2  UNL     1      24.226  -5.205 -18.721  1.00  0.00    -0.389 N 
ATOM      5  H21 UNL     1      24.931  -5.885 -19.002  1.00  0.00     0.157 HD
ATOM      6  H22 UNL     1      24.165  -4.280 -19.145  1.00  0.00     0.157 HD
ENDROOT
BRANCH   3   7
HETATM    7  C3  UNL     1      23.514  -6.914 -17.200  1.00  0.00     0.103 C 
HETATM    8  N3  UNL     1      23.123  -7.909 -17.896  1.00  0.00    -0.384 N 
ATOM      9  H3  UNL     1      23.246  -8.754 -17.339  1.00  0.00     0.159 HD
BRANCH   8  10
HETATM   10  C4  UNL     1      22.607  -8.267 -19.095  1.00  0.00     0.139 C 
BRANCH  10  11
HETATM   11  C5  UNL     1      21.186  -8.865 -19.000  1.00  0.00     0.142 C 
BRANCH  11  12
HETATM   12  N4  UNL     1      21.301 -10.273 -18.794  1.00  0.00    -0.354 N 
HETATM   13  C6  UNL     1      21.392 -10.868 -17.511  1.00  0.00     0.268 C 
HETATM   14  O1  UNL     1      21.365 -10.082 -16.529  1.00  0.00    -0.266 OA
ATOM     15  H4  UNL     1      21.318 -10.882 -19.611  1.00  0.00     0.162 HD
BRANCH  13  16
HETATM   16  C7  UNL     1      21.511 -12.343 -17.348  1.00  0.00     0.109 A 
HETATM   17  C8  UNL     1      22.322 -13.067 -18.187  1.00  0.00     0.088 A 
HETATM   18  S1  UNL     1      22.119 -14.658 -17.598  1.00  0.00    -0.064 SA
HETATM   19  C9  UNL     1      21.029 -14.310 -16.335  1.00  0.00     0.142 A 
HETATM   20  N6  UNL     1      20.867 -12.996 -16.419  1.00  0.00    -0.332 N 
ATOM     21  H6  UNL     1      20.252 -12.505 -15.770  1.00  0.00     0.168 HD
BRANCH  19  22
HETATM   22  N5  UNL     1      20.468 -15.132 -15.470  1.00  0.00    -0.380 N 
ATOM     23  H52 UNL     1      19.578 -15.621 -15.568  1.00  0.00     0.158 HD
ATOM     24  H51 UNL     1      20.807 -15.434 -14.556  1.00  0.00     0.158 HD
ENDBRANCH  19  22
ENDBRANCH  13  16
ENDBRANCH  11  12
ENDBRANCH  10  11
ENDBRANCH   8  10
BRANCH   7  25
HETATM   25  C10 UNL     1      24.008  -7.227 -15.872  1.00  0.00     0.141 C 
BRANCH  25  26
HETATM   26  O2  UNL     1      25.295  -7.532 -15.885  1.00  0.00    -0.355 OA
ATOM     27  H2  UNL     1      25.807  -6.925 -15.363  1.00  0.00     0.218 HD
ENDBRANCH  25  26
BRANCH  25  28
HETATM   28  C11 UNL     1      23.409  -7.274 -14.576  1.00  0.00     0.166 C 
BRANCH  28  29
HETATM   29  N7  UNL     1      23.102  -6.364 -13.786  1.00  0.00    -0.261 N 
ATOM     30  H7  UNL     1      22.507  -5.674 -14.246  1.00  0.00     0.180 HD
BRANCH  29  31
HETATM   31  S2  UNL     1      23.376  -5.941 -12.206  1.00  0.00     0.283 S 
HETATM   32  O3  UNL     1      22.135  -6.309 -11.383  1.00  0.00    -0.199 OA
HETATM   33  O4  UNL     1      23.522  -4.412 -12.037  1.00  0.00    -0.199 OA
BRANCH  31  34
HETATM   34  C12 UNL     1      24.751  -6.674 -11.418  1.00  0.00     0.188 A 
HETATM   35  N8  UNL     1      24.647  -7.415 -10.311  1.00  0.00    -0.279 N 
HETATM   36  N9  UNL     1      25.654  -7.980  -9.676  1.00  0.00    -0.247 N 
ATOM     37  H8  UNL     1      23.713  -7.555  -9.926  1.00  0.00     0.188 HD
HETATM   38  C13 UNL     1      25.769  -8.750  -8.570  1.00  0.00     0.135 A 
HETATM   39  C15 UNL     1      26.916  -7.824 -10.147  1.00  0.00     0.150 A 
HETATM   40  C14 UNL     1      27.090  -9.068  -8.355  1.00  0.00     0.109 A 
HETATM   41  N10 UNL     1      27.780  -8.483  -9.344  1.00  0.00    -0.348 N 
ATOM     42  H10 UNL     1      28.791  -8.529  -9.470  1.00  0.00     0.167 HD
HETATM   43  C16 UNL     1      27.068  -7.057 -11.301  1.00  0.00     0.104 A 
HETATM   44 CL1  UNL     1      28.683  -6.836 -11.936  1.00  0.00    -0.078 Cl
HETATM   45  C17 UNL     1      26.024  -6.464 -11.969  1.00  0.00     0.101 A 
HETATM   46 CL2  UNL     1      26.221  -5.506 -13.413  1.00  0.00    -0.079 Cl
ENDBRANCH  31  34
ENDBRANCH  29  31
ENDBRANCH  28  29
BRANCH  28  47
HETATM   47  N11 UNL     1      23.078  -8.626 -14.082  1.00  0.00    -0.268 N 
ATOM     48  H11 UNL     1      22.251  -8.750 -13.497  1.00  0.00     0.189 HD
BRANCH  47  49
HETATM   49  N12 UNL     1      23.848  -9.720 -14.384  1.00  0.00    -0.131 N 
ATOM     50  H12 UNL     1      23.587 -10.309 -15.175  1.00  0.00     0.205 HD
BRANCH  49  51
HETATM   51  C18 UNL     1      25.010 -10.053 -13.614  1.00  0.00     0.688 C 
HETATM   52  N13 UNL     1      24.922 -10.580 -12.447  1.00  0.00    -0.225 N 
HETATM   53  C19 UNL     1      26.029 -10.942 -11.616  1.00  0.00     0.139 C 
ATOM     54  H13 UNL     1      23.986 -10.756 -12.081  1.00  0.00     0.177 HD
HETATM   55  C20 UNL     1      27.378 -10.695 -12.201  1.00  0.00     0.040 C 
HETATM   56  C21 UNL     1      27.392 -10.641 -13.705  1.00  0.00     0.139 C 
HETATM   57  N14 UNL     1      26.305  -9.799 -14.142  1.00  0.00    -0.225 N 
ATOM     58  H14 UNL     1      26.460  -9.043 -14.809  1.00  0.00     0.177 HD
ENDBRANCH  49  51
ENDBRANCH  47  49
ENDBRANCH  28  47
ENDBRANCH  25  28
ENDBRANCH   7  25
ENDBRANCH   3   7
TORSDOF 15
ENDMDL
MODEL 4
REMARK VINA RESULT: -7.105207081      3.454      9.407
REMARK  15 active torsions:
REMARK  status: ('A' for Active; 'I' for Inactive)
REMARK    1  A    between atoms: C2_3  and  C3_7 
REMARK    2  A    between atoms: C3_7  and  C10_25 
REMARK    3  A    between atoms: N3_8  and  C4_10 
REMARK    4  A    between atoms: C4_10  and  C5_11 
REMARK    5  A    between atoms: C5_11  and  N4_12 
REMARK       I    between atoms: N4_12  and  C6_14 
REMARK    6  A    between atoms: C6_14  and  C7_16 
REMARK    7  A    between atoms: C9_19  and  N5_20 
REMARK    8  A    between atoms: C10_25  and  O2_26 
REMARK    9  A    between atoms: C10_25  and  C11_28 
REMARK   10  A    between atoms: C11_28  and  N7_29 
REMARK   11  A    between atoms: C11_28  and  N11_47 
REMARK   12  A    between atoms: N7_29  and  S2_31 
REMARK   13  A    between atoms: S2_31  and  C12_34 
REMARK   14  A    between atoms: N11_47  and  N12_49 
REMARK   15  A    between atoms: N12_49  and  C18_51 
ROOT
HETATM    1  N1  UNL     1      21.276  -2.925 -16.468  1.00  0.00    -0.190 NA
HETATM    2  C1  UNL     1      21.918  -3.700 -15.901  1.00  0.00     0.119 C 
HETATM    3  C2  UNL     1      22.718  -4.671 -15.128  1.00  0.00     0.137 C 
HETATM    4  N2  UNL     1      22.567  -4.604 -13.857  1.00  0.00    -0.389 N 
ATOM      5  H21 UNL     1      23.120  -5.274 -13.323  1.00  0.00     0.157 HD
ATOM      6  H22 UNL     1      21.945  -3.933 -13.407  1.00  0.00     0.157 HD
ENDROOT
BRANCH   3   7
HETATM    7  C3  UNL     1      23.599  -5.620 -15.766  1.00  0.00     0.103 C 
HETATM    8  N3  UNL     1      24.622  -5.159 -16.375  1.00  0.00    -0.384 N 
ATOM      9  H3  UNL     1      25.139  -5.945 -16.768  1.00  0.00     0.159 HD
BRANCH   8  10
HETATM   10  C4  UNL     1      25.279  -4.021 -16.695  1.00  0.00     0.139 C 
BRANCH  10  11
HETATM   11  C5  UNL     1      25.162  -3.641 -18.188  1.00  0.00     0.142 C 
BRANCH  11  12
HETATM   12  N4  UNL     1      24.075  -2.729 -18.339  1.00  0.00    -0.354 N 
HETATM   13  C6  UNL     1      23.634  -2.243 -19.594  1.00  0.00     0.268 C 
HETATM   14  O1  UNL     1      24.257  -2.661 -20.603  1.00  0.00    -0.266 OA
ATOM     15  H4  UNL     1      23.590  -2.411 -17.499  1.00  0.00     0.162 HD
BRANCH  13  16
HETATM   16  C7  UNL     1      22.494  -1.290 -19.699  1.00  0.00     0.109 A 
HETATM   17  C8  UNL     1      22.498  -0.312 -20.661  1.00  0.00     0.088 A 
HETATM   18  S1  UNL     1      21.014   0.483 -20.371  1.00  0.00    -0.064 SA
HETATM   19  C9  UNL     1      20.484  -0.466 -19.059  1.00  0.00     0.142 A 
HETATM   20  N6  UNL     1      21.463  -1.347 -18.900  1.00  0.00    -0.332 N 
ATOM     21  H6  UNL     1      21.411  -2.055 -18.168  1.00  0.00     0.168 HD
BRANCH  19  22
HETATM   22  N5  UNL     1      19.373  -0.367 -18.356  1.00  0.00    -0.380 N 
ATOM     23  H52 UNL     1      18.489   0.049 -18.650  1.00  0.00     0.158 HD
ATOM     24  H51 UNL     1      19.184  -0.680 -17.403  1.00  0.00     0.158 HD
ENDBRANCH  19  22
ENDBRANCH  13  16
ENDBRANCH  11  12
ENDBRANCH  10  11
ENDBRANCH   8  10
BRANCH   7  25
HETATM   25  C10 UNL     1      23.449  -7.063 -15.788  1.00  0.00     0.141 C 
BRANCH  25  26
HETATM   26  O2  UNL     1      22.875  -7.481 -16.904  1.00  0.00    -0.355 OA
ATOM     27  H2  UNL     1      22.850  -8.429 -16.955  1.00  0.00     0.218 HD
ENDBRANCH  25  26
BRANCH  25  28
HETATM   28  C11 UNL     1      23.784  -8.109 -14.875  1.00  0.00     0.166 C 
BRANCH  28  29
HETATM   29  N7  UNL     1      24.254  -8.068 -13.724  1.00  0.00    -0.261 N 
ATOM     30  H7  UNL     1      25.271  -8.143 -13.748  1.00  0.00     0.180 HD
BRANCH  29  31
HETATM   31  S2  UNL     1      23.715  -7.927 -12.162  1.00  0.00     0.283 S 
HETATM   32  O3  UNL     1      22.534  -8.887 -11.967  1.00  0.00    -0.199 OA
HETATM   33  O4  UNL     1      23.133  -6.524 -11.878  1.00  0.00    -0.199 OA
BRANCH  31  34
HETATM   34  C12 UNL     1      24.868  -8.267 -10.895  1.00  0.00     0.188 A 
HETATM   35  N8  UNL     1      25.078  -7.446  -9.861  1.00  0.00    -0.279 N 
HETATM   36  N9  UNL     1      25.942  -7.654  -8.888  1.00  0.00    -0.247 N 
ATOM     37  H8  UNL     1      24.526  -6.590  -9.823  1.00  0.00     0.188 HD
HETATM   38  C13 UNL     1      26.305  -6.973  -7.776  1.00  0.00     0.135 A 
HETATM   39  C15 UNL     1      26.702  -8.777  -8.894  1.00  0.00     0.150 A 
HETATM   40  C14 UNL     1      27.280  -7.666  -7.099  1.00  0.00     0.109 A 
HETATM   41  N10 UNL     1      27.509  -8.779  -7.811  1.00  0.00    -0.348 N 
ATOM     42  H10 UNL     1      28.182  -9.508  -7.573  1.00  0.00     0.167 HD
HETATM   43  C16 UNL     1      26.514  -9.660  -9.956  1.00  0.00     0.104 A 
HETATM   44 CL1  UNL     1      27.477 -11.120  -9.994  1.00  0.00    -0.078 Cl
HETATM   45  C17 UNL     1      25.615  -9.451 -10.975  1.00  0.00     0.101 A 
HETATM   46 CL2  UNL     1      25.384 -10.560 -12.301  1.00  0.00    -0.079 Cl
ENDBRANCH  31  34
ENDBRANCH  29  31
ENDBRANCH  28  29
BRANCH  28  47
HETATM   47  N11 UNL     1      23.519  -9.479 -15.359  1.00  0.00    -0.268 N 
ATOM     48  H11 UNL     1      24.308 -10.092 -15.564  1.00  0.00     0.189 HD
BRANCH  47  49
HETATM   49  N12 UNL     1      22.245  -9.952 -15.543  1.00  0.00    -0.131 N 
ATOM     50  H12 UNL     1      21.525  -9.724 -14.857  1.00  0.00     0.205 HD
BRANCH  49  51
HETATM   51  C18 UNL     1      21.902 -10.761 -16.677  1.00  0.00     0.688 C 
HETATM   52  N13 UNL     1      21.345 -11.910 -16.547  1.00  0.00    -0.225 N 
HETATM   53  C19 UNL     1      20.973 -12.776 -17.623  1.00  0.00     0.139 C 
ATOM     54  H13 UNL     1      21.152 -12.232 -15.599  1.00  0.00     0.177 HD
HETATM   55  C20 UNL     1      21.247 -12.252 -18.992  1.00  0.00     0.040 C 
HETATM   56  C21 UNL     1      21.339 -10.751 -19.067  1.00  0.00     0.139 C 
HETATM   57  N14 UNL     1      22.183 -10.292 -17.989  1.00  0.00    -0.225 N 
ATOM     58  H14 UNL     1      22.956  -9.651 -18.164  1.00  0.00     0.177 HD
ENDBRANCH  49  51
ENDBRANCH  47  49
ENDBRANCH  28  47
ENDBRANCH  25  28
ENDBRANCH   7  25
ENDBRANCH   3   7
TORSDOF 15
ENDMDL
MODEL 5
REMARK VINA RESULT: -7.076298340      3.678     10.003
REMARK  15 active torsions:
REMARK  status: ('A' for Active; 'I' for Inactive)
REMARK    1  A    between atoms: C2_3  and  C3_7 
REMARK    2  A    between atoms: C3_7  and  C10_25 
REMARK    3  A    between atoms: N3_8  and  C4_10 
REMARK    4  A    between atoms: C4_10  and  C5_11 
REMARK    5  A    between atoms: C5_11  and  N4_12 
REMARK       I    between atoms: N4_12  and  C6_14 
REMARK    6  A    between atoms: C6_14  and  C7_16 
REMARK    7  A    between atoms: C9_19  and  N5_20 
REMARK    8  A    between atoms: C10_25  and  O2_26 
REMARK    9  A    between atoms: C10_25  and  C11_28 
REMARK   10  A    between atoms: C11_28  and  N7_29 
REMARK   11  A    between atoms: C11_28  and  N11_47 
REMARK   12  A    between atoms: N7_29  and  S2_31 
REMARK   13  A    between atoms: S2_31  and  C12_34 
REMARK   14  A    between atoms: N11_47  and  N12_49 
REMARK   15  A    between atoms: N12_49  and  C18_51 
ROOT
HETATM    1  N1  UNL     1      24.041  -4.406 -19.786  1.00  0.00    -0.190 NA
HETATM    2  C1  UNL     1      23.793  -3.787 -18.843  1.00  0.00     0.119 C 
HETATM    3  C2  UNL     1      23.519  -2.964 -17.649  1.00  0.00     0.137 C 
HETATM    4  N2  UNL     1      24.314  -1.973 -17.483  1.00  0.00    -0.389 N 
ATOM      5  H21 UNL     1      24.125  -1.404 -16.658  1.00  0.00     0.157 HD
ATOM      6  H22 UNL     1      25.080  -1.763 -18.121  1.00  0.00     0.157 HD
ENDROOT
BRANCH   3   7
HETATM    7  C3  UNL     1      22.433  -3.261 -16.744  1.00  0.00     0.103 C 
HETATM    8  N3  UNL     1      21.255  -2.929 -17.108  1.00  0.00    -0.384 N 
ATOM      9  H3  UNL     1      20.607  -3.202 -16.370  1.00  0.00     0.159 HD
BRANCH   8  10
HETATM   10  C4  UNL     1      20.543  -2.351 -18.102  1.00  0.00     0.139 C 
BRANCH  10  11
HETATM   11  C5  UNL     1      20.436  -0.816 -17.971  1.00  0.00     0.142 C 
BRANCH  11  12
HETATM   12  N4  UNL     1      20.481  -0.246 -19.279  1.00  0.00    -0.354 N 
HETATM   13  C6  UNL     1      21.675   0.214 -19.889  1.00  0.00     0.268 C 
HETATM   14  O1  UNL     1      22.728   0.095 -19.211  1.00  0.00    -0.266 OA
ATOM     15  H4  UNL     1      19.610  -0.167 -19.803  1.00  0.00     0.162 HD
BRANCH  13  16
HETATM   16  C7  UNL     1      21.669   0.801 -21.257  1.00  0.00     0.109 A 
HETATM   17  C8  UNL     1      22.761   0.653 -22.076  1.00  0.00     0.088 A 
HETATM   18  S1  UNL     1      22.264   1.477 -23.488  1.00  0.00    -0.064 SA
HETATM   19  C9  UNL     1      20.716   1.954 -22.958  1.00  0.00     0.142 A 
HETATM   20  N6  UNL     1      20.647   1.464 -21.726  1.00  0.00    -0.332 N 
ATOM     21  H6  UNL     1      19.812   1.603 -21.158  1.00  0.00     0.168 HD
BRANCH  19  22
HETATM   22  N5  UNL     1      19.793   2.643 -23.598  1.00  0.00    -0.380 N 
ATOM     23  H52 UNL     1      19.086   2.285 -24.240  1.00  0.00     0.158 HD
ATOM     24  H51 UNL     1      19.609   3.647 -23.577  1.00  0.00     0.158 HD
ENDBRANCH  19  22
ENDBRANCH  13  16
ENDBRANCH  11  12
ENDBRANCH  10  11
ENDBRANCH   8  10
BRANCH   7  25
HETATM   25  C10 UNL     1      22.536  -3.909 -15.450  1.00  0.00     0.141 C 
BRANCH  25  26
HETATM   26  O2  UNL     1      22.384  -3.048 -14.456  1.00  0.00    -0.355 OA
ATOM     27  H2  UNL     1      22.737  -3.385 -13.641  1.00  0.00     0.218 HD
ENDBRANCH  25  26
BRANCH  25  28
HETATM   28  C11 UNL     1      22.762  -5.255 -15.029  1.00  0.00     0.166 C 
BRANCH  28  29
HETATM   29  N7  UNL     1      22.582  -5.806 -13.930  1.00  0.00    -0.261 N 
ATOM     30  H7  UNL     1      21.873  -6.536 -14.005  1.00  0.00     0.180 HD
BRANCH  29  31
HETATM   31  S2  UNL     1      23.152  -5.705 -12.376  1.00  0.00     0.283 S 
HETATM   32  O3  UNL     1      22.022  -6.098 -11.416  1.00  0.00    -0.199 OA
HETATM   33  O4  UNL     1      23.512  -4.253 -11.988  1.00  0.00    -0.199 OA
BRANCH  31  34
HETATM   34  C12 UNL     1      24.534  -6.696 -11.976  1.00  0.00     0.188 A 
HETATM   35  N8  UNL     1      25.690  -6.191 -11.537  1.00  0.00    -0.279 N 
HETATM   36  N9  UNL     1      26.762  -6.896 -11.231  1.00  0.00    -0.247 N 
ATOM     37  H8  UNL     1      25.750  -5.179 -11.429  1.00  0.00     0.188 HD
HETATM   38  C13 UNL     1      28.001  -6.596 -10.781  1.00  0.00     0.135 A 
HETATM   39  C15 UNL     1      26.734  -8.246 -11.358  1.00  0.00     0.150 A 
HETATM   40  C14 UNL     1      28.737  -7.748 -10.631  1.00  0.00     0.109 A 
HETATM   41  N10 UNL     1      27.932  -8.755 -10.994  1.00  0.00    -0.348 N 
ATOM     42  H10 UNL     1      28.181  -9.744 -10.995  1.00  0.00     0.167 HD
HETATM   43  C16 UNL     1      25.545  -8.813 -11.814  1.00  0.00     0.104 A 
HETATM   44 CL1  UNL     1      25.475 -10.553 -11.987  1.00  0.00    -0.078 Cl
HETATM   45  C17 UNL     1      24.425  -8.085 -12.135  1.00  0.00     0.101 A 
HETATM   46 CL2  UNL     1      22.939  -8.801 -12.704  1.00  0.00    -0.079 Cl
ENDBRANCH  31  34
ENDBRANCH  29  31
ENDBRANCH  28  29
BRANCH  28  47
HETATM   47  N11 UNL     1      23.287  -6.163 -16.070  1.00  0.00    -0.268 N 
ATOM     48  H11 UNL     1      24.284  -6.377 -16.082  1.00  0.00     0.189 HD
BRANCH  47  49
HETATM   49  N12 UNL     1      22.476  -6.725 -17.021  1.00  0.00    -0.131 N 
ATOM     50  H12 UNL     1      22.045  -6.127 -17.726  1.00  0.00     0.205 HD
BRANCH  49  51
HETATM   51  C18 UNL     1      22.219  -8.136 -17.047  1.00  0.00     0.688 C 
HETATM   52  N13 UNL     1      22.803  -8.916 -17.882  1.00  0.00    -0.225 N 
HETATM   53  C19 UNL     1      22.603 -10.329 -17.974  1.00  0.00     0.139 C 
ATOM     54  H13 UNL     1      23.463  -8.494 -18.535  1.00  0.00     0.177 HD
HETATM   55  C20 UNL     1      21.651 -10.909 -16.983  1.00  0.00     0.040 C 
HETATM   56  C21 UNL     1      21.484 -10.079 -15.738  1.00  0.00     0.139 C 
HETATM   57  N14 UNL     1      21.293  -8.703 -16.130  1.00  0.00    -0.225 N 
ATOM     58  H14 UNL     1      20.518  -8.153 -15.760  1.00  0.00     0.177 HD
ENDBRANCH  49  51
ENDBRANCH  47  49
ENDBRANCH  28  47
ENDBRANCH  25  28
ENDBRANCH   7  25
ENDBRANCH   3   7
TORSDOF 15
ENDMDL
