MODEL 1
REMARK VINA RESULT: -7.413495285      0.000      0.000
REMARK  12 active torsions:
REMARK  status: ('A' for Active; 'I' for Inactive)
REMARK    1  A    between atoms: C2_2  and  O1_3 
REMARK    2  A    between atoms: O1_3  and  C3_4 
REMARK    3  A    between atoms: C3_4  and  C4_5 
REMARK    4  A    between atoms: C4_5  and  O3_7 
REMARK    5  A    between atoms: O3_7  and  C5_8 
REMARK    6  A    between atoms: C8_11  and  O4_12 
REMARK    7  A    between atoms: C12_19  and  C13_20 
REMARK    8  A    between atoms: C15_24  and  O7_25 
REMARK    9  A    between atoms: O7_25  and  C16_26 
REMARK   10  A    between atoms: C16_26  and  C17_28 
REMARK   11  A    between atoms: C18_29  and  C19_30 
REMARK   12  A    between atoms: N4_38  and  O10_39 
ROOT
HETATM    1  C5  UNL     1      25.195  -8.996 -14.193  1.00  0.00     0.116 A 
HETATM    2  C6  UNL     1      25.522  -9.817 -13.121  1.00  0.00     0.009 A 
HETATM    3  C7  UNL     1      26.140 -11.130 -13.287  1.00  0.00     0.054 C 
HETATM    4  C8  UNL     1      25.234  -9.332 -11.859  1.00  0.00     0.100 A 
HETATM    5  C9  UNL     1      24.649  -8.085 -11.687  1.00  0.00     0.105 A 
HETATM    6  N1  UNL     1      24.348  -7.577 -10.390  1.00  0.00    -0.098 NA
HETATM    7  C10 UNL     1      24.331  -7.283 -12.759  1.00  0.00     0.135 A 
HETATM    8  C11 UNL     1      24.608  -7.743 -14.032  1.00  0.00     0.093 A 
HETATM    9  N2  UNL     1      24.320  -6.924 -15.172  1.00  0.00    -0.338 N 
HETATM   10  C12 UNL     1      24.981  -6.815 -16.446  1.00  0.00     0.190 C 
HETATM   11  C14 UNL     1      23.813  -6.354 -17.352  1.00  0.00     0.073 C 
HETATM   12  C15 UNL     1      23.160  -5.368 -16.441  1.00  0.00     0.177 C 
HETATM   13  C24 UNL     1      23.186  -6.032 -15.104  1.00  0.00     0.225 C 
HETATM   14  N5  UNL     1      23.333  -5.038 -14.083  1.00  0.00    -0.291 N 
ATOM     15  H5  UNL     1      23.296  -4.034 -14.258  1.00  0.00     0.174 HD
HETATM   16  S1  UNL     1      23.574  -5.718 -12.554  1.00  0.00     0.264 S 
HETATM   17  O11 UNL     1      22.298  -5.839 -11.758  1.00  0.00    -0.200 OA
HETATM   18  O12 UNL     1      24.503  -4.784 -11.786  1.00  0.00    -0.200 OA
ENDROOT
BRANCH  12  19
HETATM   19  O7  UNL     1      21.945  -4.897 -16.888  1.00  0.00    -0.309 OA
BRANCH  19  20
HETATM   20  C16 UNL     1      21.615  -3.567 -16.957  1.00  0.00     0.283 C 
HETATM   21  O8  UNL     1      21.453  -3.006 -15.857  1.00  0.00    -0.260 OA
BRANCH  20  22
HETATM   22  C17 UNL     1      21.461  -2.842 -18.259  1.00  0.00     0.084 C 
HETATM   23  C18 UNL     1      21.995  -1.676 -18.382  1.00  0.00     0.040 C 
BRANCH  23  24
HETATM   24  C19 UNL     1      21.970  -0.816 -19.529  1.00  0.00     0.088 A 
HETATM   25  C20 UNL     1      23.129  -0.792 -20.330  1.00  0.00     0.065 A 
HETATM   26 CL1  UNL     1      24.532  -1.778 -19.929  1.00  0.00    -0.082 Cl
HETATM   27  C21 UNL     1      23.122   0.027 -21.431  1.00  0.00     0.058 A 
HETATM   28  C22 UNL     1      22.052   0.814 -21.786  1.00  0.00     0.118 A 
HETATM   29  N3  UNL     1      22.096   1.645 -22.937  1.00  0.00    -0.096 NA
HETATM   30  C23 UNL     1      20.956   0.742 -20.962  1.00  0.00     0.296 A 
HETATM   31  O9  UNL     1      19.943   1.448 -21.243  1.00  0.00    -0.264 OA
HETATM   32  N4  UNL     1      20.925  -0.059 -19.859  1.00  0.00    -0.185 N 
BRANCH  32  33
HETATM   33  O10 UNL     1      19.748  -0.011 -19.142  1.00  0.00    -0.279 OA
ATOM     34  H10 UNL     1      18.972  -0.516 -19.359  1.00  0.00     0.245 HD
ENDBRANCH  32  33
ENDBRANCH  23  24
ENDBRANCH  20  22
ENDBRANCH  19  20
ENDBRANCH  12  19
BRANCH  10  35
HETATM   35  C13 UNL     1      26.003  -5.763 -16.523  1.00  0.00     0.197 C 
HETATM   36  O5  UNL     1      26.485  -5.439 -17.627  1.00  0.00    -0.646 OA
HETATM   37  O6  UNL     1      26.456  -5.109 -15.392  1.00  0.00    -0.646 OA
ENDBRANCH  10  35
BRANCH   1  38
HETATM   38  O3  UNL     1      25.504  -9.541 -15.437  1.00  0.00    -0.274 OA
BRANCH  38  39
HETATM   39  C4  UNL     1      24.558 -10.347 -16.098  1.00  0.00     0.288 C 
HETATM   40  O2  UNL     1      25.040 -11.351 -16.726  1.00  0.00    -0.262 OA
BRANCH  39  41
HETATM   41  C3  UNL     1      23.114 -10.107 -16.101  1.00  0.00     0.279 C 
BRANCH  41  42
HETATM   42  O1  UNL     1      22.558  -9.607 -17.235  1.00  0.00    -0.382 OA
BRANCH  42  43
HETATM   43  C2  UNL     1      21.335  -9.006 -17.142  1.00  0.00     0.163 C 
HETATM   44  C1  UNL     1      20.947  -8.360 -18.461  1.00  0.00     0.033 C 
ENDBRANCH  42  43
ENDBRANCH  41  42
ENDBRANCH  39  41
ENDBRANCH  38  39
ENDBRANCH   1  38
BRANCH   4  45
HETATM   45  O4  UNL     1      25.550 -10.131 -10.763  1.00  0.00    -0.358 OA
ATOM     46  H4  UNL     1      25.799  -9.700  -9.953  1.00  0.00     0.217 HD
ENDBRANCH   4  45
TORSDOF 12
ENDMDL
MODEL 2
REMARK VINA RESULT: -6.920776710      0.873      1.726
REMARK  12 active torsions:
REMARK  status: ('A' for Active; 'I' for Inactive)
REMARK    1  A    between atoms: C2_2  and  O1_3 
REMARK    2  A    between atoms: O1_3  and  C3_4 
REMARK    3  A    between atoms: C3_4  and  C4_5 
REMARK    4  A    between atoms: C4_5  and  O3_7 
REMARK    5  A    between atoms: O3_7  and  C5_8 
REMARK    6  A    between atoms: C8_11  and  O4_12 
REMARK    7  A    between atoms: C12_19  and  C13_20 
REMARK    8  A    between atoms: C15_24  and  O7_25 
REMARK    9  A    between atoms: O7_25  and  C16_26 
REMARK   10  A    between atoms: C16_26  and  C17_28 
REMARK   11  A    between atoms: C18_29  and  C19_30 
REMARK   12  A    between atoms: N4_38  and  O10_39 
ROOT
HETATM    1  C5  UNL     1      25.140  -8.974 -14.250  1.00  0.00     0.116 A 
HETATM    2  C6  UNL     1      25.468  -9.803 -13.184  1.00  0.00     0.009 A 
HETATM    3  C7  UNL     1      26.067 -11.123 -13.361  1.00  0.00     0.054 C 
HETATM    4  C8  UNL     1      25.202  -9.317 -11.918  1.00  0.00     0.100 A 
HETATM    5  C9  UNL     1      24.635  -8.063 -11.736  1.00  0.00     0.105 A 
HETATM    6  N1  UNL     1      24.357  -7.554 -10.434  1.00  0.00    -0.098 NA
HETATM    7  C10 UNL     1      24.315  -7.254 -12.802  1.00  0.00     0.135 A 
HETATM    8  C11 UNL     1      24.571  -7.715 -14.079  1.00  0.00     0.093 A 
HETATM    9  N2  UNL     1      24.280  -6.889 -15.214  1.00  0.00    -0.338 N 
HETATM   10  C12 UNL     1      24.926  -6.786 -16.496  1.00  0.00     0.190 C 
HETATM   11  C14 UNL     1      23.753  -6.307 -17.386  1.00  0.00     0.073 C 
HETATM   12  C15 UNL     1      23.124  -5.315 -16.466  1.00  0.00     0.177 C 
HETATM   13  C24 UNL     1      23.158  -5.983 -15.130  1.00  0.00     0.225 C 
HETATM   14  N5  UNL     1      23.330  -4.993 -14.109  1.00  0.00    -0.291 N 
ATOM     15  H5  UNL     1      23.304  -3.989 -14.282  1.00  0.00     0.174 HD
HETATM   16  S1  UNL     1      23.581  -5.680 -12.584  1.00  0.00     0.264 S 
HETATM   17  O11 UNL     1      22.314  -5.786 -11.774  1.00  0.00    -0.200 OA
HETATM   18  O12 UNL     1      24.531  -4.760 -11.826  1.00  0.00    -0.200 OA
ENDROOT
BRANCH  12  19
HETATM   19  O7  UNL     1      21.911  -4.828 -16.897  1.00  0.00    -0.309 OA
BRANCH  19  20
HETATM   20  C16 UNL     1      21.605  -3.492 -16.978  1.00  0.00     0.283 C 
HETATM   21  O8  UNL     1      21.441  -2.921 -15.884  1.00  0.00    -0.260 OA
BRANCH  20  22
HETATM   22  C17 UNL     1      21.477  -2.774 -18.287  1.00  0.00     0.084 C 
HETATM   23  C18 UNL     1      21.894  -1.558 -18.365  1.00  0.00     0.040 C 
BRANCH  23  24
HETATM   24  C19 UNL     1      21.868  -0.693 -19.509  1.00  0.00     0.088 A 
HETATM   25  C20 UNL     1      23.005  -0.708 -20.342  1.00  0.00     0.065 A 
HETATM   26 CL1  UNL     1      24.382  -1.744 -19.982  1.00  0.00    -0.082 Cl
HETATM   27  C21 UNL     1      22.997   0.115 -21.440  1.00  0.00     0.058 A 
HETATM   28  C22 UNL     1      21.945   0.940 -21.763  1.00  0.00     0.118 A 
HETATM   29  N3  UNL     1      21.988   1.774 -22.913  1.00  0.00    -0.096 NA
HETATM   30  C23 UNL     1      20.871   0.905 -20.910  1.00  0.00     0.296 A 
HETATM   31  O9  UNL     1      19.877   1.647 -21.160  1.00  0.00    -0.264 OA
HETATM   32  N4  UNL     1      20.842   0.101 -19.808  1.00  0.00    -0.185 N 
BRANCH  32  33
HETATM   33  O10 UNL     1      19.687   0.189 -19.059  1.00  0.00    -0.279 OA
ATOM     34  H10 UNL     1      18.822  -0.028 -19.387  1.00  0.00     0.245 HD
ENDBRANCH  32  33
ENDBRANCH  23  24
ENDBRANCH  20  22
ENDBRANCH  19  20
ENDBRANCH  12  19
BRANCH  10  35
HETATM   35  C13 UNL     1      25.961  -5.747 -16.583  1.00  0.00     0.197 C 
HETATM   36  O5  UNL     1      26.408  -5.221 -15.544  1.00  0.00    -0.646 OA
HETATM   37  O6  UNL     1      26.464  -5.326 -17.800  1.00  0.00    -0.646 OA
ENDBRANCH  10  35
BRANCH   1  38
HETATM   38  O3  UNL     1      25.427  -9.520 -15.500  1.00  0.00    -0.274 OA
BRANCH  38  39
HETATM   39  C4  UNL     1      24.461 -10.310 -16.152  1.00  0.00     0.288 C 
HETATM   40  O2  UNL     1      23.246 -10.044 -15.852  1.00  0.00    -0.262 OA
BRANCH  39  41
HETATM   41  C3  UNL     1      24.761 -11.369 -17.116  1.00  0.00     0.279 C 
BRANCH  41  42
HETATM   42  O1  UNL     1      25.919 -12.062 -16.955  1.00  0.00    -0.382 OA
BRANCH  42  43
HETATM   43  C2  UNL     1      25.846 -13.337 -16.473  1.00  0.00     0.163 C 
HETATM   44  C1  UNL     1      24.755 -14.122 -17.180  1.00  0.00     0.033 C 
ENDBRANCH  42  43
ENDBRANCH  41  42
ENDBRANCH  39  41
ENDBRANCH  38  39
ENDBRANCH   1  38
BRANCH   4  45
HETATM   45  O4  UNL     1      25.521 -10.122 -10.827  1.00  0.00    -0.358 OA
ATOM     46  H4  UNL     1      25.082  -9.950 -10.002  1.00  0.00     0.217 HD
ENDBRANCH   4  45
TORSDOF 12
ENDMDL
MODEL 3
REMARK VINA RESULT: -6.816911096      1.413      1.630
REMARK  12 active torsions:
REMARK  status: ('A' for Active; 'I' for Inactive)
REMARK    1  A    between atoms: C2_2  and  O1_3 
REMARK    2  A    between atoms: O1_3  and  C3_4 
REMARK    3  A    between atoms: C3_4  and  C4_5 
REMARK    4  A    between atoms: C4_5  and  O3_7 
REMARK    5  A    between atoms: O3_7  and  C5_8 
REMARK    6  A    between atoms: C8_11  and  O4_12 
REMARK    7  A    between atoms: C12_19  and  C13_20 
REMARK    8  A    between atoms: C15_24  and  O7_25 
REMARK    9  A    between atoms: O7_25  and  C16_26 
REMARK   10  A    between atoms: C16_26  and  C17_28 
REMARK   11  A    between atoms: C18_29  and  C19_30 
REMARK   12  A    between atoms: N4_38  and  O10_39 
ROOT
HETATM    1  C5  UNL     1      25.494  -8.962 -13.876  1.00  0.00     0.116 A 
HETATM    2  C6  UNL     1      25.836  -9.737 -12.775  1.00  0.00     0.009 A 
HETATM    3  C7  UNL     1      26.522 -11.022 -12.892  1.00  0.00     0.054 C 
HETATM    4  C8  UNL     1      25.495  -9.234 -11.534  1.00  0.00     0.100 A 
HETATM    5  C9  UNL     1      24.845  -8.014 -11.409  1.00  0.00     0.105 A 
HETATM    6  N1  UNL     1      24.489  -7.488 -10.133  1.00  0.00    -0.098 NA
HETATM    7  C10 UNL     1      24.512  -7.258 -12.509  1.00  0.00     0.135 A 
HETATM    8  C11 UNL     1      24.842  -7.737 -13.762  1.00  0.00     0.093 A 
HETATM    9  N2  UNL     1      24.541  -6.963 -14.930  1.00  0.00    -0.338 N 
HETATM   10  C12 UNL     1      25.225  -6.855 -16.192  1.00  0.00     0.190 C 
HETATM   11  C14 UNL     1      24.057  -6.476 -17.136  1.00  0.00     0.073 C 
HETATM   12  C15 UNL     1      23.334  -5.500 -16.267  1.00  0.00     0.177 C 
HETATM   13  C24 UNL     1      23.363  -6.128 -14.912  1.00  0.00     0.225 C 
HETATM   14  N5  UNL     1      23.436  -5.101 -13.915  1.00  0.00    -0.291 N 
ATOM     15  H5  UNL     1      23.353  -4.106 -14.119  1.00  0.00     0.174 HD
HETATM   16  S1  UNL     1      23.675  -5.728 -12.363  1.00  0.00     0.264 S 
HETATM   17  O11 UNL     1      22.388  -5.892 -11.593  1.00  0.00    -0.200 OA
HETATM   18  O12 UNL     1      24.538  -4.729 -11.601  1.00  0.00    -0.200 OA
ENDROOT
BRANCH  12  19
HETATM   19  O7  UNL     1      22.109  -5.104 -16.753  1.00  0.00    -0.309 OA
BRANCH  19  20
HETATM   20  C16 UNL     1      21.672  -3.803 -16.763  1.00  0.00     0.283 C 
HETATM   21  O8  UNL     1      21.472  -3.305 -15.639  1.00  0.00    -0.260 OA
BRANCH  20  22
HETATM   22  C17 UNL     1      21.450  -3.037 -18.032  1.00  0.00     0.084 C 
HETATM   23  C18 UNL     1      22.016  -1.888 -18.164  1.00  0.00     0.040 C 
BRANCH  23  24
HETATM   24  C19 UNL     1      21.938  -0.997 -19.285  1.00  0.00     0.088 A 
HETATM   25  C20 UNL     1      20.718  -0.316 -19.472  1.00  0.00     0.065 A 
HETATM   26 CL1  UNL     1      19.364  -0.560 -18.372  1.00  0.00    -0.082 Cl
HETATM   27  C21 UNL     1      20.626   0.540 -20.540  1.00  0.00     0.058 A 
HETATM   28  C22 UNL     1      21.654   0.764 -21.424  1.00  0.00     0.118 A 
HETATM   29  N3  UNL     1      21.507   1.662 -22.516  1.00  0.00    -0.096 NA
HETATM   30  C23 UNL     1      22.814   0.070 -21.185  1.00  0.00     0.296 A 
HETATM   31  O9  UNL     1      23.792   0.238 -21.970  1.00  0.00    -0.264 OA
HETATM   32  N4  UNL     1      22.943  -0.790 -20.134  1.00  0.00    -0.185 N 
BRANCH  32  33
HETATM   33  O10 UNL     1      24.174  -1.405 -20.039  1.00  0.00    -0.279 OA
ATOM     34  H10 UNL     1      24.984  -0.949 -19.839  1.00  0.00     0.245 HD
ENDBRANCH  32  33
ENDBRANCH  23  24
ENDBRANCH  20  22
ENDBRANCH  19  20
ENDBRANCH  12  19
BRANCH  10  35
HETATM   35  C13 UNL     1      26.195  -5.755 -16.275  1.00  0.00     0.197 C 
HETATM   36  O5  UNL     1      26.601  -5.199 -15.235  1.00  0.00    -0.646 OA
HETATM   37  O6  UNL     1      26.681  -5.308 -17.490  1.00  0.00    -0.646 OA
ENDBRANCH  10  35
BRANCH   1  38
HETATM   38  O3  UNL     1      25.859  -9.523 -15.098  1.00  0.00    -0.274 OA
BRANCH  38  39
HETATM   39  C4  UNL     1      24.960 -10.374 -15.769  1.00  0.00     0.288 C 
HETATM   40  O2  UNL     1      25.468 -11.457 -16.221  1.00  0.00    -0.262 OA
BRANCH  39  41
HETATM   41  C3  UNL     1      23.537 -10.096 -15.965  1.00  0.00     0.279 C 
BRANCH  41  42
HETATM   42  O1  UNL     1      23.083  -9.986 -17.240  1.00  0.00    -0.382 OA
BRANCH  42  43
HETATM   43  C2  UNL     1      21.793  -9.581 -17.433  1.00  0.00     0.163 C 
HETATM   44  C1  UNL     1      21.255  -8.878 -16.199  1.00  0.00     0.033 C 
ENDBRANCH  42  43
ENDBRANCH  41  42
ENDBRANCH  39  41
ENDBRANCH  38  39
ENDBRANCH   1  38
BRANCH   4  45
HETATM   45  O4  UNL     1      25.824  -9.987 -10.409  1.00  0.00    -0.358 OA
ATOM     46  H4  UNL     1      25.708  -9.588  -9.555  1.00  0.00     0.217 HD
ENDBRANCH   4  45
TORSDOF 12
ENDMDL
MODEL 4
REMARK VINA RESULT: -6.786026809      3.603      9.495
REMARK  12 active torsions:
REMARK  status: ('A' for Active; 'I' for Inactive)
REMARK    1  A    between atoms: C2_2  and  O1_3 
REMARK    2  A    between atoms: O1_3  and  C3_4 
REMARK    3  A    between atoms: C3_4  and  C4_5 
REMARK    4  A    between atoms: C4_5  and  O3_7 
REMARK    5  A    between atoms: O3_7  and  C5_8 
REMARK    6  A    between atoms: C8_11  and  O4_12 
REMARK    7  A    between atoms: C12_19  and  C13_20 
REMARK    8  A    between atoms: C15_24  and  O7_25 
REMARK    9  A    between atoms: O7_25  and  C16_26 
REMARK   10  A    between atoms: C16_26  and  C17_28 
REMARK   11  A    between atoms: C18_29  and  C19_30 
REMARK   12  A    between atoms: N4_38  and  O10_39 
ROOT
HETATM    1  C5  UNL     1      22.721  -1.147 -19.846  1.00  0.00     0.116 A 
HETATM    2  C6  UNL     1      21.477  -0.529 -19.800  1.00  0.00     0.009 A 
HETATM    3  C7  UNL     1      21.038   0.446 -20.795  1.00  0.00     0.054 C 
HETATM    4  C8  UNL     1      20.649  -0.882 -18.751  1.00  0.00     0.100 A 
HETATM    5  C9  UNL     1      21.052  -1.809 -17.800  1.00  0.00     0.105 A 
HETATM    6  N1  UNL     1      20.205  -2.179 -16.715  1.00  0.00    -0.098 NA
HETATM    7  C10 UNL     1      22.288  -2.412 -17.859  1.00  0.00     0.135 A 
HETATM    8  C11 UNL     1      23.136  -2.078 -18.897  1.00  0.00     0.093 A 
HETATM    9  N2  UNL     1      24.418  -2.707 -19.010  1.00  0.00    -0.338 N 
HETATM   10  C12 UNL     1      25.204  -3.045 -20.167  1.00  0.00     0.190 C 
HETATM   11  C14 UNL     1      26.636  -3.009 -19.580  1.00  0.00     0.073 C 
HETATM   12  C15 UNL     1      26.390  -3.679 -18.269  1.00  0.00     0.177 C 
HETATM   13  C24 UNL     1      25.099  -3.093 -17.796  1.00  0.00     0.225 C 
HETATM   14  N5  UNL     1      24.374  -4.081 -17.053  1.00  0.00    -0.291 N 
ATOM     15  H5  UNL     1      24.756  -4.990 -16.794  1.00  0.00     0.174 HD
HETATM   16  S1  UNL     1      22.814  -3.566 -16.653  1.00  0.00     0.264 S 
HETATM   17  O11 UNL     1      22.729  -2.973 -15.269  1.00  0.00    -0.200 OA
HETATM   18  O12 UNL     1      21.914  -4.796 -16.678  1.00  0.00    -0.200 OA
ENDROOT
BRANCH  12  19
HETATM   19  O7  UNL     1      27.457  -3.638 -17.399  1.00  0.00    -0.309 OA
BRANCH  19  20
HETATM   20  C16 UNL     1      27.863  -4.701 -16.632  1.00  0.00     0.283 C 
HETATM   21  O8  UNL     1      28.638  -5.495 -17.199  1.00  0.00    -0.260 OA
BRANCH  20  22
HETATM   22  C17 UNL     1      27.409  -4.895 -15.218  1.00  0.00     0.084 C 
HETATM   23  C18 UNL     1      26.692  -5.927 -14.937  1.00  0.00     0.040 C 
BRANCH  23  24
HETATM   24  C19 UNL     1      26.156  -6.302 -13.661  1.00  0.00     0.088 A 
HETATM   25  C20 UNL     1      26.972  -7.108 -12.841  1.00  0.00     0.065 A 
HETATM   26 CL1  UNL     1      28.570  -7.620 -13.373  1.00  0.00    -0.082 Cl
HETATM   27  C21 UNL     1      26.473  -7.476 -11.617  1.00  0.00     0.058 A 
HETATM   28  C22 UNL     1      25.233  -7.101 -11.158  1.00  0.00     0.118 A 
HETATM   29  N3  UNL     1      24.764  -7.511  -9.880  1.00  0.00    -0.096 NA
HETATM   30  C23 UNL     1      24.491  -6.318 -12.006  1.00  0.00     0.296 A 
HETATM   31  O9  UNL     1      23.340  -5.945 -11.632  1.00  0.00    -0.264 OA
HETATM   32  N4  UNL     1      24.952  -5.931 -13.230  1.00  0.00    -0.185 N 
BRANCH  32  33
HETATM   33  O10 UNL     1      24.079  -5.145 -13.954  1.00  0.00    -0.279 OA
ATOM     34  H10 UNL     1      23.133  -5.211 -13.899  1.00  0.00     0.245 HD
ENDBRANCH  32  33
ENDBRANCH  23  24
ENDBRANCH  20  22
ENDBRANCH  19  20
ENDBRANCH  12  19
BRANCH  10  35
HETATM   35  C13 UNL     1      25.001  -4.410 -20.674  1.00  0.00     0.197 C 
HETATM   36  O5  UNL     1      25.785  -4.887 -21.518  1.00  0.00    -0.646 OA
HETATM   37  O6  UNL     1      23.950  -5.195 -20.236  1.00  0.00    -0.646 OA
ENDBRANCH  10  35
BRANCH   1  38
HETATM   38  O3  UNL     1      23.511  -0.747 -20.922  1.00  0.00    -0.274 OA
BRANCH  38  39
HETATM   39  C4  UNL     1      24.321   0.399 -20.802  1.00  0.00     0.288 C 
HETATM   40  O2  UNL     1      24.543   1.027 -21.893  1.00  0.00    -0.262 OA
BRANCH  39  41
HETATM   41  C3  UNL     1      24.894   0.888 -19.547  1.00  0.00     0.279 C 
BRANCH  41  42
HETATM   42  O1  UNL     1      24.261   1.913 -18.919  1.00  0.00    -0.382 OA
BRANCH  42  43
HETATM   43  C2  UNL     1      23.636   1.655 -17.733  1.00  0.00     0.163 C 
HETATM   44  C1  UNL     1      24.434   0.665 -16.904  1.00  0.00     0.033 C 
ENDBRANCH  42  43
ENDBRANCH  41  42
ENDBRANCH  39  41
ENDBRANCH  38  39
ENDBRANCH   1  38
BRANCH   4  45
HETATM   45  O4  UNL     1      19.394  -0.281 -18.677  1.00  0.00    -0.358 OA
ATOM     46  H4  UNL     1      19.356   0.654 -18.518  1.00  0.00     0.217 HD
ENDBRANCH   4  45
TORSDOF 12
ENDMDL
MODEL 5
REMARK VINA RESULT: -6.662727765      4.163      7.077
REMARK  12 active torsions:
REMARK  status: ('A' for Active; 'I' for Inactive)
REMARK    1  A    between atoms: C2_2  and  O1_3 
REMARK    2  A    between atoms: O1_3  and  C3_4 
REMARK    3  A    between atoms: C3_4  and  C4_5 
REMARK    4  A    between atoms: C4_5  and  O3_7 
REMARK    5  A    between atoms: O3_7  and  C5_8 
REMARK    6  A    between atoms: C8_11  and  O4_12 
REMARK    7  A    between atoms: C12_19  and  C13_20 
REMARK    8  A    between atoms: C15_24  and  O7_25 
REMARK    9  A    between atoms: O7_25  and  C16_26 
REMARK   10  A    between atoms: C16_26  and  C17_28 
REMARK   11  A    between atoms: C18_29  and  C19_30 
REMARK   12  A    between atoms: N4_38  and  O10_39 
ROOT
HETATM    1  C5  UNL     1      24.501  -6.876 -14.421  1.00  0.00     0.116 A 
HETATM    2  C6  UNL     1      23.891  -6.426 -13.256  1.00  0.00     0.009 A 
HETATM    3  C7  UNL     1      23.970  -7.150 -11.990  1.00  0.00     0.054 C 
HETATM    4  C8  UNL     1      23.191  -5.238 -13.344  1.00  0.00     0.100 A 
HETATM    5  C9  UNL     1      23.110  -4.540 -14.541  1.00  0.00     0.105 A 
HETATM    6  N1  UNL     1      22.389  -3.314 -14.640  1.00  0.00    -0.098 NA
HETATM    7  C10 UNL     1      23.718  -4.998 -15.686  1.00  0.00     0.135 A 
HETATM    8  C11 UNL     1      24.426  -6.184 -15.627  1.00  0.00     0.093 A 
HETATM    9  N2  UNL     1      25.099  -6.678 -16.791  1.00  0.00    -0.338 N 
HETATM   10  C12 UNL     1      26.312  -7.442 -16.926  1.00  0.00     0.190 C 
HETATM   11  C14 UNL     1      26.054  -8.182 -18.262  1.00  0.00     0.073 C 
HETATM   12  C15 UNL     1      25.440  -7.074 -19.052  1.00  0.00     0.177 C 
HETATM   13  C24 UNL     1      24.519  -6.404 -18.085  1.00  0.00     0.225 C 
HETATM   14  N5  UNL     1      24.467  -5.001 -18.374  1.00  0.00    -0.291 N 
ATOM     15  H5  UNL     1      24.899  -4.574 -19.193  1.00  0.00     0.174 HD
HETATM   16  S1  UNL     1      23.605  -4.137 -17.205  1.00  0.00     0.264 S 
HETATM   17  O11 UNL     1      22.164  -3.909 -17.587  1.00  0.00    -0.200 OA
HETATM   18  O12 UNL     1      24.264  -2.767 -17.080  1.00  0.00    -0.200 OA
ENDROOT
BRANCH  12  19
HETATM   19  O7  UNL     1      24.911  -7.462 -20.262  1.00  0.00    -0.309 OA
BRANCH  19  20
HETATM   20  C16 UNL     1      23.566  -7.542 -20.521  1.00  0.00     0.283 C 
HETATM   21  O8  UNL     1      23.138  -6.717 -21.350  1.00  0.00    -0.260 OA
BRANCH  20  22
HETATM   22  C17 UNL     1      22.676  -8.548 -19.856  1.00  0.00     0.084 C 
HETATM   23  C18 UNL     1      22.638  -9.745 -20.329  1.00  0.00     0.040 C 
BRANCH  23  24
HETATM   24  C19 UNL     1      21.862 -10.852 -19.852  1.00  0.00     0.088 A 
HETATM   25  C20 UNL     1      22.522 -11.775 -19.015  1.00  0.00     0.065 A 
HETATM   26 CL1  UNL     1      24.216 -11.563 -18.585  1.00  0.00    -0.082 Cl
HETATM   27  C21 UNL     1      21.795 -12.842 -18.550  1.00  0.00     0.058 A 
HETATM   28  C22 UNL     1      20.471 -13.050 -18.857  1.00  0.00     0.118 A 
HETATM   29  N3  UNL     1      19.764 -14.173 -18.348  1.00  0.00    -0.096 NA
HETATM   30  C23 UNL     1      19.891 -12.115 -19.676  1.00  0.00     0.296 A 
HETATM   31  O9  UNL     1      18.673 -12.260 -19.990  1.00  0.00    -0.264 OA
HETATM   32  N4  UNL     1      20.581 -11.041 -20.158  1.00  0.00    -0.185 N 
BRANCH  32  33
HETATM   33  O10 UNL     1      19.847 -10.199 -20.967  1.00  0.00    -0.279 OA
ATOM     34  H10 UNL     1      20.221  -9.485 -21.471  1.00  0.00     0.245 HD
ENDBRANCH  32  33
ENDBRANCH  23  24
ENDBRANCH  20  22
ENDBRANCH  19  20
ENDBRANCH  12  19
BRANCH  10  35
HETATM   35  C13 UNL     1      27.527  -6.640 -17.126  1.00  0.00     0.197 C 
HETATM   36  O5  UNL     1      28.617  -7.203 -17.354  1.00  0.00    -0.646 OA
HETATM   37  O6  UNL     1      27.500  -5.259 -17.070  1.00  0.00    -0.646 OA
ENDBRANCH  10  35
BRANCH   1  38
HETATM   38  O3  UNL     1      25.186  -8.080 -14.272  1.00  0.00    -0.274 OA
BRANCH  38  39
HETATM   39  C4  UNL     1      24.554  -9.288 -14.622  1.00  0.00     0.288 C 
HETATM   40  O2  UNL     1      25.343 -10.256 -14.899  1.00  0.00    -0.262 OA
BRANCH  39  41
HETATM   41  C3  UNL     1      23.105  -9.486 -14.681  1.00  0.00     0.279 C 
BRANCH  41  42
HETATM   42  O1  UNL     1      22.591 -10.080 -15.789  1.00  0.00    -0.382 OA
BRANCH  42  43
HETATM   43  C2  UNL     1      21.399  -9.623 -16.271  1.00  0.00     0.163 C 
HETATM   44  C1  UNL     1      21.431  -8.117 -16.458  1.00  0.00     0.033 C 
ENDBRANCH  42  43
ENDBRANCH  41  42
ENDBRANCH  39  41
ENDBRANCH  38  39
ENDBRANCH   1  38
BRANCH   4  45
HETATM   45  O4  UNL     1      22.569  -4.759 -12.193  1.00  0.00    -0.358 OA
ATOM     46  H4  UNL     1      22.209  -3.880 -12.213  1.00  0.00     0.217 HD
ENDBRANCH   4  45
TORSDOF 12
ENDMDL
