MODEL 1
REMARK VINA RESULT: -7.509504403      0.000      0.000
REMARK  10 active torsions:
REMARK  status: ('A' for Active; 'I' for Inactive)
REMARK    1  A    between atoms: C4_6  and  C5_7 
REMARK    2  A    between atoms: C5_7  and  C6_8 
REMARK    3  A    between atoms: C6_8  and  C7_9 
REMARK    4  A    between atoms: C7_9  and  S1_10 
REMARK    5  A    between atoms: S1_10  and  C8_11 
REMARK    6  A    between atoms: C9_12  and  N3_13 
REMARK    7  A    between atoms: C10_16  and  N4_17 
REMARK    8  A    between atoms: N9_30  and  N10_31 
REMARK    9  A    between atoms: N10_31  and  C14_33 
REMARK   10  A    between atoms: C15_34  and  C16_35 
ROOT
HETATM    1  N1  UNL     1      20.273 -10.244 -19.720  1.00  0.00    -0.191 NA
HETATM    2  C1  UNL     1      21.056  -9.478 -19.356  1.00  0.00     0.104 C 
HETATM    3  C2  UNL     1      22.021  -8.525 -18.880  1.00  0.00     0.111 A 
HETATM    4  C3  UNL     1      22.949  -7.880 -19.660  1.00  0.00     0.095 A 
HETATM    5  N2  UNL     1      23.156  -8.004 -21.074  1.00  0.00    -0.099 NA
HETATM    6  C4  UNL     1      23.691  -7.050 -18.850  1.00  0.00     0.061 A 
HETATM    7  N9  UNL     1      23.219  -7.191 -17.599  1.00  0.00    -0.245 N 
HETATM    8  C21 UNL     1      22.216  -8.072 -17.596  1.00  0.00     0.148 A 
HETATM    9 CL2  UNL     1      21.227  -8.626 -16.233  1.00  0.00    -0.061 Cl
ENDROOT
BRANCH   6  10
HETATM   10  C5  UNL     1      24.821  -6.169 -19.299  1.00  0.00     0.062 C 
BRANCH  10  11
HETATM   11  C6  UNL     1      24.336  -4.898 -19.956  1.00  0.00     0.017 C 
BRANCH  11  12
HETATM   12  C7  UNL     1      25.220  -3.728 -19.640  1.00  0.00     0.081 C 
BRANCH  12  13
HETATM   13  S1  UNL     1      24.544  -2.653 -18.368  1.00  0.00    -0.108 SA
BRANCH  13  14
HETATM   14  C8  UNL     1      22.999  -1.926 -18.883  1.00  0.00     0.127 A 
HETATM   15  C9  UNL     1      21.777  -2.265 -18.348  1.00  0.00     0.184 A 
HETATM   16  C10 UNL     1      20.841  -1.495 -18.999  1.00  0.00     0.175 A 
HETATM   17  N5  UNL     1      21.503  -0.731 -19.885  1.00  0.00    -0.173 N 
HETATM   18  N6  UNL     1      22.805  -0.971 -19.835  1.00  0.00    -0.252 N 
HETATM   19  N8  UNL     1      20.811   0.164 -20.702  1.00  0.00    -0.273 N 
HETATM   20  C11 UNL     1      23.934  -0.455 -20.537  1.00  0.00     0.255 C 
HETATM   21  C12 UNL     1      23.672   0.447 -21.642  1.00  0.00     0.242 C 
HETATM   22  O3  UNL     1      24.568   0.507 -22.528  1.00  0.00    -0.271 OA
HETATM   23  N7  UNL     1      22.563   1.284 -21.901  1.00  0.00    -0.321 N 
HETATM   24  C13 UNL     1      21.351   1.201 -21.527  1.00  0.00     0.202 C 
ATOM     25  H7  UNL     1      22.770   2.092 -22.488  1.00  0.00     0.169 HD
ATOM     26  H8  UNL     1      19.796   0.067 -20.712  1.00  0.00     0.190 HD
BRANCH  15  27
HETATM   27  N3  UNL     1      21.536  -3.237 -17.310  1.00  0.00    -0.109 N 
HETATM   28  O1  UNL     1      21.720  -4.444 -17.444  1.00  0.00    -0.532 OA
HETATM   29  O2  UNL     1      21.076  -2.768 -16.111  1.00  0.00    -0.532 OA
ENDBRANCH  15  27
BRANCH  16  30
HETATM   30  N4  UNL     1      19.557  -1.506 -18.793  1.00  0.00    -0.381 N 
ATOM     31  H42 UNL     1      18.832  -1.227 -19.455  1.00  0.00     0.157 HD
ATOM     32  H41 UNL     1      19.085  -1.797 -17.937  1.00  0.00     0.157 HD
ENDBRANCH  16  30
ENDBRANCH  13  14
ENDBRANCH  12  13
ENDBRANCH  11  12
ENDBRANCH  10  11
ENDBRANCH   6  10
BRANCH   7  33
HETATM   33  N10 UNL     1      23.710  -6.498 -16.506  1.00  0.00    -0.294 N 
ATOM     34  H10 UNL     1      23.679  -5.479 -16.550  1.00  0.00     0.187 HD
BRANCH  33  35
HETATM   35  C14 UNL     1      24.257  -7.082 -15.320  1.00  0.00     0.069 C 
HETATM   36  C15 UNL     1      23.903  -6.686 -14.132  1.00  0.00     0.140 C 
HETATM   37  N11 UNL     1      24.407  -7.228 -12.904  1.00  0.00    -0.293 N 
HETATM   38  C17 UNL     1      24.288  -7.565 -11.551  1.00  0.00     0.247 C 
HETATM   39  C19 UNL     1      25.756  -7.766 -12.864  1.00  0.00     0.182 C 
HETATM   40  O6  UNL     1      23.411  -7.358 -10.672  1.00  0.00    -0.271 OA
HETATM   41  C18 UNL     1      25.586  -8.279 -11.480  1.00  0.00     0.207 C 
HETATM   42 CL1  UNL     1      25.455 -10.036 -11.309  1.00  0.00    -0.112 Cl
HETATM   43  S2  UNL     1      25.737  -9.090 -14.140  1.00  0.00    -0.135 SA
HETATM   44  C20 UNL     1      25.269  -8.131 -15.589  1.00  0.00     0.137 C 
BRANCH  36  45
HETATM   45  C16 UNL     1      22.922  -5.615 -14.004  1.00  0.00     0.229 C 
HETATM   46  O4  UNL     1      21.832  -5.673 -14.598  1.00  0.00    -0.643 OA
HETATM   47  O5  UNL     1      23.158  -4.500 -13.226  1.00  0.00    -0.643 OA
ENDBRANCH  36  45
ENDBRANCH  33  35
ENDBRANCH   7  33
TORSDOF 10
ENDMDL
MODEL 2
REMARK VINA RESULT: -7.440658155      2.598      3.295
REMARK  10 active torsions:
REMARK  status: ('A' for Active; 'I' for Inactive)
REMARK    1  A    between atoms: C4_6  and  C5_7 
REMARK    2  A    between atoms: C5_7  and  C6_8 
REMARK    3  A    between atoms: C6_8  and  C7_9 
REMARK    4  A    between atoms: C7_9  and  S1_10 
REMARK    5  A    between atoms: S1_10  and  C8_11 
REMARK    6  A    between atoms: C9_12  and  N3_13 
REMARK    7  A    between atoms: C10_16  and  N4_17 
REMARK    8  A    between atoms: N9_30  and  N10_31 
REMARK    9  A    between atoms: N10_31  and  C14_33 
REMARK   10  A    between atoms: C15_34  and  C16_35 
ROOT
HETATM    1  N1  UNL     1      21.197 -11.218 -16.470  1.00  0.00    -0.191 NA
HETATM    2  C1  UNL     1      21.523 -10.112 -16.400  1.00  0.00     0.104 C 
HETATM    3  C2  UNL     1      21.934  -8.739 -16.289  1.00  0.00     0.111 A 
HETATM    4  C3  UNL     1      21.834  -7.799 -17.286  1.00  0.00     0.095 A 
HETATM    5  N2  UNL     1      21.313  -7.966 -18.611  1.00  0.00    -0.099 NA
HETATM    6  C4  UNL     1      22.328  -6.608 -16.805  1.00  0.00     0.061 A 
HETATM    7  N9  UNL     1      22.722  -6.824 -15.538  1.00  0.00    -0.245 N 
HETATM    8  C21 UNL     1      22.494  -8.097 -15.209  1.00  0.00     0.148 A 
HETATM    9 CL2  UNL     1      22.804  -8.922 -13.671  1.00  0.00    -0.061 Cl
ENDROOT
BRANCH   6  10
HETATM   10  C5  UNL     1      22.414  -5.320 -17.575  1.00  0.00     0.062 C 
BRANCH  10  11
HETATM   11  C6  UNL     1      23.685  -5.217 -18.385  1.00  0.00     0.017 C 
BRANCH  11  12
HETATM   12  C7  UNL     1      24.686  -4.299 -17.748  1.00  0.00     0.081 C 
BRANCH  12  13
HETATM   13  S1  UNL     1      23.929  -2.947 -16.838  1.00  0.00    -0.108 SA
BRANCH  13  14
HETATM   14  C8  UNL     1      23.933  -1.438 -17.788  1.00  0.00     0.127 A 
HETATM   15  C9  UNL     1      25.006  -0.578 -17.855  1.00  0.00     0.184 A 
HETATM   16  C10 UNL     1      24.623   0.456 -18.678  1.00  0.00     0.175 A 
HETATM   17  N5  UNL     1      23.365   0.202 -19.076  1.00  0.00    -0.173 N 
HETATM   18  N6  UNL     1      22.926  -0.935 -18.554  1.00  0.00    -0.252 N 
HETATM   19  N8  UNL     1      22.701   1.085 -19.928  1.00  0.00    -0.273 N 
HETATM   20  C11 UNL     1      21.699  -1.655 -18.644  1.00  0.00     0.255 C 
HETATM   21  C12 UNL     1      20.603  -1.014 -19.346  1.00  0.00     0.242 C 
HETATM   22  O3  UNL     1      19.445  -1.391 -19.020  1.00  0.00    -0.271 OA
HETATM   23  N7  UNL     1      20.613  -0.019 -20.350  1.00  0.00    -0.321 N 
HETATM   24  C13 UNL     1      21.470   0.877 -20.627  1.00  0.00     0.202 C 
ATOM     25  H7  UNL     1      19.792  -0.021 -20.956  1.00  0.00     0.169 HD
ATOM     26  H8  UNL     1      23.149   1.991 -20.070  1.00  0.00     0.190 HD
BRANCH  15  27
HETATM   27  N3  UNL     1      26.276  -0.739 -17.191  1.00  0.00    -0.109 N 
HETATM   28  O1  UNL     1      27.007  -1.716 -17.335  1.00  0.00    -0.532 OA
HETATM   29  O2  UNL     1      26.674   0.266 -16.355  1.00  0.00    -0.532 OA
ENDBRANCH  15  27
BRANCH  16  30
HETATM   30  N4  UNL     1      25.346   1.486 -19.007  1.00  0.00    -0.381 N 
ATOM     31  H42 UNL     1      25.559   2.292 -18.419  1.00  0.00     0.157 HD
ATOM     32  H41 UNL     1      25.807   1.639 -19.904  1.00  0.00     0.157 HD
ENDBRANCH  16  30
ENDBRANCH  13  14
ENDBRANCH  12  13
ENDBRANCH  11  12
ENDBRANCH  10  11
ENDBRANCH   6  10
BRANCH   7  33
HETATM   33  N10 UNL     1      23.260  -5.846 -14.720  1.00  0.00    -0.294 N 
ATOM     34  H10 UNL     1      22.757  -4.960 -14.661  1.00  0.00     0.187 HD
BRANCH  33  35
HETATM   35  C14 UNL     1      24.460  -5.965 -13.948  1.00  0.00     0.069 C 
HETATM   36  C15 UNL     1      24.483  -5.723 -12.670  1.00  0.00     0.140 C 
HETATM   37  N11 UNL     1      25.646  -5.826 -11.838  1.00  0.00    -0.293 N 
HETATM   38  C17 UNL     1      26.285  -6.072 -10.617  1.00  0.00     0.247 C 
HETATM   39  C19 UNL     1      26.957  -5.576 -12.412  1.00  0.00     0.182 C 
HETATM   40  O6  UNL     1      25.879  -6.286  -9.445  1.00  0.00    -0.271 OA
HETATM   41  C18 UNL     1      27.658  -5.995 -11.171  1.00  0.00     0.207 C 
HETATM   42 CL1  UNL     1      28.515  -7.542 -11.242  1.00  0.00    -0.112 Cl
HETATM   43  S2  UNL     1      27.082  -6.808 -13.771  1.00  0.00    -0.135 SA
HETATM   44  C20 UNL     1      25.645  -6.349 -14.753  1.00  0.00     0.137 C 
BRANCH  36  45
HETATM   45  C16 UNL     1      23.252  -5.316 -12.003  1.00  0.00     0.229 C 
HETATM   46  O4  UNL     1      22.894  -4.126 -11.993  1.00  0.00    -0.643 OA
HETATM   47  O5  UNL     1      22.438  -6.225 -11.358  1.00  0.00    -0.643 OA
ENDBRANCH  36  45
ENDBRANCH  33  35
ENDBRANCH   7  33
TORSDOF 10
ENDMDL
MODEL 3
REMARK VINA RESULT: -7.440191869      1.832      2.086
REMARK  10 active torsions:
REMARK  status: ('A' for Active; 'I' for Inactive)
REMARK    1  A    between atoms: C4_6  and  C5_7 
REMARK    2  A    between atoms: C5_7  and  C6_8 
REMARK    3  A    between atoms: C6_8  and  C7_9 
REMARK    4  A    between atoms: C7_9  and  S1_10 
REMARK    5  A    between atoms: S1_10  and  C8_11 
REMARK    6  A    between atoms: C9_12  and  N3_13 
REMARK    7  A    between atoms: C10_16  and  N4_17 
REMARK    8  A    between atoms: N9_30  and  N10_31 
REMARK    9  A    between atoms: N10_31  and  C14_33 
REMARK   10  A    between atoms: C15_34  and  C16_35 
ROOT
HETATM    1  N1  UNL     1      21.138 -11.348 -16.504  1.00  0.00    -0.191 NA
HETATM    2  C1  UNL     1      21.494 -10.250 -16.454  1.00  0.00     0.104 C 
HETATM    3  C2  UNL     1      21.940  -8.886 -16.369  1.00  0.00     0.111 A 
HETATM    4  C3  UNL     1      21.931  -7.983 -17.404  1.00  0.00     0.095 A 
HETATM    5  N2  UNL     1      21.488  -8.187 -18.752  1.00  0.00    -0.099 NA
HETATM    6  C4  UNL     1      22.431  -6.789 -16.937  1.00  0.00     0.061 A 
HETATM    7  N9  UNL     1      22.738  -6.966 -15.641  1.00  0.00    -0.245 N 
HETATM    8  C21 UNL     1      22.450  -8.218 -15.280  1.00  0.00     0.148 A 
HETATM    9 CL2  UNL     1      22.638  -8.991 -13.696  1.00  0.00    -0.061 Cl
ENDROOT
BRANCH   6  10
HETATM   10  C5  UNL     1      22.604  -5.535 -17.747  1.00  0.00     0.062 C 
BRANCH  10  11
HETATM   11  C6  UNL     1      24.010  -5.381 -18.277  1.00  0.00     0.017 C 
BRANCH  11  12
HETATM   12  C7  UNL     1      24.091  -4.357 -19.371  1.00  0.00     0.081 C 
BRANCH  12  13
HETATM   13  S1  UNL     1      24.457  -2.705 -18.768  1.00  0.00    -0.108 SA
BRANCH  13  14
HETATM   14  C8  UNL     1      23.023  -1.648 -18.849  1.00  0.00     0.127 A 
HETATM   15  C9  UNL     1      22.031  -1.627 -17.895  1.00  0.00     0.184 A 
HETATM   16  C10 UNL     1      21.111  -0.693 -18.312  1.00  0.00     0.175 A 
HETATM   17  N5  UNL     1      21.558  -0.187 -19.474  1.00  0.00    -0.173 N 
HETATM   18  N6  UNL     1      22.709  -0.746 -19.821  1.00  0.00    -0.252 N 
HETATM   19  N8  UNL     1      20.827   0.793 -20.146  1.00  0.00    -0.273 N 
HETATM   20  C11 UNL     1      23.594  -0.585 -20.927  1.00  0.00     0.255 C 
HETATM   21  C12 UNL     1      23.151   0.273 -22.010  1.00  0.00     0.242 C 
HETATM   22  O3  UNL     1      23.661   0.041 -23.139  1.00  0.00    -0.271 OA
HETATM   23  N7  UNL     1      22.228   1.344 -22.015  1.00  0.00    -0.321 N 
HETATM   24  C13 UNL     1      21.242   1.598 -21.254  1.00  0.00     0.202 C 
ATOM     25  H7  UNL     1      22.378   2.029 -22.755  1.00  0.00     0.169 HD
ATOM     26  H8  UNL     1      19.879   0.956 -19.805  1.00  0.00     0.190 HD
BRANCH  15  27
HETATM   27  N3  UNL     1      21.977  -2.429 -16.698  1.00  0.00    -0.109 N 
HETATM   28  O1  UNL     1      20.965  -2.999 -16.298  1.00  0.00    -0.532 OA
HETATM   29  O2  UNL     1      23.133  -2.554 -15.978  1.00  0.00    -0.532 OA
ENDBRANCH  15  27
BRANCH  16  30
HETATM   30  N4  UNL     1      20.015  -0.364 -17.695  1.00  0.00    -0.381 N 
ATOM     31  H42 UNL     1      19.931   0.272 -16.901  1.00  0.00     0.157 HD
ATOM     32  H41 UNL     1      19.075  -0.695 -17.914  1.00  0.00     0.157 HD
ENDBRANCH  16  30
ENDBRANCH  13  14
ENDBRANCH  12  13
ENDBRANCH  11  12
ENDBRANCH  10  11
ENDBRANCH   6  10
BRANCH   7  33
HETATM   33  N10 UNL     1      23.254  -5.973 -14.827  1.00  0.00    -0.294 N 
ATOM     34  H10 UNL     1      22.727  -5.101 -14.766  1.00  0.00     0.187 HD
BRANCH  33  35
HETATM   35  C14 UNL     1      24.462  -6.058 -14.063  1.00  0.00     0.069 C 
HETATM   36  C15 UNL     1      24.491  -5.787 -12.791  1.00  0.00     0.140 C 
HETATM   37  N11 UNL     1      25.662  -5.855 -11.966  1.00  0.00    -0.293 N 
HETATM   38  C17 UNL     1      26.314  -6.064 -10.745  1.00  0.00     0.247 C 
HETATM   39  C19 UNL     1      26.965  -5.600 -12.556  1.00  0.00     0.182 C 
HETATM   40  O6  UNL     1      25.921  -6.258  -9.566  1.00  0.00    -0.271 OA
HETATM   41  C18 UNL     1      27.682  -5.981 -11.312  1.00  0.00     0.207 C 
HETATM   42 CL1  UNL     1      28.559  -7.518 -11.356  1.00  0.00    -0.112 Cl
HETATM   43  S2  UNL     1      27.097  -6.861 -13.889  1.00  0.00    -0.135 SA
HETATM   44  C20 UNL     1      25.645  -6.444 -14.868  1.00  0.00     0.137 C 
BRANCH  36  45
HETATM   45  C16 UNL     1      23.260  -5.382 -12.122  1.00  0.00     0.229 C 
HETATM   46  O4  UNL     1      22.501  -6.225 -11.616  1.00  0.00    -0.643 OA
HETATM   47  O5  UNL     1      22.887  -4.057 -12.023  1.00  0.00    -0.643 OA
ENDBRANCH  36  45
ENDBRANCH  33  35
ENDBRANCH   7  33
TORSDOF 10
ENDMDL
MODEL 4
REMARK VINA RESULT: -7.328945767      2.439      2.808
REMARK  10 active torsions:
REMARK  status: ('A' for Active; 'I' for Inactive)
REMARK    1  A    between atoms: C4_6  and  C5_7 
REMARK    2  A    between atoms: C5_7  and  C6_8 
REMARK    3  A    between atoms: C6_8  and  C7_9 
REMARK    4  A    between atoms: C7_9  and  S1_10 
REMARK    5  A    between atoms: S1_10  and  C8_11 
REMARK    6  A    between atoms: C9_12  and  N3_13 
REMARK    7  A    between atoms: C10_16  and  N4_17 
REMARK    8  A    between atoms: N9_30  and  N10_31 
REMARK    9  A    between atoms: N10_31  and  C14_33 
REMARK   10  A    between atoms: C15_34  and  C16_35 
ROOT
HETATM    1  N1  UNL     1      21.160 -11.269 -16.478  1.00  0.00    -0.191 NA
HETATM    2  C1  UNL     1      21.492 -10.165 -16.420  1.00  0.00     0.104 C 
HETATM    3  C2  UNL     1      21.910  -8.793 -16.324  1.00  0.00     0.111 A 
HETATM    4  C3  UNL     1      21.851  -7.873 -17.343  1.00  0.00     0.095 A 
HETATM    5  N2  UNL     1      21.374  -8.065 -18.681  1.00  0.00    -0.099 NA
HETATM    6  C4  UNL     1      22.338  -6.676 -16.870  1.00  0.00     0.061 A 
HETATM    7  N9  UNL     1      22.686  -6.867 -15.587  1.00  0.00    -0.245 N 
HETATM    8  C21 UNL     1      22.437  -8.131 -15.239  1.00  0.00     0.148 A 
HETATM    9 CL2  UNL     1      22.688  -8.926 -13.674  1.00  0.00    -0.061 Cl
ENDROOT
BRANCH   6  10
HETATM   10  C5  UNL     1      22.460  -5.405 -17.664  1.00  0.00     0.062 C 
BRANCH  10  11
HETATM   11  C6  UNL     1      23.740  -5.345 -18.463  1.00  0.00     0.017 C 
BRANCH  11  12
HETATM   12  C7  UNL     1      24.685  -4.306 -17.936  1.00  0.00     0.081 C 
BRANCH  12  13
HETATM   13  S1  UNL     1      23.902  -3.142 -16.813  1.00  0.00    -0.108 SA
BRANCH  13  14
HETATM   14  C8  UNL     1      23.445  -1.635 -17.650  1.00  0.00     0.127 A 
HETATM   15  C9  UNL     1      22.151  -1.308 -17.987  1.00  0.00     0.184 A 
HETATM   16  C10 UNL     1      22.211  -0.083 -18.611  1.00  0.00     0.175 A 
HETATM   17  N5  UNL     1      23.502   0.289 -18.633  1.00  0.00    -0.173 N 
HETATM   18  N6  UNL     1      24.267  -0.629 -18.059  1.00  0.00    -0.252 N 
HETATM   19  N8  UNL     1      23.878   1.502 -19.210  1.00  0.00    -0.273 N 
HETATM   20  C11 UNL     1      25.668  -0.740 -17.819  1.00  0.00     0.255 C 
HETATM   21  C12 UNL     1      26.523   0.278 -18.401  1.00  0.00     0.242 C 
HETATM   22  O3  UNL     1      27.719  -0.062 -18.609  1.00  0.00    -0.271 OA
HETATM   23  N7  UNL     1      26.238   1.608 -18.783  1.00  0.00    -0.321 N 
HETATM   24  C13 UNL     1      25.146   2.160 -19.129  1.00  0.00     0.202 C 
ATOM     25  H7  UNL     1      27.045   2.232 -18.781  1.00  0.00     0.169 HD
ATOM     26  H8  UNL     1      23.161   1.978 -19.757  1.00  0.00     0.190 HD
BRANCH  15  27
HETATM   27  N3  UNL     1      20.973  -2.100 -17.733  1.00  0.00    -0.109 N 
HETATM   28  O1  UNL     1      20.128  -2.367 -18.584  1.00  0.00    -0.532 OA
HETATM   29  O2  UNL     1      20.804  -2.576 -16.462  1.00  0.00    -0.532 OA
ENDBRANCH  15  27
BRANCH  16  30
HETATM   30  N4  UNL     1      21.203   0.587 -19.089  1.00  0.00    -0.381 N 
ATOM     31  H42 UNL     1      20.248   0.584 -18.734  1.00  0.00     0.157 HD
ATOM     32  H41 UNL     1      21.223   1.214 -19.894  1.00  0.00     0.157 HD
ENDBRANCH  16  30
ENDBRANCH  13  14
ENDBRANCH  12  13
ENDBRANCH  11  12
ENDBRANCH  10  11
ENDBRANCH   6  10
BRANCH   7  33
HETATM   33  N10 UNL     1      23.204  -5.876 -14.771  1.00  0.00    -0.294 N 
ATOM     34  H10 UNL     1      22.676  -5.005 -14.705  1.00  0.00     0.187 HD
BRANCH  33  35
HETATM   35  C14 UNL     1      24.414  -5.963 -14.011  1.00  0.00     0.069 C 
HETATM   36  C15 UNL     1      24.448  -5.692 -12.739  1.00  0.00     0.140 C 
HETATM   37  N11 UNL     1      25.622  -5.762 -11.918  1.00  0.00    -0.293 N 
HETATM   38  C17 UNL     1      26.277  -5.972 -10.700  1.00  0.00     0.247 C 
HETATM   39  C19 UNL     1      26.922  -5.507 -12.513  1.00  0.00     0.182 C 
HETATM   40  O6  UNL     1      25.888  -6.166  -9.519  1.00  0.00    -0.271 OA
HETATM   41  C18 UNL     1      27.643  -5.889 -11.271  1.00  0.00     0.207 C 
HETATM   42 CL1  UNL     1      28.520  -7.426 -11.319  1.00  0.00    -0.112 Cl
HETATM   43  S2  UNL     1      27.049  -6.767 -13.846  1.00  0.00    -0.135 SA
HETATM   44  C20 UNL     1      25.595  -6.348 -14.820  1.00  0.00     0.137 C 
BRANCH  36  45
HETATM   45  C16 UNL     1      23.219  -5.287 -12.066  1.00  0.00     0.229 C 
HETATM   46  O4  UNL     1      22.921  -4.087 -11.950  1.00  0.00    -0.643 OA
HETATM   47  O5  UNL     1      22.342  -6.210 -11.533  1.00  0.00    -0.643 OA
ENDBRANCH  36  45
ENDBRANCH  33  35
ENDBRANCH   7  33
TORSDOF 10
ENDMDL
MODEL 5
REMARK VINA RESULT: -7.244668720      4.173      6.556
REMARK  10 active torsions:
REMARK  status: ('A' for Active; 'I' for Inactive)
REMARK    1  A    between atoms: C4_6  and  C5_7 
REMARK    2  A    between atoms: C5_7  and  C6_8 
REMARK    3  A    between atoms: C6_8  and  C7_9 
REMARK    4  A    between atoms: C7_9  and  S1_10 
REMARK    5  A    between atoms: S1_10  and  C8_11 
REMARK    6  A    between atoms: C9_12  and  N3_13 
REMARK    7  A    between atoms: C10_16  and  N4_17 
REMARK    8  A    between atoms: N9_30  and  N10_31 
REMARK    9  A    between atoms: N10_31  and  C14_33 
REMARK   10  A    between atoms: C15_34  and  C16_35 
ROOT
HETATM    1  N1  UNL     1      21.005 -11.201 -16.402  1.00  0.00    -0.191 NA
HETATM    2  C1  UNL     1      21.402 -10.119 -16.327  1.00  0.00     0.104 C 
HETATM    3  C2  UNL     1      21.902  -8.776 -16.210  1.00  0.00     0.111 A 
HETATM    4  C3  UNL     1      21.815  -7.811 -17.183  1.00  0.00     0.095 A 
HETATM    5  N2  UNL     1      21.224  -7.917 -18.485  1.00  0.00    -0.099 NA
HETATM    6  C4  UNL     1      22.404  -6.662 -16.703  1.00  0.00     0.061 A 
HETATM    7  N9  UNL     1      22.841  -6.929 -15.461  1.00  0.00    -0.245 N 
HETATM    8  C21 UNL     1      22.549  -8.193 -15.145  1.00  0.00     0.148 A 
HETATM    9 CL2  UNL     1      22.878  -9.068 -13.640  1.00  0.00    -0.061 Cl
ENDROOT
BRANCH   6  10
HETATM   10  C5  UNL     1      22.534  -5.366 -17.452  1.00  0.00     0.062 C 
BRANCH  10  11
HETATM   11  C6  UNL     1      23.549  -5.444 -18.568  1.00  0.00     0.017 C 
BRANCH  11  12
HETATM   12  C7  UNL     1      24.874  -5.960 -18.089  1.00  0.00     0.081 C 
BRANCH  12  13
HETATM   13  S1  UNL     1      25.668  -7.065 -19.263  1.00  0.00    -0.108 SA
BRANCH  13  14
HETATM   14  C8  UNL     1      24.719  -8.555 -19.502  1.00  0.00     0.127 A 
HETATM   15  C9  UNL     1      23.934  -8.795 -20.607  1.00  0.00     0.184 A 
HETATM   16  C10 UNL     1      23.371 -10.037 -20.420  1.00  0.00     0.175 A 
HETATM   17  N5  UNL     1      23.819 -10.503 -19.242  1.00  0.00    -0.173 N 
HETATM   18  N6  UNL     1      24.633  -9.629 -18.668  1.00  0.00    -0.252 N 
HETATM   19  N8  UNL     1      23.415 -11.755 -18.778  1.00  0.00    -0.273 N 
HETATM   20  C11 UNL     1      25.366  -9.615 -17.445  1.00  0.00     0.255 C 
HETATM   21  C12 UNL     1      25.131 -10.707 -16.519  1.00  0.00     0.242 C 
HETATM   22  O3  UNL     1      25.372 -10.461 -15.306  1.00  0.00    -0.271 OA
HETATM   23  N7  UNL     1      24.668 -12.023 -16.749  1.00  0.00    -0.321 N 
HETATM   24  C13 UNL     1      23.949 -12.502 -17.681  1.00  0.00     0.202 C 
ATOM     25  H7  UNL     1      24.961 -12.703 -16.048  1.00  0.00     0.169 HD
ATOM     26  H8  UNL     1      22.643 -12.191 -19.283  1.00  0.00     0.190 HD
BRANCH  15  27
HETATM   27  N3  UNL     1      23.746  -7.913 -21.731  1.00  0.00    -0.109 N 
HETATM   28  O1  UNL     1      23.353  -6.752 -21.636  1.00  0.00    -0.532 OA
HETATM   29  O2  UNL     1      24.028  -8.414 -22.972  1.00  0.00    -0.532 OA
ENDBRANCH  15  27
BRANCH  16  30
HETATM   30  N4  UNL     1      22.559 -10.644 -21.235  1.00  0.00    -0.381 N 
ATOM     31  H42 UNL     1      21.563 -10.458 -21.351  1.00  0.00     0.157 HD
ATOM     32  H41 UNL     1      22.800 -11.397 -21.879  1.00  0.00     0.157 HD
ENDBRANCH  16  30
ENDBRANCH  13  14
ENDBRANCH  12  13
ENDBRANCH  11  12
ENDBRANCH  10  11
ENDBRANCH   6  10
BRANCH   7  33
HETATM   33  N10 UNL     1      23.476  -6.004 -14.650  1.00  0.00    -0.294 N 
ATOM     34  H10 UNL     1      23.135  -5.043 -14.686  1.00  0.00     0.187 HD
BRANCH  33  35
HETATM   35  C14 UNL     1      24.569  -6.274 -13.767  1.00  0.00     0.069 C 
HETATM   36  C15 UNL     1      24.481  -6.074 -12.484  1.00  0.00     0.140 C 
HETATM   37  N11 UNL     1      25.533  -6.326 -11.542  1.00  0.00    -0.293 N 
HETATM   38  C17 UNL     1      26.011  -6.675 -10.274  1.00  0.00     0.247 C 
HETATM   39  C19 UNL     1      26.916  -6.200 -11.969  1.00  0.00     0.182 C 
HETATM   40  O6  UNL     1      25.463  -6.881  -9.160  1.00  0.00    -0.271 OA
HETATM   41  C18 UNL     1      27.435  -6.729 -10.681  1.00  0.00     0.207 C 
HETATM   42 CL1  UNL     1      28.131  -8.356 -10.729  1.00  0.00    -0.112 Cl
HETATM   43  S2  UNL     1      27.057  -7.397 -13.358  1.00  0.00    -0.135 SA
HETATM   44  C20 UNL     1      25.786  -6.758 -14.461  1.00  0.00     0.137 C 
BRANCH  36  45
HETATM   45  C16 UNL     1      23.236  -5.559 -11.929  1.00  0.00     0.229 C 
HETATM   46  O4  UNL     1      22.943  -4.355 -12.027  1.00  0.00    -0.643 OA
HETATM   47  O5  UNL     1      22.335  -6.376 -11.277  1.00  0.00    -0.643 OA
ENDBRANCH  36  45
ENDBRANCH  33  35
ENDBRANCH   7  33
TORSDOF 10
ENDMDL
