MODEL 1
REMARK VINA RESULT: -8.261991925      0.000      0.000
REMARK  4 active torsions:
REMARK  status: ('A' for Active; 'I' for Inactive)
REMARK       I    between atoms: C1_2  and  N1_3 
REMARK    1  A    between atoms: C1_2  and  C6_16 
REMARK    2  A    between atoms: N1_3  and  C2_5 
REMARK    3  A    between atoms: C4_8  and  N2_9 
REMARK    4  A    between atoms: C5_12  and  N3_13 
ROOT
HETATM    1  C2  UNL     1     -43.283  30.491  -0.759  1.00  0.00     0.112 A 
HETATM    2  S1  UNL     1     -44.377  31.615  -0.112  1.00  0.00    -0.079 SA
HETATM    3  C3  UNL     1     -43.619  33.058  -0.606  1.00  0.00     0.090 A 
HETATM    4  C4  UNL     1     -42.507  32.614  -1.280  1.00  0.00     0.145 A 
HETATM    5  C5  UNL     1     -42.336  31.275  -1.356  1.00  0.00     0.170 A 
ENDROOT
BRANCH   1   6
HETATM    6  N1  UNL     1     -43.343  29.062  -0.683  1.00  0.00    -0.319 N 
HETATM    7  C1  UNL     1     -44.083  28.357  -1.682  1.00  0.00     0.226 C 
HETATM    8  O1  UNL     1     -44.652  28.989  -2.580  1.00  0.00    -0.273 OA
ATOM      9  H1  UNL     1     -42.868  28.559   0.067  1.00  0.00     0.169 HD
BRANCH   7  10
HETATM   10  C6  UNL     1     -44.170  26.866  -1.650  1.00  0.00     0.078 C 
HETATM   11  C7  UNL     1     -42.842  26.223  -1.894  1.00  0.00     0.014 C 
HETATM   12  C8  UNL     1     -41.971  26.115  -0.674  1.00  0.00     0.001 C 
HETATM   13  C9  UNL     1     -42.398  25.073   0.302  1.00  0.00     0.000 C 
HETATM   14  C10 UNL     1     -43.569  24.253  -0.156  1.00  0.00     0.000 C 
HETATM   15  C11 UNL     1     -44.861  24.987  -0.237  1.00  0.00     0.001 C 
HETATM   16  C12 UNL     1     -44.754  26.470  -0.313  1.00  0.00     0.014 C 
ENDBRANCH   7  10
ENDBRANCH   1   6
BRANCH   5  17
HETATM   17  N3  UNL     1     -41.203  30.637  -2.016  1.00  0.00    -0.110 N 
HETATM   18  O4  UNL     1     -41.407  29.972  -3.057  1.00  0.00    -0.532 OA
HETATM   19  O5  UNL     1     -39.928  30.752  -1.525  1.00  0.00    -0.532 OA
ENDBRANCH   5  17
BRANCH   4  20
HETATM   20  N2  UNL     1     -41.608  33.593  -1.871  1.00  0.00    -0.113 N 
HETATM   21  O2  UNL     1     -41.138  34.477  -1.165  1.00  0.00    -0.532 OA
HETATM   22  O3  UNL     1     -41.321  33.497  -3.194  1.00  0.00    -0.532 OA
ENDBRANCH   4  20
TORSDOF 4
ENDMDL
MODEL 2
REMARK VINA RESULT: -8.106437380      0.870      1.011
REMARK  4 active torsions:
REMARK  status: ('A' for Active; 'I' for Inactive)
REMARK       I    between atoms: C1_2  and  N1_3 
REMARK    1  A    between atoms: C1_2  and  C6_16 
REMARK    2  A    between atoms: N1_3  and  C2_5 
REMARK    3  A    between atoms: C4_8  and  N2_9 
REMARK    4  A    between atoms: C5_12  and  N3_13 
ROOT
HETATM    1  C2  UNL     1     -43.569  31.014  -0.573  1.00  0.00     0.112 A 
HETATM    2  S1  UNL     1     -44.643  31.958   0.340  1.00  0.00    -0.079 SA
HETATM    3  C3  UNL     1     -44.100  33.509  -0.105  1.00  0.00     0.090 A 
HETATM    4  C4  UNL     1     -43.071  33.244  -0.977  1.00  0.00     0.145 A 
HETATM    5  C5  UNL     1     -42.798  31.941  -1.217  1.00  0.00     0.170 A 
ENDROOT
BRANCH   1   6
HETATM    6  N1  UNL     1     -43.492  29.586  -0.638  1.00  0.00    -0.319 N 
HETATM    7  C1  UNL     1     -44.278  28.905  -1.619  1.00  0.00     0.226 C 
HETATM    8  O1  UNL     1     -45.004  29.556  -2.380  1.00  0.00    -0.273 OA
ATOM      9  H1  UNL     1     -42.889  29.066  -0.000  1.00  0.00     0.169 HD
BRANCH   7  10
HETATM   10  C6  UNL     1     -44.227  27.416  -1.731  1.00  0.00     0.078 C 
HETATM   11  C7  UNL     1     -42.844  26.924  -2.016  1.00  0.00     0.014 C 
HETATM   12  C8  UNL     1     -41.974  26.778  -0.799  1.00  0.00     0.001 C 
HETATM   13  C9  UNL     1     -42.310  25.611   0.066  1.00  0.00     0.000 C 
HETATM   14  C10 UNL     1     -43.397  24.736  -0.485  1.00  0.00     0.000 C 
HETATM   15  C11 UNL     1     -44.750  25.354  -0.515  1.00  0.00     0.001 C 
HETATM   16  C12 UNL     1     -44.781  26.841  -0.447  1.00  0.00     0.014 C 
ENDBRANCH   7  10
ENDBRANCH   1   6
BRANCH   5  17
HETATM   17  N3  UNL     1     -41.729  31.484  -2.098  1.00  0.00    -0.110 N 
HETATM   18  O4  UNL     1     -42.030  31.035  -3.227  1.00  0.00    -0.532 OA
HETATM   19  O5  UNL     1     -40.413  31.537  -1.718  1.00  0.00    -0.532 OA
ENDBRANCH   5  17
BRANCH   4  20
HETATM   20  N2  UNL     1     -42.363  34.358  -1.587  1.00  0.00    -0.113 N 
HETATM   21  O2  UNL     1     -42.935  35.044  -2.425  1.00  0.00    -0.532 OA
HETATM   22  O3  UNL     1     -41.081  34.600  -1.210  1.00  0.00    -0.532 OA
ENDBRANCH   4  20
TORSDOF 4
ENDMDL
MODEL 3
REMARK VINA RESULT: -7.705619741      2.778      6.730
REMARK  4 active torsions:
REMARK  status: ('A' for Active; 'I' for Inactive)
REMARK       I    between atoms: C1_2  and  N1_3 
REMARK    1  A    between atoms: C1_2  and  C6_16 
REMARK    2  A    between atoms: N1_3  and  C2_5 
REMARK    3  A    between atoms: C4_8  and  N2_9 
REMARK    4  A    between atoms: C5_12  and  N3_13 
ROOT
HETATM    1  C2  UNL     1     -43.562  31.244  -1.403  1.00  0.00     0.112 A 
HETATM    2  S1  UNL     1     -43.951  30.123  -0.192  1.00  0.00    -0.079 SA
HETATM    3  C3  UNL     1     -42.568  29.132  -0.272  1.00  0.00     0.090 A 
HETATM    4  C4  UNL     1     -41.820  29.718  -1.265  1.00  0.00     0.145 A 
HETATM    5  C5  UNL     1     -42.343  30.818  -1.852  1.00  0.00     0.170 A 
ENDROOT
BRANCH   1   6
HETATM    6  N1  UNL     1     -44.337  32.362  -1.848  1.00  0.00    -0.319 N 
HETATM    7  C1  UNL     1     -44.139  33.627  -1.211  1.00  0.00     0.226 C 
HETATM    8  O1  UNL     1     -43.312  33.727  -0.296  1.00  0.00    -0.273 OA
ATOM      9  H1  UNL     1     -45.016  32.259  -2.603  1.00  0.00     0.169 HD
BRANCH   7  10
HETATM   10  C6  UNL     1     -44.919  34.825  -1.644  1.00  0.00     0.078 C 
HETATM   11  C7  UNL     1     -44.223  35.584  -2.727  1.00  0.00     0.014 C 
HETATM   12  C8  UNL     1     -44.449  35.041  -4.110  1.00  0.00     0.001 C 
HETATM   13  C9  UNL     1     -45.805  35.311  -4.668  1.00  0.00     0.000 C 
HETATM   14  C10 UNL     1     -46.670  36.160  -3.783  1.00  0.00     0.000 C 
HETATM   15  C11 UNL     1     -47.103  35.513  -2.515  1.00  0.00     0.001 C 
HETATM   16  C12 UNL     1     -46.288  34.348  -2.075  1.00  0.00     0.014 C 
ENDBRANCH   7  10
ENDBRANCH   1   6
BRANCH   5  17
HETATM   17  N3  UNL     1     -41.692  31.549  -2.933  1.00  0.00    -0.110 N 
HETATM   18  O4  UNL     1     -41.143  32.645  -2.675  1.00  0.00    -0.532 OA
HETATM   19  O5  UNL     1     -41.665  31.063  -4.215  1.00  0.00    -0.532 OA
ENDBRANCH   5  17
BRANCH   4  20
HETATM   20  N2  UNL     1     -40.531  29.138  -1.606  1.00  0.00    -0.113 N 
HETATM   21  O2  UNL     1     -40.485  28.206  -2.400  1.00  0.00    -0.532 OA
HETATM   22  O3  UNL     1     -39.414  29.648  -1.027  1.00  0.00    -0.532 OA
ENDBRANCH   4  20
TORSDOF 4
ENDMDL
MODEL 4
REMARK VINA RESULT: -7.531351963      2.159      2.686
REMARK  4 active torsions:
REMARK  status: ('A' for Active; 'I' for Inactive)
REMARK       I    between atoms: C1_2  and  N1_3 
REMARK    1  A    between atoms: C1_2  and  C6_16 
REMARK    2  A    between atoms: N1_3  and  C2_5 
REMARK    3  A    between atoms: C4_8  and  N2_9 
REMARK    4  A    between atoms: C5_12  and  N3_13 
ROOT
HETATM    1  C2  UNL     1     -43.031  30.703  -1.852  1.00  0.00     0.112 A 
HETATM    2  S1  UNL     1     -41.492  31.409  -1.961  1.00  0.00    -0.079 SA
HETATM    3  C3  UNL     1     -41.874  32.990  -1.456  1.00  0.00     0.090 A 
HETATM    4  C4  UNL     1     -43.224  32.923  -1.209  1.00  0.00     0.145 A 
HETATM    5  C5  UNL     1     -43.822  31.729  -1.417  1.00  0.00     0.170 A 
ENDROOT
BRANCH   1   6
HETATM    6  N1  UNL     1     -43.402  29.353  -2.155  1.00  0.00    -0.319 N 
HETATM    7  C1  UNL     1     -43.550  28.428  -1.075  1.00  0.00     0.226 C 
HETATM    8  O1  UNL     1     -43.353  28.807   0.085  1.00  0.00    -0.273 OA
ATOM      9  H1  UNL     1     -43.557  29.059  -3.119  1.00  0.00     0.169 HD
BRANCH   7  10
HETATM   10  C6  UNL     1     -43.942  27.011  -1.340  1.00  0.00     0.078 C 
HETATM   11  C7  UNL     1     -42.757  26.149  -1.638  1.00  0.00     0.014 C 
HETATM   12  C8  UNL     1     -42.041  25.635  -0.421  1.00  0.00     0.001 C 
HETATM   13  C9  UNL     1     -42.760  24.553   0.310  1.00  0.00     0.000 C 
HETATM   14  C10 UNL     1     -44.027  24.104  -0.357  1.00  0.00     0.000 C 
HETATM   15  C11 UNL     1     -45.128  25.105  -0.358  1.00  0.00     0.001 C 
HETATM   16  C12 UNL     1     -44.714  26.518  -0.137  1.00  0.00     0.014 C 
ENDBRANCH   7  10
ENDBRANCH   1   6
BRANCH   5  17
HETATM   17  N3  UNL     1     -45.248  31.489  -1.223  1.00  0.00    -0.110 N 
HETATM   18  O4  UNL     1     -45.950  31.194  -2.216  1.00  0.00    -0.532 OA
HETATM   19  O5  UNL     1     -45.828  31.577   0.016  1.00  0.00    -0.532 OA
ENDBRANCH   5  17
BRANCH   4  20
HETATM   20  N2  UNL     1     -43.910  34.115  -0.733  1.00  0.00    -0.113 N 
HETATM   21  O2  UNL     1     -44.494  34.830  -1.537  1.00  0.00    -0.532 OA
HETATM   22  O3  UNL     1     -43.875  34.400   0.593  1.00  0.00    -0.532 OA
ENDBRANCH   4  20
TORSDOF 4
ENDMDL
MODEL 5
REMARK VINA RESULT: -7.486445392      1.731      2.342
REMARK  4 active torsions:
REMARK  status: ('A' for Active; 'I' for Inactive)
REMARK       I    between atoms: C1_2  and  N1_3 
REMARK    1  A    between atoms: C1_2  and  C6_16 
REMARK    2  A    between atoms: N1_3  and  C2_5 
REMARK    3  A    between atoms: C4_8  and  N2_9 
REMARK    4  A    between atoms: C5_12  and  N3_13 
ROOT
HETATM    1  C2  UNL     1     -43.707  31.239  -1.487  1.00  0.00     0.112 A 
HETATM    2  S1  UNL     1     -45.382  31.504  -1.534  1.00  0.00    -0.079 SA
HETATM    3  C3  UNL     1     -45.403  33.022  -2.305  1.00  0.00     0.090 A 
HETATM    4  C4  UNL     1     -44.071  33.288  -2.512  1.00  0.00     0.145 A 
HETATM    5  C5  UNL     1     -43.191  32.356  -2.083  1.00  0.00     0.170 A 
ENDROOT
BRANCH   1   6
HETATM    6  N1  UNL     1     -43.010  30.113  -0.941  1.00  0.00    -0.319 N 
HETATM    7  C1  UNL     1     -42.723  29.007  -1.801  1.00  0.00     0.226 C 
HETATM    8  O1  UNL     1     -43.082  29.043  -2.984  1.00  0.00    -0.273 OA
ATOM      9  H1  UNL     1     -42.724  30.101   0.038  1.00  0.00     0.169 HD
BRANCH   7  10
HETATM   10  C6  UNL     1     -41.993  27.812  -1.280  1.00  0.00     0.078 C 
HETATM   11  C7  UNL     1     -42.527  27.362   0.042  1.00  0.00     0.014 C 
HETATM   12  C8  UNL     1     -43.739  26.477  -0.047  1.00  0.00     0.001 C 
HETATM   13  C9  UNL     1     -43.459  25.089  -0.510  1.00  0.00     0.000 C 
HETATM   14  C10 UNL     1     -42.001  24.795  -0.713  1.00  0.00     0.000 C 
HETATM   15  C11 UNL     1     -41.366  25.514  -1.851  1.00  0.00     0.001 C 
HETATM   16  C12 UNL     1     -42.085  26.727  -2.328  1.00  0.00     0.014 C 
ENDBRANCH   7  10
ENDBRANCH   1   6
BRANCH   5  17
HETATM   17  N3  UNL     1     -41.743  32.487  -2.206  1.00  0.00    -0.110 N 
HETATM   18  O4  UNL     1     -41.067  32.692  -1.172  1.00  0.00    -0.532 OA
HETATM   19  O5  UNL     1     -41.114  32.389  -3.419  1.00  0.00    -0.532 OA
ENDBRANCH   5  17
BRANCH   4  20
HETATM   20  N2  UNL     1     -43.698  34.525  -3.180  1.00  0.00    -0.113 N 
HETATM   21  O2  UNL     1     -43.470  35.523  -2.508  1.00  0.00    -0.532 OA
HETATM   22  O3  UNL     1     -43.620  34.535  -4.535  1.00  0.00    -0.532 OA
ENDBRANCH   4  20
TORSDOF 4
ENDMDL
