MODEL 1
REMARK VINA RESULT: -7.983018142      0.000      0.000
REMARK  4 active torsions:
REMARK  status: ('A' for Active; 'I' for Inactive)
REMARK    1  A    between atoms: C4_5  and  N2_6 
REMARK    2  A    between atoms: C5_8  and  C6_9 
REMARK    3  A    between atoms: C5_8  and  N4_19 
REMARK    4  A    between atoms: C6_9  and  N3_16 
ROOT
HETATM    1  N2  UNL     1     -43.289  28.420  -2.287  1.00  0.00    -0.336 N 
ATOM      2  H2  UNL     1     -43.727  28.526  -3.202  1.00  0.00     0.168 HD
HETATM    3  C5  UNL     1     -42.723  29.423  -1.747  1.00  0.00     0.209 C 
ENDROOT
BRANCH   3   4
HETATM    4  C6  UNL     1     -42.691  30.702  -2.408  1.00  0.00     0.169 C 
HETATM    5  C7  UNL     1     -43.525  31.690  -2.301  1.00  0.00     0.037 C 
HETATM    6  C8  UNL     1     -44.711  31.710  -1.459  1.00  0.00     0.017 C 
HETATM    7  S1  UNL     1     -43.224  33.202  -3.242  1.00  0.00    -0.127 SA
HETATM    8  C9  UNL     1     -44.985  32.808  -0.751  1.00  0.00    -0.024 C 
HETATM    9  C10 UNL     1     -44.123  33.999  -0.794  1.00  0.00     0.037 C 
HETATM   10  C11 UNL     1     -43.928  34.543  -2.215  1.00  0.00     0.083 C 
BRANCH   4  11
HETATM   11  N3  UNL     1     -41.586  30.917  -3.319  1.00  0.00    -0.110 N 
HETATM   12  O1  UNL     1     -41.665  30.409  -4.440  1.00  0.00    -0.532 OA
HETATM   13  O2  UNL     1     -40.546  31.667  -2.859  1.00  0.00    -0.532 OA
ENDBRANCH   4  11
ENDBRANCH   3   4
BRANCH   3  14
HETATM   14  N4  UNL     1     -42.118  29.265  -0.474  1.00  0.00    -0.095 N 
HETATM   15  O3  UNL     1     -42.757  29.230   0.595  1.00  0.00    -0.530 OA
HETATM   16  O4  UNL     1     -40.738  29.143  -0.449  1.00  0.00    -0.530 OA
ENDBRANCH   3  14
BRANCH   1  17
HETATM   17  C4  UNL     1     -43.325  27.174  -1.650  1.00  0.00     0.034 A 
HETATM   18  C3  UNL     1     -44.505  26.737  -1.071  1.00  0.00     0.031 A 
HETATM   19  C2  UNL     1     -44.532  25.513  -0.449  1.00  0.00     0.029 A 
HETATM   20  C1  UNL     1     -43.447  24.670  -0.356  1.00  0.00     0.046 A 
HETATM   21  N1  UNL     1     -43.537  23.418   0.301  1.00  0.00    -0.102 NA
HETATM   22  C13 UNL     1     -42.272  25.121  -0.940  1.00  0.00     0.029 A 
HETATM   23  C12 UNL     1     -42.223  26.347  -1.570  1.00  0.00     0.031 A 
ENDBRANCH   1  17
TORSDOF 4
ENDMDL
MODEL 2
REMARK VINA RESULT: -7.982801316      0.315      1.053
REMARK  4 active torsions:
REMARK  status: ('A' for Active; 'I' for Inactive)
REMARK    1  A    between atoms: C4_5  and  N2_6 
REMARK    2  A    between atoms: C5_8  and  C6_9 
REMARK    3  A    between atoms: C5_8  and  N4_19 
REMARK    4  A    between atoms: C6_9  and  N3_16 
ROOT
HETATM    1  N2  UNL     1     -43.444  28.411  -2.290  1.00  0.00    -0.336 N 
ATOM      2  H2  UNL     1     -43.724  28.488  -3.268  1.00  0.00     0.168 HD
HETATM    3  C5  UNL     1     -43.006  29.440  -1.684  1.00  0.00     0.209 C 
ENDROOT
BRANCH   3   4
HETATM    4  C6  UNL     1     -42.900  30.709  -2.357  1.00  0.00     0.169 C 
HETATM    5  C7  UNL     1     -43.711  31.720  -2.312  1.00  0.00     0.037 C 
HETATM    6  C8  UNL     1     -44.945  31.782  -1.543  1.00  0.00     0.017 C 
HETATM    7  S1  UNL     1     -43.313  33.211  -3.251  1.00  0.00    -0.127 SA
HETATM    8  C9  UNL     1     -45.230  32.896  -0.866  1.00  0.00    -0.024 C 
HETATM    9  C10 UNL     1     -44.335  34.064  -0.871  1.00  0.00     0.037 C 
HETATM   10  C11 UNL     1     -44.041  34.583  -2.283  1.00  0.00     0.083 C 
BRANCH   4  11
HETATM   11  N3  UNL     1     -41.736  30.883  -3.202  1.00  0.00    -0.110 N 
HETATM   12  O1  UNL     1     -41.780  30.403  -4.337  1.00  0.00    -0.532 OA
HETATM   13  O2  UNL     1     -40.685  31.565  -2.669  1.00  0.00    -0.532 OA
ENDBRANCH   4  11
ENDBRANCH   3   4
BRANCH   3  14
HETATM   14  N4  UNL     1     -42.620  29.321  -0.324  1.00  0.00    -0.095 N 
HETATM   15  O3  UNL     1     -43.414  29.417   0.630  1.00  0.00    -0.530 OA
HETATM   16  O4  UNL     1     -41.278  29.083  -0.075  1.00  0.00    -0.530 OA
ENDBRANCH   3  14
BRANCH   1  17
HETATM   17  C4  UNL     1     -43.551  27.175  -1.643  1.00  0.00     0.034 A 
HETATM   18  C3  UNL     1     -42.428  26.376  -1.507  1.00  0.00     0.031 A 
HETATM   19  C2  UNL     1     -42.540  25.165  -0.870  1.00  0.00     0.029 A 
HETATM   20  C1  UNL     1     -43.716  24.676  -0.344  1.00  0.00     0.046 A 
HETATM   21  N1  UNL     1     -43.769  23.416   0.302  1.00  0.00    -0.102 NA
HETATM   22  C13 UNL     1     -44.832  25.487  -0.487  1.00  0.00     0.029 A 
HETATM   23  C12 UNL     1     -44.741  26.707  -1.123  1.00  0.00     0.031 A 
ENDBRANCH   1  17
TORSDOF 4
ENDMDL
MODEL 3
REMARK VINA RESULT: -7.840103221      1.430      1.629
REMARK  4 active torsions:
REMARK  status: ('A' for Active; 'I' for Inactive)
REMARK    1  A    between atoms: C4_5  and  N2_6 
REMARK    2  A    between atoms: C5_8  and  C6_9 
REMARK    3  A    between atoms: C5_8  and  N4_19 
REMARK    4  A    between atoms: C6_9  and  N3_16 
ROOT
HETATM    1  N2  UNL     1     -43.178  28.872  -0.549  1.00  0.00    -0.336 N 
ATOM      2  H2  UNL     1     -43.411  29.452   0.257  1.00  0.00     0.168 HD
HETATM    3  C5  UNL     1     -42.798  29.429  -1.628  1.00  0.00     0.209 C 
ENDROOT
BRANCH   3   4
HETATM    4  C6  UNL     1     -42.693  30.862  -1.727  1.00  0.00     0.169 C 
HETATM    5  C7  UNL     1     -43.545  31.764  -1.348  1.00  0.00     0.037 C 
HETATM    6  C8  UNL     1     -44.832  31.505  -0.723  1.00  0.00     0.017 C 
HETATM    7  S1  UNL     1     -43.138  33.509  -1.576  1.00  0.00    -0.127 SA
HETATM    8  C9  UNL     1     -45.210  32.251   0.317  1.00  0.00    -0.024 C 
HETATM    9  C10 UNL     1     -44.364  33.328   0.853  1.00  0.00     0.037 C 
HETATM   10  C11 UNL     1     -43.988  34.373  -0.204  1.00  0.00     0.083 C 
BRANCH   4  11
HETATM   11  N3  UNL     1     -41.479  31.368  -2.332  1.00  0.00    -0.110 N 
HETATM   12  O1  UNL     1     -41.496  31.587  -3.546  1.00  0.00    -0.532 OA
HETATM   13  O2  UNL     1     -40.413  31.561  -1.507  1.00  0.00    -0.532 OA
ENDBRANCH   4  11
ENDBRANCH   3   4
BRANCH   3  14
HETATM   14  N4  UNL     1     -42.477  28.613  -2.743  1.00  0.00    -0.095 N 
HETATM   15  O3  UNL     1     -43.314  28.231  -3.583  1.00  0.00    -0.530 OA
HETATM   16  O4  UNL     1     -41.150  28.238  -2.881  1.00  0.00    -0.530 OA
ENDBRANCH   3  14
BRANCH   1  17
HETATM   17  C4  UNL     1     -43.283  27.481  -0.446  1.00  0.00     0.034 A 
HETATM   18  C3  UNL     1     -44.520  26.876  -0.595  1.00  0.00     0.031 A 
HETATM   19  C2  UNL     1     -44.614  25.510  -0.493  1.00  0.00     0.029 A 
HETATM   20  C1  UNL     1     -43.544  24.679  -0.246  1.00  0.00     0.046 A 
HETATM   21  N1  UNL     1     -43.705  23.274  -0.151  1.00  0.00    -0.102 NA
HETATM   22  C13 UNL     1     -42.311  25.298  -0.100  1.00  0.00     0.029 A 
HETATM   23  C12 UNL     1     -42.194  26.669  -0.199  1.00  0.00     0.031 A 
ENDBRANCH   1  17
TORSDOF 4
ENDMDL
MODEL 4
REMARK VINA RESULT: -7.808325714      1.392      2.005
REMARK  4 active torsions:
REMARK  status: ('A' for Active; 'I' for Inactive)
REMARK    1  A    between atoms: C4_5  and  N2_6 
REMARK    2  A    between atoms: C5_8  and  C6_9 
REMARK    3  A    between atoms: C5_8  and  N4_19 
REMARK    4  A    between atoms: C6_9  and  N3_16 
ROOT
HETATM    1  N2  UNL     1     -43.205  28.763  -0.502  1.00  0.00    -0.336 N 
ATOM      2  H2  UNL     1     -43.407  29.340   0.314  1.00  0.00     0.168 HD
HETATM    3  C5  UNL     1     -42.831  29.320  -1.583  1.00  0.00     0.209 C 
ENDROOT
BRANCH   3   4
HETATM    4  C6  UNL     1     -42.691  30.751  -1.670  1.00  0.00     0.169 C 
HETATM    5  C7  UNL     1     -43.541  31.670  -1.330  1.00  0.00     0.037 C 
HETATM    6  C8  UNL     1     -44.864  31.436  -0.772  1.00  0.00     0.017 C 
HETATM    7  S1  UNL     1     -43.087  33.407  -1.530  1.00  0.00    -0.127 SA
HETATM    8  C9  UNL     1     -45.277  32.187   0.252  1.00  0.00    -0.024 C 
HETATM    9  C10 UNL     1     -44.436  33.244   0.834  1.00  0.00     0.037 C 
HETATM   10  C11 UNL     1     -43.985  34.284  -0.199  1.00  0.00     0.083 C 
BRANCH   4  11
HETATM   11  N3  UNL     1     -41.437  31.233  -2.211  1.00  0.00    -0.110 N 
HETATM   12  O1  UNL     1     -40.482  31.329  -1.436  1.00  0.00    -0.532 OA
HETATM   13  O2  UNL     1     -41.417  31.541  -3.537  1.00  0.00    -0.532 OA
ENDBRANCH   4  11
ENDBRANCH   3   4
BRANCH   3  14
HETATM   14  N4  UNL     1     -42.552  28.508  -2.711  1.00  0.00    -0.095 N 
HETATM   15  O3  UNL     1     -43.414  28.155  -3.538  1.00  0.00    -0.530 OA
HETATM   16  O4  UNL     1     -41.238  28.101  -2.878  1.00  0.00    -0.530 OA
ENDBRANCH   3  14
BRANCH   1  17
HETATM   17  C4  UNL     1     -43.343  27.374  -0.410  1.00  0.00     0.034 A 
HETATM   18  C3  UNL     1     -42.226  26.591  -0.166  1.00  0.00     0.031 A 
HETATM   19  C2  UNL     1     -42.370  25.229  -0.076  1.00  0.00     0.029 A 
HETATM   20  C1  UNL     1     -43.572  24.568  -0.214  1.00  0.00     0.046 A 
HETATM   21  N1  UNL     1     -43.656  23.158  -0.111  1.00  0.00    -0.102 NA
HETATM   22  C13 UNL     1     -44.681  25.365  -0.457  1.00  0.00     0.029 A 
HETATM   23  C12 UNL     1     -44.559  26.735  -0.551  1.00  0.00     0.031 A 
ENDBRANCH   1  17
TORSDOF 4
ENDMDL
MODEL 5
REMARK VINA RESULT: -7.681892277      1.400      1.721
REMARK  4 active torsions:
REMARK  status: ('A' for Active; 'I' for Inactive)
REMARK    1  A    between atoms: C4_5  and  N2_6 
REMARK    2  A    between atoms: C5_8  and  C6_9 
REMARK    3  A    between atoms: C5_8  and  N4_19 
REMARK    4  A    between atoms: C6_9  and  N3_16 
ROOT
HETATM    1  N2  UNL     1     -43.152  29.317  -0.876  1.00  0.00    -0.336 N 
ATOM      2  H2  UNL     1     -43.403  29.953  -0.119  1.00  0.00     0.168 HD
HETATM    3  C5  UNL     1     -42.740  29.797  -1.981  1.00  0.00     0.209 C 
ENDROOT
BRANCH   3   4
HETATM    4  C6  UNL     1     -42.623  31.219  -2.175  1.00  0.00     0.169 C 
HETATM    5  C7  UNL     1     -43.567  32.104  -2.265  1.00  0.00     0.037 C 
HETATM    6  C8  UNL     1     -44.994  31.832  -2.187  1.00  0.00     0.017 C 
HETATM    7  S1  UNL     1     -43.126  33.841  -2.489  1.00  0.00    -0.127 SA
HETATM    8  C9  UNL     1     -45.771  32.646  -1.469  1.00  0.00    -0.024 C 
HETATM    9  C10 UNL     1     -45.228  33.810  -0.752  1.00  0.00     0.037 C 
HETATM   10  C11 UNL     1     -44.470  34.776  -1.670  1.00  0.00     0.083 C 
BRANCH   4  11
HETATM   11  N3  UNL     1     -41.275  31.734  -2.290  1.00  0.00    -0.110 N 
HETATM   12  O1  UNL     1     -40.671  31.987  -1.244  1.00  0.00    -0.532 OA
HETATM   13  O2  UNL     1     -40.782  31.896  -3.549  1.00  0.00    -0.532 OA
ENDBRANCH   4  11
ENDBRANCH   3   4
BRANCH   3  14
HETATM   14  N4  UNL     1     -42.395  28.904  -3.028  1.00  0.00    -0.095 N 
HETATM   15  O3  UNL     1     -43.212  28.463  -3.857  1.00  0.00    -0.530 OA
HETATM   16  O4  UNL     1     -41.066  28.521  -3.108  1.00  0.00    -0.530 OA
ENDBRANCH   3  14
BRANCH   1  17
HETATM   17  C4  UNL     1     -43.268  27.937  -0.680  1.00  0.00     0.034 A 
HETATM   18  C3  UNL     1     -44.503  27.327  -0.830  1.00  0.00     0.031 A 
HETATM   19  C2  UNL     1     -44.609  25.973  -0.636  1.00  0.00     0.029 A 
HETATM   20  C1  UNL     1     -43.553  25.157  -0.295  1.00  0.00     0.046 A 
HETATM   21  N1  UNL     1     -43.725  23.763  -0.108  1.00  0.00    -0.102 NA
HETATM   22  C13 UNL     1     -42.322  25.781  -0.149  1.00  0.00     0.029 A 
HETATM   23  C12 UNL     1     -42.194  27.141  -0.339  1.00  0.00     0.031 A 
ENDBRANCH   1  17
TORSDOF 4
ENDMDL
