MODEL 1
REMARK VINA RESULT: -7.703558947      0.000      0.000
REMARK  7 active torsions:
REMARK  status: ('A' for Active; 'I' for Inactive)
REMARK    1  A    between atoms: C2_2  and  O2_4 
REMARK    2  A    between atoms: O2_4  and  N1_5 
REMARK    3  A    between atoms: C3_7  and  C4_8 
REMARK    4  A    between atoms: C3_7  and  C12_20 
REMARK    5  A    between atoms: C4_8  and  C5_9 
REMARK    6  A    between atoms: C8_13  and  C9_14 
REMARK    7  A    between atoms: C11_17  and  O4_18 
ROOT
HETATM    1  C4  UNL     1     -41.564  27.525  -1.979  1.00  0.00     0.104 C 
ENDROOT
BRANCH   1   2
HETATM    2  C3  UNL     1     -42.119  28.865  -2.163  1.00  0.00     0.023 C 
HETATM    3  N1  UNL     1     -41.901  29.669  -1.201  1.00  0.00    -0.265 N 
ATOM      4  H1  UNL     1     -41.365  29.223  -0.457  1.00  0.00     0.194 HD
BRANCH   3   5
HETATM    5  O2  UNL     1     -42.179  30.918  -0.908  1.00  0.00    -0.200 OA
BRANCH   5   6
HETATM    6  C2  UNL     1     -41.425  31.933  -1.495  1.00  0.00     0.277 C 
HETATM    7  C1  UNL     1     -41.946  33.147  -2.119  1.00  0.00     0.128 C 
HETATM    8  O1  UNL     1     -40.168  31.792  -1.487  1.00  0.00    -0.264 OA
ENDBRANCH   5   6
ENDBRANCH   3   5
BRANCH   2   9
HETATM    9  C12 UNL     1     -42.875  29.277  -3.334  1.00  0.00    -0.010 C 
HETATM   10  C13 UNL     1     -43.300  27.992  -4.124  1.00  0.00     0.021 C 
HETATM   11  C14 UNL     1     -42.087  30.082  -4.320  1.00  0.00     0.021 C 
HETATM   12  C15 UNL     1     -44.197  29.944  -3.006  1.00  0.00     0.021 C 
ENDBRANCH   2   9
ENDBRANCH   1   2
BRANCH   1  13
HETATM   13  C5  UNL     1     -42.502  26.564  -1.298  1.00  0.00     0.022 A 
HETATM   14  S1  UNL     1     -44.153  26.693  -0.924  1.00  0.00    -0.095 SA
HETATM   15  C6  UNL     1     -44.416  25.154  -0.254  1.00  0.00    -0.004 A 
HETATM   16  C7  UNL     1     -45.721  24.634   0.300  1.00  0.00     0.057 C 
HETATM   17  C8  UNL     1     -43.181  24.555  -0.338  1.00  0.00     0.056 A 
HETATM   18  C11 UNL     1     -42.193  25.292  -0.880  1.00  0.00     0.094 A 
BRANCH  17  19
HETATM   19  C9  UNL     1     -43.031  23.163   0.133  1.00  0.00     0.159 C 
HETATM   20  C10 UNL     1     -42.470  22.888   1.461  1.00  0.00     0.097 C 
HETATM   21  O3  UNL     1     -43.372  22.208  -0.576  1.00  0.00    -0.293 OA
ENDBRANCH  17  19
BRANCH  18  22
HETATM   22  O4  UNL     1     -40.864  24.799  -1.028  1.00  0.00    -0.359 OA
ATOM     23  H4  UNL     1     -40.703  24.023  -1.554  1.00  0.00     0.217 HD
ENDBRANCH  18  22
ENDBRANCH   1  13
TORSDOF 7
ENDMDL
MODEL 2
REMARK VINA RESULT: -7.507787837      1.879      2.872
REMARK  7 active torsions:
REMARK  status: ('A' for Active; 'I' for Inactive)
REMARK    1  A    between atoms: C2_2  and  O2_4 
REMARK    2  A    between atoms: O2_4  and  N1_5 
REMARK    3  A    between atoms: C3_7  and  C4_8 
REMARK    4  A    between atoms: C3_7  and  C12_20 
REMARK    5  A    between atoms: C4_8  and  C5_9 
REMARK    6  A    between atoms: C8_13  and  C9_14 
REMARK    7  A    between atoms: C11_17  and  O4_18 
ROOT
HETATM    1  C4  UNL     1     -44.472  29.480  -2.867  1.00  0.00     0.104 C 
ENDROOT
BRANCH   1   2
HETATM    2  C3  UNL     1     -44.320  30.672  -2.034  1.00  0.00     0.023 C 
HETATM    3  N1  UNL     1     -43.132  30.897  -1.637  1.00  0.00    -0.265 N 
ATOM      4  H1  UNL     1     -42.484  30.187  -1.980  1.00  0.00     0.194 HD
BRANCH   3   5
HETATM    5  O2  UNL     1     -42.514  31.794  -0.906  1.00  0.00    -0.200 OA
BRANCH   5   6
HETATM    6  C2  UNL     1     -41.708  32.740  -1.536  1.00  0.00     0.277 C 
HETATM    7  C1  UNL     1     -41.735  33.096  -2.953  1.00  0.00     0.128 C 
HETATM    8  O1  UNL     1     -40.868  33.351  -0.813  1.00  0.00    -0.264 OA
ENDBRANCH   5   6
ENDBRANCH   3   5
BRANCH   2   9
HETATM    9  C12 UNL     1     -45.417  31.548  -1.660  1.00  0.00    -0.010 C 
HETATM   10  C13 UNL     1     -46.745  30.950  -2.241  1.00  0.00     0.021 C 
HETATM   11  C14 UNL     1     -45.335  32.922  -2.248  1.00  0.00     0.021 C 
HETATM   12  C15 UNL     1     -45.679  31.600  -0.167  1.00  0.00     0.021 C 
ENDBRANCH   2   9
ENDBRANCH   1   2
BRANCH   1  13
HETATM   13  C5  UNL     1     -44.399  28.187  -2.101  1.00  0.00     0.022 A 
HETATM   14  S1  UNL     1     -45.623  27.182  -1.490  1.00  0.00    -0.095 SA
HETATM   15  C6  UNL     1     -44.671  25.925  -0.855  1.00  0.00    -0.004 A 
HETATM   16  C7  UNL     1     -45.178  24.694  -0.143  1.00  0.00     0.057 C 
HETATM   17  C8  UNL     1     -43.386  26.323  -1.141  1.00  0.00     0.056 A 
HETATM   18  C11 UNL     1     -43.252  27.497  -1.786  1.00  0.00     0.094 A 
BRANCH  17  19
HETATM   19  C9  UNL     1     -42.265  25.441  -0.757  1.00  0.00     0.159 C 
HETATM   20  C10 UNL     1     -41.441  24.801  -1.789  1.00  0.00     0.097 C 
HETATM   21  O3  UNL     1     -42.000  25.224   0.432  1.00  0.00    -0.293 OA
ENDBRANCH  17  19
BRANCH  18  22
HETATM   22  O4  UNL     1     -41.981  28.033  -2.145  1.00  0.00    -0.359 OA
ATOM     23  H4  UNL     1     -41.379  28.319  -1.467  1.00  0.00     0.217 HD
ENDBRANCH  18  22
ENDBRANCH   1  13
TORSDOF 7
ENDMDL
MODEL 3
REMARK VINA RESULT: -7.256989535      2.471      7.090
REMARK  7 active torsions:
REMARK  status: ('A' for Active; 'I' for Inactive)
REMARK    1  A    between atoms: C2_2  and  O2_4 
REMARK    2  A    between atoms: O2_4  and  N1_5 
REMARK    3  A    between atoms: C3_7  and  C4_8 
REMARK    4  A    between atoms: C3_7  and  C12_20 
REMARK    5  A    between atoms: C4_8  and  C5_9 
REMARK    6  A    between atoms: C8_13  and  C9_14 
REMARK    7  A    between atoms: C11_17  and  O4_18 
ROOT
HETATM    1  C4  UNL     1     -43.860  28.035  -2.876  1.00  0.00     0.104 C 
ENDROOT
BRANCH   1   2
HETATM    2  C3  UNL     1     -43.742  27.260  -1.643  1.00  0.00     0.023 C 
HETATM    3  N1  UNL     1     -44.831  26.752  -1.226  1.00  0.00    -0.265 N 
ATOM      4  H1  UNL     1     -45.610  26.984  -1.842  1.00  0.00     0.194 HD
BRANCH   3   5
HETATM    5  O2  UNL     1     -45.224  26.011  -0.217  1.00  0.00    -0.200 OA
BRANCH   5   6
HETATM    6  C2  UNL     1     -46.304  25.148  -0.392  1.00  0.00     0.277 C 
HETATM    7  C1  UNL     1     -47.631  25.511  -0.885  1.00  0.00     0.128 C 
HETATM    8  O1  UNL     1     -46.121  23.932  -0.095  1.00  0.00    -0.264 OA
ENDBRANCH   5   6
ENDBRANCH   3   5
BRANCH   2   9
HETATM    9  C12 UNL     1     -42.496  27.072  -0.917  1.00  0.00    -0.010 C 
HETATM   10  C13 UNL     1     -41.307  27.312  -1.910  1.00  0.00     0.021 C 
HETATM   11  C14 UNL     1     -42.286  25.680  -0.409  1.00  0.00     0.021 C 
HETATM   12  C15 UNL     1     -42.260  28.101   0.172  1.00  0.00     0.021 C 
ENDBRANCH   2   9
ENDBRANCH   1   2
BRANCH   1  13
HETATM   13  C5  UNL     1     -44.074  29.508  -2.653  1.00  0.00     0.022 A 
HETATM   14  S1  UNL     1     -45.282  30.342  -1.801  1.00  0.00    -0.095 SA
HETATM   15  C6  UNL     1     -44.718  31.934  -1.989  1.00  0.00    -0.004 A 
HETATM   16  C7  UNL     1     -45.377  33.184  -1.455  1.00  0.00     0.057 C 
HETATM   17  C8  UNL     1     -43.569  31.779  -2.730  1.00  0.00     0.056 A 
HETATM   18  C11 UNL     1     -43.242  30.519  -3.071  1.00  0.00     0.094 A 
BRANCH  17  19
HETATM   19  C9  UNL     1     -42.772  32.977  -3.068  1.00  0.00     0.159 C 
HETATM   20  C10 UNL     1     -42.010  33.675  -2.026  1.00  0.00     0.097 C 
HETATM   21  O3  UNL     1     -42.733  33.413  -4.225  1.00  0.00    -0.293 OA
ENDBRANCH  17  19
BRANCH  18  22
HETATM   22  O4  UNL     1     -42.080  30.211  -3.838  1.00  0.00    -0.359 OA
ATOM     23  H4  UNL     1     -41.578  30.912  -4.239  1.00  0.00     0.217 HD
ENDBRANCH  18  22
ENDBRANCH   1  13
TORSDOF 7
ENDMDL
MODEL 4
REMARK VINA RESULT: -7.212086747      2.101      3.320
REMARK  7 active torsions:
REMARK  status: ('A' for Active; 'I' for Inactive)
REMARK    1  A    between atoms: C2_2  and  O2_4 
REMARK    2  A    between atoms: O2_4  and  N1_5 
REMARK    3  A    between atoms: C3_7  and  C4_8 
REMARK    4  A    between atoms: C3_7  and  C12_20 
REMARK    5  A    between atoms: C4_8  and  C5_9 
REMARK    6  A    between atoms: C8_13  and  C9_14 
REMARK    7  A    between atoms: C11_17  and  O4_18 
ROOT
HETATM    1  C4  UNL     1     -44.643  29.938  -2.628  1.00  0.00     0.104 C 
ENDROOT
BRANCH   1   2
HETATM    2  C3  UNL     1     -44.550  31.051  -1.686  1.00  0.00     0.023 C 
HETATM    3  N1  UNL     1     -43.367  31.345  -1.321  1.00  0.00    -0.265 N 
ATOM      4  H1  UNL     1     -42.679  30.734  -1.762  1.00  0.00     0.194 HD
BRANCH   3   5
HETATM    5  O2  UNL     1     -42.792  32.220  -0.531  1.00  0.00    -0.200 OA
BRANCH   5   6
HETATM    6  C2  UNL     1     -41.975  33.201  -1.089  1.00  0.00     0.277 C 
HETATM    7  C1  UNL     1     -42.405  34.290  -1.963  1.00  0.00     0.128 C 
HETATM    8  O1  UNL     1     -40.742  33.146  -0.815  1.00  0.00    -0.264 OA
ENDBRANCH   5   6
ENDBRANCH   3   5
BRANCH   2   9
HETATM    9  C12 UNL     1     -45.698  31.783  -1.177  1.00  0.00    -0.010 C 
HETATM   10  C13 UNL     1     -45.822  33.125  -1.977  1.00  0.00     0.021 C 
HETATM   11  C14 UNL     1     -45.572  32.207   0.253  1.00  0.00     0.021 C 
HETATM   12  C15 UNL     1     -47.026  31.096  -1.435  1.00  0.00     0.021 C 
ENDBRANCH   2   9
ENDBRANCH   1   2
BRANCH   1  13
HETATM   13  C5  UNL     1     -44.525  28.582  -1.984  1.00  0.00     0.022 A 
HETATM   14  S1  UNL     1     -45.713  27.466  -1.510  1.00  0.00    -0.095 SA
HETATM   15  C6  UNL     1     -44.717  26.202  -0.965  1.00  0.00    -0.004 A 
HETATM   16  C7  UNL     1     -45.181  24.886  -0.388  1.00  0.00     0.057 C 
HETATM   17  C8  UNL     1     -43.446  26.687  -1.170  1.00  0.00     0.056 A 
HETATM   18  C11 UNL     1     -43.354  27.921  -1.698  1.00  0.00     0.094 A 
BRANCH  17  19
HETATM   19  C9  UNL     1     -42.293  25.827  -0.833  1.00  0.00     0.159 C 
HETATM   20  C10 UNL     1     -41.495  25.210  -1.898  1.00  0.00     0.097 C 
HETATM   21  O3  UNL     1     -41.979  25.611   0.344  1.00  0.00    -0.293 OA
ENDBRANCH  17  19
BRANCH  18  22
HETATM   22  O4  UNL     1     -42.102  28.549  -1.962  1.00  0.00    -0.359 OA
ATOM     23  H4  UNL     1     -41.302  28.180  -1.605  1.00  0.00     0.217 HD
ENDBRANCH  18  22
ENDBRANCH   1  13
TORSDOF 7
ENDMDL
MODEL 5
REMARK VINA RESULT: -7.203489104      1.890      2.746
REMARK  7 active torsions:
REMARK  status: ('A' for Active; 'I' for Inactive)
REMARK    1  A    between atoms: C2_2  and  O2_4 
REMARK    2  A    between atoms: O2_4  and  N1_5 
REMARK    3  A    between atoms: C3_7  and  C4_8 
REMARK    4  A    between atoms: C3_7  and  C12_20 
REMARK    5  A    between atoms: C4_8  and  C5_9 
REMARK    6  A    between atoms: C8_13  and  C9_14 
REMARK    7  A    between atoms: C11_17  and  O4_18 
ROOT
HETATM    1  C4  UNL     1     -43.940  29.478  -3.113  1.00  0.00     0.104 C 
ENDROOT
BRANCH   1   2
HETATM    2  C3  UNL     1     -43.220  30.580  -2.477  1.00  0.00     0.023 C 
HETATM    3  N1  UNL     1     -43.648  30.902  -1.323  1.00  0.00    -0.265 N 
ATOM      4  H1  UNL     1     -44.437  30.319  -1.043  1.00  0.00     0.194 HD
BRANCH   3   5
HETATM    5  O2  UNL     1     -43.350  31.781  -0.395  1.00  0.00    -0.200 OA
BRANCH   5   6
HETATM    6  C2  UNL     1     -44.043  32.990  -0.363  1.00  0.00     0.277 C 
HETATM    7  C1  UNL     1     -45.336  33.264  -0.985  1.00  0.00     0.128 C 
HETATM    8  O1  UNL     1     -43.501  33.945   0.266  1.00  0.00    -0.264 OA
ENDBRANCH   5   6
ENDBRANCH   3   5
BRANCH   2   9
HETATM    9  C12 UNL     1     -42.104  31.282  -3.089  1.00  0.00    -0.010 C 
HETATM   10  C13 UNL     1     -41.708  30.526  -4.404  1.00  0.00     0.021 C 
HETATM   11  C14 UNL     1     -40.854  31.286  -2.266  1.00  0.00     0.021 C 
HETATM   12  C15 UNL     1     -42.450  32.677  -3.575  1.00  0.00     0.021 C 
ENDBRANCH   2   9
ENDBRANCH   1   2
BRANCH   1  13
HETATM   13  C5  UNL     1     -44.008  28.230  -2.275  1.00  0.00     0.022 A 
HETATM   14  S1  UNL     1     -45.333  27.408  -1.604  1.00  0.00    -0.095 SA
HETATM   15  C6  UNL     1     -44.527  26.087  -0.902  1.00  0.00    -0.004 A 
HETATM   16  C7  UNL     1     -45.165  24.965  -0.120  1.00  0.00     0.057 C 
HETATM   17  C8  UNL     1     -43.207  26.319  -1.214  1.00  0.00     0.056 A 
HETATM   18  C11 UNL     1     -42.945  27.431  -1.925  1.00  0.00     0.094 A 
BRANCH  17  19
HETATM   19  C9  UNL     1     -42.191  25.337  -0.783  1.00  0.00     0.159 C 
HETATM   20  C10 UNL     1     -41.411  24.595  -1.780  1.00  0.00     0.097 C 
HETATM   21  O3  UNL     1     -41.979  25.120   0.416  1.00  0.00    -0.293 OA
ENDBRANCH  17  19
BRANCH  18  22
HETATM   22  O4  UNL     1     -41.624  27.796  -2.316  1.00  0.00    -0.359 OA
ATOM     23  H4  UNL     1     -41.381  27.779  -3.235  1.00  0.00     0.217 HD
ENDBRANCH  18  22
ENDBRANCH   1  13
TORSDOF 7
ENDMDL
