MODEL 1
REMARK VINA RESULT: -6.171555498      0.000      0.000
REMARK  2 active torsions:
REMARK  status: ('A' for Active; 'I' for Inactive)
REMARK    1  A    between atoms: C2_2  and  C3_3 
REMARK    2  A    between atoms: C4_6  and  C5_7 
ROOT
HETATM    1  C1  UNL     1     -16.154  -9.178  71.864  1.00  0.00     0.029 C 
HETATM    2  C2  UNL     1     -15.797  -8.780  73.328  1.00  0.00     0.083 A 
HETATM    3  C4  UNL     1     -16.707  -9.259  74.351  1.00  0.00     0.134 A 
HETATM    4  C6  UNL     1     -15.397 -10.006  74.179  1.00  0.00     0.142 A 
HETATM    5 CL2  UNL     1     -15.382 -11.589  73.399  1.00  0.00    -0.099 Cl
HETATM    6 CL3  UNL     1     -14.138  -9.726  75.420  1.00  0.00    -0.099 Cl
ENDROOT
BRANCH   2   7
HETATM    7  C3  UNL     1     -14.828  -7.708  73.378  1.00  0.00     0.231 C 
HETATM    8  O1  UNL     1     -15.075  -6.603  73.784  1.00  0.00    -0.279 OA
HETATM    9 CL1  UNL     1     -13.183  -7.982  72.830  1.00  0.00    -0.043 Cl
ENDBRANCH   2   7
BRANCH   3  10
HETATM   10  C5  UNL     1     -17.084  -8.637  75.610  1.00  0.00     0.239 C 
HETATM   11  N1  UNL     1     -17.589  -7.344  75.827  1.00  0.00    -0.062 NA
HETATM   12  O2  UNL     1     -16.960  -9.310  76.714  1.00  0.00    -0.276 OA
ENDBRANCH   3  10
TORSDOF 2
ENDMDL
MODEL 2
REMARK VINA RESULT: -5.974184672      1.388      1.388
REMARK  2 active torsions:
REMARK  status: ('A' for Active; 'I' for Inactive)
REMARK    1  A    between atoms: C2_2  and  C3_3 
REMARK    2  A    between atoms: C4_6  and  C5_7 
ROOT
HETATM    1  C1  UNL     1     -16.177  -9.188  71.811  1.00  0.00     0.029 C 
HETATM    2  C2  UNL     1     -15.870  -8.740  73.272  1.00  0.00     0.083 A 
HETATM    3  C4  UNL     1     -16.722  -9.310  74.298  1.00  0.00     0.134 A 
HETATM    4  C6  UNL     1     -15.336  -9.906  74.133  1.00  0.00     0.142 A 
HETATM    5 CL2  UNL     1     -15.142 -11.484  73.367  1.00  0.00    -0.099 Cl
HETATM    6 CL3  UNL     1     -14.119  -9.476  75.373  1.00  0.00    -0.099 Cl
ENDROOT
BRANCH   2   7
HETATM    7  C3  UNL     1     -15.028  -7.566  73.314  1.00  0.00     0.231 C 
HETATM    8  O1  UNL     1     -14.122  -7.366  72.548  1.00  0.00    -0.279 OA
HETATM    9 CL1  UNL     1     -15.301  -6.330  74.529  1.00  0.00    -0.043 Cl
ENDBRANCH   2   7
BRANCH   3  10
HETATM   10  C5  UNL     1     -17.169  -8.724  75.551  1.00  0.00     0.239 C 
HETATM   11  N1  UNL     1     -16.828  -9.101  76.861  1.00  0.00    -0.062 NA
HETATM   12  O2  UNL     1     -17.993  -7.721  75.526  1.00  0.00    -0.276 OA
ENDBRANCH   3  10
TORSDOF 2
ENDMDL
MODEL 3
REMARK VINA RESULT: -5.898059043      1.888      3.164
REMARK  2 active torsions:
REMARK  status: ('A' for Active; 'I' for Inactive)
REMARK    1  A    between atoms: C2_2  and  C3_3 
REMARK    2  A    between atoms: C4_6  and  C5_7 
ROOT
HETATM    1  C1  UNL     1     -13.295  -8.796  74.464  1.00  0.00     0.029 C 
HETATM    2  C2  UNL     1     -14.804  -8.989  74.804  1.00  0.00     0.083 A 
HETATM    3  C4  UNL     1     -15.509  -7.799  75.240  1.00  0.00     0.134 A 
HETATM    4  C6  UNL     1     -15.720  -8.247  73.806  1.00  0.00     0.142 A 
HETATM    5 CL2  UNL     1     -14.961  -7.358  72.484  1.00  0.00    -0.099 Cl
HETATM    6 CL3  UNL     1     -17.280  -9.041  73.429  1.00  0.00    -0.099 Cl
ENDROOT
BRANCH   2   7
HETATM    7  C3  UNL     1     -15.149 -10.384  74.969  1.00  0.00     0.231 C 
HETATM    8  O1  UNL     1     -15.564 -10.851  75.997  1.00  0.00    -0.279 OA
HETATM    9 CL1  UNL     1     -14.972 -11.500  73.627  1.00  0.00    -0.043 Cl
ENDBRANCH   2   7
BRANCH   3  10
HETATM   10  C5  UNL     1     -16.608  -7.676  76.183  1.00  0.00     0.239 C 
HETATM   11  N1  UNL     1     -16.632  -8.022  77.545  1.00  0.00    -0.062 NA
HETATM   12  O2  UNL     1     -17.744  -7.195  75.777  1.00  0.00    -0.276 OA
ENDBRANCH   3  10
TORSDOF 2
ENDMDL
MODEL 4
REMARK VINA RESULT: -5.859305873      1.724      1.998
REMARK  2 active torsions:
REMARK  status: ('A' for Active; 'I' for Inactive)
REMARK    1  A    between atoms: C2_2  and  C3_3 
REMARK    2  A    between atoms: C4_6  and  C5_7 
ROOT
HETATM    1  C1  UNL     1     -14.949  -7.207  73.138  1.00  0.00     0.029 C 
HETATM    2  C2  UNL     1     -15.164  -8.343  74.183  1.00  0.00     0.083 A 
HETATM    3  C4  UNL     1     -16.527  -8.527  74.644  1.00  0.00     0.134 A 
HETATM    4  C6  UNL     1     -16.005  -9.505  73.608  1.00  0.00     0.142 A 
HETATM    5 CL2  UNL     1     -16.548  -9.388  71.933  1.00  0.00    -0.099 Cl
HETATM    6 CL3  UNL     1     -15.582 -11.145  74.188  1.00  0.00    -0.099 Cl
ENDROOT
BRANCH   2   7
HETATM    7  C3  UNL     1     -13.919  -8.777  74.776  1.00  0.00     0.231 C 
HETATM    8  O1  UNL     1     -13.735  -8.851  75.962  1.00  0.00    -0.279 OA
HETATM    9 CL1  UNL     1     -12.569  -9.235  73.753  1.00  0.00    -0.043 Cl
ENDBRANCH   2   7
BRANCH   3  10
HETATM   10  C5  UNL     1     -17.006  -8.960  75.946  1.00  0.00     0.239 C 
HETATM   11  N1  UNL     1     -16.699  -8.428  77.210  1.00  0.00    -0.062 NA
HETATM   12  O2  UNL     1     -17.825  -9.966  76.021  1.00  0.00    -0.276 OA
ENDBRANCH   3  10
TORSDOF 2
ENDMDL
MODEL 5
REMARK VINA RESULT: -5.766972078      2.285      3.994
REMARK  2 active torsions:
REMARK  status: ('A' for Active; 'I' for Inactive)
REMARK    1  A    between atoms: C2_2  and  C3_3 
REMARK    2  A    between atoms: C4_6  and  C5_7 
ROOT
HETATM    1  C1  UNL     1     -17.542  -7.500  75.975  1.00  0.00     0.029 C 
HETATM    2  C2  UNL     1     -16.542  -8.272  75.062  1.00  0.00     0.083 A 
HETATM    3  C4  UNL     1     -15.626  -7.450  74.293  1.00  0.00     0.134 A 
HETATM    4  C6  UNL     1     -15.083  -8.117  75.544  1.00  0.00     0.142 A 
HETATM    5 CL2  UNL     1     -14.784  -7.157  76.994  1.00  0.00    -0.099 Cl
HETATM    6 CL3  UNL     1     -14.020  -9.537  75.304  1.00  0.00    -0.099 Cl
ENDROOT
BRANCH   2   7
HETATM    7  C3  UNL     1     -16.937  -9.649  74.868  1.00  0.00     0.231 C 
HETATM    8  O1  UNL     1     -17.211 -10.120  73.797  1.00  0.00    -0.279 OA
HETATM    9 CL1  UNL     1     -17.037 -10.738  76.241  1.00  0.00    -0.043 Cl
ENDBRANCH   2   7
BRANCH   3  10
HETATM   10  C5  UNL     1     -15.059  -7.693  72.977  1.00  0.00     0.239 C 
HETATM   11  N1  UNL     1     -15.681  -8.251  71.848  1.00  0.00    -0.062 NA
HETATM   12  O2  UNL     1     -13.819  -7.377  72.751  1.00  0.00    -0.276 OA
ENDBRANCH   3  10
TORSDOF 2
ENDMDL
