MODEL 1
REMARK VINA RESULT: -6.133541880      0.000      0.000
REMARK  3 active torsions:
REMARK  status: ('A' for Active; 'I' for Inactive)
REMARK    1  A    between atoms: N1_4  and  O1_5 
REMARK    2  A    between atoms: C3_7  and  O2_8 
REMARK    3  A    between atoms: C4_10  and  O3_11 
ROOT
HETATM    1  C1  UNL     1     -13.593  -8.331  74.750  1.00  0.00     0.062 C 
HETATM    2  C2  UNL     1     -15.059  -8.025  74.918  1.00  0.00     0.171 C 
HETATM    3 CL1  UNL     1     -15.570  -6.615  74.014  1.00  0.00    -0.090 Cl
HETATM    4  N1  UNL     1     -15.345  -7.927  76.348  1.00  0.00    -0.212 N 
HETATM    5  C3  UNL     1     -16.490  -8.416  76.646  1.00  0.00     0.172 C 
HETATM    6  C4  UNL     1     -17.133  -8.912  75.418  1.00  0.00     0.237 C 
HETATM    7  C5  UNL     1     -15.938  -9.223  74.548  1.00  0.00     0.187 C 
HETATM    8 CL2  UNL     1     -15.240 -10.746  75.081  1.00  0.00    -0.094 Cl
HETATM    9 CL3  UNL     1     -16.421  -9.209  72.869  1.00  0.00    -0.094 Cl
ENDROOT
BRANCH   4  10
HETATM   10  O1  UNL     1     -14.474  -7.368  77.284  1.00  0.00    -0.284 OA
ATOM     11  H1  UNL     1     -13.951  -7.875  77.894  1.00  0.00     0.245 HD
ENDBRANCH   4  10
BRANCH   5  12
HETATM   12  O2  UNL     1     -17.019  -8.452  77.957  1.00  0.00    -0.346 OA
ATOM     13  H2  UNL     1     -17.451  -7.717  78.377  1.00  0.00     0.219 HD
ENDBRANCH   5  12
BRANCH   6  14
HETATM   14  O3  UNL     1     -17.923 -10.035  75.643  1.00  0.00    -0.384 OA
ATOM     15  H3  UNL     1     -18.036 -10.566  74.863  1.00  0.00     0.210 HD
ENDBRANCH   6  14
TORSDOF 3
ENDMDL
MODEL 2
REMARK VINA RESULT: -6.125095855      1.887      2.122
REMARK  3 active torsions:
REMARK  status: ('A' for Active; 'I' for Inactive)
REMARK    1  A    between atoms: N1_4  and  O1_5 
REMARK    2  A    between atoms: C3_7  and  O2_8 
REMARK    3  A    between atoms: C4_10  and  O3_11 
ROOT
HETATM    1  C1  UNL     1     -13.722  -7.923  73.078  1.00  0.00     0.062 C 
HETATM    2  C2  UNL     1     -15.110  -8.409  73.411  1.00  0.00     0.171 C 
HETATM    3 CL1  UNL     1     -16.049  -8.817  71.991  1.00  0.00    -0.090 Cl
HETATM    4  N1  UNL     1     -15.753  -7.408  74.260  1.00  0.00    -0.212 N 
HETATM    5  C3  UNL     1     -16.488  -7.942  75.163  1.00  0.00     0.172 C 
HETATM    6  C4  UNL     1     -16.429  -9.406  75.024  1.00  0.00     0.237 C 
HETATM    7  C5  UNL     1     -15.081  -9.601  74.372  1.00  0.00     0.187 C 
HETATM    8 CL2  UNL     1     -13.835  -9.431  75.601  1.00  0.00    -0.094 Cl
HETATM    9 CL3  UNL     1     -15.053 -11.136  73.537  1.00  0.00    -0.094 Cl
ENDROOT
BRANCH   4  10
HETATM   10  O1  UNL     1     -15.588  -6.032  74.110  1.00  0.00    -0.284 OA
ATOM     11  H1  UNL     1     -15.511  -5.422  74.834  1.00  0.00     0.245 HD
ENDBRANCH   4  10
BRANCH   5  12
HETATM   12  O2  UNL     1     -17.225  -7.207  76.120  1.00  0.00    -0.346 OA
ATOM     13  H2  UNL     1     -18.124  -7.398  76.360  1.00  0.00     0.219 HD
ENDBRANCH   5  12
BRANCH   6  14
HETATM   14  O3  UNL     1     -16.518 -10.065  76.247  1.00  0.00    -0.384 OA
ATOM     15  H3  UNL     1     -16.687  -9.473  76.970  1.00  0.00     0.210 HD
ENDBRANCH   6  14
TORSDOF 3
ENDMDL
MODEL 3
REMARK VINA RESULT: -6.102141736      2.030      2.546
REMARK  3 active torsions:
REMARK  status: ('A' for Active; 'I' for Inactive)
REMARK    1  A    between atoms: N1_4  and  O1_5 
REMARK    2  A    between atoms: C3_7  and  O2_8 
REMARK    3  A    between atoms: C4_10  and  O3_11 
ROOT
HETATM    1  C1  UNL     1     -15.477  -6.673  74.319  1.00  0.00     0.062 C 
HETATM    2  C2  UNL     1     -15.807  -8.131  74.127  1.00  0.00     0.171 C 
HETATM    3 CL1  UNL     1     -16.045  -8.562  72.446  1.00  0.00    -0.090 Cl
HETATM    4  N1  UNL     1     -16.954  -8.456  74.973  1.00  0.00    -0.212 N 
HETATM    5  C3  UNL     1     -16.862  -9.628  75.482  1.00  0.00     0.172 C 
HETATM    6  C4  UNL     1     -15.609 -10.251  75.025  1.00  0.00     0.237 C 
HETATM    7  C5  UNL     1     -14.745  -9.043  74.749  1.00  0.00     0.187 C 
HETATM    8 CL2  UNL     1     -14.151  -8.418  76.282  1.00  0.00    -0.094 Cl
HETATM    9 CL3  UNL     1     -13.484  -9.473  73.618  1.00  0.00    -0.094 Cl
ENDROOT
BRANCH   4  10
HETATM   10  O1  UNL     1     -18.026  -7.595  75.203  1.00  0.00    -0.284 OA
ATOM     11  H1  UNL     1     -17.935  -6.705  75.526  1.00  0.00     0.245 HD
ENDBRANCH   4  10
BRANCH   5  12
HETATM   12  O2  UNL     1     -17.831 -10.197  76.340  1.00  0.00    -0.346 OA
ATOM     13  H2  UNL     1     -17.635 -10.842  77.009  1.00  0.00     0.219 HD
ENDBRANCH   5  12
BRANCH   6  14
HETATM   14  O3  UNL     1     -15.045 -11.088  75.982  1.00  0.00    -0.384 OA
ATOM     15  H3  UNL     1     -14.838 -11.949  75.639  1.00  0.00     0.210 HD
ENDBRANCH   6  14
TORSDOF 3
ENDMDL
MODEL 4
REMARK VINA RESULT: -6.017554248      1.923      3.282
REMARK  3 active torsions:
REMARK  status: ('A' for Active; 'I' for Inactive)
REMARK    1  A    between atoms: N1_4  and  O1_5 
REMARK    2  A    between atoms: C3_7  and  O2_8 
REMARK    3  A    between atoms: C4_10  and  O3_11 
ROOT
HETATM    1  C1  UNL     1     -15.411 -10.700  73.210  1.00  0.00     0.062 C 
HETATM    2  C2  UNL     1     -15.292  -9.660  74.293  1.00  0.00     0.171 C 
HETATM    3 CL1  UNL     1     -14.153 -10.107  75.546  1.00  0.00    -0.090 Cl
HETATM    4  N1  UNL     1     -16.631  -9.376  74.806  1.00  0.00    -0.212 N 
HETATM    5  C3  UNL     1     -16.786  -8.138  75.092  1.00  0.00     0.172 C 
HETATM    6  C4  UNL     1     -15.535  -7.419  74.801  1.00  0.00     0.237 C 
HETATM    7  C5  UNL     1     -14.923  -8.286  73.726  1.00  0.00     0.187 C 
HETATM    8 CL2  UNL     1     -15.742  -7.955  72.206  1.00  0.00    -0.094 Cl
HETATM    9 CL3  UNL     1     -13.196  -8.022  73.677  1.00  0.00    -0.094 Cl
ENDROOT
BRANCH   4  10
HETATM   10  O1  UNL     1     -17.627 -10.338  74.966  1.00  0.00    -0.284 OA
ATOM     11  H1  UNL     1     -18.537 -10.208  74.725  1.00  0.00     0.245 HD
ENDBRANCH   4  10
BRANCH   5  12
HETATM   12  O2  UNL     1     -17.983  -7.587  75.605  1.00  0.00    -0.346 OA
ATOM     13  H2  UNL     1     -18.186  -7.525  76.530  1.00  0.00     0.219 HD
ENDBRANCH   5  12
BRANCH   6  14
HETATM   14  O3  UNL     1     -15.753  -6.117  74.361  1.00  0.00    -0.384 OA
ATOM     15  H3  UNL     1     -15.955  -5.520  75.071  1.00  0.00     0.210 HD
ENDBRANCH   6  14
TORSDOF 3
ENDMDL
MODEL 5
REMARK VINA RESULT: -5.950043207      1.337      1.420
REMARK  3 active torsions:
REMARK  status: ('A' for Active; 'I' for Inactive)
REMARK    1  A    between atoms: N1_4  and  O1_5 
REMARK    2  A    between atoms: C3_7  and  O2_8 
REMARK    3  A    between atoms: C4_10  and  O3_11 
ROOT
HETATM    1  C1  UNL     1     -13.287  -8.918  73.776  1.00  0.00     0.062 C 
HETATM    2  C2  UNL     1     -14.769  -8.660  73.878  1.00  0.00     0.171 C 
HETATM    3 CL1  UNL     1     -15.254  -7.160  73.115  1.00  0.00    -0.090 Cl
HETATM    4  N1  UNL     1     -15.152  -8.741  75.286  1.00  0.00    -0.212 N 
HETATM    5  C3  UNL     1     -16.302  -9.282  75.443  1.00  0.00     0.172 C 
HETATM    6  C4  UNL     1     -16.847  -9.638  74.122  1.00  0.00     0.237 C 
HETATM    7  C5  UNL     1     -15.590  -9.819  73.307  1.00  0.00     0.187 C 
HETATM    8 CL2  UNL     1     -14.889 -11.384  73.700  1.00  0.00    -0.094 Cl
HETATM    9 CL3  UNL     1     -15.959  -9.610  71.611  1.00  0.00    -0.094 Cl
ENDROOT
BRANCH   4  10
HETATM   10  O1  UNL     1     -14.361  -8.285  76.339  1.00  0.00    -0.284 OA
ATOM     11  H1  UNL     1     -14.061  -8.832  77.056  1.00  0.00     0.245 HD
ENDBRANCH   4  10
BRANCH   5  12
HETATM   12  O2  UNL     1     -16.916  -9.487  76.700  1.00  0.00    -0.346 OA
ATOM     13  H2  UNL     1     -16.689  -9.007  77.487  1.00  0.00     0.219 HD
ENDBRANCH   5  12
BRANCH   6  14
HETATM   14  O3  UNL     1     -17.621 -10.793  74.155  1.00  0.00    -0.384 OA
ATOM     15  H3  UNL     1     -18.223 -10.811  74.890  1.00  0.00     0.210 HD
ENDBRANCH   6  14
TORSDOF 3
ENDMDL
