MODEL 1
REMARK VINA RESULT: -6.029787763      0.000      0.000
REMARK  2 active torsions:
REMARK  status: ('A' for Active; 'I' for Inactive)
REMARK    1  A    between atoms: C1_2  and  C2_4 
REMARK       I    between atoms: N2_6  and  C4_7 
REMARK    2  A    between atoms: C4_7  and  C5_9 
ROOT
HETATM    1  C2  UNL     1     -17.484  -9.489  68.622  1.00  0.00     0.194 A 
HETATM    2  C3  UNL     1     -17.049  -9.248  69.992  1.00  0.00     0.161 A 
HETATM    3  N2  UNL     1     -17.401 -10.620  69.524  1.00  0.00    -0.331 N 
HETATM    4  C4  UNL     1     -17.518 -11.993  69.861  1.00  0.00     0.275 C 
HETATM    5  O2  UNL     1     -17.239 -12.377  71.031  1.00  0.00    -0.268 OA
ENDROOT
BRANCH   1   6
HETATM    6  C1  UNL     1     -16.452  -9.309  67.582  1.00  0.00     0.255 C 
HETATM    7  N1  UNL     1     -16.720  -8.565  66.397  1.00  0.00    -0.060 NA
HETATM    8  O1  UNL     1     -15.327  -9.832  67.770  1.00  0.00    -0.275 OA
ENDBRANCH   1   6
BRANCH   4   9
HETATM    9  C5  UNL     1     -17.965 -13.008  68.872  1.00  0.00     0.269 C 
HETATM   10 CL1  UNL     1     -19.701 -13.308  69.024  1.00  0.00    -0.073 Cl
HETATM   11 CL2  UNL     1     -17.032 -14.514  69.189  1.00  0.00    -0.073 Cl
HETATM   12 CL3  UNL     1     -17.529 -12.482  67.233  1.00  0.00    -0.073 Cl
ENDBRANCH   4   9
TORSDOF 2
ENDMDL
MODEL 2
REMARK VINA RESULT: -5.971031199      0.057      1.456
REMARK  2 active torsions:
REMARK  status: ('A' for Active; 'I' for Inactive)
REMARK    1  A    between atoms: C1_2  and  C2_4 
REMARK       I    between atoms: N2_6  and  C4_7 
REMARK    2  A    between atoms: C4_7  and  C5_9 
ROOT
HETATM    1  C2  UNL     1     -17.500  -9.501  68.588  1.00  0.00     0.194 A 
HETATM    2  C3  UNL     1     -17.093  -9.260  69.966  1.00  0.00     0.161 A 
HETATM    3  N2  UNL     1     -17.406 -10.636  69.484  1.00  0.00    -0.331 N 
HETATM    4  C4  UNL     1     -17.497 -12.013  69.810  1.00  0.00     0.275 C 
HETATM    5  O2  UNL     1     -17.229 -12.399  70.982  1.00  0.00    -0.268 OA
ENDROOT
BRANCH   1   6
HETATM    6  C1  UNL     1     -16.455  -9.291  67.566  1.00  0.00     0.255 C 
HETATM    7  N1  UNL     1     -16.714  -8.530  66.391  1.00  0.00    -0.060 NA
HETATM    8  O1  UNL     1     -15.327  -9.803  67.762  1.00  0.00    -0.275 OA
ENDBRANCH   1   6
BRANCH   4   9
HETATM    9  C5  UNL     1     -17.904 -13.032  68.808  1.00  0.00     0.269 C 
HETATM   10 CL1  UNL     1     -17.559 -12.468  67.167  1.00  0.00    -0.073 Cl
HETATM   11 CL2  UNL     1     -19.668 -13.322  69.020  1.00  0.00    -0.073 Cl
HETATM   12 CL3  UNL     1     -17.096 -14.574  69.157  1.00  0.00    -0.073 Cl
ENDBRANCH   4   9
TORSDOF 2
ENDMDL
MODEL 3
REMARK VINA RESULT: -5.945351926      2.900      4.398
REMARK  2 active torsions:
REMARK  status: ('A' for Active; 'I' for Inactive)
REMARK    1  A    between atoms: C1_2  and  C2_4 
REMARK       I    between atoms: N2_6  and  C4_7 
REMARK    2  A    between atoms: C4_7  and  C5_9 
ROOT
HETATM    1  C2  UNL     1     -18.082 -12.615  69.639  1.00  0.00     0.194 A 
HETATM    2  C3  UNL     1     -19.381 -12.541  68.983  1.00  0.00     0.161 A 
HETATM    3  N2  UNL     1     -18.411 -11.411  68.902  1.00  0.00    -0.331 N 
HETATM    4  C4  UNL     1     -18.146 -10.111  68.401  1.00  0.00     0.275 C 
HETATM    5  O2  UNL     1     -19.015  -9.519  67.701  1.00  0.00    -0.268 OA
ENDROOT
BRANCH   1   6
HETATM    6  C1  UNL     1     -17.129 -13.584  69.063  1.00  0.00     0.255 C 
HETATM    7  N1  UNL     1     -16.736 -13.510  67.696  1.00  0.00    -0.060 NA
HETATM    8  O1  UNL     1     -16.671 -14.479  69.813  1.00  0.00    -0.275 OA
ENDBRANCH   1   6
BRANCH   4   9
HETATM    9  C5  UNL     1     -16.865  -9.410  68.675  1.00  0.00     0.269 C 
HETATM   10 CL1  UNL     1     -16.710  -9.039  70.397  1.00  0.00    -0.073 Cl
HETATM   11 CL2  UNL     1     -16.859  -7.898  67.698  1.00  0.00    -0.073 Cl
HETATM   12 CL3  UNL     1     -15.506 -10.392  68.088  1.00  0.00    -0.073 Cl
ENDBRANCH   4   9
TORSDOF 2
ENDMDL
MODEL 4
REMARK VINA RESULT: -5.885037954      2.893      4.357
REMARK  2 active torsions:
REMARK  status: ('A' for Active; 'I' for Inactive)
REMARK    1  A    between atoms: C1_2  and  C2_4 
REMARK       I    between atoms: N2_6  and  C4_7 
REMARK    2  A    between atoms: C4_7  and  C5_9 
ROOT
HETATM    1  C2  UNL     1     -18.041 -12.612  69.650  1.00  0.00     0.194 A 
HETATM    2  C3  UNL     1     -19.362 -12.549  69.038  1.00  0.00     0.161 A 
HETATM    3  N2  UNL     1     -18.394 -11.422  68.903  1.00  0.00    -0.331 N 
HETATM    4  C4  UNL     1     -18.146 -10.132  68.369  1.00  0.00     0.275 C 
HETATM    5  O2  UNL     1     -19.038  -9.551  67.689  1.00  0.00    -0.268 OA
ENDROOT
BRANCH   1   6
HETATM    6  C1  UNL     1     -17.109 -13.593  69.058  1.00  0.00     0.255 C 
HETATM    7  N1  UNL     1     -16.766 -13.547  67.677  1.00  0.00    -0.060 NA
HETATM    8  O1  UNL     1     -16.625 -14.474  69.810  1.00  0.00    -0.275 OA
ENDBRANCH   1   6
BRANCH   4   9
HETATM    9  C5  UNL     1     -16.855  -9.428  68.585  1.00  0.00     0.269 C 
HETATM   10 CL1  UNL     1     -15.497 -10.442  68.077  1.00  0.00    -0.073 Cl
HETATM   11 CL2  UNL     1     -16.738  -9.045  70.340  1.00  0.00    -0.073 Cl
HETATM   12 CL3  UNL     1     -16.869  -7.871  67.730  1.00  0.00    -0.073 Cl
ENDBRANCH   4   9
TORSDOF 2
ENDMDL
MODEL 5
REMARK VINA RESULT: -5.882064610      2.865      4.367
REMARK  2 active torsions:
REMARK  status: ('A' for Active; 'I' for Inactive)
REMARK    1  A    between atoms: C1_2  and  C2_4 
REMARK       I    between atoms: N2_6  and  C4_7 
REMARK    2  A    between atoms: C4_7  and  C5_9 
ROOT
HETATM    1  C2  UNL     1     -18.108 -12.618  69.643  1.00  0.00     0.194 A 
HETATM    2  C3  UNL     1     -19.406 -12.566  68.981  1.00  0.00     0.161 A 
HETATM    3  N2  UNL     1     -18.447 -11.428  68.888  1.00  0.00    -0.331 N 
HETATM    4  C4  UNL     1     -18.192 -10.132  68.371  1.00  0.00     0.275 C 
HETATM    5  O2  UNL     1     -19.064  -9.558  67.660  1.00  0.00    -0.268 OA
ENDROOT
BRANCH   1   6
HETATM    6  C1  UNL     1     -17.144 -13.586  69.083  1.00  0.00     0.255 C 
HETATM    7  N1  UNL     1     -16.806 -13.576  67.699  1.00  0.00    -0.060 NA
HETATM    8  O1  UNL     1     -16.626 -14.422  69.862  1.00  0.00    -0.275 OA
ENDBRANCH   1   6
BRANCH   4   9
HETATM    9  C5  UNL     1     -16.919  -9.415  68.640  1.00  0.00     0.269 C 
HETATM   10 CL1  UNL     1     -16.871  -7.877  67.768  1.00  0.00    -0.073 Cl
HETATM   11 CL2  UNL     1     -15.575 -10.487  68.108  1.00  0.00    -0.073 Cl
HETATM   12 CL3  UNL     1     -16.717  -9.186  70.390  1.00  0.00    -0.073 Cl
ENDBRANCH   4   9
TORSDOF 2
ENDMDL
