MODEL 1
REMARK VINA RESULT: -5.471482694      0.000      0.000
REMARK  3 active torsions:
REMARK  status: ('A' for Active; 'I' for Inactive)
REMARK    1  A    between atoms: S1_2  and  C2_5 
REMARK    2  A    between atoms: C2_5  and  C3_6 
REMARK    3  A    between atoms: C4_7  and  C5_8 
ROOT
HETATM    1  C3  UNL     1     -17.247 -10.998  70.686  1.00  0.00    -0.087 C 
HETATM    2  C4  UNL     1     -17.496 -11.821  69.847  1.00  0.00    -0.047 C 
ENDROOT
BRANCH   1   3
HETATM    3  C2  UNL     1     -16.953  -9.980  71.695  1.00  0.00     0.233 C 
BRANCH   3   4
HETATM    4  S1  UNL     1     -16.870 -10.822  73.268  1.00  0.00     0.151 S 
HETATM    5  C1  UNL     1     -15.127 -11.102  73.595  1.00  0.00     0.162 C 
HETATM    6  O1  UNL     1     -17.580 -12.142  73.198  1.00  0.00    -0.227 OA
HETATM    7  O2  UNL     1     -17.489  -9.975  74.341  1.00  0.00    -0.227 OA
ENDBRANCH   3   4
ENDBRANCH   1   3
BRANCH   2   8
HETATM    8  C5  UNL     1     -17.818 -12.813  68.809  1.00  0.00     0.253 C 
HETATM    9 CL1  UNL     1     -17.524 -12.169  67.177  1.00  0.00    -0.070 Cl
HETATM   10 CL2  UNL     1     -16.854 -14.293  69.044  1.00  0.00    -0.070 Cl
HETATM   11 CL3  UNL     1     -19.563 -13.147  68.939  1.00  0.00    -0.070 Cl
ENDBRANCH   2   8
TORSDOF 3
ENDMDL
MODEL 2
REMARK VINA RESULT: -5.433178998      1.587      1.911
REMARK  3 active torsions:
REMARK  status: ('A' for Active; 'I' for Inactive)
REMARK    1  A    between atoms: S1_2  and  C2_5 
REMARK    2  A    between atoms: C2_5  and  C3_6 
REMARK    3  A    between atoms: C4_7  and  C5_8 
ROOT
HETATM    1  C3  UNL     1     -17.145 -11.976  71.564  1.00  0.00    -0.087 C 
HETATM    2  C4  UNL     1     -17.547 -11.924  70.434  1.00  0.00    -0.047 C 
ENDROOT
BRANCH   1   3
HETATM    3  C2  UNL     1     -16.676 -12.046  72.949  1.00  0.00     0.233 C 
BRANCH   3   4
HETATM    4  S1  UNL     1     -16.287 -10.375  73.445  1.00  0.00     0.151 S 
HETATM    5  C1  UNL     1     -15.593 -10.491  75.096  1.00  0.00     0.162 C 
HETATM    6  O1  UNL     1     -17.529  -9.533  73.486  1.00  0.00    -0.227 OA
HETATM    7  O2  UNL     1     -15.300  -9.768  72.489  1.00  0.00    -0.227 OA
ENDBRANCH   3   4
ENDBRANCH   1   3
BRANCH   2   8
HETATM    8  C5  UNL     1     -18.057 -11.878  69.055  1.00  0.00     0.253 C 
HETATM    9 CL1  UNL     1     -18.718 -10.274  68.657  1.00  0.00    -0.070 Cl
HETATM   10 CL2  UNL     1     -16.764 -12.288  67.899  1.00  0.00    -0.070 Cl
HETATM   11 CL3  UNL     1     -19.403 -13.041  68.963  1.00  0.00    -0.070 Cl
ENDBRANCH   2   8
TORSDOF 3
ENDMDL
MODEL 3
REMARK VINA RESULT: -5.431809762      1.593      2.063
REMARK  3 active torsions:
REMARK  status: ('A' for Active; 'I' for Inactive)
REMARK    1  A    between atoms: S1_2  and  C2_5 
REMARK    2  A    between atoms: C2_5  and  C3_6 
REMARK    3  A    between atoms: C4_7  and  C5_8 
ROOT
HETATM    1  C3  UNL     1     -17.122 -11.977  71.608  1.00  0.00    -0.087 C 
HETATM    2  C4  UNL     1     -17.545 -11.936  70.485  1.00  0.00    -0.047 C 
ENDROOT
BRANCH   1   3
HETATM    3  C2  UNL     1     -16.626 -12.040  72.984  1.00  0.00     0.233 C 
BRANCH   3   4
HETATM    4  S1  UNL     1     -16.261 -10.361  73.475  1.00  0.00     0.151 S 
HETATM    5  C1  UNL     1     -15.568 -10.462  75.128  1.00  0.00     0.162 C 
HETATM    6  O1  UNL     1     -17.514  -9.537  73.512  1.00  0.00    -0.227 OA
HETATM    7  O2  UNL     1     -15.281  -9.745  72.519  1.00  0.00    -0.227 OA
ENDBRANCH   3   4
ENDBRANCH   1   3
BRANCH   2   8
HETATM    8  C5  UNL     1     -18.076 -11.906  69.113  1.00  0.00     0.253 C 
HETATM    9 CL1  UNL     1     -16.823 -12.320  67.919  1.00  0.00    -0.070 Cl
HETATM   10 CL2  UNL     1     -19.444 -13.036  68.952  1.00  0.00    -0.070 Cl
HETATM   11 CL3  UNL     1     -18.579 -10.228  68.791  1.00  0.00    -0.070 Cl
ENDBRANCH   2   8
TORSDOF 3
ENDMDL
MODEL 4
REMARK VINA RESULT: -5.426015942      1.376      2.165
REMARK  3 active torsions:
REMARK  status: ('A' for Active; 'I' for Inactive)
REMARK    1  A    between atoms: S1_2  and  C2_5 
REMARK    2  A    between atoms: C2_5  and  C3_6 
REMARK    3  A    between atoms: C4_7  and  C5_8 
ROOT
HETATM    1  C3  UNL     1     -17.243 -12.209  71.769  1.00  0.00    -0.087 C 
HETATM    2  C4  UNL     1     -17.399 -12.429  70.598  1.00  0.00    -0.047 C 
ENDROOT
BRANCH   1   3
HETATM    3  C2  UNL     1     -17.074 -11.950  73.199  1.00  0.00     0.233 C 
BRANCH   3   4
HETATM    4  S1  UNL     1     -16.781 -10.196  73.372  1.00  0.00     0.151 S 
HETATM    5  C1  UNL     1     -15.003  -9.996  73.510  1.00  0.00     0.162 C 
HETATM    6  O1  UNL     1     -17.438  -9.671  74.615  1.00  0.00    -0.227 OA
HETATM    7  O2  UNL     1     -17.313  -9.463  72.174  1.00  0.00    -0.227 OA
ENDBRANCH   3   4
ENDBRANCH   1   3
BRANCH   2   8
HETATM    8  C5  UNL     1     -17.606 -12.717  69.170  1.00  0.00     0.253 C 
HETATM    9 CL1  UNL     1     -16.851 -14.258  68.699  1.00  0.00    -0.070 Cl
HETATM   10 CL2  UNL     1     -19.347 -12.773  68.794  1.00  0.00    -0.070 Cl
HETATM   11 CL3  UNL     1     -16.786 -11.426  68.259  1.00  0.00    -0.070 Cl
ENDBRANCH   2   8
TORSDOF 3
ENDMDL
MODEL 5
REMARK VINA RESULT: -5.422474026      1.594      2.412
REMARK  3 active torsions:
REMARK  status: ('A' for Active; 'I' for Inactive)
REMARK    1  A    between atoms: S1_2  and  C2_5 
REMARK    2  A    between atoms: C2_5  and  C3_6 
REMARK    3  A    between atoms: C4_7  and  C5_8 
ROOT
HETATM    1  C3  UNL     1     -17.116 -11.994  71.607  1.00  0.00    -0.087 C 
HETATM    2  C4  UNL     1     -17.553 -11.960  70.489  1.00  0.00    -0.047 C 
ENDROOT
BRANCH   1   3
HETATM    3  C2  UNL     1     -16.604 -12.032  72.978  1.00  0.00     0.233 C 
BRANCH   3   4
HETATM    4  S1  UNL     1     -16.253 -10.343  73.442  1.00  0.00     0.151 S 
HETATM    5  C1  UNL     1     -15.508 -10.416  75.073  1.00  0.00     0.162 C 
HETATM    6  O1  UNL     1     -17.518  -9.539  73.509  1.00  0.00    -0.227 OA
HETATM    7  O2  UNL     1     -15.314  -9.720  72.450  1.00  0.00    -0.227 OA
ENDBRANCH   3   4
ENDBRANCH   1   3
BRANCH   2   8
HETATM    8  C5  UNL     1     -18.111 -11.925  69.128  1.00  0.00     0.253 C 
HETATM    9 CL1  UNL     1     -19.458 -13.074  68.946  1.00  0.00    -0.070 Cl
HETATM   10 CL2  UNL     1     -18.676 -10.283  68.730  1.00  0.00    -0.070 Cl
HETATM   11 CL3  UNL     1     -16.816 -12.452  68.025  1.00  0.00    -0.070 Cl
ENDBRANCH   2   8
TORSDOF 3
ENDMDL
