MODEL 1
REMARK VINA RESULT: -4.556047031      0.000      0.000
REMARK  3 active torsions:
REMARK  status: ('A' for Active; 'I' for Inactive)
REMARK    1  A    between atoms: N1_1  and  O1_4 
REMARK    2  A    between atoms: O1_4  and  C1_5 
REMARK    3  A    between atoms: C1_5  and  C2_7 
ROOT
HETATM    1  C1  UNL     1     -17.341  -6.928  62.809  1.00  0.00     0.305 C 
HETATM    2  O2  UNL     1     -18.368  -7.622  62.602  1.00  0.00    -0.261 OA
ENDROOT
BRANCH   1   3
HETATM    3  O1  UNL     1     -16.481  -7.355  63.809  1.00  0.00    -0.205 OA
BRANCH   3   4
HETATM    4  N1  UNL     1     -16.952  -7.511  65.087  1.00  0.00    -0.302 N 
ATOM      5  H12 UNL     1     -17.883  -7.905  65.230  1.00  0.00     0.184 HD
ATOM      6  H11 UNL     1     -16.369  -7.234  65.877  1.00  0.00     0.184 HD
ENDBRANCH   3   4
ENDBRANCH   1   3
BRANCH   1   7
HETATM    7  C2  UNL     1     -17.015  -5.698  62.045  1.00  0.00     0.230 C 
HETATM    8 BR1  UNL     1     -17.967  -5.617  60.386  1.00  0.00    -0.068 Br
HETATM    9 BR2  UNL     1     -15.090  -5.637  61.782  1.00  0.00    -0.068 Br
ENDBRANCH   1   7
TORSDOF 3
ENDMDL
MODEL 2
REMARK VINA RESULT: -4.548037270      6.477      6.905
REMARK  3 active torsions:
REMARK  status: ('A' for Active; 'I' for Inactive)
REMARK    1  A    between atoms: N1_1  and  O1_4 
REMARK    2  A    between atoms: O1_4  and  C1_5 
REMARK    3  A    between atoms: C1_5  and  C2_7 
ROOT
HETATM    1  C1  UNL     1     -18.216 -10.126  66.991  1.00  0.00     0.305 C 
HETATM    2  O2  UNL     1     -18.998 -10.462  66.067  1.00  0.00    -0.261 OA
ENDROOT
BRANCH   1   3
HETATM    3  O1  UNL     1     -17.005  -9.561  66.619  1.00  0.00    -0.205 OA
BRANCH   3   4
HETATM    4  N1  UNL     1     -16.990  -8.340  65.996  1.00  0.00    -0.302 N 
ATOM      5  H12 UNL     1     -16.637  -8.273  65.041  1.00  0.00     0.184 HD
ATOM      6  H11 UNL     1     -17.331  -7.517  66.492  1.00  0.00     0.184 HD
ENDBRANCH   3   4
ENDBRANCH   1   3
BRANCH   1   7
HETATM    7  C2  UNL     1     -18.525 -10.302  68.432  1.00  0.00     0.230 C 
HETATM    8 BR1  UNL     1     -17.150  -9.576  69.549  1.00  0.00    -0.068 Br
HETATM    9 BR2  UNL     1     -18.810 -12.196  68.766  1.00  0.00    -0.068 Br
ENDBRANCH   1   7
TORSDOF 3
ENDMDL
MODEL 3
REMARK VINA RESULT: -4.448524356      6.786      7.140
REMARK  3 active torsions:
REMARK  status: ('A' for Active; 'I' for Inactive)
REMARK    1  A    between atoms: N1_1  and  O1_4 
REMARK    2  A    between atoms: O1_4  and  C1_5 
REMARK    3  A    between atoms: C1_5  and  C2_7 
ROOT
HETATM    1  C1  UNL     1     -17.217 -10.304  67.008  1.00  0.00     0.305 C 
HETATM    2  O2  UNL     1     -16.763  -9.195  66.630  1.00  0.00    -0.261 OA
ENDROOT
BRANCH   1   3
HETATM    3  O1  UNL     1     -18.221 -10.872  66.239  1.00  0.00    -0.205 OA
BRANCH   3   4
HETATM    4  N1  UNL     1     -19.401 -10.197  66.059  1.00  0.00    -0.302 N 
ATOM      5  H12 UNL     1     -19.799  -9.675  66.839  1.00  0.00     0.184 HD
ATOM      6  H11 UNL     1     -19.864 -10.225  65.151  1.00  0.00     0.184 HD
ENDBRANCH   3   4
ENDBRANCH   1   3
BRANCH   1   7
HETATM    7  C2  UNL     1     -16.735 -11.018  68.217  1.00  0.00     0.230 C 
HETATM    8 BR1  UNL     1     -17.059 -12.901  68.109  1.00  0.00    -0.068 Br
HETATM    9 BR2  UNL     1     -17.586 -10.222  69.773  1.00  0.00    -0.068 Br
ENDBRANCH   1   7
TORSDOF 3
ENDMDL
MODEL 4
REMARK VINA RESULT: -4.445146282      0.604      1.812
REMARK  3 active torsions:
REMARK  status: ('A' for Active; 'I' for Inactive)
REMARK    1  A    between atoms: N1_1  and  O1_4 
REMARK    2  A    between atoms: O1_4  and  C1_5 
REMARK    3  A    between atoms: C1_5  and  C2_7 
ROOT
HETATM    1  C1  UNL     1     -17.096  -7.215  62.395  1.00  0.00     0.305 C 
HETATM    2  O2  UNL     1     -18.290  -7.605  62.416  1.00  0.00    -0.261 OA
ENDROOT
BRANCH   1   3
HETATM    3  O1  UNL     1     -16.366  -7.352  63.566  1.00  0.00    -0.205 OA
BRANCH   3   4
HETATM    4  N1  UNL     1     -17.021  -7.426  64.768  1.00  0.00    -0.302 N 
ATOM      5  H12 UNL     1     -17.164  -6.574  65.311  1.00  0.00     0.184 HD
ATOM      6  H11 UNL     1     -17.358  -8.328  65.104  1.00  0.00     0.184 HD
ENDBRANCH   3   4
ENDBRANCH   1   3
BRANCH   1   7
HETATM    7  C2  UNL     1     -16.446  -6.625  61.198  1.00  0.00     0.230 C 
HETATM    8 BR1  UNL     1     -14.950  -5.528  61.668  1.00  0.00    -0.068 Br
HETATM    9 BR2  UNL     1     -17.790  -5.636  60.201  1.00  0.00    -0.068 Br
ENDBRANCH   1   7
TORSDOF 3
ENDMDL
MODEL 5
REMARK VINA RESULT: -4.355643893      1.345      1.986
REMARK  3 active torsions:
REMARK  status: ('A' for Active; 'I' for Inactive)
REMARK    1  A    between atoms: N1_1  and  O1_4 
REMARK    2  A    between atoms: O1_4  and  C1_5 
REMARK    3  A    between atoms: C1_5  and  C2_7 
ROOT
HETATM    1  C1  UNL     1     -17.670  -6.647  63.053  1.00  0.00     0.305 C 
HETATM    2  O2  UNL     1     -18.257  -5.747  63.703  1.00  0.00    -0.261 OA
ENDROOT
BRANCH   1   3
HETATM    3  O1  UNL     1     -16.806  -7.473  63.755  1.00  0.00    -0.205 OA
BRANCH   3   4
HETATM    4  N1  UNL     1     -16.860  -7.503  65.125  1.00  0.00    -0.302 N 
ATOM      5  H12 UNL     1     -16.047  -7.827  65.649  1.00  0.00     0.184 HD
ATOM      6  H11 UNL     1     -17.710  -7.201  65.602  1.00  0.00     0.184 HD
ENDBRANCH   3   4
ENDBRANCH   1   3
BRANCH   1   7
HETATM    7  C2  UNL     1     -17.857  -6.861  61.596  1.00  0.00     0.230 C 
HETATM    8 BR1  UNL     1     -16.196  -7.199  60.706  1.00  0.00    -0.068 Br
HETATM    9 BR2  UNL     1     -18.770  -5.307  60.865  1.00  0.00    -0.068 Br
ENDBRANCH   1   7
TORSDOF 3
ENDMDL
