MODEL 1
REMARK VINA RESULT: -4.925708458      0.000      0.000
REMARK  4 active torsions:
REMARK  status: ('A' for Active; 'I' for Inactive)
REMARK    1  A    between atoms: C2_2  and  S1_3 
REMARK    2  A    between atoms: S1_3  and  N1_6 
REMARK    3  A    between atoms: N1_6  and  C3_8 
REMARK    4  A    between atoms: C5_10  and  O3_11 
ROOT
HETATM    1  N1  UNL     1      -1.902   3.689   9.363  1.00  0.00    -0.309 N 
ATOM      2  H1  UNL     1      -2.680   3.165   8.963  1.00  0.00     0.172 HD
ENDROOT
BRANCH   1   3
HETATM    3  S1  UNL     1      -1.474   5.269   8.842  1.00  0.00     0.248 S 
HETATM    4  O1  UNL     1      -2.389   6.228   9.556  1.00  0.00    -0.201 OA
HETATM    5  O2  UNL     1      -1.715   5.447   7.372  1.00  0.00    -0.201 OA
BRANCH   3   6
HETATM    6  C2  UNL     1       0.169   5.673   9.227  1.00  0.00     0.121 C 
HETATM    7  C1  UNL     1       0.423   6.534  10.188  1.00  0.00     0.025 C 
ENDBRANCH   3   6
ENDBRANCH   1   3
BRANCH   1   8
HETATM    8  C3  UNL     1      -1.075   3.176  10.400  1.00  0.00     0.124 A 
HETATM    9  C4  UNL     1      -1.788   2.203  11.340  1.00  0.00     0.062 A 
HETATM   10  C5  UNL     1      -0.731   1.705  10.378  1.00  0.00     0.143 A 
BRANCH  10  11
HETATM   11  O3  UNL     1      -1.237   0.910   9.356  1.00  0.00    -0.393 OA
ATOM     12  H3  UNL     1      -2.145   1.015   9.099  1.00  0.00     0.210 HD
ENDBRANCH  10  11
ENDBRANCH   1   8
TORSDOF 4
ENDMDL
MODEL 2
REMARK VINA RESULT: -4.894935273      2.174      2.633
REMARK  4 active torsions:
REMARK  status: ('A' for Active; 'I' for Inactive)
REMARK    1  A    between atoms: C2_2  and  S1_3 
REMARK    2  A    between atoms: S1_3  and  N1_6 
REMARK    3  A    between atoms: N1_6  and  C3_8 
REMARK    4  A    between atoms: C5_10  and  O3_11 
ROOT
HETATM    1  N1  UNL     1      -2.428   3.676   8.996  1.00  0.00    -0.309 N 
ATOM      2  H1  UNL     1      -2.787   2.944   8.382  1.00  0.00     0.172 HD
ENDROOT
BRANCH   1   3
HETATM    3  S1  UNL     1      -2.087   5.269   8.451  1.00  0.00     0.248 S 
HETATM    4  O1  UNL     1      -0.600   5.347   8.228  1.00  0.00    -0.201 OA
HETATM    5  O2  UNL     1      -2.426   6.291   9.496  1.00  0.00    -0.201 OA
BRANCH   3   6
HETATM    6  C2  UNL     1      -2.895   5.651   6.965  1.00  0.00     0.121 C 
HETATM    7  C1  UNL     1      -3.316   4.682   6.181  1.00  0.00     0.025 C 
ENDBRANCH   3   6
ENDBRANCH   1   3
BRANCH   1   8
HETATM    8  C3  UNL     1      -2.166   3.467  10.377  1.00  0.00     0.124 A 
HETATM    9  C4  UNL     1      -1.949   2.000  10.755  1.00  0.00     0.062 A 
HETATM   10  C5  UNL     1      -0.794   2.978  10.779  1.00  0.00     0.143 A 
BRANCH  10  11
HETATM   11  O3  UNL     1       0.154   2.745   9.789  1.00  0.00    -0.393 OA
ATOM     12  H3  UNL     1       0.985   2.353  10.030  1.00  0.00     0.210 HD
ENDBRANCH  10  11
ENDBRANCH   1   8
TORSDOF 4
ENDMDL
MODEL 3
REMARK VINA RESULT: -4.844246433      1.886      2.287
REMARK  4 active torsions:
REMARK  status: ('A' for Active; 'I' for Inactive)
REMARK    1  A    between atoms: C2_2  and  S1_3 
REMARK    2  A    between atoms: S1_3  and  N1_6 
REMARK    3  A    between atoms: N1_6  and  C3_8 
REMARK    4  A    between atoms: C5_10  and  O3_11 
ROOT
HETATM    1  N1  UNL     1      -2.125   3.597   9.223  1.00  0.00    -0.309 N 
ATOM      2  H1  UNL     1      -2.786   2.893   8.895  1.00  0.00     0.172 HD
ENDROOT
BRANCH   1   3
HETATM    3  S1  UNL     1      -2.022   5.172   8.544  1.00  0.00     0.248 S 
HETATM    4  O1  UNL     1      -0.572   5.417   8.223  1.00  0.00    -0.201 OA
HETATM    5  O2  UNL     1      -2.435   6.224   9.531  1.00  0.00    -0.201 OA
BRANCH   3   6
HETATM    6  C2  UNL     1      -2.951   5.329   7.087  1.00  0.00     0.121 C 
HETATM    7  C1  UNL     1      -2.999   6.487   6.464  1.00  0.00     0.025 C 
ENDBRANCH   3   6
ENDBRANCH   1   3
BRANCH   1   8
HETATM    8  C3  UNL     1      -1.206   3.361  10.282  1.00  0.00     0.124 A 
HETATM    9  C4  UNL     1      -1.713   2.378  11.339  1.00  0.00     0.062 A 
HETATM   10  C5  UNL     1      -0.590   1.987  10.402  1.00  0.00     0.143 A 
BRANCH  10  11
HETATM   11  O3  UNL     1      -0.947   1.007   9.483  1.00  0.00    -0.393 OA
ATOM     12  H3  UNL     1      -0.391   0.861   8.727  1.00  0.00     0.210 HD
ENDBRANCH  10  11
ENDBRANCH   1   8
TORSDOF 4
ENDMDL
MODEL 4
REMARK VINA RESULT: -4.826547912      1.712      1.837
REMARK  4 active torsions:
REMARK  status: ('A' for Active; 'I' for Inactive)
REMARK    1  A    between atoms: C2_2  and  S1_3 
REMARK    2  A    between atoms: S1_3  and  N1_6 
REMARK    3  A    between atoms: N1_6  and  C3_8 
REMARK    4  A    between atoms: C5_10  and  O3_11 
ROOT
HETATM    1  N1  UNL     1      -2.833   4.059  10.095  1.00  0.00    -0.309 N 
ATOM      2  H1  UNL     1      -3.738   4.383  10.435  1.00  0.00     0.172 HD
ENDROOT
BRANCH   1   3
HETATM    3  S1  UNL     1      -1.705   5.090   9.309  1.00  0.00     0.248 S 
HETATM    4  O1  UNL     1      -2.163   6.504   9.549  1.00  0.00    -0.201 OA
HETATM    5  O2  UNL     1      -1.709   4.876   7.824  1.00  0.00    -0.201 OA
BRANCH   3   6
HETATM    6  C2  UNL     1      -0.096   4.910   9.930  1.00  0.00     0.121 C 
HETATM    7  C1  UNL     1       0.922   4.840   9.099  1.00  0.00     0.025 C 
ENDBRANCH   3   6
ENDBRANCH   1   3
BRANCH   1   8
HETATM    8  C3  UNL     1      -2.393   2.713  10.228  1.00  0.00     0.124 A 
HETATM    9  C4  UNL     1      -2.094   2.296  11.669  1.00  0.00     0.062 A 
HETATM   10  C5  UNL     1      -3.295   1.733  10.941  1.00  0.00     0.143 A 
BRANCH  10  11
HETATM   11  O3  UNL     1      -4.511   2.182  11.444  1.00  0.00    -0.393 OA
ATOM     12  H3  UNL     1      -5.200   2.423  10.835  1.00  0.00     0.210 HD
ENDBRANCH  10  11
ENDBRANCH   1   8
TORSDOF 4
ENDMDL
MODEL 5
REMARK VINA RESULT: -4.782614881      2.095      3.849
REMARK  4 active torsions:
REMARK  status: ('A' for Active; 'I' for Inactive)
REMARK    1  A    between atoms: C2_2  and  S1_3 
REMARK    2  A    between atoms: S1_3  and  N1_6 
REMARK    3  A    between atoms: N1_6  and  C3_8 
REMARK    4  A    between atoms: C5_10  and  O3_11 
ROOT
HETATM    1  N1  UNL     1      -0.188   5.214   8.590  1.00  0.00    -0.309 N 
ATOM      2  H1  UNL     1       0.382   4.409   8.333  1.00  0.00     0.172 HD
ENDROOT
BRANCH   1   3
HETATM    3  S1  UNL     1      -1.903   5.221   8.473  1.00  0.00     0.248 S 
HETATM    4  O1  UNL     1      -2.242   5.276   7.007  1.00  0.00    -0.201 OA
HETATM    5  O2  UNL     1      -2.491   6.449   9.103  1.00  0.00    -0.201 OA
BRANCH   3   6
HETATM    6  C2  UNL     1      -2.621   3.800   9.161  1.00  0.00     0.121 C 
HETATM    7  C1  UNL     1      -2.379   3.485  10.415  1.00  0.00     0.025 C 
ENDBRANCH   3   6
ENDBRANCH   1   3
BRANCH   1   8
HETATM    8  C3  UNL     1       0.364   6.431   9.077  1.00  0.00     0.124 A 
HETATM    9  C4  UNL     1       0.709   6.405  10.567  1.00  0.00     0.062 A 
HETATM   10  C5  UNL     1       1.807   6.431   9.526  1.00  0.00     0.143 A 
BRANCH  10  11
HETATM   11  O3  UNL     1       2.534   5.250   9.453  1.00  0.00    -0.393 OA
ATOM     12  H3  UNL     1       2.796   4.820  10.259  1.00  0.00     0.210 HD
ENDBRANCH  10  11
ENDBRANCH   1   8
TORSDOF 4
ENDMDL
