MODEL 1
REMARK VINA RESULT: -5.860006217      0.000      0.000
REMARK  5 active torsions:
REMARK  status: ('A' for Active; 'I' for Inactive)
REMARK    1  A    between atoms: C3_3  and  N1_4 
REMARK    2  A    between atoms: N1_4  and  O1_5 
REMARK    3  A    between atoms: C4_7  and  C5_8 
REMARK    4  A    between atoms: C7_10  and  C8_11 
REMARK    5  A    between atoms: C8_11  and  O2_12 
ROOT
HETATM    1  C1  UNL     1      -3.415  -1.402  11.228  1.00  0.00     0.014 C 
HETATM    2  C2  UNL     1      -3.814  -0.322  10.859  1.00  0.00    -0.095 C 
HETATM    3  C3  UNL     1      -4.312   0.992  10.425  1.00  0.00     0.247 C 
ENDROOT
BRANCH   3   4
HETATM    4  N1  UNL     1      -3.334   2.035  10.696  1.00  0.00    -0.263 N 
HETATM    5  C4  UNL     1      -2.174   2.075  10.127  1.00  0.00     0.123 C 
BRANCH   4   6
HETATM    6  O1  UNL     1      -3.699   3.013  11.615  1.00  0.00    -0.287 OA
ATOM      7  H1  UNL     1      -3.242   3.010  12.447  1.00  0.00     0.244 HD
ENDBRANCH   4   6
BRANCH   5   8
HETATM    8  C5  UNL     1      -1.247   3.134  10.438  1.00  0.00     0.228 C 
HETATM    9  C6  UNL     1      -1.393   4.438   9.655  1.00  0.00     0.073 C 
HETATM   10  C7  UNL     1       0.096   4.496  10.009  1.00  0.00     0.212 C 
HETATM   11  N2  UNL     1       0.070   3.059   9.783  1.00  0.00    -0.060 N 
ATOM     12  H22 UNL     1       0.811   2.437  10.109  1.00  0.00     0.278 HD
ATOM     13  H21 UNL     1       0.203   2.645   8.861  1.00  0.00     0.278 HD
BRANCH  10  14
HETATM   14  C8  UNL     1       0.941   5.277   9.057  1.00  0.00     0.197 C 
BRANCH  14  15
HETATM   15  O2  UNL     1       2.268   5.059   9.368  1.00  0.00    -0.399 OA
ATOM     16  H2  UNL     1       2.431   5.395  10.242  1.00  0.00     0.209 HD
ENDBRANCH  14  15
ENDBRANCH  10  14
ENDBRANCH   5   8
ENDBRANCH   3   4
TORSDOF 5
ENDMDL
MODEL 2
REMARK VINA RESULT: -5.632807677      0.886      1.217
REMARK  5 active torsions:
REMARK  status: ('A' for Active; 'I' for Inactive)
REMARK    1  A    between atoms: C3_3  and  N1_4 
REMARK    2  A    between atoms: N1_4  and  O1_5 
REMARK    3  A    between atoms: C4_7  and  C5_8 
REMARK    4  A    between atoms: C7_10  and  C8_11 
REMARK    5  A    between atoms: C8_11  and  O2_12 
ROOT
HETATM    1  C1  UNL     1      -6.346   0.789  11.678  1.00  0.00     0.014 C 
HETATM    2  C2  UNL     1      -5.363   0.808  10.973  1.00  0.00    -0.095 C 
HETATM    3  C3  UNL     1      -4.179   0.837  10.101  1.00  0.00     0.247 C 
ENDROOT
BRANCH   3   4
HETATM    4  N1  UNL     1      -3.276   1.912  10.486  1.00  0.00    -0.263 N 
HETATM    5  C4  UNL     1      -2.128   2.100   9.923  1.00  0.00     0.123 C 
BRANCH   4   6
HETATM    6  O1  UNL     1      -3.702   2.751  11.510  1.00  0.00    -0.287 OA
ATOM      7  H1  UNL     1      -3.026   3.186  12.016  1.00  0.00     0.244 HD
ENDBRANCH   4   6
BRANCH   5   8
HETATM    8  C5  UNL     1      -1.278   3.184  10.349  1.00  0.00     0.228 C 
HETATM    9  C6  UNL     1      -1.434   4.517   9.621  1.00  0.00     0.073 C 
HETATM   10  C7  UNL     1       0.024   4.625  10.082  1.00  0.00     0.212 C 
HETATM   11  N2  UNL     1       0.083   3.202   9.786  1.00  0.00    -0.060 N 
ATOM     12  H22 UNL     1       0.830   2.599  10.133  1.00  0.00     0.278 HD
ATOM     13  H21 UNL     1       0.299   2.842   8.856  1.00  0.00     0.278 HD
BRANCH  10  14
HETATM   14  C8  UNL     1       0.892   5.492   9.230  1.00  0.00     0.197 C 
BRANCH  14  15
HETATM   15  O2  UNL     1       2.184   5.009   9.289  1.00  0.00    -0.399 OA
ATOM     16  H2  UNL     1       2.777   5.702   9.022  1.00  0.00     0.209 HD
ENDBRANCH  14  15
ENDBRANCH  10  14
ENDBRANCH   5   8
ENDBRANCH   3   4
TORSDOF 5
ENDMDL
MODEL 3
REMARK VINA RESULT: -5.605495190      0.861      1.017
REMARK  5 active torsions:
REMARK  status: ('A' for Active; 'I' for Inactive)
REMARK    1  A    between atoms: C3_3  and  N1_4 
REMARK    2  A    between atoms: N1_4  and  O1_5 
REMARK    3  A    between atoms: C4_7  and  C5_8 
REMARK    4  A    between atoms: C7_10  and  C8_11 
REMARK    5  A    between atoms: C8_11  and  O2_12 
ROOT
HETATM    1  C1  UNL     1      -3.958  -0.467   8.359  1.00  0.00     0.014 C 
HETATM    2  C2  UNL     1      -4.093   0.075   9.431  1.00  0.00    -0.095 C 
HETATM    3  C3  UNL     1      -4.249   0.720  10.744  1.00  0.00     0.247 C 
ENDROOT
BRANCH   3   4
HETATM    4  N1  UNL     1      -3.323   1.833  10.890  1.00  0.00    -0.263 N 
HETATM    5  C4  UNL     1      -2.134   1.829  10.384  1.00  0.00     0.123 C 
BRANCH   4   6
HETATM    6  O1  UNL     1      -3.773   2.932  11.616  1.00  0.00    -0.287 OA
ATOM      7  H1  UNL     1      -3.271   3.170  12.386  1.00  0.00     0.244 HD
ENDBRANCH   4   6
BRANCH   5   8
HETATM    8  C5  UNL     1      -1.263   2.963  10.563  1.00  0.00     0.228 C 
HETATM    9  C6  UNL     1      -1.479   4.159   9.638  1.00  0.00     0.073 C 
HETATM   10  C7  UNL     1       0.007   4.334   9.970  1.00  0.00     0.212 C 
HETATM   11  N2  UNL     1       0.055   2.881   9.909  1.00  0.00    -0.060 N 
ATOM     12  H22 UNL     1       0.828   2.339  10.296  1.00  0.00     0.278 HD
ATOM     13  H21 UNL     1       0.206   2.371   9.039  1.00  0.00     0.278 HD
BRANCH  10  14
HETATM   14  C8  UNL     1       0.807   5.043   8.927  1.00  0.00     0.197 C 
BRANCH  14  15
HETATM   15  O2  UNL     1       2.141   4.973   9.276  1.00  0.00    -0.399 OA
ATOM     16  H2  UNL     1       2.445   4.086   9.126  1.00  0.00     0.209 HD
ENDBRANCH  14  15
ENDBRANCH  10  14
ENDBRANCH   5   8
ENDBRANCH   3   4
TORSDOF 5
ENDMDL
MODEL 4
REMARK VINA RESULT: -5.430958770      2.165      6.054
REMARK  5 active torsions:
REMARK  status: ('A' for Active; 'I' for Inactive)
REMARK    1  A    between atoms: C3_3  and  N1_4 
REMARK    2  A    between atoms: N1_4  and  O1_5 
REMARK    3  A    between atoms: C4_7  and  C5_8 
REMARK    4  A    between atoms: C7_10  and  C8_11 
REMARK    5  A    between atoms: C8_11  and  O2_12 
ROOT
HETATM    1  C1  UNL     1       1.586   7.690  12.329  1.00  0.00     0.014 C 
HETATM    2  C2  UNL     1       1.625   7.355  11.168  1.00  0.00    -0.095 C 
HETATM    3  C3  UNL     1       1.689   6.945   9.756  1.00  0.00     0.247 C 
ENDROOT
BRANCH   3   4
HETATM    4  N1  UNL     1       1.039   5.658   9.558  1.00  0.00    -0.263 N 
HETATM    5  C4  UNL     1      -0.182   5.427   9.912  1.00  0.00     0.123 C 
BRANCH   4   6
HETATM    6  O1  UNL     1       1.799   4.658   8.960  1.00  0.00    -0.287 OA
ATOM      7  H1  UNL     1       2.449   4.231   9.505  1.00  0.00     0.244 HD
ENDBRANCH   4   6
BRANCH   5   8
HETATM    8  C5  UNL     1      -0.770   4.130   9.688  1.00  0.00     0.228 C 
HETATM    9  C6  UNL     1      -2.113   3.850  10.362  1.00  0.00     0.073 C 
HETATM   10  C7  UNL     1      -1.563   2.424  10.242  1.00  0.00     0.212 C 
HETATM   11  N2  UNL     1      -0.279   3.036  10.545  1.00  0.00    -0.060 N 
ATOM     12  H22 UNL     1       0.609   2.563  10.377  1.00  0.00     0.278 HD
ATOM     13  H21 UNL     1       0.046   3.189  11.499  1.00  0.00     0.278 HD
BRANCH  10  14
HETATM   14  C8  UNL     1      -2.072   1.465  11.267  1.00  0.00     0.197 C 
BRANCH  14  15
HETATM   15  O2  UNL     1      -1.755   0.183  10.863  1.00  0.00    -0.399 OA
ATOM     16  H2  UNL     1      -1.434  -0.299  11.616  1.00  0.00     0.209 HD
ENDBRANCH  14  15
ENDBRANCH  10  14
ENDBRANCH   5   8
ENDBRANCH   3   4
TORSDOF 5
ENDMDL
MODEL 5
REMARK VINA RESULT: -5.253227775      2.051      2.524
REMARK  5 active torsions:
REMARK  status: ('A' for Active; 'I' for Inactive)
REMARK    1  A    between atoms: C3_3  and  N1_4 
REMARK    2  A    between atoms: N1_4  and  O1_5 
REMARK    3  A    between atoms: C4_7  and  C5_8 
REMARK    4  A    between atoms: C7_10  and  C8_11 
REMARK    5  A    between atoms: C8_11  and  O2_12 
ROOT
HETATM    1  C1  UNL     1      -6.523   0.474  11.588  1.00  0.00     0.014 C 
HETATM    2  C2  UNL     1      -5.799  -0.060  10.781  1.00  0.00    -0.095 C 
HETATM    3  C3  UNL     1      -4.928  -0.704   9.785  1.00  0.00     0.247 C 
ENDROOT
BRANCH   3   4
HETATM    4  N1  UNL     1      -3.604  -0.100   9.785  1.00  0.00    -0.263 N 
HETATM    5  C4  UNL     1      -3.162   0.622  10.761  1.00  0.00     0.123 C 
BRANCH   4   6
HETATM    6  O1  UNL     1      -2.811  -0.330   8.666  1.00  0.00    -0.287 OA
ATOM      7  H1  UNL     1      -3.168  -0.067   7.826  1.00  0.00     0.244 HD
ENDBRANCH   4   6
BRANCH   5   8
HETATM    8  C5  UNL     1      -1.839   1.193  10.702  1.00  0.00     0.228 C 
HETATM    9  C6  UNL     1      -1.602   2.480  11.490  1.00  0.00     0.073 C 
HETATM   10  C7  UNL     1      -0.542   2.631  10.393  1.00  0.00     0.212 C 
HETATM   11  N2  UNL     1      -1.545   2.031   9.527  1.00  0.00    -0.060 N 
ATOM     12  H22 UNL     1      -1.318   1.637   8.613  1.00  0.00     0.278 HD
ATOM     13  H21 UNL     1      -2.260   2.581   9.051  1.00  0.00     0.278 HD
BRANCH  10  14
HETATM   14  C8  UNL     1      -0.172   4.039  10.064  1.00  0.00     0.197 C 
BRANCH  14  15
HETATM   15  O2  UNL     1       0.933   4.019   9.235  1.00  0.00    -0.399 OA
ATOM     16  H2  UNL     1       1.396   4.842   9.332  1.00  0.00     0.209 HD
ENDBRANCH  14  15
ENDBRANCH  10  14
ENDBRANCH   5   8
ENDBRANCH   3   4
TORSDOF 5
ENDMDL
