MODEL 1
REMARK VINA RESULT: -5.318008350      0.000      0.000
REMARK  4 active torsions:
REMARK  status: ('A' for Active; 'I' for Inactive)
REMARK    1  A    between atoms: N1_1  and  S1_4 
REMARK    2  A    between atoms: S1_4  and  C1_7 
REMARK    3  A    between atoms: C1_7  and  C2_8 
REMARK    4  A    between atoms: C2_8  and  C3_9 
ROOT
HETATM    1  C1  UNL     1      -0.674   3.628  10.206  1.00  0.00     0.165 C 
ENDROOT
BRANCH   1   2
HETATM    2  S1  UNL     1      -0.085   5.086   9.367  1.00  0.00     0.224 S 
HETATM    3  O1  UNL     1      -0.132   6.277  10.282  1.00  0.00    -0.206 OA
HETATM    4  O2  UNL     1      -0.870   5.284   8.124  1.00  0.00    -0.206 OA
BRANCH   2   5
HETATM    5  N1  UNL     1       1.599   4.803   9.021  1.00  0.00    -0.328 N 
ATOM      6  H12 UNL     1       2.199   4.116   9.476  1.00  0.00     0.168 HD
ATOM      7  H11 UNL     1       1.852   5.459   8.282  1.00  0.00     0.168 HD
ENDBRANCH   2   5
ENDBRANCH   1   2
BRANCH   1   8
HETATM    8  C2  UNL     1      -2.198   3.606  10.259  1.00  0.00     0.049 C 
BRANCH   8   9
HETATM    9  C3  UNL     1      -2.574   2.797  11.480  1.00  0.00     0.188 C 
HETATM   10  C4  UNL     1      -2.280   1.336  11.412  1.00  0.00     0.060 C 
HETATM   11  C5  UNL     1      -3.601   1.264  10.681  1.00  0.00     0.235 C 
HETATM   12  N2  UNL     1      -3.999   2.464  11.426  1.00  0.00    -0.071 N 
ATOM     13  H22 UNL     1      -4.564   2.403  12.272  1.00  0.00     0.277 HD
ATOM     14  H21 UNL     1      -4.685   3.120  11.052  1.00  0.00     0.277 HD
ENDBRANCH   8   9
ENDBRANCH   1   8
TORSDOF 4
ENDMDL
MODEL 2
REMARK VINA RESULT: -5.049482108      1.634      1.679
REMARK  4 active torsions:
REMARK  status: ('A' for Active; 'I' for Inactive)
REMARK    1  A    between atoms: N1_1  and  S1_4 
REMARK    2  A    between atoms: S1_4  and  C1_7 
REMARK    3  A    between atoms: C1_7  and  C2_8 
REMARK    4  A    between atoms: C2_8  and  C3_9 
ROOT
HETATM    1  C1  UNL     1      -1.229   4.108   9.841  1.00  0.00     0.165 C 
ENDROOT
BRANCH   1   2
HETATM    2  S1  UNL     1      -1.369   5.545   8.795  1.00  0.00     0.224 S 
HETATM    3  O1  UNL     1      -0.014   6.138   8.528  1.00  0.00    -0.206 OA
HETATM    4  O2  UNL     1      -2.307   6.511   9.417  1.00  0.00    -0.206 OA
BRANCH   2   5
HETATM    5  N1  UNL     1      -1.962   4.974   7.260  1.00  0.00    -0.328 N 
ATOM      6  H12 UNL     1      -2.435   5.536   6.552  1.00  0.00     0.168 HD
ATOM      7  H11 UNL     1      -1.741   3.979   7.221  1.00  0.00     0.168 HD
ENDBRANCH   2   5
ENDBRANCH   1   2
BRANCH   1   8
HETATM    8  C2  UNL     1      -2.516   3.289   9.819  1.00  0.00     0.049 C 
BRANCH   8   9
HETATM    9  C3  UNL     1      -2.820   2.929  11.257  1.00  0.00     0.188 C 
HETATM   10  C4  UNL     1      -2.183   1.680  11.766  1.00  0.00     0.060 C 
HETATM   11  C5  UNL     1      -3.362   0.998  11.111  1.00  0.00     0.235 C 
HETATM   12  N2  UNL     1      -4.111   2.241  11.325  1.00  0.00    -0.071 N 
ATOM     13  H22 UNL     1      -4.735   2.357  12.123  1.00  0.00     0.277 HD
ATOM     14  H21 UNL     1      -4.888   2.506  10.719  1.00  0.00     0.277 HD
ENDBRANCH   8   9
ENDBRANCH   1   8
TORSDOF 4
ENDMDL
MODEL 3
REMARK VINA RESULT: -5.030738701      1.204      1.425
REMARK  4 active torsions:
REMARK  status: ('A' for Active; 'I' for Inactive)
REMARK    1  A    between atoms: N1_1  and  S1_4 
REMARK    2  A    between atoms: S1_4  and  C1_7 
REMARK    3  A    between atoms: C1_7  and  C2_8 
REMARK    4  A    between atoms: C2_8  and  C3_9 
ROOT
HETATM    1  C1  UNL     1      -0.821   3.624  10.294  1.00  0.00     0.165 C 
ENDROOT
BRANCH   1   2
HETATM    2  S1  UNL     1      -0.252   5.029   9.357  1.00  0.00     0.224 S 
HETATM    3  O1  UNL     1       1.172   4.831   8.919  1.00  0.00    -0.206 OA
HETATM    4  O2  UNL     1      -0.439   6.261  10.162  1.00  0.00    -0.206 OA
BRANCH   2   5
HETATM    5  N1  UNL     1      -1.208   5.065   7.902  1.00  0.00    -0.328 N 
ATOM      6  H12 UNL     1      -2.137   5.473   7.803  1.00  0.00     0.168 HD
ATOM      7  H11 UNL     1      -0.653   4.599   7.184  1.00  0.00     0.168 HD
ENDBRANCH   2   5
ENDBRANCH   1   2
BRANCH   1   8
HETATM    8  C2  UNL     1      -2.345   3.553  10.301  1.00  0.00     0.049 C 
BRANCH   8   9
HETATM    9  C3  UNL     1      -2.731   2.742  11.518  1.00  0.00     0.188 C 
HETATM   10  C4  UNL     1      -2.358   1.298  11.486  1.00  0.00     0.060 C 
HETATM   11  C5  UNL     1      -3.640   1.146  10.700  1.00  0.00     0.235 C 
HETATM   12  N2  UNL     1      -4.133   2.334  11.407  1.00  0.00    -0.071 N 
ATOM     13  H22 UNL     1      -4.731   2.254  12.229  1.00  0.00     0.277 HD
ATOM     14  H21 UNL     1      -4.836   2.947  10.994  1.00  0.00     0.277 HD
ENDBRANCH   8   9
ENDBRANCH   1   8
TORSDOF 4
ENDMDL
MODEL 4
REMARK VINA RESULT: -4.977548492      1.427      1.619
REMARK  4 active torsions:
REMARK  status: ('A' for Active; 'I' for Inactive)
REMARK    1  A    between atoms: N1_1  and  S1_4 
REMARK    2  A    between atoms: S1_4  and  C1_7 
REMARK    3  A    between atoms: C1_7  and  C2_8 
REMARK    4  A    between atoms: C2_8  and  C3_9 
ROOT
HETATM    1  C1  UNL     1      -0.891   4.981   9.305  1.00  0.00     0.165 C 
ENDROOT
BRANCH   1   2
HETATM    2  S1  UNL     1       0.463   6.139   9.382  1.00  0.00     0.224 S 
HETATM    3  O1  UNL     1       0.480   6.844  10.709  1.00  0.00    -0.206 OA
HETATM    4  O2  UNL     1       0.371   7.074   8.235  1.00  0.00    -0.206 OA
BRANCH   2   5
HETATM    5  N1  UNL     1       1.921   5.189   9.317  1.00  0.00    -0.328 N 
ATOM      6  H12 UNL     1       2.556   5.008  10.094  1.00  0.00     0.168 HD
ATOM      7  H11 UNL     1       2.003   4.859   8.355  1.00  0.00     0.168 HD
ENDBRANCH   2   5
ENDBRANCH   1   2
BRANCH   1   8
HETATM    8  C2  UNL     1      -0.629   3.774  10.201  1.00  0.00     0.049 C 
BRANCH   8   9
HETATM    9  C3  UNL     1      -1.975   3.140  10.471  1.00  0.00     0.188 C 
HETATM   10  C4  UNL     1      -2.019   2.152  11.588  1.00  0.00     0.060 C 
HETATM   11  C5  UNL     1      -1.523   1.182  10.540  1.00  0.00     0.235 C 
HETATM   12  N2  UNL     1      -2.186   2.028   9.542  1.00  0.00    -0.071 N 
ATOM     13  H22 UNL     1      -3.114   1.802   9.184  1.00  0.00     0.277 HD
ATOM     14  H21 UNL     1      -1.858   2.071   8.577  1.00  0.00     0.277 HD
ENDBRANCH   8   9
ENDBRANCH   1   8
TORSDOF 4
ENDMDL
MODEL 5
REMARK VINA RESULT: -4.919410273      2.777      5.049
REMARK  4 active torsions:
REMARK  status: ('A' for Active; 'I' for Inactive)
REMARK    1  A    between atoms: N1_1  and  S1_4 
REMARK    2  A    between atoms: S1_4  and  C1_7 
REMARK    3  A    between atoms: C1_7  and  C2_8 
REMARK    4  A    between atoms: C2_8  and  C3_9 
ROOT
HETATM    1  C1  UNL     1      -0.445   4.515   9.830  1.00  0.00     0.165 C 
ENDROOT
BRANCH   1   2
HETATM    2  S1  UNL     1      -1.845   5.096   8.891  1.00  0.00     0.224 S 
HETATM    3  O1  UNL     1      -1.429   5.467   7.496  1.00  0.00    -0.206 OA
HETATM    4  O2  UNL     1      -2.487   6.218   9.618  1.00  0.00    -0.206 OA
BRANCH   2   5
HETATM    5  N1  UNL     1      -2.923   3.737   8.733  1.00  0.00    -0.328 N 
ATOM      6  H12 UNL     1      -2.752   2.791   9.073  1.00  0.00     0.168 HD
ATOM      7  H11 UNL     1      -3.744   4.081   8.236  1.00  0.00     0.168 HD
ENDBRANCH   2   5
ENDBRANCH   1   2
BRANCH   1   8
HETATM    8  C2  UNL     1       0.866   4.900   9.150  1.00  0.00     0.049 C 
BRANCH   8   9
HETATM    9  C3  UNL     1       1.619   5.769  10.132  1.00  0.00     0.188 C 
HETATM   10  C4  UNL     1       0.881   6.954  10.656  1.00  0.00     0.060 C 
HETATM   11  C5  UNL     1       1.343   7.611   9.376  1.00  0.00     0.235 C 
HETATM   12  N2  UNL     1       2.488   6.693   9.399  1.00  0.00    -0.071 N 
ATOM     13  H22 UNL     1       3.393   6.980   9.769  1.00  0.00     0.277 HD
ATOM     14  H21 UNL     1       2.962   6.411   8.541  1.00  0.00     0.277 HD
ENDBRANCH   8   9
ENDBRANCH   1   8
TORSDOF 4
ENDMDL
