MODEL 1
REMARK VINA RESULT: -5.175992022      0.000      0.000
REMARK  7 active torsions:
REMARK  status: ('A' for Active; 'I' for Inactive)
REMARK    1  A    between atoms: O1_1  and  C1_3 
REMARK    2  A    between atoms: C1_3  and  C2_4 
REMARK    3  A    between atoms: C3_5  and  C4_6 
REMARK    4  A    between atoms: C4_6  and  O2_7 
REMARK    5  A    between atoms: O2_7  and  C5_8 
REMARK    6  A    between atoms: C5_8  and  C6_9 
REMARK    7  A    between atoms: C7_10  and  C8_11 
ROOT
HETATM    1  C5  UNL     1      -1.788   2.141  11.544  1.00  0.00     0.262 C 
ENDROOT
BRANCH   1   2
HETATM    2  O2  UNL     1      -1.797   0.949  10.876  1.00  0.00    -0.368 OA
BRANCH   2   3
HETATM    3  C4  UNL     1      -2.659   0.864   9.819  1.00  0.00     0.262 C 
BRANCH   3   4
HETATM    4  C3  UNL     1      -4.029   0.769  10.372  1.00  0.00    -0.078 C 
HETATM    5  C2  UNL     1      -5.151   0.711  10.817  1.00  0.00    -0.079 C 
BRANCH   5   6
HETATM    6  C1  UNL     1      -6.522   0.661  11.342  1.00  0.00     0.257 C 
BRANCH   6   7
HETATM    7  O1  UNL     1      -6.878  -0.602  11.770  1.00  0.00    -0.389 OA
ATOM      8  H1  UNL     1      -7.813  -0.755  11.713  1.00  0.00     0.210 HD
ENDBRANCH   6   7
ENDBRANCH   5   6
ENDBRANCH   3   4
ENDBRANCH   2   3
ENDBRANCH   1   2
BRANCH   1   9
HETATM    9  C6  UNL     1      -1.057   3.123  10.750  1.00  0.00    -0.078 C 
HETATM   10  C7  UNL     1      -0.465   3.950  10.099  1.00  0.00    -0.069 C 
BRANCH  10  11
HETATM   11  C8  UNL     1       0.244   4.974   9.322  1.00  0.00     0.289 A 
HETATM   12  C9  UNL     1       1.414   5.605   9.949  1.00  0.00     0.279 A 
HETATM   13  N1  UNL     1       1.623   4.603   8.912  1.00  0.00    -0.056 N 
ATOM     14  H12 UNL     1       2.147   3.730   8.847  1.00  0.00     0.278 HD
ATOM     15  H11 UNL     1       2.131   4.574   8.028  1.00  0.00     0.278 HD
ENDBRANCH  10  11
ENDBRANCH   1   9
TORSDOF 7
ENDMDL
MODEL 2
REMARK VINA RESULT: -5.109353670      2.044      2.994
REMARK  7 active torsions:
REMARK  status: ('A' for Active; 'I' for Inactive)
REMARK    1  A    between atoms: O1_1  and  C1_3 
REMARK    2  A    between atoms: C1_3  and  C2_4 
REMARK    3  A    between atoms: C3_5  and  C4_6 
REMARK    4  A    between atoms: C4_6  and  O2_7 
REMARK    5  A    between atoms: O2_7  and  C5_8 
REMARK    6  A    between atoms: C5_8  and  C6_9 
REMARK    7  A    between atoms: C7_10  and  C8_11 
ROOT
HETATM    1  C5  UNL     1      -1.817   2.092  11.398  1.00  0.00     0.262 C 
ENDROOT
BRANCH   1   2
HETATM    2  O2  UNL     1      -1.771   0.920  10.696  1.00  0.00    -0.368 OA
BRANCH   2   3
HETATM    3  C4  UNL     1      -2.979   0.356  10.397  1.00  0.00     0.262 C 
BRANCH   3   4
HETATM    4  C3  UNL     1      -3.222   0.570   8.953  1.00  0.00    -0.078 C 
HETATM    5  C2  UNL     1      -3.440   0.751   7.778  1.00  0.00    -0.079 C 
BRANCH   5   6
HETATM    6  C1  UNL     1      -3.726   0.985   6.356  1.00  0.00     0.257 C 
BRANCH   6   7
HETATM    7  O1  UNL     1      -2.588   0.948   5.575  1.00  0.00    -0.389 OA
ATOM      8  H1  UNL     1      -2.135   1.782   5.553  1.00  0.00     0.210 HD
ENDBRANCH   6   7
ENDBRANCH   5   6
ENDBRANCH   3   4
ENDBRANCH   2   3
ENDBRANCH   1   2
BRANCH   1   9
HETATM    9  C6  UNL     1      -1.061   3.108  10.674  1.00  0.00    -0.078 C 
HETATM   10  C7  UNL     1      -0.453   3.955  10.066  1.00  0.00    -0.069 C 
BRANCH  10  11
HETATM   11  C8  UNL     1       0.266   4.998   9.323  1.00  0.00     0.289 A 
HETATM   12  C9  UNL     1       1.412   5.631   9.988  1.00  0.00     0.279 A 
HETATM   13  N1  UNL     1       1.658   4.647   8.943  1.00  0.00    -0.056 N 
ATOM     14  H12 UNL     1       2.192   3.780   8.877  1.00  0.00     0.278 HD
ATOM     15  H11 UNL     1       2.188   4.637   8.071  1.00  0.00     0.278 HD
ENDBRANCH  10  11
ENDBRANCH   1   9
TORSDOF 7
ENDMDL
MODEL 3
REMARK VINA RESULT: -5.107583923      3.412      6.865
REMARK  7 active torsions:
REMARK  status: ('A' for Active; 'I' for Inactive)
REMARK    1  A    between atoms: O1_1  and  C1_3 
REMARK    2  A    between atoms: C1_3  and  C2_4 
REMARK    3  A    between atoms: C3_5  and  C4_6 
REMARK    4  A    between atoms: C4_6  and  O2_7 
REMARK    5  A    between atoms: O2_7  and  C5_8 
REMARK    6  A    between atoms: C5_8  and  C6_9 
REMARK    7  A    between atoms: C7_10  and  C8_11 
ROOT
HETATM    1  C5  UNL     1      -2.386   0.999   9.691  1.00  0.00     0.262 C 
ENDROOT
BRANCH   1   2
HETATM    2  O2  UNL     1      -1.425   1.144  10.652  1.00  0.00    -0.368 OA
BRANCH   2   3
HETATM    3  C4  UNL     1      -1.410   2.346  11.302  1.00  0.00     0.262 C 
BRANCH   3   4
HETATM    4  C3  UNL     1      -0.645   3.295  10.462  1.00  0.00    -0.078 C 
HETATM    5  C2  UNL     1      -0.013   4.078   9.794  1.00  0.00    -0.079 C 
BRANCH   5   6
HETATM    6  C1  UNL     1       0.770   5.036   9.001  1.00  0.00     0.257 C 
BRANCH   6   7
HETATM    7  O1  UNL     1       2.123   4.960   9.266  1.00  0.00    -0.389 OA
ATOM      8  H1  UNL     1       2.613   4.579   8.548  1.00  0.00     0.210 HD
ENDBRANCH   6   7
ENDBRANCH   5   6
ENDBRANCH   3   4
ENDBRANCH   2   3
ENDBRANCH   1   2
BRANCH   1   9
HETATM    9  C6  UNL     1      -3.697   0.996  10.330  1.00  0.00    -0.078 C 
HETATM   10  C7  UNL     1      -4.789   1.009  10.846  1.00  0.00    -0.069 C 
BRANCH  10  11
HETATM   11  C8  UNL     1      -6.126   1.035  11.453  1.00  0.00     0.289 A 
HETATM   12  C9  UNL     1      -7.266   0.718  10.583  1.00  0.00     0.279 A 
HETATM   13  N1  UNL     1      -6.802  -0.286  11.531  1.00  0.00    -0.056 N 
ATOM     14  H12 UNL     1      -6.498  -1.258  11.464  1.00  0.00     0.278 HD
ATOM     15  H11 UNL     1      -7.236  -0.833  12.275  1.00  0.00     0.278 HD
ENDBRANCH  10  11
ENDBRANCH   1   9
TORSDOF 7
ENDMDL
MODEL 4
REMARK VINA RESULT: -5.075604345      3.664      5.319
REMARK  7 active torsions:
REMARK  status: ('A' for Active; 'I' for Inactive)
REMARK    1  A    between atoms: O1_1  and  C1_3 
REMARK    2  A    between atoms: C1_3  and  C2_4 
REMARK    3  A    between atoms: C3_5  and  C4_6 
REMARK    4  A    between atoms: C4_6  and  O2_7 
REMARK    5  A    between atoms: O2_7  and  C5_8 
REMARK    6  A    between atoms: C5_8  and  C6_9 
REMARK    7  A    between atoms: C7_10  and  C8_11 
ROOT
HETATM    1  C5  UNL     1      -0.782   6.034   9.371  1.00  0.00     0.262 C 
ENDROOT
BRANCH   1   2
HETATM    2  O2  UNL     1      -2.065   6.447   9.144  1.00  0.00    -0.368 OA
BRANCH   2   3
HETATM    3  C4  UNL     1      -2.335   6.886   7.878  1.00  0.00     0.262 C 
BRANCH   3   4
HETATM    4  C3  UNL     1      -2.875   5.737   7.118  1.00  0.00    -0.078 C 
HETATM    5  C2  UNL     1      -3.335   4.811   6.492  1.00  0.00    -0.079 C 
BRANCH   5   6
HETATM    6  C1  UNL     1      -3.911   3.701   5.722  1.00  0.00     0.257 C 
BRANCH   6   7
HETATM    7  O1  UNL     1      -3.112   2.575   5.739  1.00  0.00    -0.389 OA
ATOM      8  H1  UNL     1      -3.298   2.009   6.478  1.00  0.00     0.210 HD
ENDBRANCH   6   7
ENDBRANCH   5   6
ENDBRANCH   3   4
ENDBRANCH   2   3
ENDBRANCH   1   2
BRANCH   1   9
HETATM    9  C6  UNL     1      -0.806   4.652   9.837  1.00  0.00    -0.078 C 
HETATM   10  C7  UNL     1      -0.812   3.513  10.238  1.00  0.00    -0.069 C 
BRANCH  10  11
HETATM   11  C8  UNL     1      -0.812   2.135  10.748  1.00  0.00     0.289 A 
HETATM   12  C9  UNL     1      -1.786   1.202  10.166  1.00  0.00     0.279 A 
HETATM   13  N1  UNL     1      -0.389   1.106   9.764  1.00  0.00    -0.056 N 
ATOM     14  H12 UNL     1       0.109   1.119   8.874  1.00  0.00     0.278 HD
ATOM     15  H11 UNL     1       0.310   0.362   9.752  1.00  0.00     0.278 HD
ENDBRANCH  10  11
ENDBRANCH   1   9
TORSDOF 7
ENDMDL
MODEL 5
REMARK VINA RESULT: -5.021682292      1.026      1.157
REMARK  7 active torsions:
REMARK  status: ('A' for Active; 'I' for Inactive)
REMARK    1  A    between atoms: O1_1  and  C1_3 
REMARK    2  A    between atoms: C1_3  and  C2_4 
REMARK    3  A    between atoms: C3_5  and  C4_6 
REMARK    4  A    between atoms: C4_6  and  O2_7 
REMARK    5  A    between atoms: O2_7  and  C5_8 
REMARK    6  A    between atoms: C5_8  and  C6_9 
REMARK    7  A    between atoms: C7_10  and  C8_11 
ROOT
HETATM    1  C5  UNL     1      -1.131   1.825  10.569  1.00  0.00     0.262 C 
ENDROOT
BRANCH   1   2
HETATM    2  O2  UNL     1      -1.845   2.007  11.720  1.00  0.00    -0.368 OA
BRANCH   2   3
HETATM    3  C4  UNL     1      -2.999   2.730  11.598  1.00  0.00     0.262 C 
BRANCH   3   4
HETATM    4  C3  UNL     1      -4.082   1.781  11.258  1.00  0.00    -0.078 C 
HETATM    5  C2  UNL     1      -4.977   1.021  10.970  1.00  0.00    -0.079 C 
BRANCH   5   6
HETATM    6  C1  UNL     1      -6.072   0.114  10.600  1.00  0.00     0.257 C 
BRANCH   6   7
HETATM    7  O1  UNL     1      -6.891  -0.188  11.669  1.00  0.00    -0.389 OA
ATOM      8  H1  UNL     1      -7.343  -1.015  11.558  1.00  0.00     0.210 HD
ENDBRANCH   6   7
ENDBRANCH   5   6
ENDBRANCH   3   4
ENDBRANCH   2   3
ENDBRANCH   1   2
BRANCH   1   9
HETATM    9  C6  UNL     1      -0.491   3.084  10.206  1.00  0.00    -0.078 C 
HETATM   10  C7  UNL     1       0.058   4.118   9.908  1.00  0.00    -0.069 C 
BRANCH  10  11
HETATM   11  C8  UNL     1       0.747   5.362   9.539  1.00  0.00     0.289 A 
HETATM   12  C9  UNL     1       1.705   5.913  10.506  1.00  0.00     0.279 A 
HETATM   13  N1  UNL     1       2.210   5.225   9.325  1.00  0.00    -0.056 N 
ATOM     14  H12 UNL     1       2.847   4.445   9.160  1.00  0.00     0.278 HD
ATOM     15  H11 UNL     1       2.856   5.463   8.571  1.00  0.00     0.278 HD
ENDBRANCH  10  11
ENDBRANCH   1   9
TORSDOF 7
ENDMDL
