MODEL 1
REMARK VINA RESULT: -5.288619865      0.000      0.000
REMARK  3 active torsions:
REMARK  status: ('A' for Active; 'I' for Inactive)
REMARK    1  A    between atoms: C1_2  and  N1_3 
REMARK    2  A    between atoms: N1_3  and  C2_5 
REMARK    3  A    between atoms: C2_5  and  C3_6 
ROOT
HETATM    1  C3  UNL     1      -2.429   3.281  10.567  1.00  0.00     0.111 C 
HETATM    2  C4  UNL     1      -0.978   3.110  10.230  1.00  0.00     0.044 C 
HETATM    3  C5  UNL     1      -0.545   4.575  10.059  1.00  0.00     0.165 C 
HETATM    4  S1  UNL     1      -1.909   5.103   9.009  1.00  0.00     0.227 S 
HETATM    5  O2  UNL     1      -2.469   6.395   9.465  1.00  0.00    -0.206 OA
HETATM    6  O3  UNL     1      -1.449   5.084   7.606  1.00  0.00    -0.206 OA
HETATM    7  N2  UNL     1      -3.004   3.776   9.351  1.00  0.00    -0.313 N 
ATOM      8  H2  UNL     1      -3.818   3.448   8.832  1.00  0.00     0.172 HD
ENDROOT
BRANCH   1   9
HETATM    9  C2  UNL     1      -3.057   2.032  11.093  1.00  0.00     0.147 C 
BRANCH   9  10
HETATM   10  N1  UNL     1      -4.412   2.178  11.497  1.00  0.00    -0.366 N 
ATOM     11  H1  UNL     1      -4.715   3.036  11.960  1.00  0.00     0.161 HD
BRANCH  10  12
HETATM   12  C1  UNL     1      -5.344   1.139  11.258  1.00  0.00     0.348 C 
HETATM   13  O1  UNL     1      -6.467   1.126  11.861  1.00  0.00    -0.284 OA
ENDBRANCH  10  12
ENDBRANCH   9  10
ENDBRANCH   1   9
TORSDOF 3
ENDMDL
MODEL 2
REMARK VINA RESULT: -5.025118980      2.110      4.690
REMARK  3 active torsions:
REMARK  status: ('A' for Active; 'I' for Inactive)
REMARK    1  A    between atoms: C1_2  and  N1_3 
REMARK    2  A    between atoms: N1_3  and  C2_5 
REMARK    3  A    between atoms: C2_5  and  C3_6 
ROOT
HETATM    1  C3  UNL     1      -1.653   2.839  10.233  1.00  0.00     0.111 C 
HETATM    2  C4  UNL     1      -1.538   2.159  11.566  1.00  0.00     0.044 C 
HETATM    3  C5  UNL     1      -2.341   0.874  11.307  1.00  0.00     0.165 C 
HETATM    4  S1  UNL     1      -3.774   1.644  10.535  1.00  0.00     0.227 S 
HETATM    5  O2  UNL     1      -4.178   0.919   9.309  1.00  0.00    -0.206 OA
HETATM    6  O3  UNL     1      -4.833   1.781  11.555  1.00  0.00    -0.206 OA
HETATM    7  N2  UNL     1      -3.039   3.190  10.151  1.00  0.00    -0.313 N 
ATOM      8  H2  UNL     1      -3.475   4.085   9.931  1.00  0.00     0.172 HD
ENDROOT
BRANCH   1   9
HETATM    9  C2  UNL     1      -0.707   3.984  10.079  1.00  0.00     0.147 C 
BRANCH   9  10
HETATM   10  N1  UNL     1      -0.860   4.715   8.869  1.00  0.00    -0.366 N 
ATOM     11  H1  UNL     1      -0.599   4.287   7.980  1.00  0.00     0.161 HD
BRANCH  10  12
HETATM   12  C1  UNL     1      -1.371   6.036   8.893  1.00  0.00     0.348 C 
HETATM   13  O1  UNL     1      -2.476   6.290   9.477  1.00  0.00    -0.284 OA
ENDBRANCH  10  12
ENDBRANCH   9  10
ENDBRANCH   1   9
TORSDOF 3
ENDMDL
MODEL 3
REMARK VINA RESULT: -4.991646899      1.923      2.207
REMARK  3 active torsions:
REMARK  status: ('A' for Active; 'I' for Inactive)
REMARK    1  A    between atoms: C1_2  and  N1_3 
REMARK    2  A    between atoms: N1_3  and  C2_5 
REMARK    3  A    between atoms: C2_5  and  C3_6 
ROOT
HETATM    1  C3  UNL     1      -0.646   3.787  10.068  1.00  0.00     0.111 C 
HETATM    2  C4  UNL     1       0.516   4.433   9.373  1.00  0.00     0.044 C 
HETATM    3  C5  UNL     1       0.068   5.903   9.363  1.00  0.00     0.165 C 
HETATM    4  S1  UNL     1      -1.612   5.632   8.773  1.00  0.00     0.227 S 
HETATM    5  O2  UNL     1      -2.592   6.409   9.566  1.00  0.00    -0.206 OA
HETATM    6  O3  UNL     1      -1.640   5.893   7.319  1.00  0.00    -0.206 OA
HETATM    7  N2  UNL     1      -1.718   3.918   9.127  1.00  0.00    -0.313 N 
ATOM      8  H2  UNL     1      -2.361   3.213   8.766  1.00  0.00     0.172 HD
ENDROOT
BRANCH   1   9
HETATM    9  C2  UNL     1      -0.361   2.387  10.502  1.00  0.00     0.147 C 
BRANCH   9  10
HETATM   10  N1  UNL     1      -1.513   1.634  10.859  1.00  0.00    -0.366 N 
ATOM     11  H1  UNL     1      -1.753   0.792  10.335  1.00  0.00     0.161 HD
BRANCH  10  12
HETATM   12  C1  UNL     1      -2.329   2.049  11.940  1.00  0.00     0.348 C 
HETATM   13  O1  UNL     1      -3.361   2.768  11.733  1.00  0.00    -0.284 OA
ENDBRANCH  10  12
ENDBRANCH   9  10
ENDBRANCH   1   9
TORSDOF 3
ENDMDL
MODEL 4
REMARK VINA RESULT: -4.977937894      2.441      5.207
REMARK  3 active torsions:
REMARK  status: ('A' for Active; 'I' for Inactive)
REMARK    1  A    between atoms: C1_2  and  N1_3 
REMARK    2  A    between atoms: N1_3  and  C2_5 
REMARK    3  A    between atoms: C2_5  and  C3_6 
ROOT
HETATM    1  C3  UNL     1      -1.872   2.550  10.216  1.00  0.00     0.111 C 
HETATM    2  C4  UNL     1      -1.990   1.951  11.587  1.00  0.00     0.044 C 
HETATM    3  C5  UNL     1      -2.504   0.544  11.246  1.00  0.00     0.165 C 
HETATM    4  S1  UNL     1      -3.800   1.038  10.098  1.00  0.00     0.227 S 
HETATM    5  O2  UNL     1      -3.777   0.209   8.872  1.00  0.00    -0.206 OA
HETATM    6  O3  UNL     1      -5.087   1.041  10.824  1.00  0.00    -0.206 OA
HETATM    7  N2  UNL     1      -3.231   2.667   9.780  1.00  0.00    -0.313 N 
ATOM      8  H2  UNL     1      -3.728   3.470   9.394  1.00  0.00     0.172 HD
ENDROOT
BRANCH   1   9
HETATM    9  C2  UNL     1      -1.098   3.827  10.202  1.00  0.00     0.147 C 
BRANCH   9  10
HETATM   10  N1  UNL     1       0.247   3.696   9.762  1.00  0.00    -0.366 N 
ATOM     11  H1  UNL     1       0.750   2.821   9.916  1.00  0.00     0.161 HD
BRANCH  10  12
HETATM   12  C1  UNL     1       0.893   4.774   9.109  1.00  0.00     0.348 C 
HETATM   13  O1  UNL     1       0.235   5.556   8.347  1.00  0.00    -0.284 OA
ENDBRANCH  10  12
ENDBRANCH   9  10
ENDBRANCH   1   9
TORSDOF 3
ENDMDL
MODEL 5
REMARK VINA RESULT: -4.947937407      3.345      5.501
REMARK  3 active torsions:
REMARK  status: ('A' for Active; 'I' for Inactive)
REMARK    1  A    between atoms: C1_2  and  N1_3 
REMARK    2  A    between atoms: N1_3  and  C2_5 
REMARK    3  A    between atoms: C2_5  and  C3_6 
ROOT
HETATM    1  C3  UNL     1      -0.049   4.345   9.956  1.00  0.00     0.111 C 
HETATM    2  C4  UNL     1      -1.266   4.680   9.145  1.00  0.00     0.044 C 
HETATM    3  C5  UNL     1      -2.381   4.161  10.067  1.00  0.00     0.165 C 
HETATM    4  S1  UNL     1      -1.655   2.553  10.432  1.00  0.00     0.227 S 
HETATM    5  O2  UNL     1      -1.727   2.247  11.879  1.00  0.00    -0.206 OA
HETATM    6  O3  UNL     1      -2.284   1.549   9.550  1.00  0.00    -0.206 OA
HETATM    7  N2  UNL     1      -0.011   2.913   9.936  1.00  0.00    -0.313 N 
ATOM      8  H2  UNL     1       0.754   2.282   9.700  1.00  0.00     0.172 HD
ENDROOT
BRANCH   1   9
HETATM    9  C2  UNL     1       1.189   5.011   9.451  1.00  0.00     0.147 C 
BRANCH   9  10
HETATM   10  N1  UNL     1       1.960   5.659  10.454  1.00  0.00    -0.366 N 
ATOM     11  H1  UNL     1       2.668   5.135  10.969  1.00  0.00     0.161 HD
BRANCH  10  12
HETATM   12  C1  UNL     1       1.750   7.030  10.742  1.00  0.00     0.348 C 
HETATM   13  O1  UNL     1       0.587   7.456  11.046  1.00  0.00    -0.284 OA
ENDBRANCH  10  12
ENDBRANCH   9  10
ENDBRANCH   1   9
TORSDOF 3
ENDMDL
