MODEL 1
REMARK VINA RESULT: -5.617692892      0.000      0.000
REMARK  4 active torsions:
REMARK  status: ('A' for Active; 'I' for Inactive)
REMARK    1  A    between atoms: N1_1  and  C1_5 
REMARK    2  A    between atoms: C1_5  and  C2_6 
REMARK    3  A    between atoms: N3_9  and  C4_10 
REMARK    4  A    between atoms: C4_10  and  C5_11 
ROOT
HETATM    1  C2  UNL     1       1.076   6.732  10.154  1.00  0.00     0.041 C 
HETATM    2  C3  UNL     1       1.904   5.542   9.699  1.00  0.00     0.136 C 
HETATM    3  N2  UNL     1       0.893   4.596   9.268  1.00  0.00    -0.165 NA
HETATM    4  N3  UNL     1      -0.237   5.296   8.968  1.00  0.00    -0.234 NA
HETATM    5  C9  UNL     1       0.021   6.710   9.027  1.00  0.00     0.117 C 
ENDROOT
BRANCH   1   6
HETATM    6  C1  UNL     1       1.804   8.029  10.027  1.00  0.00     0.236 C 
BRANCH   6   7
HETATM    7  N1  UNL     1       2.980   7.812   9.181  1.00  0.00    -0.079 N 
ATOM      8  H13 UNL     1       3.838   8.168   9.602  1.00  0.00     0.274 HD
ATOM      9  H12 UNL     1       3.250   6.830   9.128  1.00  0.00     0.274 HD
ATOM     10  H11 UNL     1       2.794   8.220   8.265  1.00  0.00     0.274 HD
ENDBRANCH   6   7
ENDBRANCH   1   6
BRANCH   4  11
HETATM   11  C4  UNL     1      -1.355   4.861   9.710  1.00  0.00     0.114 C 
BRANCH  11  12
HETATM   12  C5  UNL     1      -1.535   3.398   9.892  1.00  0.00     0.009 A 
HETATM   13  C6  UNL     1      -2.626   3.160  11.010  1.00  0.00    -0.004 A 
HETATM   14  C7  UNL     1      -2.384   1.805  11.770  1.00  0.00     0.011 A 
HETATM   15  C8  UNL     1      -1.356   2.640  11.132  1.00  0.00    -0.004 A 
ENDBRANCH  11  12
ENDBRANCH   4  11
TORSDOF 4
ENDMDL
MODEL 2
REMARK VINA RESULT: -5.296752156      3.021      5.401
REMARK  4 active torsions:
REMARK  status: ('A' for Active; 'I' for Inactive)
REMARK    1  A    between atoms: N1_1  and  C1_5 
REMARK    2  A    between atoms: C1_5  and  C2_6 
REMARK    3  A    between atoms: N3_9  and  C4_10 
REMARK    4  A    between atoms: C4_10  and  C5_11 
ROOT
HETATM    1  C2  UNL     1      -0.894   4.554   9.525  1.00  0.00     0.041 C 
HETATM    2  C3  UNL     1      -0.101   5.759  10.005  1.00  0.00     0.136 C 
HETATM    3  N2  UNL     1      -0.804   6.868   9.391  1.00  0.00    -0.165 NA
HETATM    4  N3  UNL     1      -2.074   6.459   9.112  1.00  0.00    -0.234 NA
HETATM    5  C9  UNL     1      -2.310   5.152   9.666  1.00  0.00     0.117 C 
ENDROOT
BRANCH   1   6
HETATM    6  C1  UNL     1      -0.826   3.400  10.471  1.00  0.00     0.236 C 
BRANCH   6   7
HETATM    7  N1  UNL     1      -0.007   2.353   9.855  1.00  0.00    -0.079 N 
ATOM      8  H13 UNL     1       0.098   1.534  10.453  1.00  0.00     0.274 HD
ATOM      9  H12 UNL     1      -0.476   1.895   9.074  1.00  0.00     0.274 HD
ATOM     10  H11 UNL     1       0.889   2.764   9.590  1.00  0.00     0.274 HD
ENDBRANCH   6   7
ENDBRANCH   1   6
BRANCH   4  11
HETATM   11  C4  UNL     1      -2.400   6.597   7.748  1.00  0.00     0.114 C 
BRANCH  11  12
HETATM   12  C5  UNL     1      -2.201   7.930   7.122  1.00  0.00     0.009 A 
HETATM   13  C6  UNL     1      -3.561   8.384   6.459  1.00  0.00    -0.004 A 
HETATM   14  C7  UNL     1      -3.313   9.328   5.226  1.00  0.00     0.011 A 
HETATM   15  C8  UNL     1      -2.407   8.278   5.715  1.00  0.00    -0.004 A 
ENDBRANCH  11  12
ENDBRANCH   4  11
TORSDOF 4
ENDMDL
MODEL 3
REMARK VINA RESULT: -5.075676077      1.840      5.784
REMARK  4 active torsions:
REMARK  status: ('A' for Active; 'I' for Inactive)
REMARK    1  A    between atoms: N1_1  and  C1_5 
REMARK    2  A    between atoms: C1_5  and  C2_6 
REMARK    3  A    between atoms: N3_9  and  C4_10 
REMARK    4  A    between atoms: C4_10  and  C5_11 
ROOT
HETATM    1  C2  UNL     1      -1.105   5.096   9.827  1.00  0.00     0.041 C 
HETATM    2  C3  UNL     1      -2.041   5.477   8.693  1.00  0.00     0.136 C 
HETATM    3  N2  UNL     1      -1.336   6.570   8.051  1.00  0.00    -0.165 NA
HETATM    4  N3  UNL     1      -0.013   6.457   8.361  1.00  0.00    -0.234 NA
HETATM    5  C9  UNL     1       0.231   5.225   9.063  1.00  0.00     0.117 C 
ENDROOT
BRANCH   1   6
HETATM    6  C1  UNL     1      -1.228   3.661  10.224  1.00  0.00     0.236 C 
BRANCH   6   7
HETATM    7  N1  UNL     1       0.029   2.986   9.893  1.00  0.00    -0.079 N 
ATOM      8  H13 UNL     1       0.642   3.558   9.312  1.00  0.00     0.274 HD
ATOM      9  H12 UNL     1       0.650   2.893  10.698  1.00  0.00     0.274 HD
ATOM     10  H11 UNL     1      -0.195   2.088   9.464  1.00  0.00     0.274 HD
ENDBRANCH   6   7
ENDBRANCH   1   6
BRANCH   4  11
HETATM   11  C4  UNL     1       0.496   7.612   8.987  1.00  0.00     0.114 C 
BRANCH  11  12
HETATM   12  C5  UNL     1       0.971   8.717   8.114  1.00  0.00     0.009 A 
HETATM   13  C6  UNL     1       2.405   9.165   8.602  1.00  0.00    -0.004 A 
HETATM   14  C7  UNL     1       2.672  10.682   8.286  1.00  0.00     0.011 A 
HETATM   15  C8  UNL     1       1.363  10.063   8.538  1.00  0.00    -0.004 A 
ENDBRANCH  11  12
ENDBRANCH   4  11
TORSDOF 4
ENDMDL
MODEL 4
REMARK VINA RESULT: -5.062629702      1.179      1.616
REMARK  4 active torsions:
REMARK  status: ('A' for Active; 'I' for Inactive)
REMARK    1  A    between atoms: N1_1  and  C1_5 
REMARK    2  A    between atoms: C1_5  and  C2_6 
REMARK    3  A    between atoms: N3_9  and  C4_10 
REMARK    4  A    between atoms: C4_10  and  C5_11 
ROOT
HETATM    1  C2  UNL     1       1.163   7.121   9.232  1.00  0.00     0.041 C 
HETATM    2  C3  UNL     1       0.022   7.853   8.546  1.00  0.00     0.136 C 
HETATM    3  N2  UNL     1      -1.100   6.957   8.749  1.00  0.00    -0.165 NA
HETATM    4  N3  UNL     1      -0.821   6.171   9.827  1.00  0.00    -0.234 NA
HETATM    5  C9  UNL     1       0.389   6.613  10.468  1.00  0.00     0.117 C 
ENDROOT
BRANCH   1   6
HETATM    6  C1  UNL     1       2.220   8.042   9.744  1.00  0.00     0.236 C 
BRANCH   6   7
HETATM    7  N1  UNL     1       3.398   7.910   8.883  1.00  0.00    -0.079 N 
ATOM      8  H13 UNL     1       4.076   7.241   9.244  1.00  0.00     0.274 HD
ATOM      9  H12 UNL     1       3.191   7.437   8.004  1.00  0.00     0.274 HD
ATOM     10  H11 UNL     1       3.797   8.839   8.745  1.00  0.00     0.274 HD
ENDBRANCH   6   7
ENDBRANCH   1   6
BRANCH   4  11
HETATM   11  C4  UNL     1      -0.865   4.796   9.520  1.00  0.00     0.114 C 
BRANCH  11  12
HETATM   12  C5  UNL     1      -1.866   3.961  10.234  1.00  0.00     0.009 A 
HETATM   13  C6  UNL     1      -1.111   2.773  10.952  1.00  0.00    -0.004 A 
HETATM   14  C7  UNL     1      -2.032   1.507  11.092  1.00  0.00     0.011 A 
HETATM   15  C8  UNL     1      -2.113   2.531  10.040  1.00  0.00    -0.004 A 
ENDBRANCH  11  12
ENDBRANCH   4  11
TORSDOF 4
ENDMDL
MODEL 5
REMARK VINA RESULT: -5.043244971      3.827      6.759
REMARK  4 active torsions:
REMARK  status: ('A' for Active; 'I' for Inactive)
REMARK    1  A    between atoms: N1_1  and  C1_5 
REMARK    2  A    between atoms: C1_5  and  C2_6 
REMARK    3  A    between atoms: N3_9  and  C4_10 
REMARK    4  A    between atoms: C4_10  and  C5_11 
ROOT
HETATM    1  C2  UNL     1      -4.724   0.699  10.234  1.00  0.00     0.041 C 
HETATM    2  C3  UNL     1      -4.188  -0.651  10.683  1.00  0.00     0.136 C 
HETATM    3  N2  UNL     1      -2.795  -0.363  10.965  1.00  0.00    -0.165 NA
HETATM    4  N3  UNL     1      -2.682   0.973  11.209  1.00  0.00    -0.234 NA
HETATM    5  C9  UNL     1      -3.985   1.582  11.262  1.00  0.00     0.117 C 
ENDROOT
BRANCH   1   6
HETATM    6  C1  UNL     1      -6.183   0.864  10.505  1.00  0.00     0.236 C 
BRANCH   6   7
HETATM    7  N1  UNL     1      -6.334   1.705  11.696  1.00  0.00    -0.079 N 
ATOM      8  H13 UNL     1      -7.274   2.089  11.789  1.00  0.00     0.274 HD
ATOM      9  H12 UNL     1      -6.319   1.166  12.562  1.00  0.00     0.274 HD
ATOM     10  H11 UNL     1      -5.614   2.427  11.669  1.00  0.00     0.274 HD
ENDBRANCH   6   7
ENDBRANCH   1   6
BRANCH   4  11
HETATM   11  C4  UNL     1      -1.763   1.605  10.348  1.00  0.00     0.114 C 
BRANCH  11  12
HETATM   12  C5  UNL     1      -1.097   2.841  10.836  1.00  0.00     0.009 A 
HETATM   13  C6  UNL     1      -1.558   4.052   9.932  1.00  0.00    -0.004 A 
HETATM   14  C7  UNL     1      -0.453   5.168   9.858  1.00  0.00     0.011 A 
HETATM   15  C8  UNL     1      -0.226   3.730  10.065  1.00  0.00    -0.004 A 
ENDBRANCH  11  12
ENDBRANCH   4  11
TORSDOF 4
ENDMDL
