MODEL 1
REMARK VINA RESULT: -4.350598079      0.000      0.000
REMARK  2 active torsions:
REMARK  status: ('A' for Active; 'I' for Inactive)
REMARK    1  A    between atoms: C2_2  and  C3_3 
REMARK    2  A    between atoms: C5_5  and  C6_6 
ROOT
HETATM    1  C3  UNL     1      -2.053   3.566  10.038  1.00  0.00     0.021 A 
HETATM    2  C4  UNL     1      -2.779   4.123   8.880  1.00  0.00     0.023 A 
HETATM    3  C5  UNL     1      -2.078   5.083   9.778  1.00  0.00     0.083 A 
ENDROOT
BRANCH   3   4
HETATM    4  C6  UNL     1      -0.796   5.701   9.387  1.00  0.00     0.235 C 
HETATM    5  N1  UNL     1      -0.070   6.433  10.366  1.00  0.00    -0.062 NA
HETATM    6  O1  UNL     1      -0.300   5.625   8.249  1.00  0.00    -0.276 OA
ENDBRANCH   3   4
BRANCH   1   7
HETATM    7  C2  UNL     1      -2.750   3.077  11.236  1.00  0.00    -0.031 C 
HETATM    8  C1  UNL     1      -2.228   2.120  11.992  1.00  0.00     0.007 C 
ENDBRANCH   1   7
TORSDOF 2
ENDMDL
MODEL 2
REMARK VINA RESULT: -4.324217273      1.398      1.773
REMARK  2 active torsions:
REMARK  status: ('A' for Active; 'I' for Inactive)
REMARK    1  A    between atoms: C2_2  and  C3_3 
REMARK    2  A    between atoms: C5_5  and  C6_6 
ROOT
HETATM    1  C3  UNL     1      -1.911   3.085  11.196  1.00  0.00     0.021 A 
HETATM    2  C4  UNL     1      -0.547   2.995  10.642  1.00  0.00     0.023 A 
HETATM    3  C5  UNL     1      -1.540   3.811   9.891  1.00  0.00     0.083 A 
ENDROOT
BRANCH   3   4
HETATM    4  C6  UNL     1      -1.519   5.286   9.946  1.00  0.00     0.235 C 
HETATM    5  N1  UNL     1      -0.298   5.934  10.283  1.00  0.00    -0.062 NA
HETATM    6  O1  UNL     1      -2.503   6.011   9.717  1.00  0.00    -0.276 OA
ENDBRANCH   3   4
BRANCH   1   7
HETATM    7  C2  UNL     1      -2.870   1.975  11.100  1.00  0.00    -0.031 C 
HETATM    8  C1  UNL     1      -2.484   0.717  11.272  1.00  0.00     0.007 C 
ENDBRANCH   1   7
TORSDOF 2
ENDMDL
MODEL 3
REMARK VINA RESULT: -4.311136557      1.143      1.143
REMARK  2 active torsions:
REMARK  status: ('A' for Active; 'I' for Inactive)
REMARK    1  A    between atoms: C2_2  and  C3_3 
REMARK    2  A    between atoms: C5_5  and  C6_6 
ROOT
HETATM    1  C3  UNL     1      -2.041   3.562  10.126  1.00  0.00     0.021 A 
HETATM    2  C4  UNL     1      -2.719   4.099   8.930  1.00  0.00     0.023 A 
HETATM    3  C5  UNL     1      -2.117   5.079   9.876  1.00  0.00     0.083 A 
ENDROOT
BRANCH   3   4
HETATM    4  C6  UNL     1      -0.842   5.757   9.569  1.00  0.00     0.235 C 
HETATM    5  N1  UNL     1      -0.314   5.643   8.254  1.00  0.00    -0.062 NA
HETATM    6  O1  UNL     1      -0.189   6.427  10.388  1.00  0.00    -0.276 OA
ENDBRANCH   3   4
BRANCH   1   7
HETATM    7  C2  UNL     1      -2.787   3.031  11.276  1.00  0.00    -0.031 C 
HETATM    8  C1  UNL     1      -2.290   2.058  12.027  1.00  0.00     0.007 C 
ENDBRANCH   1   7
TORSDOF 2
ENDMDL
MODEL 4
REMARK VINA RESULT: -4.290861438      1.258      1.375
REMARK  2 active torsions:
REMARK  status: ('A' for Active; 'I' for Inactive)
REMARK    1  A    between atoms: C2_2  and  C3_3 
REMARK    2  A    between atoms: C5_5  and  C6_6 
ROOT
HETATM    1  C3  UNL     1      -1.360   3.514  10.077  1.00  0.00     0.021 A 
HETATM    2  C4  UNL     1      -2.258   4.685  10.047  1.00  0.00     0.023 A 
HETATM    3  C5  UNL     1      -0.794   4.944  10.145  1.00  0.00     0.083 A 
ENDROOT
BRANCH   3   4
HETATM    4  C6  UNL     1      -0.017   5.397   8.974  1.00  0.00     0.235 C 
HETATM    5  N1  UNL     1      -0.530   6.468   8.193  1.00  0.00    -0.062 NA
HETATM    6  O1  UNL     1       1.067   4.902   8.620  1.00  0.00    -0.276 OA
ENDBRANCH   3   4
BRANCH   1   7
HETATM    7  C2  UNL     1      -1.210   2.674  11.274  1.00  0.00    -0.031 C 
HETATM    8  C1  UNL     1      -2.255   2.078  11.831  1.00  0.00     0.007 C 
ENDBRANCH   1   7
TORSDOF 2
ENDMDL
MODEL 5
REMARK VINA RESULT: -4.273716188      1.598      1.925
REMARK  2 active torsions:
REMARK  status: ('A' for Active; 'I' for Inactive)
REMARK    1  A    between atoms: C2_2  and  C3_3 
REMARK    2  A    between atoms: C5_5  and  C6_6 
ROOT
HETATM    1  C3  UNL     1      -1.835   3.068  11.177  1.00  0.00     0.021 A 
HETATM    2  C4  UNL     1      -0.460   2.939  10.656  1.00  0.00     0.023 A 
HETATM    3  C5  UNL     1      -1.409   3.790   9.886  1.00  0.00     0.083 A 
ENDROOT
BRANCH   3   4
HETATM    4  C6  UNL     1      -1.344   5.264   9.952  1.00  0.00     0.235 C 
HETATM    5  N1  UNL     1      -2.446   6.013   9.458  1.00  0.00    -0.062 NA
HETATM    6  O1  UNL     1      -0.382   5.902  10.415  1.00  0.00    -0.276 OA
ENDBRANCH   3   4
BRANCH   1   7
HETATM    7  C2  UNL     1      -2.825   1.988  11.049  1.00  0.00    -0.031 C 
HETATM    8  C1  UNL     1      -2.494   0.723  11.271  1.00  0.00     0.007 C 
ENDBRANCH   1   7
TORSDOF 2
ENDMDL
