MODEL 1
REMARK VINA RESULT: -4.379080961      0.000      0.000
REMARK  2 active torsions:
REMARK  status: ('A' for Active; 'I' for Inactive)
REMARK    1  A    between atoms: C1_2  and  N1_3 
REMARK       I    between atoms: N1_3  and  C2_5 
REMARK       I    between atoms: C2_5  and  N2_7 
REMARK    2  A    between atoms: N2_7  and  C3_9 
ROOT
HETATM    1  N1  UNL     1       0.941   5.943   8.788  1.00  0.00    -0.287 N 
ATOM      2  H1  UNL     1       0.945   6.643   8.046  1.00  0.00     0.172 HD
HETATM    3  C2  UNL     1      -0.162   5.073   8.923  1.00  0.00     0.322 C 
HETATM    4  O2  UNL     1      -1.120   5.213   8.086  1.00  0.00    -0.247 OA
HETATM    5  N2  UNL     1      -0.294   4.079   9.885  1.00  0.00    -0.338 N 
ATOM      6  H2  UNL     1       0.452   3.941  10.567  1.00  0.00     0.164 HD
ENDROOT
BRANCH   1   7
HETATM    7  C1  UNL     1       2.035   5.854   9.669  1.00  0.00     0.356 C 
HETATM    8  O1  UNL     1       1.864   5.858  10.909  1.00  0.00    -0.283 OA
ENDBRANCH   1   7
BRANCH   5   9
HETATM    9  C3  UNL     1      -1.475   3.232   9.939  1.00  0.00     0.086 A 
HETATM   10  C4  UNL     1      -1.618   2.494  11.265  1.00  0.00     0.027 A 
HETATM   11  C5  UNL     1      -2.589   3.545  10.848  1.00  0.00     0.027 A 
ENDBRANCH   5   9
TORSDOF 2
ENDMDL
MODEL 2
REMARK VINA RESULT: -4.371903920      1.595      2.523
REMARK  2 active torsions:
REMARK  status: ('A' for Active; 'I' for Inactive)
REMARK    1  A    between atoms: C1_2  and  N1_3 
REMARK       I    between atoms: N1_3  and  C2_5 
REMARK       I    between atoms: C2_5  and  N2_7 
REMARK    2  A    between atoms: N2_7  and  C3_9 
ROOT
HETATM    1  N1  UNL     1      -0.474   6.050   8.318  1.00  0.00    -0.287 N 
ATOM      2  H1  UNL     1       0.248   6.595   7.845  1.00  0.00     0.172 HD
HETATM    3  C2  UNL     1      -0.112   4.905   9.059  1.00  0.00     0.322 C 
HETATM    4  O2  UNL     1       1.131   4.604   9.098  1.00  0.00    -0.247 OA
HETATM    5  N2  UNL     1      -0.992   4.079   9.749  1.00  0.00    -0.338 N 
ATOM      6  H2  UNL     1      -1.989   4.291   9.739  1.00  0.00     0.164 HD
ENDROOT
BRANCH   1   7
HETATM    7  C1  UNL     1      -1.820   6.449   8.226  1.00  0.00     0.356 C 
HETATM    8  O1  UNL     1      -2.601   6.304   9.195  1.00  0.00    -0.283 OA
ENDBRANCH   1   7
BRANCH   5   9
HETATM    9  C3  UNL     1      -0.517   2.918  10.485  1.00  0.00     0.086 A 
HETATM   10  C4  UNL     1      -1.548   2.374  11.468  1.00  0.00     0.027 A 
HETATM   11  C5  UNL     1      -1.118   1.592  10.276  1.00  0.00     0.027 A 
ENDBRANCH   5   9
TORSDOF 2
ENDMDL
MODEL 3
REMARK VINA RESULT: -4.302616510      1.516      1.565
REMARK  2 active torsions:
REMARK  status: ('A' for Active; 'I' for Inactive)
REMARK    1  A    between atoms: C1_2  and  N1_3 
REMARK       I    between atoms: N1_3  and  C2_5 
REMARK       I    between atoms: C2_5  and  N2_7 
REMARK    2  A    between atoms: N2_7  and  C3_9 
ROOT
HETATM    1  N1  UNL     1      -0.254   6.234   9.467  1.00  0.00    -0.287 N 
ATOM      2  H1  UNL     1      -0.398   7.215   9.225  1.00  0.00     0.172 HD
HETATM    3  C2  UNL     1      -1.365   5.423   9.788  1.00  0.00     0.322 C 
HETATM    4  O2  UNL     1      -2.518   5.977   9.758  1.00  0.00    -0.247 OA
HETATM    5  N2  UNL     1      -1.309   4.078  10.133  1.00  0.00    -0.338 N 
ATOM      6  H2  UNL     1      -0.406   3.607  10.166  1.00  0.00     0.164 HD
ENDROOT
BRANCH   1   7
HETATM    7  C1  UNL     1       1.048   5.702   9.477  1.00  0.00     0.356 C 
HETATM    8  O1  UNL     1       1.322   4.660   8.837  1.00  0.00    -0.283 OA
ENDBRANCH   1   7
BRANCH   5   9
HETATM    9  C3  UNL     1      -2.516   3.330  10.447  1.00  0.00     0.086 A 
HETATM   10  C4  UNL     1      -2.267   1.833  10.590  1.00  0.00     0.027 A 
HETATM   11  C5  UNL     1      -2.677   2.669  11.752  1.00  0.00     0.027 A 
ENDBRANCH   5   9
TORSDOF 2
ENDMDL
MODEL 4
REMARK VINA RESULT: -4.250004008      3.026      4.190
REMARK  2 active torsions:
REMARK  status: ('A' for Active; 'I' for Inactive)
REMARK    1  A    between atoms: C1_2  and  N1_3 
REMARK       I    between atoms: N1_3  and  C2_5 
REMARK       I    between atoms: C2_5  and  N2_7 
REMARK    2  A    between atoms: N2_7  and  C3_9 
ROOT
HETATM    1  N1  UNL     1      -3.164   4.905   6.989  1.00  0.00    -0.287 N 
ATOM      2  H1  UNL     1      -3.299   5.810   6.535  1.00  0.00     0.172 HD
HETATM    3  C2  UNL     1      -2.781   4.854   8.346  1.00  0.00     0.322 C 
HETATM    4  O2  UNL     1      -2.619   5.971   8.949  1.00  0.00    -0.247 OA
HETATM    5  N2  UNL     1      -2.566   3.694   9.081  1.00  0.00    -0.338 N 
ATOM      6  H2  UNL     1      -2.686   2.787   8.631  1.00  0.00     0.164 HD
ENDROOT
BRANCH   1   7
HETATM    7  C1  UNL     1      -3.362   3.721   6.255  1.00  0.00     0.356 C 
HETATM    8  O1  UNL     1      -3.700   3.761   5.049  1.00  0.00    -0.283 OA
ENDBRANCH   1   7
BRANCH   5   9
HETATM    9  C3  UNL     1      -2.172   3.750  10.480  1.00  0.00     0.086 A 
HETATM   10  C4  UNL     1      -2.944   2.768  11.355  1.00  0.00     0.027 A 
HETATM   11  C5  UNL     1      -1.481   2.617  11.116  1.00  0.00     0.027 A 
ENDBRANCH   5   9
TORSDOF 2
ENDMDL
MODEL 5
REMARK VINA RESULT: -4.151100999      1.935      3.124
REMARK  2 active torsions:
REMARK  status: ('A' for Active; 'I' for Inactive)
REMARK    1  A    between atoms: C1_2  and  N1_3 
REMARK       I    between atoms: N1_3  and  C2_5 
REMARK       I    between atoms: C2_5  and  N2_7 
REMARK    2  A    between atoms: N2_7  and  C3_9 
ROOT
HETATM    1  N1  UNL     1      -1.830   6.515   8.518  1.00  0.00    -0.287 N 
ATOM      2  H1  UNL     1      -1.671   7.521   8.579  1.00  0.00     0.172 HD
HETATM    3  C2  UNL     1      -1.177   5.647   9.420  1.00  0.00     0.322 C 
HETATM    4  O2  UNL     1      -0.402   6.183  10.286  1.00  0.00    -0.247 OA
HETATM    5  N2  UNL     1      -1.307   4.264   9.447  1.00  0.00    -0.338 N 
ATOM      6  H2  UNL     1      -1.917   3.805   8.771  1.00  0.00     0.164 HD
ENDROOT
BRANCH   1   7
HETATM    7  C1  UNL     1      -2.699   6.005   7.536  1.00  0.00     0.356 C 
HETATM    8  O1  UNL     1      -2.287   5.201   6.668  1.00  0.00    -0.283 OA
ENDBRANCH   1   7
BRANCH   5   9
HETATM    9  C3  UNL     1      -0.588   3.458  10.421  1.00  0.00     0.086 A 
HETATM   10  C4  UNL     1      -1.509   2.586  11.267  1.00  0.00     0.027 A 
HETATM   11  C5  UNL     1      -0.542   1.991  10.302  1.00  0.00     0.027 A 
ENDBRANCH   5   9
TORSDOF 2
ENDMDL
