MODEL 1
REMARK VINA RESULT: -4.116828861      0.000      0.000
REMARK  3 active torsions:
REMARK  status: ('A' for Active; 'I' for Inactive)
REMARK    1  A    between atoms: C1_2  and  N1_3 
REMARK    2  A    between atoms: C2_5  and  N2_6 
REMARK    3  A    between atoms: N2_6  and  C3_8 
ROOT
HETATM    1  N1  UNL     1       0.748   4.144   9.413  1.00  0.00    -0.331 N 
ATOM      2  H1  UNL     1       1.233   3.311   9.079  1.00  0.00     0.168 HD
HETATM    3  C2  UNL     1      -0.335   3.968  10.053  1.00  0.00     0.178 C 
ENDROOT
BRANCH   3   4
HETATM    4  N2  UNL     1      -0.794   2.653  10.259  1.00  0.00    -0.381 N 
ATOM      5  H2  UNL     1      -0.631   1.936   9.551  1.00  0.00     0.160 HD
BRANCH   4   6
HETATM    6  C3  UNL     1      -1.491   2.325  11.466  1.00  0.00     0.082 A 
HETATM    7  C4  UNL     1      -2.915   2.736  11.562  1.00  0.00     0.027 A 
HETATM    8  C5  UNL     1      -2.603   1.279  11.409  1.00  0.00     0.027 A 
ENDBRANCH   4   6
ENDBRANCH   3   4
BRANCH   1   9
HETATM    9  C1  UNL     1       1.336   5.391   9.125  1.00  0.00     0.353 C 
HETATM   10  O1  UNL     1       0.584   6.294   8.663  1.00  0.00    -0.283 OA
ENDBRANCH   1   9
TORSDOF 3
ENDMDL
MODEL 2
REMARK VINA RESULT: -4.059900150      2.291      4.494
REMARK  3 active torsions:
REMARK  status: ('A' for Active; 'I' for Inactive)
REMARK    1  A    between atoms: C1_2  and  N1_3 
REMARK    2  A    between atoms: C2_5  and  N2_6 
REMARK    3  A    between atoms: N2_6  and  C3_8 
ROOT
HETATM    1  N1  UNL     1      -1.109   2.653  11.220  1.00  0.00    -0.331 N 
ATOM      2  H1  UNL     1      -0.248   2.233  11.572  1.00  0.00     0.168 HD
HETATM    3  C2  UNL     1      -1.004   3.469  10.253  1.00  0.00     0.178 C 
ENDROOT
BRANCH   3   4
HETATM    4  N2  UNL     1       0.277   3.740   9.731  1.00  0.00    -0.381 N 
ATOM      5  H2  UNL     1       0.973   2.997   9.670  1.00  0.00     0.160 HD
BRANCH   4   6
HETATM    6  C3  UNL     1       0.597   5.063   9.287  1.00  0.00     0.082 A 
HETATM    7  C4  UNL     1       0.512   6.156  10.289  1.00  0.00     0.027 A 
HETATM    8  C5  UNL     1       1.867   5.727   9.816  1.00  0.00     0.027 A 
ENDBRANCH   4   6
ENDBRANCH   3   4
BRANCH   1   9
HETATM    9  C1  UNL     1      -2.312   2.279  11.850  1.00  0.00     0.353 C 
HETATM   10  O1  UNL     1      -3.277   3.089  11.782  1.00  0.00    -0.283 OA
ENDBRANCH   1   9
TORSDOF 3
ENDMDL
MODEL 3
REMARK VINA RESULT: -4.038818790      1.549      1.575
REMARK  3 active torsions:
REMARK  status: ('A' for Active; 'I' for Inactive)
REMARK    1  A    between atoms: C1_2  and  N1_3 
REMARK    2  A    between atoms: C2_5  and  N2_6 
REMARK    3  A    between atoms: N2_6  and  C3_8 
ROOT
HETATM    1  N1  UNL     1       1.132   5.196  10.527  1.00  0.00    -0.331 N 
ATOM      2  H1  UNL     1       1.474   4.596  11.278  1.00  0.00     0.168 HD
HETATM    3  C2  UNL     1       0.385   4.660   9.650  1.00  0.00     0.178 C 
ENDROOT
BRANCH   3   4
HETATM    4  N2  UNL     1       0.080   3.289   9.766  1.00  0.00    -0.381 N 
ATOM      5  H2  UNL     1       0.379   2.635   9.042  1.00  0.00     0.160 HD
BRANCH   4   6
HETATM    6  C3  UNL     1      -0.651   2.818  10.903  1.00  0.00     0.082 A 
HETATM    7  C4  UNL     1      -2.105   3.115  10.947  1.00  0.00     0.027 A 
HETATM    8  C5  UNL     1      -1.674   1.701  10.705  1.00  0.00     0.027 A 
ENDBRANCH   4   6
ENDBRANCH   3   4
BRANCH   1   9
HETATM    9  C1  UNL     1       1.527   6.547  10.551  1.00  0.00     0.353 C 
HETATM   10  O1  UNL     1       0.777   7.360  11.159  1.00  0.00    -0.283 OA
ENDBRANCH   1   9
TORSDOF 3
ENDMDL
MODEL 4
REMARK VINA RESULT: -4.030164713      3.601      3.812
REMARK  3 active torsions:
REMARK  status: ('A' for Active; 'I' for Inactive)
REMARK    1  A    between atoms: C1_2  and  N1_3 
REMARK    2  A    between atoms: C2_5  and  N2_6 
REMARK    3  A    between atoms: N2_6  and  C3_8 
ROOT
HETATM    1  N1  UNL     1      -2.902   3.842   6.875  1.00  0.00    -0.331 N 
ATOM      2  H1  UNL     1      -2.243   3.101   6.636  1.00  0.00     0.168 HD
HETATM    3  C2  UNL     1      -3.225   3.959   8.097  1.00  0.00     0.178 C 
ENDROOT
BRANCH   3   4
HETATM    4  N2  UNL     1      -2.663   3.070   9.035  1.00  0.00    -0.381 N 
ATOM      5  H2  UNL     1      -2.463   2.105   8.771  1.00  0.00     0.160 HD
BRANCH   4   6
HETATM    6  C3  UNL     1      -2.373   3.527  10.360  1.00  0.00     0.082 A 
HETATM    7  C4  UNL     1      -3.007   2.795  11.486  1.00  0.00     0.027 A 
HETATM    8  C5  UNL     1      -1.533   2.637  11.275  1.00  0.00     0.027 A 
ENDBRANCH   4   6
ENDBRANCH   3   4
BRANCH   1   9
HETATM    9  C1  UNL     1      -3.375   4.647   5.821  1.00  0.00     0.353 C 
HETATM   10  O1  UNL     1      -3.747   4.062   4.766  1.00  0.00    -0.283 OA
ENDBRANCH   1   9
TORSDOF 3
ENDMDL
MODEL 5
REMARK VINA RESULT: -3.934987880      3.586      4.333
REMARK  3 active torsions:
REMARK  status: ('A' for Active; 'I' for Inactive)
REMARK    1  A    between atoms: C1_2  and  N1_3 
REMARK    2  A    between atoms: C2_5  and  N2_6 
REMARK    3  A    between atoms: N2_6  and  C3_8 
ROOT
HETATM    1  N1  UNL     1      -2.474   0.434   7.693  1.00  0.00    -0.331 N 
ATOM      2  H1  UNL     1      -1.518   0.078   7.685  1.00  0.00     0.168 HD
HETATM    3  C2  UNL     1      -2.937   0.828   8.808  1.00  0.00     0.178 C 
ENDROOT
BRANCH   3   4
HETATM    4  N2  UNL     1      -2.114   0.750   9.949  1.00  0.00    -0.381 N 
ATOM      5  H2  UNL     1      -1.796  -0.158  10.291  1.00  0.00     0.160 HD
BRANCH   4   6
HETATM    6  C3  UNL     1      -1.726   1.949  10.628  1.00  0.00     0.082 A 
HETATM    7  C4  UNL     1      -2.813   2.853  11.085  1.00  0.00     0.027 A 
HETATM    8  C5  UNL     1      -2.044   2.084  12.117  1.00  0.00     0.027 A 
ENDBRANCH   4   6
ENDBRANCH   3   4
BRANCH   1   9
HETATM    9  C1  UNL     1      -3.168   0.446   6.467  1.00  0.00     0.353 C 
HETATM   10  O1  UNL     1      -2.973   1.431   5.702  1.00  0.00    -0.283 OA
ENDBRANCH   1   9
TORSDOF 3
ENDMDL
