MODEL 1
REMARK VINA RESULT: -6.088295621      0.000      0.000
REMARK  3 active torsions:
REMARK  status: ('A' for Active; 'I' for Inactive)
REMARK    1  A    between atoms: O1_2  and  C2_3 
REMARK    2  A    between atoms: C2_3  and  N2_7 
REMARK       I    between atoms: C3_9  and  N4_11 
REMARK    3  A    between atoms: N4_11  and  N5_13 
ROOT
HETATM    1  N2  UNL     1       1.441   5.447  10.471  1.00  0.00    -0.295 N 
ATOM      2  H2  UNL     1       1.798   4.858  11.224  1.00  0.00     0.172 HD
HETATM    3  C3  UNL     1       0.684   4.932   9.549  1.00  0.00     0.210 C 
HETATM    4  N3  UNL     1       0.195   5.749   8.515  1.00  0.00    -0.062 NA
HETATM    5  N4  UNL     1       0.392   3.547   9.647  1.00  0.00    -0.274 N 
ATOM      6  H4  UNL     1       0.735   2.936   8.905  1.00  0.00     0.189 HD
ENDROOT
BRANCH   1   7
HETATM    7  C2  UNL     1       1.776   6.848  10.432  1.00  0.00     0.218 C 
HETATM    8  N1  UNL     1       2.691   7.258   9.631  1.00  0.00    -0.365 N 
ATOM      9  H12 UNL     1       2.928   8.250   9.603  1.00  0.00     0.159 HD
ATOM     10  H11 UNL     1       3.165   6.581   9.034  1.00  0.00     0.159 HD
BRANCH   7  11
HETATM   11  O1  UNL     1       1.139   7.757  11.234  1.00  0.00    -0.327 OA
HETATM   12  C1  UNL     1       1.726   8.262  12.443  1.00  0.00     0.213 C 
ENDBRANCH   7  11
ENDBRANCH   1   7
BRANCH   5  13
HETATM   13  N5  UNL     1      -0.327   2.968  10.679  1.00  0.00    -0.307 N 
HETATM   14  C4  UNL     1      -1.601   3.005  10.808  1.00  0.00    -0.004 C 
HETATM   15  C5  UNL     1      -2.515   3.674   9.871  1.00  0.00     0.064 C 
HETATM   16  C6  UNL     1      -2.166   2.303  12.013  1.00  0.00     0.064 C 
ATOM     17  H5  UNL     1       0.202   2.471  11.397  1.00  0.00     0.186 HD
ENDBRANCH   5  13
TORSDOF 3
ENDMDL
MODEL 2
REMARK VINA RESULT: -5.574098788      3.567      5.104
REMARK  3 active torsions:
REMARK  status: ('A' for Active; 'I' for Inactive)
REMARK    1  A    between atoms: O1_2  and  C2_3 
REMARK    2  A    between atoms: C2_3  and  N2_7 
REMARK       I    between atoms: C3_9  and  N4_11 
REMARK    3  A    between atoms: N4_11  and  N5_13 
ROOT
HETATM    1  N2  UNL     1       0.622   6.282   8.517  1.00  0.00    -0.295 N 
ATOM      2  H2  UNL     1       0.405   5.870   7.609  1.00  0.00     0.172 HD
HETATM    3  C3  UNL     1       0.395   7.544   8.726  1.00  0.00     0.210 C 
HETATM    4  N3  UNL     1       0.696   8.105   9.980  1.00  0.00    -0.062 NA
HETATM    5  N4  UNL     1      -0.155   8.292   7.655  1.00  0.00    -0.274 N 
ATOM      6  H4  UNL     1       0.410   9.045   7.262  1.00  0.00     0.189 HD
ENDROOT
BRANCH   1   7
HETATM    7  C2  UNL     1       1.179   5.463   9.563  1.00  0.00     0.218 C 
HETATM    8  N1  UNL     1       2.450   5.445   9.744  1.00  0.00    -0.365 N 
ATOM      9  H12 UNL     1       2.844   4.866  10.485  1.00  0.00     0.159 HD
ATOM     10  H11 UNL     1       3.043   6.013   9.141  1.00  0.00     0.159 HD
BRANCH   7  11
HETATM   11  O1  UNL     1       0.382   4.701  10.374  1.00  0.00    -0.327 OA
HETATM   12  C1  UNL     1      -0.968   4.360  10.026  1.00  0.00     0.213 C 
ENDBRANCH   7  11
ENDBRANCH   1   7
BRANCH   5  13
HETATM   13  N5  UNL     1      -1.407   8.072   7.105  1.00  0.00    -0.307 N 
HETATM   14  C4  UNL     1      -2.263   8.982   6.821  1.00  0.00    -0.004 C 
HETATM   15  C5  UNL     1      -2.052  10.421   7.033  1.00  0.00     0.064 C 
HETATM   16  C6  UNL     1      -3.563   8.508   6.229  1.00  0.00     0.064 C 
ATOM     17  H5  UNL     1      -1.670   7.105   6.911  1.00  0.00     0.186 HD
ENDBRANCH   5  13
TORSDOF 3
ENDMDL
MODEL 3
REMARK VINA RESULT: -5.572973024      2.756      3.831
REMARK  3 active torsions:
REMARK  status: ('A' for Active; 'I' for Inactive)
REMARK    1  A    between atoms: O1_2  and  C2_3 
REMARK    2  A    between atoms: C2_3  and  N2_7 
REMARK       I    between atoms: C3_9  and  N4_11 
REMARK    3  A    between atoms: N4_11  and  N5_13 
ROOT
HETATM    1  N2  UNL     1      -2.737   4.970   9.924  1.00  0.00    -0.295 N 
ATOM      2  H2  UNL     1      -3.725   5.210  10.003  1.00  0.00     0.172 HD
HETATM    3  C3  UNL     1      -2.235   4.035  10.674  1.00  0.00     0.210 C 
HETATM    4  N3  UNL     1      -0.872   3.710  10.558  1.00  0.00    -0.062 NA
HETATM    5  N4  UNL     1      -3.112   3.388  11.580  1.00  0.00    -0.274 N 
ATOM      6  H4  UNL     1      -2.929   3.496  12.578  1.00  0.00     0.189 HD
ENDROOT
BRANCH   1   7
HETATM    7  C2  UNL     1      -1.901   5.668   8.980  1.00  0.00     0.218 C 
HETATM    8  N1  UNL     1      -1.491   5.060   7.926  1.00  0.00    -0.365 N 
ATOM      9  H12 UNL     1      -0.899   5.555   7.258  1.00  0.00     0.159 HD
ATOM     10  H11 UNL     1      -1.767   4.090   7.776  1.00  0.00     0.159 HD
BRANCH   7  11
HETATM   11  O1  UNL     1      -1.531   6.970   9.181  1.00  0.00    -0.327 OA
HETATM   12  C1  UNL     1      -0.215   7.454   8.872  1.00  0.00     0.213 C 
ENDBRANCH   7  11
ENDBRANCH   1   7
BRANCH   5  13
HETATM   13  N5  UNL     1      -4.201   2.618  11.204  1.00  0.00    -0.307 N 
HETATM   14  C4  UNL     1      -4.152   1.389  10.848  1.00  0.00    -0.004 C 
HETATM   15  C5  UNL     1      -2.921   0.589  10.779  1.00  0.00     0.064 C 
HETATM   16  C6  UNL     1      -5.466   0.753  10.480  1.00  0.00     0.064 C 
ATOM     17  H5  UNL     1      -5.117   3.068  11.212  1.00  0.00     0.186 HD
ENDBRANCH   5  13
TORSDOF 3
ENDMDL
MODEL 4
REMARK VINA RESULT: -5.542000197      1.837      2.130
REMARK  3 active torsions:
REMARK  status: ('A' for Active; 'I' for Inactive)
REMARK    1  A    between atoms: O1_2  and  C2_3 
REMARK    2  A    between atoms: C2_3  and  N2_7 
REMARK       I    between atoms: C3_9  and  N4_11 
REMARK    3  A    between atoms: N4_11  and  N5_13 
ROOT
HETATM    1  N2  UNL     1      -0.206   5.169   8.706  1.00  0.00    -0.295 N 
ATOM      2  H2  UNL     1       0.158   4.374   8.182  1.00  0.00     0.172 HD
HETATM    3  C3  UNL     1      -1.452   5.186   9.077  1.00  0.00     0.210 C 
HETATM    4  N3  UNL     1      -1.947   6.286   9.799  1.00  0.00    -0.062 NA
HETATM    5  N4  UNL     1      -2.250   4.068   8.724  1.00  0.00    -0.274 N 
ATOM      6  H4  UNL     1      -3.031   4.225   8.087  1.00  0.00     0.189 HD
ENDROOT
BRANCH   1   7
HETATM    7  C2  UNL     1       0.661   6.273   9.033  1.00  0.00     0.218 C 
HETATM    8  N1  UNL     1       0.655   7.323   8.294  1.00  0.00    -0.365 N 
ATOM      9  H12 UNL     1       1.269   8.104   8.525  1.00  0.00     0.159 HD
ATOM     10  H11 UNL     1       0.034   7.356   7.486  1.00  0.00     0.159 HD
BRANCH   7  11
HETATM   11  O1  UNL     1       1.494   6.229  10.118  1.00  0.00    -0.327 OA
HETATM   12  C1  UNL     1       1.466   7.225  11.151  1.00  0.00     0.213 C 
ENDBRANCH   7  11
ENDBRANCH   1   7
BRANCH   5  13
HETATM   13  N5  UNL     1      -2.042   2.778   9.183  1.00  0.00    -0.307 N 
HETATM   14  C4  UNL     1      -2.345   2.350  10.352  1.00  0.00    -0.004 C 
HETATM   15  C5  UNL     1      -2.968   3.166  11.404  1.00  0.00     0.064 C 
HETATM   16  C6  UNL     1      -2.026   0.906  10.632  1.00  0.00     0.064 C 
ATOM     17  H5  UNL     1      -1.612   2.115   8.538  1.00  0.00     0.186 HD
ENDBRANCH   5  13
TORSDOF 3
ENDMDL
MODEL 5
REMARK VINA RESULT: -5.524305389      2.341      5.623
REMARK  3 active torsions:
REMARK  status: ('A' for Active; 'I' for Inactive)
REMARK    1  A    between atoms: O1_2  and  C2_3 
REMARK    2  A    between atoms: C2_3  and  N2_7 
REMARK       I    between atoms: C3_9  and  N4_11 
REMARK    3  A    between atoms: N4_11  and  N5_13 
ROOT
HETATM    1  N2  UNL     1       1.144   5.831   8.884  1.00  0.00    -0.295 N 
ATOM      2  H2  UNL     1       1.249   6.024   7.888  1.00  0.00     0.172 HD
HETATM    3  C3  UNL     1       1.952   6.382   9.740  1.00  0.00     0.210 C 
HETATM    4  N3  UNL     1       1.802   6.111  11.112  1.00  0.00    -0.062 NA
HETATM    5  N4  UNL     1       2.957   7.241   9.225  1.00  0.00    -0.274 N 
ATOM      6  H4  UNL     1       3.930   6.961   9.350  1.00  0.00     0.189 HD
ENDROOT
BRANCH   1   7
HETATM    7  C2  UNL     1       0.100   4.949   9.340  1.00  0.00     0.218 C 
HETATM    8  N1  UNL     1       0.393   3.749   9.689  1.00  0.00    -0.365 N 
ATOM      9  H12 UNL     1      -0.346   3.123  10.011  1.00  0.00     0.159 HD
ATOM     10  H11 UNL     1       1.364   3.441   9.637  1.00  0.00     0.159 HD
BRANCH   7  11
HETATM   11  O1  UNL     1      -1.203   5.361   9.410  1.00  0.00    -0.327 OA
HETATM   12  C1  UNL     1      -1.658   6.582   8.808  1.00  0.00     0.213 C 
ENDBRANCH   7  11
ENDBRANCH   1   7
BRANCH   5  13
HETATM   13  N5  UNL     1       2.708   8.433   8.566  1.00  0.00    -0.307 N 
HETATM   14  C4  UNL     1       2.538   9.570   9.129  1.00  0.00    -0.004 C 
HETATM   15  C5  UNL     1       2.581   9.797  10.581  1.00  0.00     0.064 C 
HETATM   16  C6  UNL     1       2.279  10.734   8.211  1.00  0.00     0.064 C 
ATOM     17  H5  UNL     1       2.655   8.402   7.547  1.00  0.00     0.186 HD
ENDBRANCH   5  13
TORSDOF 3
ENDMDL
