MODEL 1
REMARK VINA RESULT: -6.298315509      0.000      0.000
REMARK  2 active torsions:
REMARK  status: ('A' for Active; 'I' for Inactive)
REMARK    1  A    between atoms: N1_2  and  N2_4 
REMARK       I    between atoms: N2_4  and  C2_6 
REMARK       I    between atoms: C2_6  and  N3_8 
REMARK    2  A    between atoms: N3_8  and  C3_10 
ROOT
HETATM    1  N2  UNL     1       1.996   5.745  10.099  1.00  0.00    -0.256 N 
ATOM      2  H2  UNL     1       2.347   5.535  11.034  1.00  0.00     0.191 HD
HETATM    3  C2  UNL     1       0.907   4.964   9.656  1.00  0.00     0.334 C 
HETATM    4  O1  UNL     1       0.394   5.131   8.551  1.00  0.00    -0.246 OA
HETATM    5  N3  UNL     1       0.416   3.975  10.534  1.00  0.00    -0.336 N 
ATOM      6  H3  UNL     1       0.853   3.835  11.446  1.00  0.00     0.164 HD
ENDROOT
BRANCH   5   7
HETATM    7  C3  UNL     1      -0.712   3.158  10.133  1.00  0.00     0.112 C 
HETATM    8  C4  UNL     1      -1.901   3.404  11.001  1.00  0.00     0.028 C 
HETATM    9  C5  UNL     1      -2.266   2.092  11.673  1.00  0.00     0.029 C 
HETATM   10  C6  UNL     1      -2.618   1.116  10.566  1.00  0.00     0.232 C 
HETATM   11  N4  UNL     1      -1.502   0.973   9.667  1.00  0.00    -0.073 N 
HETATM   12  C7  UNL     1      -0.315   1.677  10.106  1.00  0.00     0.257 C 
ATOM     13  H42 UNL     1      -1.298  -0.013   9.500  1.00  0.00     0.277 HD
ATOM     14  H41 UNL     1      -1.761   1.254   8.722  1.00  0.00     0.277 HD
ENDBRANCH   5   7
BRANCH   1  15
HETATM   15  N1  UNL     1       2.622   6.721   9.449  1.00  0.00    -0.337 N 
HETATM   16  C1  UNL     1       2.338   8.061   9.715  1.00  0.00     0.167 C 
ATOM     17  H1  UNL     1       3.320   6.486   8.744  1.00  0.00     0.179 HD
ENDBRANCH   1  15
TORSDOF 2
ENDMDL
MODEL 2
REMARK VINA RESULT: -5.864797118      2.063      2.192
REMARK  2 active torsions:
REMARK  status: ('A' for Active; 'I' for Inactive)
REMARK    1  A    between atoms: N1_2  and  N2_4 
REMARK       I    between atoms: N2_4  and  C2_6 
REMARK       I    between atoms: C2_6  and  N3_8 
REMARK    2  A    between atoms: N3_8  and  C3_10 
ROOT
HETATM    1  N2  UNL     1       0.211   6.145   8.541  1.00  0.00    -0.256 N 
ATOM      2  H2  UNL     1       0.809   5.398   8.189  1.00  0.00     0.191 HD
HETATM    3  C2  UNL     1      -0.984   5.737   9.172  1.00  0.00     0.334 C 
HETATM    4  O1  UNL     1      -1.781   6.547   9.643  1.00  0.00    -0.246 OA
HETATM    5  N3  UNL     1      -1.238   4.351   9.250  1.00  0.00    -0.336 N 
ATOM      6  H3  UNL     1      -0.577   3.685   8.848  1.00  0.00     0.164 HD
ENDROOT
BRANCH   5   7
HETATM    7  C3  UNL     1      -2.442   3.880   9.903  1.00  0.00     0.112 C 
HETATM    8  C4  UNL     1      -2.145   3.301  11.247  1.00  0.00     0.028 C 
HETATM    9  C5  UNL     1      -2.590   1.850  11.237  1.00  0.00     0.029 C 
HETATM   10  C6  UNL     1      -4.087   1.853  10.987  1.00  0.00     0.232 C 
HETATM   11  N4  UNL     1      -4.374   2.516   9.742  1.00  0.00    -0.073 N 
HETATM   12  C7  UNL     1      -3.186   2.888   9.001  1.00  0.00     0.257 C 
ATOM     13  H42 UNL     1      -4.997   1.949   9.166  1.00  0.00     0.277 HD
ATOM     14  H41 UNL     1      -4.974   3.326   9.893  1.00  0.00     0.277 HD
ENDBRANCH   5   7
BRANCH   1  15
HETATM   15  N1  UNL     1       0.652   7.384   8.348  1.00  0.00    -0.337 N 
HETATM   16  C1  UNL     1       1.434   8.027   9.309  1.00  0.00     0.167 C 
ATOM     17  H1  UNL     1       0.417   7.872   7.484  1.00  0.00     0.179 HD
ENDBRANCH   1  15
TORSDOF 2
ENDMDL
MODEL 3
REMARK VINA RESULT: -5.795440681      1.737      2.222
REMARK  2 active torsions:
REMARK  status: ('A' for Active; 'I' for Inactive)
REMARK    1  A    between atoms: N1_2  and  N2_4 
REMARK       I    between atoms: N2_4  and  C2_6 
REMARK       I    between atoms: C2_6  and  N3_8 
REMARK    2  A    between atoms: N3_8  and  C3_10 
ROOT
HETATM    1  N2  UNL     1       1.062   4.046   9.377  1.00  0.00    -0.256 N 
ATOM      2  H2  UNL     1       1.524   3.161   9.168  1.00  0.00     0.191 HD
HETATM    3  C2  UNL     1      -0.271   3.955   9.833  1.00  0.00     0.334 C 
HETATM    4  O1  UNL     1      -0.929   4.953  10.125  1.00  0.00    -0.246 OA
HETATM    5  N3  UNL     1      -0.832   2.666   9.949  1.00  0.00    -0.336 N 
ATOM      6  H3  UNL     1      -0.285   1.842   9.697  1.00  0.00     0.164 HD
ENDROOT
BRANCH   5   7
HETATM    7  C3  UNL     1      -2.192   2.518  10.430  1.00  0.00     0.112 C 
HETATM    8  C4  UNL     1      -2.329   1.331  11.326  1.00  0.00     0.028 C 
HETATM    9  C5  UNL     1      -3.342   0.390  10.698  1.00  0.00     0.029 C 
HETATM   10  C6  UNL     1      -4.655   1.146  10.624  1.00  0.00     0.232 C 
HETATM   11  N4  UNL     1      -4.484   2.349   9.853  1.00  0.00    -0.073 N 
HETATM   12  C7  UNL     1      -3.172   2.467   9.252  1.00  0.00     0.257 C 
ATOM     13  H42 UNL     1      -5.215   2.432   9.146  1.00  0.00     0.277 HD
ATOM     14  H41 UNL     1      -4.699   3.172  10.415  1.00  0.00     0.277 HD
ENDBRANCH   5   7
BRANCH   1  15
HETATM   15  N1  UNL     1       1.788   5.142   9.186  1.00  0.00    -0.337 N 
HETATM   16  C1  UNL     1       2.106   5.989  10.249  1.00  0.00     0.167 C 
ATOM     17  H1  UNL     1       2.119   5.367   8.249  1.00  0.00     0.179 HD
ENDBRANCH   1  15
TORSDOF 2
ENDMDL
MODEL 4
REMARK VINA RESULT: -5.725988599      1.767      2.056
REMARK  2 active torsions:
REMARK  status: ('A' for Active; 'I' for Inactive)
REMARK    1  A    between atoms: N1_2  and  N2_4 
REMARK       I    between atoms: N2_4  and  C2_6 
REMARK       I    between atoms: C2_6  and  N3_8 
REMARK    2  A    between atoms: N3_8  and  C3_10 
ROOT
HETATM    1  N2  UNL     1       1.020   6.748   8.543  1.00  0.00    -0.256 N 
ATOM      2  H2  UNL     1       1.246   6.138   7.757  1.00  0.00     0.191 HD
HETATM    3  C2  UNL     1       0.228   6.177   9.562  1.00  0.00     0.334 C 
HETATM    4  O1  UNL     1      -0.102   6.812  10.562  1.00  0.00    -0.246 OA
HETATM    5  N3  UNL     1      -0.177   4.836   9.397  1.00  0.00    -0.336 N 
ATOM      6  H3  UNL     1       0.091   4.318   8.560  1.00  0.00     0.164 HD
ENDROOT
BRANCH   5   7
HETATM    7  C3  UNL     1      -0.977   4.198  10.424  1.00  0.00     0.112 C 
HETATM    8  C4  UNL     1      -0.506   2.809  10.700  1.00  0.00     0.028 C 
HETATM    9  C5  UNL     1      -1.654   1.861  10.400  1.00  0.00     0.029 C 
HETATM   10  C6  UNL     1      -2.784   2.228  11.342  1.00  0.00     0.232 C 
HETATM   11  N4  UNL     1      -3.155   3.606  11.148  1.00  0.00    -0.073 N 
HETATM   12  C7  UNL     1      -2.463   4.239  10.044  1.00  0.00     0.257 C 
ATOM     13  H42 UNL     1      -4.165   3.696  11.041  1.00  0.00     0.277 HD
ATOM     14  H41 UNL     1      -3.028   4.139  12.008  1.00  0.00     0.277 HD
ENDBRANCH   5   7
BRANCH   1  15
HETATM   15  N1  UNL     1       1.508   7.982   8.480  1.00  0.00    -0.337 N 
HETATM   16  C1  UNL     1       2.688   8.325   9.142  1.00  0.00     0.167 C 
ATOM     17  H1  UNL     1       1.012   8.691   7.940  1.00  0.00     0.179 HD
ENDBRANCH   1  15
TORSDOF 2
ENDMDL
MODEL 5
REMARK VINA RESULT: -5.523214675      3.161      6.143
REMARK  2 active torsions:
REMARK  status: ('A' for Active; 'I' for Inactive)
REMARK    1  A    between atoms: N1_2  and  N2_4 
REMARK       I    between atoms: N2_4  and  C2_6 
REMARK       I    between atoms: C2_6  and  N3_8 
REMARK    2  A    between atoms: N3_8  and  C3_10 
ROOT
HETATM    1  N2  UNL     1      -5.036   2.380  11.423  1.00  0.00    -0.256 N 
ATOM      2  H2  UNL     1      -5.202   3.188  12.022  1.00  0.00     0.191 HD
HETATM    3  C2  UNL     1      -3.896   2.449  10.592  1.00  0.00     0.334 C 
HETATM    4  O1  UNL     1      -3.589   1.531   9.832  1.00  0.00    -0.246 OA
HETATM    5  N3  UNL     1      -3.108   3.617  10.664  1.00  0.00    -0.336 N 
ATOM      6  H3  UNL     1      -3.374   4.378  11.289  1.00  0.00     0.164 HD
ENDROOT
BRANCH   5   7
HETATM    7  C3  UNL     1      -1.918   3.729   9.844  1.00  0.00     0.112 C 
HETATM    8  C4  UNL     1      -0.677   3.542  10.654  1.00  0.00     0.028 C 
HETATM    9  C5  UNL     1       0.146   4.813  10.541  1.00  0.00     0.029 C 
HETATM   10  C6  UNL     1       0.497   4.980   9.074  1.00  0.00     0.232 C 
HETATM   11  N4  UNL     1      -0.708   5.043   8.287  1.00  0.00    -0.073 N 
HETATM   12  C7  UNL     1      -1.917   5.061   9.085  1.00  0.00     0.257 C 
ATOM     13  H42 UNL     1      -0.682   5.840   7.651  1.00  0.00     0.277 HD
ATOM     14  H41 UNL     1      -0.735   4.285   7.607  1.00  0.00     0.277 HD
ENDBRANCH   5   7
BRANCH   1  15
HETATM   15  N1  UNL     1      -5.919   1.392  11.520  1.00  0.00    -0.337 N 
HETATM   16  C1  UNL     1      -6.794   1.102  10.472  1.00  0.00     0.167 C 
ATOM     17  H1  UNL     1      -5.957   0.836  12.374  1.00  0.00     0.179 HD
ENDBRANCH   1  15
TORSDOF 2
ENDMDL
