MODEL 1
REMARK VINA RESULT: -4.720848126      0.000      0.000
REMARK  2 active torsions:
REMARK  status: ('A' for Active; 'I' for Inactive)
REMARK    1  A    between atoms: C10_13  and  C11_15 
REMARK    2  A    between atoms: C11_15  and  O2_16 
ROOT
HETATM    1  C1  UNL     1      10.540 -14.953  -3.847  1.00  0.00     0.043 C 
HETATM    2  C2  UNL     1      11.301 -14.657  -5.096  1.00  0.00    -0.078 C 
HETATM    3  C3  UNL     1      12.684 -15.258  -5.070  1.00  0.00     0.043 C 
HETATM    4  C4  UNL     1      10.907 -13.889  -6.071  1.00  0.00    -0.015 C 
HETATM    5  C5  UNL     1      11.808 -13.731  -7.251  1.00  0.00     0.051 C 
HETATM    6  C6  UNL     1      12.174 -14.708  -8.012  1.00  0.00     0.117 C 
HETATM    7 CL1  UNL     1      13.261 -14.292  -9.350  1.00  0.00    -0.070 Cl
HETATM    8 CL2  UNL     1      11.632 -16.349  -7.914  1.00  0.00    -0.070 Cl
HETATM    9  C7  UNL     1      12.148 -12.318  -7.551  1.00  0.00     0.162 C 
HETATM   10  O1  UNL     1      13.069 -12.041  -8.303  1.00  0.00    -0.292 OA
HETATM   11  C8  UNL     1      11.307 -11.336  -6.887  1.00  0.00     0.086 C 
HETATM   12  C9  UNL     1       9.867 -11.749  -6.776  1.00  0.00     0.041 C 
HETATM   13  C10 UNL     1       9.654 -13.089  -6.066  1.00  0.00     0.086 C 
HETATM   14 CL3  UNL     1       9.061 -12.755  -4.450  1.00  0.00    -0.112 Cl
ENDROOT
BRANCH  13  15
HETATM   15  C11 UNL     1       8.592 -13.812  -6.852  1.00  0.00     0.194 C 
BRANCH  15  16
HETATM   16  O2  UNL     1       7.405 -14.036  -6.224  1.00  0.00    -0.399 OA
ATOM     17  H2  UNL     1       7.176 -14.941  -6.048  1.00  0.00     0.209 HD
ENDBRANCH  15  16
ENDBRANCH  13  15
TORSDOF 2
ENDMDL
MODEL 2
REMARK VINA RESULT: -4.556636103      1.514      1.565
REMARK  2 active torsions:
REMARK  status: ('A' for Active; 'I' for Inactive)
REMARK    1  A    between atoms: C10_13  and  C11_15 
REMARK    2  A    between atoms: C11_15  and  O2_16 
ROOT
HETATM    1  C1  UNL     1      10.256 -15.878  -5.168  1.00  0.00     0.043 C 
HETATM    2  C2  UNL     1      10.649 -15.244  -6.460  1.00  0.00    -0.078 C 
HETATM    3  C3  UNL     1      11.597 -16.113  -7.249  1.00  0.00     0.043 C 
HETATM    4  C4  UNL     1      10.329 -14.046  -6.856  1.00  0.00    -0.015 C 
HETATM    5  C5  UNL     1      10.807 -13.596  -8.197  1.00  0.00     0.051 C 
HETATM    6  C6  UNL     1      10.487 -14.175  -9.306  1.00  0.00     0.117 C 
HETATM    7 CL1  UNL     1      11.182 -13.479 -10.782  1.00  0.00    -0.070 Cl
HETATM    8 CL2  UNL     1       9.376 -15.489  -9.499  1.00  0.00    -0.070 Cl
HETATM    9  C7  UNL     1      11.589 -12.335  -8.154  1.00  0.00     0.162 C 
HETATM   10  O1  UNL     1      12.263 -11.984  -9.109  1.00  0.00    -0.292 OA
HETATM   11  C8  UNL     1      11.474 -11.590  -6.912  1.00  0.00     0.086 C 
HETATM   12  C9  UNL     1      10.101 -11.638  -6.304  1.00  0.00     0.041 C 
HETATM   13  C10 UNL     1       9.584 -13.054  -6.038  1.00  0.00     0.086 C 
HETATM   14 CL3  UNL     1       9.706 -13.358  -4.315  1.00  0.00    -0.112 Cl
ENDROOT
BRANCH  13  15
HETATM   15  C11 UNL     1       8.134 -13.051  -6.446  1.00  0.00     0.194 C 
BRANCH  15  16
HETATM   16  O2  UNL     1       7.381 -14.117  -6.058  1.00  0.00    -0.399 OA
ATOM     17  H2  UNL     1       6.774 -13.976  -5.342  1.00  0.00     0.209 HD
ENDBRANCH  15  16
ENDBRANCH  13  15
TORSDOF 2
ENDMDL
MODEL 3
REMARK VINA RESULT: -4.544282446      1.730      4.197
REMARK  2 active torsions:
REMARK  status: ('A' for Active; 'I' for Inactive)
REMARK    1  A    between atoms: C10_13  and  C11_15 
REMARK    2  A    between atoms: C11_15  and  O2_16 
ROOT
HETATM    1  C1  UNL     1      11.297 -15.484  -9.002  1.00  0.00     0.043 C 
HETATM    2  C2  UNL     1      10.831 -15.210  -7.611  1.00  0.00    -0.078 C 
HETATM    3  C3  UNL     1      10.023 -16.355  -7.051  1.00  0.00     0.043 C 
HETATM    4  C4  UNL     1      10.982 -14.096  -6.956  1.00  0.00    -0.015 C 
HETATM    5  C5  UNL     1      10.458 -14.022  -5.560  1.00  0.00     0.051 C 
HETATM    6  C6  UNL     1      10.868 -14.780  -4.597  1.00  0.00     0.117 C 
HETATM    7 CL1  UNL     1      10.096 -14.529  -3.020  1.00  0.00    -0.070 Cl
HETATM    8 CL2  UNL     1      12.156 -15.934  -4.672  1.00  0.00    -0.070 Cl
HETATM    9  C7  UNL     1       9.505 -12.905  -5.343  1.00  0.00     0.162 C 
HETATM   10  O1  UNL     1       8.797 -12.870  -4.349  1.00  0.00    -0.292 OA
HETATM   11  C8  UNL     1       9.501 -11.897  -6.390  1.00  0.00     0.086 C 
HETATM   12  C9  UNL     1      10.860 -11.617  -6.964  1.00  0.00     0.041 C 
HETATM   13  C10 UNL     1      11.570 -12.854  -7.522  1.00  0.00     0.086 C 
HETATM   14 CL3  UNL     1      11.475 -12.786  -9.272  1.00  0.00    -0.112 Cl
ENDROOT
BRANCH  13  15
HETATM   15  C11 UNL     1      13.009 -12.736  -7.092  1.00  0.00     0.194 C 
BRANCH  15  16
HETATM   16  O2  UNL     1      13.950 -12.746  -8.076  1.00  0.00    -0.399 OA
ATOM     17  H2  UNL     1      14.750 -13.226  -7.901  1.00  0.00     0.209 HD
ENDBRANCH  15  16
ENDBRANCH  13  15
TORSDOF 2
ENDMDL
MODEL 4
REMARK VINA RESULT: -4.539320317      2.230      3.536
REMARK  2 active torsions:
REMARK  status: ('A' for Active; 'I' for Inactive)
REMARK    1  A    between atoms: C10_13  and  C11_15 
REMARK    2  A    between atoms: C11_15  and  O2_16 
ROOT
HETATM    1  C1  UNL     1      11.855 -16.204  -6.736  1.00  0.00     0.043 C 
HETATM    2  C2  UNL     1      11.522 -14.777  -6.452  1.00  0.00    -0.078 C 
HETATM    3  C3  UNL     1      12.429 -14.184  -5.403  1.00  0.00     0.043 C 
HETATM    4  C4  UNL     1      10.516 -14.112  -6.941  1.00  0.00    -0.015 C 
HETATM    5  C5  UNL     1      10.360 -12.680  -6.549  1.00  0.00     0.051 C 
HETATM    6  C6  UNL     1      11.238 -11.766  -6.800  1.00  0.00     0.117 C 
HETATM    7 CL1  UNL     1      10.851 -10.132  -6.228  1.00  0.00    -0.070 Cl
HETATM    8 CL2  UNL     1      12.691 -11.959  -7.720  1.00  0.00    -0.070 Cl
HETATM    9  C7  UNL     1       9.038 -12.371  -5.949  1.00  0.00     0.162 C 
HETATM   10  O1  UNL     1       8.853 -11.328  -5.343  1.00  0.00    -0.292 OA
HETATM   11  C8  UNL     1       8.025 -13.394  -6.151  1.00  0.00     0.086 C 
HETATM   12  C9  UNL     1       8.098 -14.059  -7.495  1.00  0.00     0.041 C 
HETATM   13  C10 UNL     1       9.456 -14.694  -7.806  1.00  0.00     0.086 C 
HETATM   14 CL3  UNL     1       9.296 -16.430  -7.620  1.00  0.00    -0.112 Cl
ENDROOT
BRANCH  13  15
HETATM   15  C11 UNL     1       9.747 -14.367  -9.248  1.00  0.00     0.194 C 
BRANCH  15  16
HETATM   16  O2  UNL     1       8.876 -13.531  -9.878  1.00  0.00    -0.399 OA
ATOM     17  H2  UNL     1       9.140 -13.193 -10.725  1.00  0.00     0.209 HD
ENDBRANCH  15  16
ENDBRANCH  13  15
TORSDOF 2
ENDMDL
MODEL 5
REMARK VINA RESULT: -4.537018070      1.956      2.407
REMARK  2 active torsions:
REMARK  status: ('A' for Active; 'I' for Inactive)
REMARK    1  A    between atoms: C10_13  and  C11_15 
REMARK    2  A    between atoms: C11_15  and  O2_16 
ROOT
HETATM    1  C1  UNL     1       9.356 -16.529  -5.882  1.00  0.00     0.043 C 
HETATM    2  C2  UNL     1      10.180 -15.663  -6.776  1.00  0.00    -0.078 C 
HETATM    3  C3  UNL     1      10.469 -16.331  -8.098  1.00  0.00     0.043 C 
HETATM    4  C4  UNL     1      10.701 -14.512  -6.463  1.00  0.00    -0.015 C 
HETATM    5  C5  UNL     1      11.483 -13.785  -7.507  1.00  0.00     0.051 C 
HETATM    6  C6  UNL     1      10.986 -13.387  -8.631  1.00  0.00     0.117 C 
HETATM    7 CL1  UNL     1      12.102 -12.555  -9.729  1.00  0.00    -0.070 Cl
HETATM    8 CL2  UNL     1       9.329 -13.495  -9.120  1.00  0.00    -0.070 Cl
HETATM    9  C7  UNL     1      12.864 -13.446  -7.083  1.00  0.00     0.162 C 
HETATM   10  O1  UNL     1      13.702 -13.097  -7.899  1.00  0.00    -0.292 OA
HETATM   11  C8  UNL     1      13.108 -13.565  -5.655  1.00  0.00     0.086 C 
HETATM   12  C9  UNL     1      11.942 -13.145  -4.806  1.00  0.00     0.041 C 
HETATM   13  C10 UNL     1      10.643 -13.896  -5.112  1.00  0.00     0.086 C 
HETATM   14 CL3  UNL     1      10.384 -15.069  -3.834  1.00  0.00    -0.112 Cl
ENDROOT
BRANCH  13  15
HETATM   15  C11 UNL     1       9.548 -12.862  -5.075  1.00  0.00     0.194 C 
BRANCH  15  16
HETATM   16  O2  UNL     1       8.283 -13.295  -5.334  1.00  0.00    -0.399 OA
ATOM     17  H2  UNL     1       8.155 -13.799  -6.129  1.00  0.00     0.209 HD
ENDBRANCH  15  16
ENDBRANCH  13  15
TORSDOF 2
ENDMDL
