MODEL 1
REMARK VINA RESULT: -5.525151749      0.000      0.000
REMARK  5 active torsions:
REMARK  status: ('A' for Active; 'I' for Inactive)
REMARK    1  A    between atoms: S1_2  and  C2_3 
REMARK    2  A    between atoms: C2_3  and  N2_13 
REMARK    3  A    between atoms: N1_4  and  C3_6 
REMARK    4  A    between atoms: C3_6  and  C6_9 
REMARK    5  A    between atoms: N2_13  and  C7_15 
ROOT
HETATM    1  C2  UNL     1       9.210 -12.982  -6.742  1.00  0.00     0.136 C 
HETATM    2  N1  UNL     1      10.059 -13.829  -6.469  1.00  0.00    -0.354 N 
ATOM      3  H1  UNL     1      10.122 -14.521  -7.216  1.00  0.00     0.162 HD
ENDROOT
BRANCH   1   4
HETATM    4  S1  UNL     1       8.331 -13.158  -8.312  1.00  0.00    -0.099 SA
HETATM    5  C1  UNL     1       7.596 -14.782  -8.458  1.00  0.00     0.099 C 
ENDBRANCH   1   4
BRANCH   1   6
HETATM    6  N2  UNL     1       8.867 -11.874  -5.942  1.00  0.00    -0.366 N 
ATOM      7  H2  UNL     1       8.065 -11.978  -5.320  1.00  0.00     0.162 HD
BRANCH   6   8
HETATM    8  C7  UNL     1       9.544 -10.618  -5.926  1.00  0.00     0.083 C 
HETATM    9  C8  UNL     1       9.040  -9.678  -6.997  1.00  0.00     0.025 C 
HETATM   10  C9  UNL     1       9.168  -8.232  -6.608  1.00  0.00     0.002 C 
HETATM   11  C10 UNL     1      10.308  -7.904  -5.727  1.00  0.00     0.000 C 
HETATM   12  C11 UNL     1      10.701  -8.891  -4.697  1.00  0.00     0.002 C 
HETATM   13  C12 UNL     1       9.573  -9.931  -4.578  1.00  0.00     0.025 C 
ENDBRANCH   6   8
ENDBRANCH   1   6
BRANCH   2  14
HETATM   14  C3  UNL     1      10.961 -14.133  -5.453  1.00  0.00     0.122 C 
HETATM   15  C4  UNL     1      10.187 -13.973  -4.119  1.00  0.00     0.047 C 
HETATM   16  C5  UNL     1      11.415 -15.574  -5.444  1.00  0.00     0.047 C 
BRANCH  14  17
HETATM   17  C6  UNL     1      12.157 -13.207  -5.361  1.00  0.00     0.411 C 
HETATM   18  F1  UNL     1      12.379 -12.565  -6.576  1.00  0.00    -0.168 F 
HETATM   19  F2  UNL     1      13.331 -13.864  -5.067  1.00  0.00    -0.168 F 
HETATM   20  F3  UNL     1      11.970 -12.231  -4.402  1.00  0.00    -0.168 F 
ENDBRANCH  14  17
ENDBRANCH   2  14
TORSDOF 5
ENDMDL
MODEL 2
REMARK VINA RESULT: -5.520886334      1.206      1.837
REMARK  5 active torsions:
REMARK  status: ('A' for Active; 'I' for Inactive)
REMARK    1  A    between atoms: S1_2  and  C2_3 
REMARK    2  A    between atoms: C2_3  and  N2_13 
REMARK    3  A    between atoms: N1_4  and  C3_6 
REMARK    4  A    between atoms: C3_6  and  C6_9 
REMARK    5  A    between atoms: N2_13  and  C7_15 
ROOT
HETATM    1  C2  UNL     1       9.292 -12.845  -6.148  1.00  0.00     0.136 C 
HETATM    2  N1  UNL     1      10.294 -13.404  -6.591  1.00  0.00    -0.354 N 
ATOM      3  H1  UNL     1      10.027 -14.182  -7.195  1.00  0.00     0.162 HD
ENDROOT
BRANCH   1   4
HETATM    4  S1  UNL     1       7.682 -13.498  -6.646  1.00  0.00    -0.099 SA
HETATM    5  C1  UNL     1       7.781 -15.248  -7.000  1.00  0.00     0.099 C 
ENDBRANCH   1   4
BRANCH   1   6
HETATM    6  N2  UNL     1       9.287 -11.725  -5.291  1.00  0.00    -0.366 N 
ATOM      7  H2  UNL     1       8.901 -11.857  -4.355  1.00  0.00     0.162 HD
BRANCH   6   8
HETATM    8  C7  UNL     1       9.773 -10.424  -5.618  1.00  0.00     0.083 C 
HETATM    9  C8  UNL     1       9.011  -9.794  -6.761  1.00  0.00     0.025 C 
HETATM   10  C9  UNL     1       8.977  -8.294  -6.680  1.00  0.00     0.002 C 
HETATM   11  C10 UNL     1      10.158  -7.660  -6.059  1.00  0.00     0.000 C 
HETATM   12  C11 UNL     1      10.813  -8.356  -4.931  1.00  0.00     0.002 C 
HETATM   13  C12 UNL     1       9.870  -9.471  -4.447  1.00  0.00     0.025 C 
ENDBRANCH   6   8
ENDBRANCH   1   6
BRANCH   2  14
HETATM   14  C3  UNL     1      11.680 -13.301  -6.523  1.00  0.00     0.122 C 
HETATM   15  C4  UNL     1      12.247 -14.436  -7.415  1.00  0.00     0.047 C 
HETATM   16  C5  UNL     1      12.235 -12.038  -7.139  1.00  0.00     0.047 C 
BRANCH  14  17
HETATM   17  C6  UNL     1      12.271 -13.513  -5.143  1.00  0.00     0.411 C 
HETATM   18  F1  UNL     1      11.679 -14.606  -4.517  1.00  0.00    -0.168 F 
HETATM   19  F2  UNL     1      12.071 -12.446  -4.298  1.00  0.00    -0.168 F 
HETATM   20  F3  UNL     1      13.629 -13.753  -5.204  1.00  0.00    -0.168 F 
ENDBRANCH  14  17
ENDBRANCH   2  14
TORSDOF 5
ENDMDL
MODEL 3
REMARK VINA RESULT: -5.510276566      2.591      3.130
REMARK  5 active torsions:
REMARK  status: ('A' for Active; 'I' for Inactive)
REMARK    1  A    between atoms: S1_2  and  C2_3 
REMARK    2  A    between atoms: C2_3  and  N2_13 
REMARK    3  A    between atoms: N1_4  and  C3_6 
REMARK    4  A    between atoms: C3_6  and  C6_9 
REMARK    5  A    between atoms: N2_13  and  C7_15 
ROOT
HETATM    1  C2  UNL     1      11.579 -12.664  -6.653  1.00  0.00     0.136 C 
HETATM    2  N1  UNL     1      11.057 -13.773  -6.741  1.00  0.00    -0.354 N 
ATOM      3  H1  UNL     1      11.521 -14.327  -7.461  1.00  0.00     0.162 HD
ENDROOT
BRANCH   1   4
HETATM    4  S1  UNL     1      12.965 -12.304  -7.755  1.00  0.00    -0.099 SA
HETATM    5  C1  UNL     1      12.457 -12.369  -9.469  1.00  0.00     0.099 C 
ENDBRANCH   1   4
BRANCH   1   6
HETATM    6  N2  UNL     1      11.200 -11.645  -5.755  1.00  0.00    -0.366 N 
ATOM      7  H2  UNL     1      11.208 -11.873  -4.760  1.00  0.00     0.162 HD
BRANCH   6   8
HETATM    8  C7  UNL     1      10.804 -10.323  -6.116  1.00  0.00     0.083 C 
HETATM    9  C8  UNL     1       9.462 -10.291  -6.810  1.00  0.00     0.025 C 
HETATM   10  C9  UNL     1       8.718  -9.007  -6.577  1.00  0.00     0.002 C 
HETATM   11  C10 UNL     1       9.556  -7.803  -6.401  1.00  0.00     0.000 C 
HETATM   12  C11 UNL     1      10.843  -7.947  -5.685  1.00  0.00     0.002 C 
HETATM   13  C12 UNL     1      10.849  -9.317  -4.986  1.00  0.00     0.025 C 
ENDBRANCH   6   8
ENDBRANCH   1   6
BRANCH   2  14
HETATM   14  C3  UNL     1      10.026 -14.507  -6.160  1.00  0.00     0.122 C 
HETATM   15  C4  UNL     1      10.068 -15.912  -6.814  1.00  0.00     0.047 C 
HETATM   16  C5  UNL     1      10.220 -14.781  -4.687  1.00  0.00     0.047 C 
BRANCH  14  17
HETATM   17  C6  UNL     1       8.633 -13.965  -6.413  1.00  0.00     0.411 C 
HETATM   18  F1  UNL     1       7.698 -14.995  -6.425  1.00  0.00    -0.168 F 
HETATM   19  F2  UNL     1       8.510 -13.334  -7.630  1.00  0.00    -0.168 F 
HETATM   20  F3  UNL     1       8.253 -13.068  -5.434  1.00  0.00    -0.168 F 
ENDBRANCH  14  17
ENDBRANCH   2  14
TORSDOF 5
ENDMDL
MODEL 4
REMARK VINA RESULT: -5.477130687      2.612      5.186
REMARK  5 active torsions:
REMARK  status: ('A' for Active; 'I' for Inactive)
REMARK    1  A    between atoms: S1_2  and  C2_3 
REMARK    2  A    between atoms: C2_3  and  N2_13 
REMARK    3  A    between atoms: N1_4  and  C3_6 
REMARK    4  A    between atoms: C3_6  and  C6_9 
REMARK    5  A    between atoms: N2_13  and  C7_15 
ROOT
HETATM    1  C2  UNL     1      10.868 -11.388  -6.740  1.00  0.00     0.136 C 
HETATM    2  N1  UNL     1      10.869 -10.225  -6.339  1.00  0.00    -0.354 N 
ATOM      3  H1  UNL     1      11.745  -9.766  -6.588  1.00  0.00     0.162 HD
ENDROOT
BRANCH   1   4
HETATM    4  S1  UNL     1      12.335 -11.966  -7.625  1.00  0.00    -0.099 SA
HETATM    5  C1  UNL     1      11.892 -12.697  -9.195  1.00  0.00     0.099 C 
ENDBRANCH   1   4
BRANCH   1   6
HETATM    6  N2  UNL     1       9.816 -12.312  -6.582  1.00  0.00    -0.366 N 
ATOM      7  H2  UNL     1       8.954 -12.130  -7.098  1.00  0.00     0.162 HD
BRANCH   6   8
HETATM    8  C7  UNL     1       9.850 -13.480  -5.763  1.00  0.00     0.083 C 
HETATM    9  C8  UNL     1      10.007 -14.747  -6.570  1.00  0.00     0.025 C 
HETATM   10  C9  UNL     1      10.723 -15.832  -5.817  1.00  0.00     0.002 C 
HETATM   11  C10 UNL     1      10.521 -15.835  -4.354  1.00  0.00     0.000 C 
HETATM   12  C11 UNL     1      10.403 -14.533  -3.662  1.00  0.00     0.002 C 
HETATM   13  C12 UNL     1      10.859 -13.433  -4.635  1.00  0.00     0.025 C 
ENDBRANCH   6   8
ENDBRANCH   1   6
BRANCH   2  14
HETATM   14  C3  UNL     1      10.041  -9.344  -5.650  1.00  0.00     0.122 C 
HETATM   15  C4  UNL     1       9.053  -8.764  -6.696  1.00  0.00     0.047 C 
HETATM   16  C5  UNL     1       9.147 -10.009  -4.630  1.00  0.00     0.047 C 
BRANCH  14  17
HETATM   17  C6  UNL     1      10.747  -8.153  -5.031  1.00  0.00     0.411 C 
HETATM   18  F1  UNL     1      10.176  -6.961  -5.467  1.00  0.00    -0.168 F 
HETATM   19  F2  UNL     1      12.078  -8.076  -5.372  1.00  0.00    -0.168 F 
HETATM   20  F3  UNL     1      10.665  -8.176  -3.653  1.00  0.00    -0.168 F 
ENDBRANCH  14  17
ENDBRANCH   2  14
TORSDOF 5
ENDMDL
MODEL 5
REMARK VINA RESULT: -5.465927162      2.164      2.528
REMARK  5 active torsions:
REMARK  status: ('A' for Active; 'I' for Inactive)
REMARK    1  A    between atoms: S1_2  and  C2_3 
REMARK    2  A    between atoms: C2_3  and  N2_13 
REMARK    3  A    between atoms: N1_4  and  C3_6 
REMARK    4  A    between atoms: C3_6  and  C6_9 
REMARK    5  A    between atoms: N2_13  and  C7_15 
ROOT
HETATM    1  C2  UNL     1      11.417 -12.517  -6.578  1.00  0.00     0.136 C 
HETATM    2  N1  UNL     1      10.923 -13.643  -6.552  1.00  0.00    -0.354 N 
ATOM      3  H1  UNL     1      11.305 -14.214  -7.306  1.00  0.00     0.162 HD
ENDROOT
BRANCH   1   4
HETATM    4  S1  UNL     1      12.631 -12.168  -7.872  1.00  0.00    -0.099 SA
HETATM    5  C1  UNL     1      12.006 -12.632  -9.482  1.00  0.00     0.099 C 
ENDBRANCH   1   4
BRANCH   1   6
HETATM    6  N2  UNL     1      11.129 -11.472  -5.678  1.00  0.00    -0.366 N 
ATOM      7  H2  UNL     1      11.161 -11.692  -4.682  1.00  0.00     0.162 HD
BRANCH   6   8
HETATM    8  C7  UNL     1      10.795 -10.132  -6.038  1.00  0.00     0.083 C 
HETATM    9  C8  UNL     1       9.495 -10.047  -6.803  1.00  0.00     0.025 C 
HETATM   10  C9  UNL     1       8.779  -8.743  -6.589  1.00  0.00     0.002 C 
HETATM   11  C10 UNL     1       9.643  -7.570  -6.348  1.00  0.00     0.000 C 
HETATM   12  C11 UNL     1      10.883  -7.765  -5.565  1.00  0.00     0.002 C 
HETATM   13  C12 UNL     1      10.809  -9.146  -4.890  1.00  0.00     0.025 C 
ENDBRANCH   6   8
ENDBRANCH   1   6
BRANCH   2  14
HETATM   14  C3  UNL     1      10.004 -14.378  -5.809  1.00  0.00     0.122 C 
HETATM   15  C4  UNL     1       8.804 -13.433  -5.542  1.00  0.00     0.047 C 
HETATM   16  C5  UNL     1       9.397 -15.542  -6.557  1.00  0.00     0.047 C 
BRANCH  14  17
HETATM   17  C6  UNL     1      10.496 -14.830  -4.448  1.00  0.00     0.411 C 
HETATM   18  F1  UNL     1      11.885 -14.912  -4.428  1.00  0.00    -0.168 F 
HETATM   19  F2  UNL     1      10.044 -16.082  -4.096  1.00  0.00    -0.168 F 
HETATM   20  F3  UNL     1      10.116 -13.951  -3.454  1.00  0.00    -0.168 F 
ENDBRANCH  14  17
ENDBRANCH   2  14
TORSDOF 5
ENDMDL
