MODEL 1
REMARK VINA RESULT: -6.246928891      0.000      0.000
REMARK  2 active torsions:
REMARK  status: ('A' for Active; 'I' for Inactive)
REMARK    1  A    between atoms: C11_12  and  N1_13 
REMARK    2  A    between atoms: N1_13  and  C12_15 
ROOT
HETATM    1  C1  UNL     1       8.801 -10.715  -4.800  1.00  0.00     0.016 C 
HETATM    2  C2  UNL     1       9.494 -11.766  -5.640  1.00  0.00     0.029 C 
HETATM    3  C3  UNL     1       9.555 -13.029  -4.893  1.00  0.00    -0.000 C 
HETATM    4  C4  UNL     1      10.523 -13.888  -5.069  1.00  0.00     0.017 C 
HETATM    5 CL1  UNL     1      10.526 -15.368  -4.143  1.00  0.00    -0.088 Cl
HETATM    6  C5  UNL     1      11.613 -13.656  -6.016  1.00  0.00    -0.001 C 
HETATM    7  C6  UNL     1      11.772 -14.904  -6.898  1.00  0.00     0.021 C 
HETATM    8  C7  UNL     1      12.898 -13.594  -5.199  1.00  0.00     0.021 C 
HETATM    9  C8  UNL     1      11.448 -12.429  -6.874  1.00  0.00    -0.015 C 
HETATM   10  C9  UNL     1      12.736 -12.149  -7.558  1.00  0.00     0.018 C 
HETATM   11  C10 UNL     1      10.420 -12.786  -7.956  1.00  0.00     0.018 C 
HETATM   12  C11 UNL     1      10.915 -11.327  -5.999  1.00  0.00     0.099 C 
ENDROOT
BRANCH  12  13
HETATM   13  N1  UNL     1      10.920 -10.023  -6.569  1.00  0.00    -0.367 N 
ATOM     14  H1  UNL     1      10.829  -9.969  -7.583  1.00  0.00     0.161 HD
BRANCH  13  15
HETATM   15  C12 UNL     1      11.038  -8.793  -5.878  1.00  0.00     0.175 A 
HETATM   16  N2  UNL     1      10.722  -7.481  -6.028  1.00  0.00    -0.304 N 
HETATM   17  C13 UNL     1      11.380  -7.846  -4.837  1.00  0.00     0.382 A 
ATOM     18  H2  UNL     1      10.303  -6.748  -6.601  1.00  0.00     0.167 HD
HETATM   19  F1  UNL     1      10.575  -7.758  -3.692  1.00  0.00    -0.174 F 
HETATM   20  F2  UNL     1      12.671  -7.451  -4.577  1.00  0.00    -0.174 F 
ENDBRANCH  13  15
ENDBRANCH  12  13
TORSDOF 2
ENDMDL
MODEL 2
REMARK VINA RESULT: -6.122092145      1.898      2.662
REMARK  2 active torsions:
REMARK  status: ('A' for Active; 'I' for Inactive)
REMARK    1  A    between atoms: C11_12  and  N1_13 
REMARK    2  A    between atoms: N1_13  and  C12_15 
ROOT
HETATM    1  C1  UNL     1       8.337 -13.284  -8.142  1.00  0.00     0.016 C 
HETATM    2  C2  UNL     1       9.580 -13.825  -7.469  1.00  0.00     0.029 C 
HETATM    3  C3  UNL     1       9.297 -15.155  -6.912  1.00  0.00    -0.000 C 
HETATM    4  C4  UNL     1       9.913 -15.603  -5.851  1.00  0.00     0.017 C 
HETATM    5 CL1  UNL     1       9.521 -17.195  -5.250  1.00  0.00    -0.088 Cl
HETATM    6  C5  UNL     1      10.921 -14.818  -5.140  1.00  0.00    -0.001 C 
HETATM    7  C6  UNL     1      12.167 -15.692  -4.930  1.00  0.00     0.021 C 
HETATM    8  C7  UNL     1      10.379 -14.575  -3.737  1.00  0.00     0.021 C 
HETATM    9  C8  UNL     1      11.299 -13.525  -5.815  1.00  0.00    -0.015 C 
HETATM   10  C9  UNL     1      12.085 -12.702  -4.860  1.00  0.00     0.018 C 
HETATM   11  C10 UNL     1      12.230 -13.894  -6.978  1.00  0.00     0.018 C 
HETATM   12  C11 UNL     1      10.037 -12.897  -6.341  1.00  0.00     0.099 C 
ENDROOT
BRANCH  12  13
HETATM   13  N1  UNL     1      10.155 -11.554  -6.798  1.00  0.00    -0.367 N 
ATOM     14  H1  UNL     1      10.681 -11.411  -7.659  1.00  0.00     0.161 HD
BRANCH  13  15
HETATM   15  C12 UNL     1       9.618 -10.397  -6.185  1.00  0.00     0.175 A 
HETATM   16  N2  UNL     1       8.711 -10.048  -5.237  1.00  0.00    -0.304 N 
HETATM   17  C13 UNL     1       9.398  -8.999  -5.879  1.00  0.00     0.382 A 
ATOM     18  H2  UNL     1       8.020 -10.340  -4.546  1.00  0.00     0.167 HD
HETATM   19  F1  UNL     1      10.306  -8.322  -5.051  1.00  0.00    -0.174 F 
HETATM   20  F2  UNL     1       8.757  -8.135  -6.735  1.00  0.00    -0.174 F 
ENDBRANCH  13  15
ENDBRANCH  12  13
TORSDOF 2
ENDMDL
MODEL 3
REMARK VINA RESULT: -6.078341242      1.780      2.213
REMARK  2 active torsions:
REMARK  status: ('A' for Active; 'I' for Inactive)
REMARK    1  A    between atoms: C11_12  and  N1_13 
REMARK    2  A    between atoms: N1_13  and  C12_15 
ROOT
HETATM    1  C1  UNL     1       8.035 -13.464  -6.340  1.00  0.00     0.016 C 
HETATM    2  C2  UNL     1       9.394 -13.809  -6.910  1.00  0.00     0.029 C 
HETATM    3  C3  UNL     1       9.925 -14.996  -6.228  1.00  0.00    -0.000 C 
HETATM    4  C4  UNL     1      11.209 -15.187  -6.075  1.00  0.00     0.017 C 
HETATM    5 CL1  UNL     1      11.762 -16.625  -5.253  1.00  0.00    -0.088 Cl
HETATM    6  C5  UNL     1      12.205 -14.236  -6.566  1.00  0.00    -0.001 C 
HETATM    7  C6  UNL     1      13.264 -15.005  -7.371  1.00  0.00     0.021 C 
HETATM    8  C7  UNL     1      12.952 -13.715  -5.344  1.00  0.00     0.021 C 
HETATM    9  C8  UNL     1      11.643 -13.107  -7.389  1.00  0.00    -0.015 C 
HETATM   10  C9  UNL     1      12.695 -12.074  -7.561  1.00  0.00     0.018 C 
HETATM   11  C10 UNL     1      11.335 -13.686  -8.776  1.00  0.00     0.018 C 
HETATM   12  C11 UNL     1      10.372 -12.647  -6.727  1.00  0.00     0.099 C 
ENDROOT
BRANCH  12  13
HETATM   13  N1  UNL     1       9.820 -11.430  -7.219  1.00  0.00    -0.367 N 
ATOM     14  H1  UNL     1       9.675 -11.370  -8.226  1.00  0.00     0.161 HD
BRANCH  13  15
HETATM   15  C12 UNL     1       9.451 -10.295  -6.458  1.00  0.00     0.175 A 
HETATM   16  N2  UNL     1       8.690  -9.966  -5.383  1.00  0.00    -0.304 N 
HETATM   17  C13 UNL     1       9.380  -8.916  -6.021  1.00  0.00     0.382 A 
ATOM     18  H2  UNL     1       8.062 -10.267  -4.638  1.00  0.00     0.167 HD
HETATM   19  F1  UNL     1      10.428  -8.377  -5.260  1.00  0.00    -0.174 F 
HETATM   20  F2  UNL     1       8.715  -7.940  -6.725  1.00  0.00    -0.174 F 
ENDBRANCH  13  15
ENDBRANCH  12  13
TORSDOF 2
ENDMDL
MODEL 4
REMARK VINA RESULT: -5.815076395      2.284      3.477
REMARK  2 active torsions:
REMARK  status: ('A' for Active; 'I' for Inactive)
REMARK    1  A    between atoms: C11_12  and  N1_13 
REMARK    2  A    between atoms: N1_13  and  C12_15 
ROOT
HETATM    1  C1  UNL     1       9.050 -13.194  -8.369  1.00  0.00     0.016 C 
HETATM    2  C2  UNL     1      10.086 -13.604  -7.344  1.00  0.00     0.029 C 
HETATM    3  C3  UNL     1      10.722 -14.859  -7.764  1.00  0.00    -0.000 C 
HETATM    4  C4  UNL     1      11.188 -15.719  -6.898  1.00  0.00     0.017 C 
HETATM    5 CL1  UNL     1      11.931 -17.190  -7.476  1.00  0.00    -0.088 Cl
HETATM    6  C5  UNL     1      11.108 -15.498  -5.455  1.00  0.00    -0.001 C 
HETATM    7  C6  UNL     1      12.497 -15.737  -4.844  1.00  0.00     0.021 C 
HETATM    8  C7  UNL     1      10.239 -16.615  -4.888  1.00  0.00     0.021 C 
HETATM    9  C8  UNL     1      10.589 -14.142  -5.056  1.00  0.00    -0.015 C 
HETATM   10  C9  UNL     1      10.277 -14.160  -3.604  1.00  0.00     0.018 C 
HETATM   11  C10 UNL     1      11.742 -13.152  -5.267  1.00  0.00     0.018 C 
HETATM   12  C11 UNL     1       9.443 -13.803  -5.970  1.00  0.00     0.099 C 
ENDROOT
BRANCH  12  13
HETATM   13  N1  UNL     1       8.665 -12.670  -5.599  1.00  0.00    -0.367 N 
ATOM     14  H1  UNL     1       7.727 -12.858  -5.246  1.00  0.00     0.161 HD
BRANCH  13  15
HETATM   15  C12 UNL     1       9.055 -11.311  -5.667  1.00  0.00     0.175 A 
HETATM   16  N2  UNL     1       9.046 -10.188  -4.905  1.00  0.00    -0.304 N 
HETATM   17  C13 UNL     1       9.601 -10.079  -6.196  1.00  0.00     0.382 A 
ATOM     18  H2  UNL     1       8.807  -9.739  -4.021  1.00  0.00     0.167 HD
HETATM   19  F1  UNL     1      10.990  -9.887  -6.204  1.00  0.00    -0.174 F 
HETATM   20  F2  UNL     1       8.986  -9.350  -7.186  1.00  0.00    -0.174 F 
ENDBRANCH  13  15
ENDBRANCH  12  13
TORSDOF 2
ENDMDL
MODEL 5
REMARK VINA RESULT: -5.814052929      2.057      3.369
REMARK  2 active torsions:
REMARK  status: ('A' for Active; 'I' for Inactive)
REMARK    1  A    between atoms: C11_12  and  N1_13 
REMARK    2  A    between atoms: N1_13  and  C12_15 
ROOT
HETATM    1  C1  UNL     1      12.917 -11.945  -8.009  1.00  0.00     0.016 C 
HETATM    2  C2  UNL     1      12.100 -12.882  -7.146  1.00  0.00     0.029 C 
HETATM    3  C3  UNL     1      11.671 -14.037  -7.945  1.00  0.00    -0.000 C 
HETATM    4  C4  UNL     1      10.558 -14.674  -7.695  1.00  0.00     0.017 C 
HETATM    5 CL1  UNL     1      10.117 -16.038  -8.691  1.00  0.00    -0.088 Cl
HETATM    6  C5  UNL     1       9.661 -14.284  -6.608  1.00  0.00    -0.001 C 
HETATM    7  C6  UNL     1       9.320 -15.533  -5.780  1.00  0.00     0.021 C 
HETATM    8  C7  UNL     1       8.341 -13.876  -7.253  1.00  0.00     0.021 C 
HETATM    9  C8  UNL     1      10.194 -13.196  -5.714  1.00  0.00    -0.015 C 
HETATM   10  C9  UNL     1       9.087 -12.695  -4.860  1.00  0.00     0.018 C 
HETATM   11  C10 UNL     1      11.226 -13.855  -4.789  1.00  0.00     0.018 C 
HETATM   12  C11 UNL     1      10.864 -12.171  -6.589  1.00  0.00     0.099 C 
ENDROOT
BRANCH  12  13
HETATM   13  N1  UNL     1      11.219 -10.948  -5.955  1.00  0.00    -0.367 N 
ATOM     14  H1  UNL     1      12.147 -10.904  -5.536  1.00  0.00     0.161 HD
BRANCH  13  15
HETATM   15  C12 UNL     1      10.420  -9.785  -5.843  1.00  0.00     0.175 A 
HETATM   16  N2  UNL     1       9.910  -8.960  -4.892  1.00  0.00    -0.304 N 
HETATM   17  C13 UNL     1       9.610  -8.649  -6.234  1.00  0.00     0.382 A 
ATOM     18  H2  UNL     1       9.813  -8.729  -3.903  1.00  0.00     0.167 HD
HETATM   19  F1  UNL     1      10.235  -7.484  -6.701  1.00  0.00    -0.174 F 
HETATM   20  F2  UNL     1       8.336  -8.773  -6.735  1.00  0.00    -0.174 F 
ENDBRANCH  13  15
ENDBRANCH  12  13
TORSDOF 2
ENDMDL
