MODEL 1
REMARK VINA RESULT: -4.634229968      0.000      0.000
REMARK  2 active torsions:
REMARK  status: ('A' for Active; 'I' for Inactive)
REMARK    1  A    between atoms: C6_9  and  C7_10 
REMARK    2  A    between atoms: C9_12  and  O1_14 
ROOT
HETATM    1  C1  UNL     1      13.222 -14.566  -7.526  1.00  0.00     0.068 C 
HETATM    2  C2  UNL     1      12.737 -15.277  -6.302  1.00  0.00     0.013 A 
HETATM    3  N1  UNL     1      13.194 -16.499  -6.018  1.00  0.00    -0.369 N 
ATOM      4  H1  UNL     1      13.863 -16.925  -6.658  1.00  0.00     0.165 HD
HETATM    5  C3  UNL     1      12.820 -17.195  -4.933  1.00  0.00     0.090 A 
HETATM    6  C4  UNL     1      11.923 -16.642  -4.058  1.00  0.00     0.041 A 
HETATM    7  C5  UNL     1      11.394 -15.354  -4.292  1.00  0.00     0.044 A 
HETATM    8 CL1  UNL     1      10.261 -14.775  -3.082  1.00  0.00    -0.084 Cl
HETATM    9  C6  UNL     1      11.804 -14.688  -5.406  1.00  0.00    -0.007 A 
ENDROOT
BRANCH   9  10
HETATM   10  C7  UNL     1      11.356 -13.381  -5.803  1.00  0.00     0.067 C 
HETATM   11  C8  UNL     1      11.036 -12.325  -4.855  1.00  0.00     0.053 C 
HETATM   12  C9  UNL     1       9.607 -12.246  -5.377  1.00  0.00     0.091 C 
HETATM   13  C10 UNL     1       9.207 -10.863  -5.849  1.00  0.00     0.049 C 
HETATM   14  C11 UNL     1      10.003 -13.213  -6.410  1.00  0.00     0.151 C 
HETATM   15 CL2  UNL     1      10.084 -12.361  -7.996  1.00  0.00    -0.098 Cl
HETATM   16 CL3  UNL     1       8.902 -14.562  -6.482  1.00  0.00    -0.098 Cl
BRANCH  12  17
HETATM   17  O1  UNL     1       8.658 -12.763  -4.492  1.00  0.00    -0.387 OA
ATOM     18  H1  UNL     1       7.812 -12.333  -4.545  1.00  0.00     0.210 HD
ENDBRANCH  12  17
ENDBRANCH   9  10
TORSDOF 2
ENDMDL
MODEL 2
REMARK VINA RESULT: -4.621406165      2.676      5.042
REMARK  2 active torsions:
REMARK  status: ('A' for Active; 'I' for Inactive)
REMARK    1  A    between atoms: C6_9  and  C7_10 
REMARK    2  A    between atoms: C9_12  and  O1_14 
ROOT
HETATM    1  C1  UNL     1       9.322 -13.504  -3.818  1.00  0.00     0.068 C 
HETATM    2  C2  UNL     1       9.719 -12.709  -5.021  1.00  0.00     0.013 A 
HETATM    3  N1  UNL     1       8.873 -11.814  -5.537  1.00  0.00    -0.369 N 
ATOM      4  H1  UNL     1       7.960 -11.704  -5.096  1.00  0.00     0.165 HD
HETATM    5  C3  UNL     1       9.160 -11.053  -6.604  1.00  0.00     0.090 A 
HETATM    6  C4  UNL     1      10.380 -11.183  -7.212  1.00  0.00     0.041 A 
HETATM    7  C5  UNL     1      11.328 -12.109  -6.725  1.00  0.00     0.044 A 
HETATM    8 CL1  UNL     1      12.849 -12.161  -7.603  1.00  0.00    -0.084 Cl
HETATM    9  C6  UNL     1      10.990 -12.859  -5.641  1.00  0.00    -0.007 A 
ENDROOT
BRANCH   9  10
HETATM   10  C7  UNL     1      11.826 -13.856  -5.027  1.00  0.00     0.067 C 
HETATM   11  C8  UNL     1      13.274 -13.874  -5.160  1.00  0.00     0.053 C 
HETATM   12  C9  UNL     1      13.230 -15.257  -5.798  1.00  0.00     0.091 C 
HETATM   13  C10 UNL     1      14.071 -16.288  -5.073  1.00  0.00     0.049 C 
HETATM   14  C11 UNL     1      11.787 -15.263  -5.522  1.00  0.00     0.151 C 
HETATM   15 CL2  UNL     1      11.459 -16.430  -4.189  1.00  0.00    -0.098 Cl
HETATM   16 CL3  UNL     1      10.864 -15.666  -6.945  1.00  0.00    -0.098 Cl
BRANCH  12  17
HETATM   17  O1  UNL     1      13.516 -15.253  -7.165  1.00  0.00    -0.387 OA
ATOM     18  H1  UNL     1      14.345 -14.842  -7.380  1.00  0.00     0.210 HD
ENDBRANCH  12  17
ENDBRANCH   9  10
TORSDOF 2
ENDMDL
MODEL 3
REMARK VINA RESULT: -4.283068987      2.503      3.606
REMARK  2 active torsions:
REMARK  status: ('A' for Active; 'I' for Inactive)
REMARK    1  A    between atoms: C6_9  and  C7_10 
REMARK    2  A    between atoms: C9_12  and  O1_14 
ROOT
HETATM    1  C1  UNL     1      10.588 -16.064  -4.522  1.00  0.00     0.068 C 
HETATM    2  C2  UNL     1       9.813 -16.019  -5.801  1.00  0.00     0.013 A 
HETATM    3  N1  UNL     1       9.525 -17.151  -6.446  1.00  0.00    -0.369 N 
ATOM      4  H1  UNL     1       9.856 -18.030  -6.049  1.00  0.00     0.165 HD
HETATM    5  C3  UNL     1       8.822 -17.195  -7.589  1.00  0.00     0.090 A 
HETATM    6  C4  UNL     1       8.367 -16.027  -8.140  1.00  0.00     0.041 A 
HETATM    7  C5  UNL     1       8.632 -14.788  -7.517  1.00  0.00     0.044 A 
HETATM    8 CL1  UNL     1       7.980 -13.378  -8.337  1.00  0.00    -0.084 Cl
HETATM    9  C6  UNL     1       9.349 -14.796  -6.360  1.00  0.00    -0.007 A 
ENDROOT
BRANCH   9  10
HETATM   10  C7  UNL     1       9.721 -13.629  -5.606  1.00  0.00     0.067 C 
HETATM   11  C8  UNL     1       8.992 -12.372  -5.670  1.00  0.00     0.053 C 
HETATM   12  C9  UNL     1      10.236 -11.640  -6.158  1.00  0.00     0.091 C 
HETATM   13  C10 UNL     1      10.627 -10.461  -5.289  1.00  0.00     0.049 C 
HETATM   14  C11 UNL     1      10.973 -12.893  -5.949  1.00  0.00     0.151 C 
HETATM   15 CL2  UNL     1      12.047 -12.699  -4.515  1.00  0.00    -0.098 Cl
HETATM   16 CL3  UNL     1      11.893 -13.339  -7.361  1.00  0.00    -0.098 Cl
BRANCH  12  17
HETATM   17  O1  UNL     1      10.177 -11.268  -7.503  1.00  0.00    -0.387 OA
ATOM     18  H1  UNL     1      10.874 -11.638  -8.032  1.00  0.00     0.210 HD
ENDBRANCH  12  17
ENDBRANCH   9  10
TORSDOF 2
ENDMDL
MODEL 4
REMARK VINA RESULT: -4.281363677      2.210      3.196
REMARK  2 active torsions:
REMARK  status: ('A' for Active; 'I' for Inactive)
REMARK    1  A    between atoms: C6_9  and  C7_10 
REMARK    2  A    between atoms: C9_12  and  O1_14 
ROOT
HETATM    1  C1  UNL     1      10.471 -16.447  -3.094  1.00  0.00     0.068 C 
HETATM    2  C2  UNL     1      11.767 -16.457  -3.842  1.00  0.00     0.013 A 
HETATM    3  N1  UNL     1      12.813 -17.125  -3.352  1.00  0.00    -0.369 N 
ATOM      4  H1  UNL     1      12.703 -17.608  -2.460  1.00  0.00     0.165 HD
HETATM    5  C3  UNL     1      14.003 -17.195  -3.969  1.00  0.00     0.090 A 
HETATM    6  C4  UNL     1      14.175 -16.554  -5.167  1.00  0.00     0.041 A 
HETATM    7  C5  UNL     1      13.115 -15.826  -5.749  1.00  0.00     0.044 A 
HETATM    8 CL1  UNL     1      13.482 -15.064  -7.289  1.00  0.00    -0.084 Cl
HETATM    9  C6  UNL     1      11.928 -15.785  -5.085  1.00  0.00    -0.007 A 
ENDROOT
BRANCH   9  10
HETATM   10  C7  UNL     1      10.754 -15.080  -5.525  1.00  0.00     0.067 C 
HETATM   11  C8  UNL     1      10.383 -14.944  -6.925  1.00  0.00     0.053 C 
HETATM   12  C9  UNL     1      10.449 -13.425  -6.827  1.00  0.00     0.091 C 
HETATM   13  C10 UNL     1       9.164 -12.733  -7.234  1.00  0.00     0.049 C 
HETATM   14  C11 UNL     1      10.685 -13.596  -5.387  1.00  0.00     0.151 C 
HETATM   15 CL2  UNL     1       9.208 -13.076  -4.495  1.00  0.00    -0.098 Cl
HETATM   16 CL3  UNL     1      12.082 -12.700  -4.856  1.00  0.00    -0.098 Cl
BRANCH  12  17
HETATM   17  O1  UNL     1      11.545 -12.868  -7.490  1.00  0.00    -0.387 OA
ATOM     18  H1  UNL     1      11.917 -13.434  -8.155  1.00  0.00     0.210 HD
ENDBRANCH  12  17
ENDBRANCH   9  10
TORSDOF 2
ENDMDL
MODEL 5
REMARK VINA RESULT: -4.275247165      2.449      3.590
REMARK  2 active torsions:
REMARK  status: ('A' for Active; 'I' for Inactive)
REMARK    1  A    between atoms: C6_9  and  C7_10 
REMARK    2  A    between atoms: C9_12  and  O1_14 
ROOT
HETATM    1  C1  UNL     1       9.400 -16.008  -6.235  1.00  0.00     0.068 C 
HETATM    2  C2  UNL     1      10.481 -15.671  -7.213  1.00  0.00     0.013 A 
HETATM    3  N1  UNL     1      11.263 -16.637  -7.701  1.00  0.00    -0.369 N 
ATOM      4  H1  UNL     1      11.107 -17.592  -7.380  1.00  0.00     0.165 HD
HETATM    5  C3  UNL     1      12.242 -16.417  -8.592  1.00  0.00     0.090 A 
HETATM    6  C4  UNL     1      12.470 -15.142  -9.038  1.00  0.00     0.041 A 
HETATM    7  C5  UNL     1      11.684 -14.068  -8.567  1.00  0.00     0.044 A 
HETATM    8 CL1  UNL     1      12.088 -12.493  -9.233  1.00  0.00    -0.084 Cl
HETATM    9  C6  UNL     1      10.703 -14.341  -7.665  1.00  0.00    -0.007 A 
ENDROOT
BRANCH   9  10
HETATM   10  C7  UNL     1       9.825 -13.368  -7.073  1.00  0.00     0.067 C 
HETATM   11  C8  UNL     1       9.516 -12.089  -7.694  1.00  0.00     0.053 C 
HETATM   12  C9  UNL     1      10.078 -11.335  -6.497  1.00  0.00     0.091 C 
HETATM   13  C10 UNL     1       9.090 -10.374  -5.865  1.00  0.00     0.049 C 
HETATM   14  C11 UNL     1      10.248 -12.639  -5.841  1.00  0.00     0.151 C 
HETATM   15 CL2  UNL     1       9.027 -12.787  -4.525  1.00  0.00    -0.098 Cl
HETATM   16 CL3  UNL     1      11.864 -12.836  -5.218  1.00  0.00    -0.098 Cl
BRANCH  12  17
HETATM   17  O1  UNL     1      11.294 -10.699  -6.755  1.00  0.00    -0.387 OA
ATOM     18  H1  UNL     1      11.806 -11.117  -7.437  1.00  0.00     0.210 HD
ENDBRANCH  12  17
ENDBRANCH   9  10
TORSDOF 2
ENDMDL
