MODEL 1
REMARK VINA RESULT: -6.292348608      0.000      0.000
REMARK  1 active torsions:
REMARK  status: ('A' for Active; 'I' for Inactive)
REMARK    1  A    between atoms: C5_6  and  C6_7 
ROOT
HETATM    1  C1  UNL     1      14.322  -6.793  -1.813  1.00  0.00     0.025 C 
HETATM    2  C2  UNL     1      12.862  -6.565  -1.589  1.00  0.00     0.037 C 
HETATM    3  C3  UNL     1      12.515  -6.916  -0.176  1.00  0.00     0.025 C 
HETATM    4  C4  UNL     1      12.011  -7.322  -2.577  1.00  0.00     0.004 A 
HETATM    5  S1  UNL     1      11.210  -8.792  -2.877  1.00  0.00    -0.085 SA
HETATM    6  C5  UNL     1      10.552  -8.442  -4.424  1.00  0.00     0.104 A 
HETATM    7  C7  UNL     1      10.987  -7.175  -4.653  1.00  0.00     0.065 A 
HETATM    8 CL1  UNL     1      10.532  -6.373  -6.188  1.00  0.00    -0.082 Cl
HETATM    9  C8  UNL     1      11.747  -6.591  -3.691  1.00  0.00    -0.016 A 
HETATM   10  C9  UNL     1      12.449  -5.264  -3.461  1.00  0.00     0.103 C 
HETATM   11  C10 UNL     1      12.503  -5.139  -1.952  1.00  0.00     0.194 C 
HETATM   12  F1  UNL     1      11.277  -4.789  -1.425  1.00  0.00    -0.224 F 
HETATM   13 CL2  UNL     1      13.794  -4.028  -1.483  1.00  0.00    -0.081 Cl
ENDROOT
BRANCH   6  14
HETATM   14  C6  UNL     1       9.720  -9.322  -5.275  1.00  0.00     0.218 C 
HETATM   15  O1  UNL     1       8.700  -9.805  -4.791  1.00  0.00    -0.643 OA
HETATM   16  O2  UNL     1      10.128  -9.554  -6.560  1.00  0.00    -0.643 OA
ENDBRANCH   6  14
TORSDOF 1
ENDMDL
MODEL 2
REMARK VINA RESULT: -4.959205848      2.120      2.537
REMARK  1 active torsions:
REMARK  status: ('A' for Active; 'I' for Inactive)
REMARK    1  A    between atoms: C5_6  and  C6_7 
ROOT
HETATM    1  C1  UNL     1      12.552  -4.769  -1.857  1.00  0.00     0.025 C 
HETATM    2  C2  UNL     1      13.108  -6.143  -2.052  1.00  0.00     0.037 C 
HETATM    3  C3  UNL     1      14.594  -6.058  -2.210  1.00  0.00     0.025 C 
HETATM    4  C4  UNL     1      12.463  -6.856  -3.214  1.00  0.00     0.004 A 
HETATM    5  S1  UNL     1      12.551  -7.140  -4.888  1.00  0.00    -0.085 SA
HETATM    6  C5  UNL     1      11.190  -8.172  -5.069  1.00  0.00     0.104 A 
HETATM    7  C7  UNL     1      10.711  -8.258  -3.800  1.00  0.00     0.065 A 
HETATM    8 CL1  UNL     1       9.256  -9.257  -3.495  1.00  0.00    -0.082 Cl
HETATM    9  C8  UNL     1      11.373  -7.572  -2.833  1.00  0.00    -0.016 A 
HETATM   10  C9  UNL     1      11.260  -7.343  -1.336  1.00  0.00     0.103 C 
HETATM   11  C10 UNL     1      12.681  -7.038  -0.908  1.00  0.00     0.194 C 
HETATM   12  F1  UNL     1      13.455  -8.179  -0.858  1.00  0.00    -0.224 F 
HETATM   13 CL2  UNL     1      12.675  -6.146   0.617  1.00  0.00    -0.081 Cl
ENDROOT
BRANCH   6  14
HETATM   14  C6  UNL     1      10.687  -8.798  -6.312  1.00  0.00     0.218 C 
HETATM   15  O1  UNL     1      10.000  -8.119  -7.070  1.00  0.00    -0.643 OA
HETATM   16  O2  UNL     1      11.012 -10.105  -6.556  1.00  0.00    -0.643 OA
ENDBRANCH   6  14
TORSDOF 1
ENDMDL
MODEL 3
REMARK VINA RESULT: -4.885573685      6.720      7.947
REMARK  1 active torsions:
REMARK  status: ('A' for Active; 'I' for Inactive)
REMARK    1  A    between atoms: C5_6  and  C6_7 
ROOT
HETATM    1  C1  UNL     1       9.660 -12.930  -4.570  1.00  0.00     0.025 C 
HETATM    2  C2  UNL     1       9.429 -12.694  -6.028  1.00  0.00     0.037 C 
HETATM    3  C3  UNL     1       8.053 -13.157  -6.393  1.00  0.00     0.025 C 
HETATM    4  C4  UNL     1      10.483 -13.349  -6.883  1.00  0.00     0.004 A 
HETATM    5  S1  UNL     1      10.912 -14.773  -7.708  1.00  0.00    -0.085 SA
HETATM    6  C5  UNL     1      12.429 -14.283  -8.346  1.00  0.00     0.104 A 
HETATM    7  C7  UNL     1      12.547 -13.010  -7.887  1.00  0.00     0.065 A 
HETATM    8 CL1  UNL     1      14.012 -12.073  -8.313  1.00  0.00    -0.082 Cl
HETATM    9  C8  UNL     1      11.534 -12.523  -7.124  1.00  0.00    -0.016 A 
HETATM   10  C9  UNL     1      11.188 -11.233  -6.401  1.00  0.00     0.103 C 
HETATM   11  C10 UNL     1       9.673 -11.236  -6.358  1.00  0.00     0.194 C 
HETATM   12  F1  UNL     1       9.127 -10.909  -7.582  1.00  0.00    -0.224 F 
HETATM   13 CL2  UNL     1       9.102 -10.193  -5.051  1.00  0.00    -0.081 Cl
ENDROOT
BRANCH   6  14
HETATM   14  C6  UNL     1      13.357 -15.073  -9.186  1.00  0.00     0.218 C 
HETATM   15  O1  UNL     1      13.145 -15.127 -10.394  1.00  0.00    -0.643 OA
HETATM   16  O2  UNL     1      14.406 -15.704  -8.575  1.00  0.00    -0.643 OA
ENDBRANCH   6  14
TORSDOF 1
ENDMDL
MODEL 4
REMARK VINA RESULT: -4.515763252      6.364      7.836
REMARK  1 active torsions:
REMARK  status: ('A' for Active; 'I' for Inactive)
REMARK    1  A    between atoms: C5_6  and  C6_7 
ROOT
HETATM    1  C1  UNL     1       9.032 -12.202  -7.749  1.00  0.00     0.025 C 
HETATM    2  C2  UNL     1      10.295 -12.067  -6.960  1.00  0.00     0.037 C 
HETATM    3  C3  UNL     1      11.440 -11.830  -7.894  1.00  0.00     0.025 C 
HETATM    4  C4  UNL     1      10.538 -13.260  -6.071  1.00  0.00     0.004 A 
HETATM    5  S1  UNL     1      11.254 -14.800  -5.982  1.00  0.00    -0.085 SA
HETATM    6  C5  UNL     1      10.839 -15.210  -4.367  1.00  0.00     0.104 A 
HETATM    7  C7  UNL     1      10.149 -14.116  -3.951  1.00  0.00     0.065 A 
HETATM    8 CL1  UNL     1       9.501 -14.090  -2.281  1.00  0.00    -0.082 Cl
HETATM    9  C8  UNL     1       9.991 -13.100  -4.838  1.00  0.00    -0.016 A 
HETATM   10  C9  UNL     1       9.339 -11.729  -4.877  1.00  0.00     0.103 C 
HETATM   11  C10 UNL     1      10.138 -10.977  -5.921  1.00  0.00     0.194 C 
HETATM   12  F1  UNL     1      11.366 -10.578  -5.435  1.00  0.00    -0.224 F 
HETATM   13 CL2  UNL     1       9.185  -9.633  -6.561  1.00  0.00    -0.081 Cl
ENDROOT
BRANCH   6  14
HETATM   14  C6  UNL     1      11.167 -16.453  -3.634  1.00  0.00     0.218 C 
HETATM   15  O1  UNL     1      12.348 -16.767  -3.518  1.00  0.00    -0.643 OA
HETATM   16  O2  UNL     1      10.136 -17.194  -3.122  1.00  0.00    -0.643 OA
ENDBRANCH   6  14
TORSDOF 1
ENDMDL
MODEL 5
REMARK VINA RESULT: -4.369003774      4.802      6.790
REMARK  1 active torsions:
REMARK  status: ('A' for Active; 'I' for Inactive)
REMARK    1  A    between atoms: C5_6  and  C6_7 
ROOT
HETATM    1  C1  UNL     1      10.955 -13.678  -7.040  1.00  0.00     0.025 C 
HETATM    2  C2  UNL     1       9.865 -13.145  -6.167  1.00  0.00     0.037 C 
HETATM    3  C3  UNL     1       8.576 -13.821  -6.513  1.00  0.00     0.025 C 
HETATM    4  C4  UNL     1       9.750 -11.644  -6.256  1.00  0.00     0.004 A 
HETATM    5  S1  UNL     1       9.011 -10.358  -7.087  1.00  0.00    -0.085 SA
HETATM    6  C5  UNL     1       9.703  -9.038  -6.233  1.00  0.00     0.104 A 
HETATM    7  C7  UNL     1      10.495  -9.658  -5.320  1.00  0.00     0.065 A 
HETATM    8 CL1  UNL     1      11.440  -8.653  -4.177  1.00  0.00    -0.082 Cl
HETATM    9  C8  UNL     1      10.521 -11.016  -5.331  1.00  0.00    -0.016 A 
HETATM   10  C9  UNL     1      11.201 -12.136  -4.565  1.00  0.00     0.103 C 
HETATM   11  C10 UNL     1      10.249 -13.306  -4.711  1.00  0.00     0.194 C 
HETATM   12  F1  UNL     1       9.147 -13.171  -3.892  1.00  0.00    -0.224 F 
HETATM   13 CL2  UNL     1      11.112 -14.825  -4.453  1.00  0.00    -0.081 Cl
ENDROOT
BRANCH   6  14
HETATM   14  C6  UNL     1       9.474  -7.593  -6.458  1.00  0.00     0.218 C 
HETATM   15  O1  UNL     1       8.462  -7.251  -7.063  1.00  0.00    -0.643 OA
HETATM   16  O2  UNL     1      10.402  -6.709  -5.980  1.00  0.00    -0.643 OA
ENDBRANCH   6  14
TORSDOF 1
ENDMDL
