MODEL 1
REMARK VINA RESULT: -7.998298552      0.000      0.000
REMARK  4 active torsions:
REMARK  status: ('A' for Active; 'I' for Inactive)
REMARK    1  A    between atoms: C2_2  and  O1_3 
REMARK    2  A    between atoms: C2_2  and  C14_17 
REMARK    3  A    between atoms: O1_3  and  C3_4 
REMARK    4  A    between atoms: C9_10  and  O2_12 
ROOT
HETATM    1  C3  UNL     1      11.207  -7.597  -2.564  1.00  0.00     0.123 C 
HETATM    2  C4  UNL     1      11.664  -8.529  -1.445  1.00  0.00     0.033 C 
HETATM    3  C5  UNL     1      12.075  -7.550  -0.368  1.00  0.00     0.012 C 
HETATM    4  C6  UNL     1      12.849  -6.521  -1.205  1.00  0.00    -0.038 C 
HETATM    5  C7  UNL     1      14.080  -7.148  -1.773  1.00  0.00     0.012 C 
HETATM    6  C8  UNL     1      15.057  -6.130  -2.254  1.00  0.00     0.038 C 
HETATM    7  C9  UNL     1      15.381  -5.152  -1.153  1.00  0.00     0.054 C 
HETATM    8  C10 UNL     1      16.477  -4.212  -1.562  1.00  0.00     0.045 C 
HETATM    9  C11 UNL     1      14.107  -4.373  -0.866  1.00  0.00     0.038 C 
HETATM   10  C12 UNL     1      13.088  -5.336  -0.344  1.00  0.00     0.012 C 
HETATM   11  C13 UNL     1      11.865  -6.277  -2.327  1.00  0.00     0.041 C 
ENDROOT
BRANCH   1  12
HETATM   12  O1  UNL     1      11.499  -8.137  -3.815  1.00  0.00    -0.372 OA
BRANCH  12  13
HETATM   13  C2  UNL     1      10.379  -8.066  -4.637  1.00  0.00     0.225 C 
HETATM   14  C1  UNL     1      10.600  -7.021  -5.710  1.00  0.00     0.049 C 
BRANCH  13  15
HETATM   15  C14 UNL     1      10.051  -9.412  -5.251  1.00  0.00     0.412 C 
HETATM   16  F1  UNL     1       9.653  -9.205  -6.548  1.00  0.00    -0.168 F 
HETATM   17  F2  UNL     1      11.095 -10.292  -5.174  1.00  0.00    -0.168 F 
HETATM   18  F3  UNL     1       8.976  -9.942  -4.566  1.00  0.00    -0.168 F 
ENDBRANCH  13  15
ENDBRANCH  12  13
ENDBRANCH   1  12
BRANCH   7  19
HETATM   19  O2  UNL     1      15.693  -5.875  -0.010  1.00  0.00    -0.390 OA
ATOM     20  H2  UNL     1      15.484  -5.338   0.746  1.00  0.00     0.210 HD
ENDBRANCH   7  19
TORSDOF 4
ENDMDL
MODEL 2
REMARK VINA RESULT: -7.949062202      2.991      6.692
REMARK  4 active torsions:
REMARK  status: ('A' for Active; 'I' for Inactive)
REMARK    1  A    between atoms: C2_2  and  O1_3 
REMARK    2  A    between atoms: C2_2  and  C14_17 
REMARK    3  A    between atoms: O1_3  and  C3_4 
REMARK    4  A    between atoms: C9_10  and  O2_12 
ROOT
HETATM    1  C3  UNL     1      11.335  -7.274  -3.872  1.00  0.00     0.123 C 
HETATM    2  C4  UNL     1      11.245  -6.766  -5.309  1.00  0.00     0.033 C 
HETATM    3  C5  UNL     1       9.980  -7.435  -5.799  1.00  0.00     0.012 C 
HETATM    4  C6  UNL     1      10.177  -8.851  -5.238  1.00  0.00    -0.038 C 
HETATM    5  C7  UNL     1      11.347  -9.503  -5.898  1.00  0.00     0.012 C 
HETATM    6  C8  UNL     1      11.354 -10.981  -5.696  1.00  0.00     0.038 C 
HETATM    7  C9  UNL     1      10.046 -11.578  -6.152  1.00  0.00     0.054 C 
HETATM    8  C10 UNL     1      10.086 -13.078  -6.103  1.00  0.00     0.045 C 
HETATM    9  C11 UNL     1       8.971 -11.056  -5.212  1.00  0.00     0.038 C 
HETATM   10  C12 UNL     1       8.888  -9.573  -5.389  1.00  0.00     0.012 C 
HETATM   11  C13 UNL     1      10.539  -8.536  -3.805  1.00  0.00     0.041 C 
ENDROOT
BRANCH   1  12
HETATM   12  O1  UNL     1      12.663  -7.443  -3.484  1.00  0.00    -0.372 OA
BRANCH  12  13
HETATM   13  C2  UNL     1      12.971  -6.570  -2.445  1.00  0.00     0.225 C 
HETATM   14  C1  UNL     1      12.222  -5.268  -2.635  1.00  0.00     0.049 C 
BRANCH  13  15
HETATM   15  C14 UNL     1      12.664  -7.180  -1.093  1.00  0.00     0.412 C 
HETATM   16  F1  UNL     1      11.453  -6.692  -0.669  1.00  0.00    -0.168 F 
HETATM   17  F2  UNL     1      12.680  -8.547  -1.119  1.00  0.00    -0.168 F 
HETATM   18  F3  UNL     1      13.623  -6.744  -0.200  1.00  0.00    -0.168 F 
ENDBRANCH  13  15
ENDBRANCH  12  13
ENDBRANCH   1  12
BRANCH   7  19
HETATM   19  O2  UNL     1       9.765 -11.089  -7.419  1.00  0.00    -0.390 OA
ATOM     20  H2  UNL     1       9.066 -10.450  -7.341  1.00  0.00     0.210 HD
ENDBRANCH   7  19
TORSDOF 4
ENDMDL
MODEL 3
REMARK VINA RESULT: -7.908837146      3.193      7.017
REMARK  4 active torsions:
REMARK  status: ('A' for Active; 'I' for Inactive)
REMARK    1  A    between atoms: C2_2  and  O1_3 
REMARK    2  A    between atoms: C2_2  and  C14_17 
REMARK    3  A    between atoms: O1_3  and  C3_4 
REMARK    4  A    between atoms: C9_10  and  O2_12 
ROOT
HETATM    1  C3  UNL     1      10.774  -7.558  -4.064  1.00  0.00     0.123 C 
HETATM    2  C4  UNL     1      11.006  -7.095  -5.500  1.00  0.00     0.033 C 
HETATM    3  C5  UNL     1       9.908  -7.821  -6.245  1.00  0.00     0.012 C 
HETATM    4  C6  UNL     1      10.007  -9.213  -5.604  1.00  0.00    -0.038 C 
HETATM    5  C7  UNL     1      11.315  -9.843  -5.952  1.00  0.00     0.012 C 
HETATM    6  C8  UNL     1      11.315 -11.313  -5.702  1.00  0.00     0.038 C 
HETATM    7  C9  UNL     1      10.165 -11.968  -6.425  1.00  0.00     0.054 C 
HETATM    8  C10 UNL     1      10.233 -13.463  -6.316  1.00  0.00     0.045 C 
HETATM    9  C11 UNL     1       8.888 -11.456  -5.778  1.00  0.00     0.038 C 
HETATM   10  C12 UNL     1       8.809  -9.982  -6.023  1.00  0.00     0.012 C 
HETATM   11  C13 UNL     1      10.019  -8.845  -4.138  1.00  0.00     0.041 C 
ENDROOT
BRANCH   1  12
HETATM   12  O1  UNL     1      11.980  -7.670  -3.374  1.00  0.00    -0.372 OA
BRANCH  12  13
HETATM   13  C2  UNL     1      11.878  -7.053  -2.132  1.00  0.00     0.225 C 
HETATM   14  C1  UNL     1      12.383  -7.988  -1.054  1.00  0.00     0.049 C 
BRANCH  13  15
HETATM   15  C14 UNL     1      12.625  -5.735  -2.101  1.00  0.00     0.412 C 
HETATM   16  F1  UNL     1      13.904  -5.958  -2.547  1.00  0.00    -0.168 F 
HETATM   17  F2  UNL     1      11.997  -4.759  -2.824  1.00  0.00    -0.168 F 
HETATM   18  F3  UNL     1      12.710  -5.324  -0.785  1.00  0.00    -0.168 F 
ENDBRANCH  13  15
ENDBRANCH  12  13
ENDBRANCH   1  12
BRANCH   7  19
HETATM   19  O2  UNL     1      10.172 -11.525  -7.740  1.00  0.00    -0.390 OA
ATOM     20  H2  UNL     1       9.427 -10.947  -7.862  1.00  0.00     0.210 HD
ENDBRANCH   7  19
TORSDOF 4
ENDMDL
MODEL 4
REMARK VINA RESULT: -7.290068528      3.204      7.119
REMARK  4 active torsions:
REMARK  status: ('A' for Active; 'I' for Inactive)
REMARK    1  A    between atoms: C2_2  and  O1_3 
REMARK    2  A    between atoms: C2_2  and  C14_17 
REMARK    3  A    between atoms: O1_3  and  C3_4 
REMARK    4  A    between atoms: C9_10  and  O2_12 
ROOT
HETATM    1  C3  UNL     1      10.592  -7.945  -4.160  1.00  0.00     0.123 C 
HETATM    2  C4  UNL     1      10.755  -7.517  -5.617  1.00  0.00     0.033 C 
HETATM    3  C5  UNL     1       9.680  -8.328  -6.304  1.00  0.00     0.012 C 
HETATM    4  C6  UNL     1       9.877  -9.690  -5.623  1.00  0.00    -0.038 C 
HETATM    5  C7  UNL     1      11.208 -10.257  -5.991  1.00  0.00     0.012 C 
HETATM    6  C8  UNL     1      11.299 -11.715  -5.695  1.00  0.00     0.038 C 
HETATM    7  C9  UNL     1      10.168 -12.457  -6.362  1.00  0.00     0.054 C 
HETATM    8  C10 UNL     1      10.325 -13.942  -6.207  1.00  0.00     0.045 C 
HETATM    9  C11 UNL     1       8.883 -11.997  -5.692  1.00  0.00     0.038 C 
HETATM   10  C12 UNL     1       8.713 -10.539  -5.980  1.00  0.00     0.012 C 
HETATM   11  C13 UNL     1       9.909  -9.273  -4.170  1.00  0.00     0.041 C 
ENDROOT
BRANCH   1  12
HETATM   12  O1  UNL     1      11.822  -7.966  -3.505  1.00  0.00    -0.372 OA
BRANCH  12  13
HETATM   13  C2  UNL     1      11.727  -7.291  -2.292  1.00  0.00     0.225 C 
HETATM   14  C1  UNL     1      12.129  -8.214  -1.162  1.00  0.00     0.049 C 
BRANCH  13  15
HETATM   15  C14 UNL     1      12.568  -6.031  -2.288  1.00  0.00     0.412 C 
HETATM   16  F1  UNL     1      11.800  -5.006  -1.792  1.00  0.00    -0.168 F 
HETATM   17  F2  UNL     1      13.731  -6.179  -1.585  1.00  0.00    -0.168 F 
HETATM   18  F3  UNL     1      12.879  -5.721  -3.597  1.00  0.00    -0.168 F 
ENDBRANCH  13  15
ENDBRANCH  12  13
ENDBRANCH   1  12
BRANCH   7  19
HETATM   19  O2  UNL     1      10.112 -12.058  -7.689  1.00  0.00    -0.390 OA
ATOM     20  H2  UNL     1      10.132 -12.837  -8.234  1.00  0.00     0.210 HD
ENDBRANCH   7  19
TORSDOF 4
ENDMDL
MODEL 5
REMARK VINA RESULT: -6.978974385      1.334      1.798
REMARK  4 active torsions:
REMARK  status: ('A' for Active; 'I' for Inactive)
REMARK    1  A    between atoms: C2_2  and  O1_3 
REMARK    2  A    between atoms: C2_2  and  C14_17 
REMARK    3  A    between atoms: O1_3  and  C3_4 
REMARK    4  A    between atoms: C9_10  and  O2_12 
ROOT
HETATM    1  C3  UNL     1      11.324  -7.187  -3.620  1.00  0.00     0.123 C 
HETATM    2  C4  UNL     1      11.230  -8.001  -2.332  1.00  0.00     0.033 C 
HETATM    3  C5  UNL     1      11.469  -6.945  -1.276  1.00  0.00     0.012 C 
HETATM    4  C6  UNL     1      12.642  -6.180  -1.904  1.00  0.00    -0.038 C 
HETATM    5  C7  UNL     1      13.846  -7.062  -1.977  1.00  0.00     0.012 C 
HETATM    6  C8  UNL     1      15.098  -6.285  -2.202  1.00  0.00     0.038 C 
HETATM    7  C9  UNL     1      15.248  -5.214  -1.151  1.00  0.00     0.054 C 
HETATM    8  C10 UNL     1      16.574  -4.520  -1.264  1.00  0.00     0.045 C 
HETATM    9  C11 UNL     1      14.120  -4.218  -1.371  1.00  0.00     0.038 C 
HETATM   10  C12 UNL     1      12.826  -4.929  -1.126  1.00  0.00     0.012 C 
HETATM   11  C13 UNL     1      12.115  -5.960  -3.304  1.00  0.00     0.041 C 
ENDROOT
BRANCH   1  12
HETATM   12  O1  UNL     1      11.877  -7.945  -4.651  1.00  0.00    -0.372 OA
BRANCH  12  13
HETATM   13  C2  UNL     1      10.869  -8.446  -5.468  1.00  0.00     0.225 C 
HETATM   14  C1  UNL     1       9.899  -9.261  -4.640  1.00  0.00     0.049 C 
BRANCH  13  15
HETATM   15  C14 UNL     1      10.150  -7.338  -6.211  1.00  0.00     0.412 C 
HETATM   16  F1  UNL     1       8.824  -7.680  -6.311  1.00  0.00    -0.168 F 
HETATM   17  F2  UNL     1      10.316  -6.116  -5.618  1.00  0.00    -0.168 F 
HETATM   18  F3  UNL     1      10.662  -7.280  -7.492  1.00  0.00    -0.168 F 
ENDBRANCH  13  15
ENDBRANCH  12  13
ENDBRANCH   1  12
BRANCH   7  19
HETATM   19  O2  UNL     1      15.051  -5.797   0.092  1.00  0.00    -0.390 OA
ATOM     20  H2  UNL     1      14.292  -5.390   0.494  1.00  0.00     0.210 HD
ENDBRANCH   7  19
TORSDOF 4
ENDMDL
