MODEL 1
REMARK VINA RESULT: -8.812843382      0.000      0.000
REMARK  3 active torsions:
REMARK  status: ('A' for Active; 'I' for Inactive)
REMARK    1  A    between atoms: C2_3  and  C3_4 
REMARK    2  A    between atoms: C3_4  and  O1_7 
REMARK    3  A    between atoms: C6_13  and  C7_14 
ROOT
HETATM    1  C1  UNL     1      11.096  -8.630  -3.131  1.00  0.00     0.159 C 
HETATM    2  N1  UNL     1      10.973  -7.546  -4.078  1.00  0.00    -0.325 N 
HETATM    3  C2  UNL     1      10.388  -7.660  -5.279  1.00  0.00     0.133 A 
HETATM    4  N2  UNL     1      10.488  -6.415  -5.773  1.00  0.00    -0.285 N 
ATOM      5  H2  UNL     1      10.143  -6.134  -6.690  1.00  0.00     0.188 HD
HETATM    6  N3  UNL     1      11.084  -5.609  -4.935  1.00  0.00    -0.287 N 
ATOM      7  H3  UNL     1      11.269  -4.619  -5.092  1.00  0.00     0.188 HD
HETATM    8  C6  UNL     1      11.415  -6.315  -3.814  1.00  0.00     0.108 A 
ENDROOT
BRANCH   8   9
HETATM    9  C7  UNL     1      12.123  -5.667  -2.738  1.00  0.00     0.021 C 
HETATM   10  C8  UNL     1      12.259  -4.192  -2.754  1.00  0.00     0.018 C 
HETATM   11  C9  UNL     1      13.134  -3.714  -1.600  1.00  0.00     0.006 C 
HETATM   12  C10 UNL     1      13.857  -4.767  -0.869  1.00  0.00    -0.010 C 
HETATM   13  C11 UNL     1      12.995  -5.246   0.287  1.00  0.00     0.010 C 
HETATM   14  C14 UNL     1      14.275  -5.980  -1.633  1.00  0.00    -0.009 C 
HETATM   15  C12 UNL     1      12.430  -6.488  -0.377  1.00  0.00    -0.013 C 
HETATM   16  C13 UNL     1      13.711  -7.135  -0.810  1.00  0.00     0.010 C 
HETATM   17  C16 UNL     1      11.522  -6.087  -1.436  1.00  0.00     0.022 C 
HETATM   18  C15 UNL     1      13.580  -6.168  -2.942  1.00  0.00     0.022 C 
ENDBRANCH   8   9
BRANCH   3  19
HETATM   19  C3  UNL     1       9.758  -8.815  -5.978  1.00  0.00     0.110 C 
HETATM   20  C4  UNL     1       8.632  -9.441  -5.193  1.00  0.00     0.054 C 
HETATM   21  C5  UNL     1      10.786  -9.843  -6.408  1.00  0.00     0.054 C 
BRANCH  19  22
HETATM   22  O1  UNL     1       9.142  -8.327  -7.144  1.00  0.00    -0.383 OA
ATOM     23  H1  UNL     1       9.533  -8.773  -7.887  1.00  0.00     0.211 HD
ENDBRANCH  19  22
ENDBRANCH   3  19
TORSDOF 3
ENDMDL
MODEL 2
REMARK VINA RESULT: -8.221585083      0.713      1.775
REMARK  3 active torsions:
REMARK  status: ('A' for Active; 'I' for Inactive)
REMARK    1  A    between atoms: C2_3  and  C3_4 
REMARK    2  A    between atoms: C3_4  and  O1_7 
REMARK    3  A    between atoms: C6_13  and  C7_14 
ROOT
HETATM    1  C1  UNL     1      10.882  -8.723  -3.069  1.00  0.00     0.159 C 
HETATM    2  N1  UNL     1      11.020  -7.523  -3.863  1.00  0.00    -0.325 N 
HETATM    3  C2  UNL     1      10.562  -7.395  -5.117  1.00  0.00     0.133 A 
HETATM    4  N2  UNL     1      10.893  -6.130  -5.422  1.00  0.00    -0.285 N 
ATOM      5  H2  UNL     1      10.695  -5.688  -6.318  1.00  0.00     0.188 HD
HETATM    6  N3  UNL     1      11.499  -5.537  -4.429  1.00  0.00    -0.287 N 
ATOM      7  H3  UNL     1      11.840  -4.576  -4.428  1.00  0.00     0.188 HD
HETATM    8  C6  UNL     1      11.601  -6.418  -3.392  1.00  0.00     0.108 A 
ENDROOT
BRANCH   8   9
HETATM    9  C7  UNL     1      12.270  -6.027  -2.175  1.00  0.00     0.021 C 
HETATM   10  C8  UNL     1      11.724  -6.485  -0.877  1.00  0.00     0.018 C 
HETATM   11  C9  UNL     1      12.499  -5.873   0.285  1.00  0.00     0.006 C 
HETATM   12  C10 UNL     1      13.434  -4.794  -0.070  1.00  0.00    -0.010 C 
HETATM   13  C11 UNL     1      14.799  -5.398  -0.359  1.00  0.00     0.010 C 
HETATM   14  C14 UNL     1      13.085  -3.929  -1.236  1.00  0.00    -0.009 C 
HETATM   15  C12 UNL     1      14.696  -5.424  -1.873  1.00  0.00    -0.013 C 
HETATM   16  C13 UNL     1      14.330  -3.991  -2.115  1.00  0.00     0.010 C 
HETATM   17  C16 UNL     1      13.710  -6.415  -2.264  1.00  0.00     0.022 C 
HETATM   18  C15 UNL     1      12.039  -4.490  -2.143  1.00  0.00     0.022 C 
ENDBRANCH   8   9
BRANCH   3  19
HETATM   19  C3  UNL     1       9.856  -8.343  -6.024  1.00  0.00     0.110 C 
HETATM   20  C4  UNL     1       8.544  -8.835  -5.464  1.00  0.00     0.054 C 
HETATM   21  C5  UNL     1      10.753  -9.489  -6.451  1.00  0.00     0.054 C 
BRANCH  19  22
HETATM   22  O1  UNL     1       9.497  -7.638  -7.186  1.00  0.00    -0.383 OA
ATOM     23  H1  UNL     1       9.450  -6.715  -6.962  1.00  0.00     0.211 HD
ENDBRANCH  19  22
ENDBRANCH   3  19
TORSDOF 3
ENDMDL
MODEL 3
REMARK VINA RESULT: -7.488903182      2.368      5.893
REMARK  3 active torsions:
REMARK  status: ('A' for Active; 'I' for Inactive)
REMARK    1  A    between atoms: C2_3  and  C3_4 
REMARK    2  A    between atoms: C3_4  and  O1_7 
REMARK    3  A    between atoms: C6_13  and  C7_14 
ROOT
HETATM    1  C1  UNL     1      11.965  -7.995  -1.940  1.00  0.00     0.159 C 
HETATM    2  N1  UNL     1      12.112  -6.751  -2.660  1.00  0.00    -0.325 N 
HETATM    3  C2  UNL     1      12.793  -5.692  -2.198  1.00  0.00     0.133 A 
HETATM    4  N2  UNL     1      12.674  -4.807  -3.201  1.00  0.00    -0.285 N 
ATOM      5  H2  UNL     1      13.076  -3.870  -3.189  1.00  0.00     0.188 HD
HETATM    6  N3  UNL     1      11.979  -5.294  -4.195  1.00  0.00    -0.287 N 
ATOM      7  H3  UNL     1      11.760  -4.807  -5.063  1.00  0.00     0.188 HD
HETATM    8  C6  UNL     1      11.594  -6.564  -3.875  1.00  0.00     0.108 A 
ENDROOT
BRANCH   8   9
HETATM    9  C7  UNL     1      10.776  -7.321  -4.790  1.00  0.00     0.021 C 
HETATM   10  C8  UNL     1       9.908  -6.595  -5.746  1.00  0.00     0.018 C 
HETATM   11  C9  UNL     1       9.042  -7.566  -6.540  1.00  0.00     0.006 C 
HETATM   12  C10 UNL     1       9.037  -8.957  -6.059  1.00  0.00    -0.010 C 
HETATM   13  C11 UNL     1      10.141  -9.727  -6.764  1.00  0.00     0.010 C 
HETATM   14  C14 UNL     1       9.215  -9.185  -4.594  1.00  0.00    -0.009 C 
HETATM   15  C12 UNL     1      11.184  -9.647  -5.664  1.00  0.00    -0.013 C 
HETATM   16  C13 UNL     1      10.372 -10.177  -4.522  1.00  0.00     0.010 C 
HETATM   17  C16 UNL     1      11.643  -8.275  -5.545  1.00  0.00     0.022 C 
HETATM   18  C15 UNL     1       9.763  -8.019  -3.839  1.00  0.00     0.022 C 
ENDBRANCH   8   9
BRANCH   3  19
HETATM   19  C3  UNL     1      13.528  -5.453  -0.924  1.00  0.00     0.110 C 
HETATM   20  C4  UNL     1      14.854  -6.170  -0.862  1.00  0.00     0.054 C 
HETATM   21  C5  UNL     1      12.667  -5.753   0.288  1.00  0.00     0.054 C 
BRANCH  19  22
HETATM   22  O1  UNL     1      13.865  -4.090  -0.871  1.00  0.00    -0.383 OA
ATOM     23  H1  UNL     1      14.225  -3.913  -0.010  1.00  0.00     0.211 HD
ENDBRANCH  19  22
ENDBRANCH   3  19
TORSDOF 3
ENDMDL
MODEL 4
REMARK VINA RESULT: -7.354816957      2.450      6.100
REMARK  3 active torsions:
REMARK  status: ('A' for Active; 'I' for Inactive)
REMARK    1  A    between atoms: C2_3  and  C3_4 
REMARK    2  A    between atoms: C3_4  and  O1_7 
REMARK    3  A    between atoms: C6_13  and  C7_14 
ROOT
HETATM    1  C1  UNL     1      13.148  -6.063  -4.113  1.00  0.00     0.159 C 
HETATM    2  N1  UNL     1      12.260  -6.536  -3.075  1.00  0.00    -0.325 N 
HETATM    3  C2  UNL     1      12.433  -6.289  -1.768  1.00  0.00     0.133 A 
HETATM    4  N2  UNL     1      11.371  -6.895  -1.213  1.00  0.00    -0.285 N 
ATOM      5  H2  UNL     1      11.181  -6.912  -0.211  1.00  0.00     0.188 HD
HETATM    6  N3  UNL     1      10.612  -7.460  -2.113  1.00  0.00    -0.287 N 
ATOM      7  H3  UNL     1       9.752  -7.975  -1.928  1.00  0.00     0.188 HD
HETATM    8  C6  UNL     1      11.163  -7.246  -3.343  1.00  0.00     0.108 A 
ENDROOT
BRANCH   8   9
HETATM    9  C7  UNL     1      10.540  -7.802  -4.519  1.00  0.00     0.021 C 
HETATM   10  C8  UNL     1       9.961  -6.883  -5.527  1.00  0.00     0.018 C 
HETATM   11  C9  UNL     1       9.251  -7.663  -6.629  1.00  0.00     0.006 C 
HETATM   12  C10 UNL     1       9.058  -9.099  -6.371  1.00  0.00    -0.010 C 
HETATM   13  C11 UNL     1      10.252  -9.864  -6.919  1.00  0.00     0.010 C 
HETATM   14  C14 UNL     1       8.876  -9.532  -4.954  1.00  0.00    -0.009 C 
HETATM   15  C12 UNL     1      11.012 -10.021  -5.615  1.00  0.00    -0.013 C 
HETATM   16  C13 UNL     1       9.927 -10.623  -4.773  1.00  0.00     0.010 C 
HETATM   17  C16 UNL     1      11.505  -8.722  -5.195  1.00  0.00     0.022 C 
HETATM   18  C15 UNL     1       9.296  -8.527  -3.932  1.00  0.00     0.022 C 
ENDBRANCH   8   9
BRANCH   3  19
HETATM   19  C3  UNL     1      13.489  -5.548  -1.022  1.00  0.00     0.110 C 
HETATM   20  C4  UNL     1      13.586  -4.095  -1.419  1.00  0.00     0.054 C 
HETATM   21  C5  UNL     1      14.832  -6.246  -1.103  1.00  0.00     0.054 C 
BRANCH  19  22
HETATM   22  O1  UNL     1      13.115  -5.516   0.332  1.00  0.00    -0.383 OA
ATOM     23  H1  UNL     1      12.591  -6.290   0.506  1.00  0.00     0.211 HD
ENDBRANCH  19  22
ENDBRANCH   3  19
TORSDOF 3
ENDMDL
MODEL 5
REMARK VINA RESULT: -7.350121483      1.200      2.394
REMARK  3 active torsions:
REMARK  status: ('A' for Active; 'I' for Inactive)
REMARK    1  A    between atoms: C2_3  and  C3_4 
REMARK    2  A    between atoms: C3_4  and  O1_7 
REMARK    3  A    between atoms: C6_13  and  C7_14 
ROOT
HETATM    1  C1  UNL     1      12.390  -6.707  -4.741  1.00  0.00     0.159 C 
HETATM    2  N1  UNL     1      11.370  -7.211  -3.850  1.00  0.00    -0.325 N 
HETATM    3  C2  UNL     1      10.317  -7.940  -4.249  1.00  0.00     0.133 A 
HETATM    4  N2  UNL     1       9.680  -8.192  -3.094  1.00  0.00    -0.285 N 
ATOM      5  H2  UNL     1       8.818  -8.731  -3.021  1.00  0.00     0.188 HD
HETATM    6  N3  UNL     1      10.301  -7.660  -2.074  1.00  0.00    -0.287 N 
ATOM      7  H3  UNL     1      10.006  -7.721  -1.100  1.00  0.00     0.188 HD
HETATM    8  C6  UNL     1      11.411  -7.011  -2.532  1.00  0.00     0.108 A 
ENDROOT
BRANCH   8   9
HETATM    9  C7  UNL     1      12.261  -6.298  -1.609  1.00  0.00     0.021 C 
HETATM   10  C8  UNL     1      11.966  -6.371  -0.159  1.00  0.00     0.018 C 
HETATM   11  C9  UNL     1      12.901  -5.464   0.632  1.00  0.00     0.006 C 
HETATM   12  C10 UNL     1      13.715  -4.534  -0.167  1.00  0.00    -0.010 C 
HETATM   13  C11 UNL     1      15.034  -5.203  -0.513  1.00  0.00     0.010 C 
HETATM   14  C14 UNL     1      13.134  -4.027  -1.446  1.00  0.00    -0.009 C 
HETATM   15  C12 UNL     1      14.675  -5.652  -1.918  1.00  0.00    -0.013 C 
HETATM   16  C13 UNL     1      14.212  -4.342  -2.480  1.00  0.00     0.010 C 
HETATM   17  C16 UNL     1      13.680  -6.706  -1.840  1.00  0.00     0.022 C 
HETATM   18  C15 UNL     1      11.974  -4.812  -1.963  1.00  0.00     0.022 C 
ENDBRANCH   8   9
BRANCH   3  19
HETATM   19  C3  UNL     1       9.877  -8.407  -5.594  1.00  0.00     0.110 C 
HETATM   20  C4  UNL     1      10.786  -9.456  -6.184  1.00  0.00     0.054 C 
HETATM   21  C5  UNL     1       9.656  -7.250  -6.548  1.00  0.00     0.054 C 
BRANCH  19  22
HETATM   22  O1  UNL     1       8.643  -9.062  -5.437  1.00  0.00    -0.383 OA
ATOM     23  H1  UNL     1       8.127  -8.900  -6.219  1.00  0.00     0.211 HD
ENDBRANCH  19  22
ENDBRANCH   3  19
TORSDOF 3
ENDMDL
