MODEL 1
REMARK VINA RESULT: -6.459748257      0.000      0.000
REMARK  3 active torsions:
REMARK  status: ('A' for Active; 'I' for Inactive)
REMARK    1  A    between atoms: C3_3  and  N1_4 
REMARK    2  A    between atoms: C5_6  and  C6_7 
REMARK    3  A    between atoms: C12_18  and  C13_19 
ROOT
HETATM    1  C1  UNL     1      11.677 -13.764  -4.707  1.00  0.00     0.051 C 
HETATM    2  C2  UNL     1      10.437 -14.179  -5.359  1.00  0.00    -0.025 A 
HETATM    3  C3  UNL     1       9.624 -13.209  -5.949  1.00  0.00     0.059 A 
HETATM    4  C10 UNL     1       8.466 -13.582  -6.555  1.00  0.00     0.117 A 
HETATM    5  N4  UNL     1       8.075 -14.849  -6.606  1.00  0.00    -0.372 N 
ATOM      6  H4  UNL     1       7.202 -15.111  -7.065  1.00  0.00     0.164 HD
HETATM    7  C11 UNL     1       8.860 -15.775  -6.038  1.00  0.00     0.096 A 
HETATM    8  C12 UNL     1      10.054 -15.514  -5.399  1.00  0.00    -0.027 A 
ENDROOT
BRANCH   3   9
HETATM    9  N1  UNL     1       9.932 -11.821  -5.931  1.00  0.00    -0.318 N 
HETATM   10  C4  UNL     1       9.417 -10.885  -4.956  1.00  0.00     0.157 C 
HETATM   11  C5  UNL     1      10.402  -9.726  -4.999  1.00  0.00     0.106 C 
HETATM   12  N2  UNL     1      11.018  -9.909  -6.282  1.00  0.00    -0.358 N 
HETATM   13  C9  UNL     1      10.762 -11.061  -6.796  1.00  0.00     0.191 C 
ATOM     14  H2  UNL     1      11.597  -9.204  -6.737  1.00  0.00     0.162 HD
HETATM   15  N3  UNL     1      11.240 -11.510  -8.049  1.00  0.00    -0.063 NA
BRANCH  11  16
HETATM   16  C6  UNL     1       9.623  -8.430  -4.926  1.00  0.00     0.002 C 
HETATM   17  C7  UNL     1       9.042  -8.096  -6.281  1.00  0.00     0.011 C 
HETATM   18  C8  UNL     1      10.517  -7.313  -4.462  1.00  0.00     0.011 C 
ENDBRANCH  11  16
ENDBRANCH   3   9
BRANCH   8  19
HETATM   19  C13 UNL     1      10.841 -16.613  -4.823  1.00  0.00    -0.022 C 
HETATM   20  C14 UNL     1      10.060 -17.916  -5.076  1.00  0.00     0.019 C 
HETATM   21  C15 UNL     1      12.166 -16.861  -5.515  1.00  0.00     0.019 C 
HETATM   22  C16 UNL     1      11.031 -16.500  -3.338  1.00  0.00     0.019 C 
ENDBRANCH   8  19
TORSDOF 3
ENDMDL
MODEL 2
REMARK VINA RESULT: -6.316144674      2.673      3.723
REMARK  3 active torsions:
REMARK  status: ('A' for Active; 'I' for Inactive)
REMARK    1  A    between atoms: C3_3  and  N1_4 
REMARK    2  A    between atoms: C5_6  and  C6_7 
REMARK    3  A    between atoms: C12_18  and  C13_19 
ROOT
HETATM    1  C1  UNL     1      10.844 -12.364  -8.307  1.00  0.00     0.051 C 
HETATM    2  C2  UNL     1      11.678 -12.871  -7.219  1.00  0.00    -0.025 A 
HETATM    3  C3  UNL     1      11.556 -12.302  -5.950  1.00  0.00     0.059 A 
HETATM    4  C10 UNL     1      12.329 -12.761  -4.931  1.00  0.00     0.117 A 
HETATM    5  N4  UNL     1      13.207 -13.741  -5.101  1.00  0.00    -0.372 N 
ATOM      6  H4  UNL     1      13.780 -14.073  -4.325  1.00  0.00     0.164 HD
HETATM    7  C11 UNL     1      13.320 -14.283  -6.322  1.00  0.00     0.096 A 
HETATM    8  C12 UNL     1      12.588 -13.900  -7.427  1.00  0.00    -0.027 A 
ENDROOT
BRANCH   3   9
HETATM    9  N1  UNL     1      10.666 -11.230  -5.661  1.00  0.00    -0.318 N 
HETATM   10  C4  UNL     1      10.952  -9.840  -5.934  1.00  0.00     0.157 C 
HETATM   11  C5  UNL     1       9.580  -9.181  -5.977  1.00  0.00     0.106 C 
HETATM   12  N2  UNL     1       8.777 -10.125  -5.253  1.00  0.00    -0.358 N 
HETATM   13  C9  UNL     1       9.372 -11.253  -5.079  1.00  0.00     0.191 C 
ATOM     14  H2  UNL     1       7.837  -9.924  -4.914  1.00  0.00     0.162 HD
HETATM   15  N3  UNL     1       8.816 -12.363  -4.401  1.00  0.00    -0.063 NA
BRANCH  11  16
HETATM   16  C6  UNL     1       9.664  -7.847  -5.266  1.00  0.00     0.002 C 
HETATM   17  C7  UNL     1       9.850  -6.735  -6.273  1.00  0.00     0.011 C 
HETATM   18  C8  UNL     1      10.807  -7.850  -4.289  1.00  0.00     0.011 C 
ENDBRANCH  11  16
ENDBRANCH   3   9
BRANCH   8  19
HETATM   19  C13 UNL     1      12.785 -14.576  -8.716  1.00  0.00    -0.022 C 
HETATM   20  C14 UNL     1      13.858 -15.660  -8.504  1.00  0.00     0.019 C 
HETATM   21  C15 UNL     1      11.584 -15.364  -9.198  1.00  0.00     0.019 C 
HETATM   22  C16 UNL     1      13.292 -13.667  -9.798  1.00  0.00     0.019 C 
ENDBRANCH   8  19
TORSDOF 3
ENDMDL
MODEL 3
REMARK VINA RESULT: -6.215290622      1.813      2.583
REMARK  3 active torsions:
REMARK  status: ('A' for Active; 'I' for Inactive)
REMARK    1  A    between atoms: C3_3  and  N1_4 
REMARK    2  A    between atoms: C5_6  and  C6_7 
REMARK    3  A    between atoms: C12_18  and  C13_19 
ROOT
HETATM    1  C1  UNL     1      11.042 -13.121  -4.160  1.00  0.00     0.051 C 
HETATM    2  C2  UNL     1      11.589 -13.234  -5.510  1.00  0.00    -0.025 A 
HETATM    3  C3  UNL     1      11.314 -12.229  -6.440  1.00  0.00     0.059 A 
HETATM    4  C10 UNL     1      11.813 -12.325  -7.700  1.00  0.00     0.117 A 
HETATM    5  N4  UNL     1      12.561 -13.352  -8.084  1.00  0.00    -0.372 N 
ATOM      6  H4  UNL     1      12.928 -13.408  -9.035  1.00  0.00     0.164 HD
HETATM    7  C11 UNL     1      12.821 -14.313  -7.188  1.00  0.00     0.096 A 
HETATM    8  C12 UNL     1      12.371 -14.321  -5.884  1.00  0.00    -0.027 A 
ENDROOT
BRANCH   3   9
HETATM    9  N1  UNL     1      10.504 -11.099  -6.144  1.00  0.00    -0.318 N 
HETATM   10  C4  UNL     1      11.017  -9.766  -5.920  1.00  0.00     0.157 C 
HETATM   11  C5  UNL     1       9.823  -8.860  -6.187  1.00  0.00     0.106 C 
HETATM   12  N2  UNL     1       8.723  -9.767  -6.030  1.00  0.00    -0.358 N 
HETATM   13  C9  UNL     1       9.095 -10.999  -6.007  1.00  0.00     0.191 C 
ATOM     14  H2  UNL     1       7.751  -9.469  -5.946  1.00  0.00     0.162 HD
HETATM   15  N3  UNL     1       8.222 -12.103  -5.864  1.00  0.00    -0.063 NA
BRANCH  11  16
HETATM   16  C6  UNL     1       9.807  -7.765  -5.142  1.00  0.00     0.002 C 
HETATM   17  C7  UNL     1      10.154  -6.437  -5.777  1.00  0.00     0.011 C 
HETATM   18  C8  UNL     1      10.787  -8.079  -4.046  1.00  0.00     0.011 C 
ENDBRANCH  11  16
ENDBRANCH   3   9
BRANCH   8  19
HETATM   19  C13 UNL     1      12.732 -15.423  -4.982  1.00  0.00    -0.022 C 
HETATM   20  C14 UNL     1      12.942 -16.676  -5.853  1.00  0.00     0.019 C 
HETATM   21  C15 UNL     1      14.068 -15.251  -4.290  1.00  0.00     0.019 C 
HETATM   22  C16 UNL     1      11.658 -15.759  -3.987  1.00  0.00     0.019 C 
ENDBRANCH   8  19
TORSDOF 3
ENDMDL
MODEL 4
REMARK VINA RESULT: -6.144821200      2.897      3.416
REMARK  3 active torsions:
REMARK  status: ('A' for Active; 'I' for Inactive)
REMARK    1  A    between atoms: C3_3  and  N1_4 
REMARK    2  A    between atoms: C5_6  and  C6_7 
REMARK    3  A    between atoms: C12_18  and  C13_19 
ROOT
HETATM    1  C1  UNL     1      12.310 -12.062  -7.052  1.00  0.00     0.051 C 
HETATM    2  C2  UNL     1      11.140 -12.579  -7.758  1.00  0.00    -0.025 A 
HETATM    3  C3  UNL     1       9.882 -12.047  -7.465  1.00  0.00     0.059 A 
HETATM    4  C10 UNL     1       8.785 -12.523  -8.111  1.00  0.00     0.117 A 
HETATM    5  N4  UNL     1       8.867 -13.486  -9.021  1.00  0.00    -0.372 N 
ATOM      6  H4  UNL     1       8.033 -13.831  -9.496  1.00  0.00     0.164 HD
HETATM    7  C11 UNL     1      10.077 -13.992  -9.297  1.00  0.00     0.096 A 
HETATM    8  C12 UNL     1      11.256 -13.587  -8.707  1.00  0.00    -0.027 A 
ENDROOT
BRANCH   3   9
HETATM    9  N1  UNL     1       9.675 -11.032  -6.491  1.00  0.00    -0.318 N 
HETATM   10  C4  UNL     1       9.800  -9.616  -6.753  1.00  0.00     0.157 C 
HETATM   11  C5  UNL     1       8.989  -8.962  -5.643  1.00  0.00     0.106 C 
HETATM   12  N2  UNL     1       8.944 -10.003  -4.657  1.00  0.00    -0.358 N 
HETATM   13  C9  UNL     1       9.320 -11.143  -5.122  1.00  0.00     0.191 C 
ATOM     14  H2  UNL     1       8.645  -9.857  -3.693  1.00  0.00     0.162 HD
HETATM   15  N3  UNL     1       9.373 -12.342  -4.373  1.00  0.00    -0.063 NA
BRANCH  11  16
HETATM   16  C6  UNL     1       9.743  -7.747  -5.148  1.00  0.00     0.002 C 
HETATM   17  C7  UNL     1       9.847  -6.716  -6.249  1.00  0.00     0.011 C 
HETATM   18  C8  UNL     1      11.119  -8.142  -4.685  1.00  0.00     0.011 C 
ENDBRANCH  11  16
ENDBRANCH   3   9
BRANCH   8  19
HETATM   19  C13 UNL     1      12.530 -14.205  -9.099  1.00  0.00    -0.022 C 
HETATM   20  C14 UNL     1      12.205 -15.325 -10.104  1.00  0.00     0.019 C 
HETATM   21  C15 UNL     1      13.451 -13.291  -9.882  1.00  0.00     0.019 C 
HETATM   22  C16 UNL     1      13.263 -14.845  -7.955  1.00  0.00     0.019 C 
ENDBRANCH   8  19
TORSDOF 3
ENDMDL
MODEL 5
REMARK VINA RESULT: -6.135114585      1.801      2.472
REMARK  3 active torsions:
REMARK  status: ('A' for Active; 'I' for Inactive)
REMARK    1  A    between atoms: C3_3  and  N1_4 
REMARK    2  A    between atoms: C5_6  and  C6_7 
REMARK    3  A    between atoms: C12_18  and  C13_19 
ROOT
HETATM    1  C1  UNL     1      12.293 -13.508  -6.269  1.00  0.00     0.051 C 
HETATM    2  C2  UNL     1      11.584 -13.904  -5.055  1.00  0.00    -0.025 A 
HETATM    3  C3  UNL     1      10.580 -13.073  -4.555  1.00  0.00     0.059 A 
HETATM    4  C10 UNL     1       9.916 -13.428  -3.423  1.00  0.00     0.117 A 
HETATM    5  N4  UNL     1      10.191 -14.550  -2.769  1.00  0.00    -0.372 N 
ATOM      6  H4  UNL     1       9.682 -14.800  -1.921  1.00  0.00     0.164 HD
HETATM    7  C11 UNL     1      11.156 -15.342  -3.254  1.00  0.00     0.096 A 
HETATM    8  C12 UNL     1      11.893 -15.085  -4.391  1.00  0.00    -0.027 A 
ENDROOT
BRANCH   3   9
HETATM    9  N1  UNL     1      10.220 -11.838  -5.160  1.00  0.00    -0.318 N 
HETATM   10  C4  UNL     1      10.948 -10.601  -4.982  1.00  0.00     0.157 C 
HETATM   11  C5  UNL     1      10.548  -9.759  -6.185  1.00  0.00     0.106 C 
HETATM   12  N2  UNL     1       9.323 -10.386  -6.590  1.00  0.00    -0.358 N 
HETATM   13  C9  UNL     1       9.141 -11.530  -6.028  1.00  0.00     0.191 C 
ATOM     14  H2  UNL     1       8.667  -9.971  -7.252  1.00  0.00     0.162 HD
HETATM   15  N3  UNL     1       8.020 -12.365  -6.244  1.00  0.00    -0.063 NA
BRANCH  11  16
HETATM   16  C6  UNL     1      10.330  -8.334  -5.724  1.00  0.00     0.002 C 
HETATM   17  C7  UNL     1      10.161  -8.295  -4.223  1.00  0.00     0.011 C 
HETATM   18  C8  UNL     1       9.114  -7.753  -6.392  1.00  0.00     0.011 C 
ENDBRANCH  11  16
ENDBRANCH   3   9
BRANCH   8  19
HETATM   19  C13 UNL     1      12.920 -16.036  -4.839  1.00  0.00    -0.022 C 
HETATM   20  C14 UNL     1      12.764 -17.310  -3.990  1.00  0.00     0.019 C 
HETATM   21  C15 UNL     1      12.732 -16.536  -6.256  1.00  0.00     0.019 C 
HETATM   22  C16 UNL     1      14.323 -15.543  -4.632  1.00  0.00     0.019 C 
ENDBRANCH   8  19
TORSDOF 3
ENDMDL
