MODEL 1
REMARK VINA RESULT: -6.605429913      0.000      0.000
REMARK  2 active torsions:
REMARK  status: ('A' for Active; 'I' for Inactive)
REMARK    1  A    between atoms: C2_2  and  C4_4 
REMARK    2  A    between atoms: C4_4  and  N1_5 
ROOT
HETATM    1  N1  UNL     1      10.668 -10.507  -6.142  1.00  0.00    -0.374 N 
ATOM      2  H1  UNL     1      11.341  -9.762  -6.322  1.00  0.00     0.164 HD
HETATM    3  C5  UNL     1      10.817 -11.452  -6.918  1.00  0.00     0.013 C 
HETATM    4  C6  UNL     1      11.930 -11.314  -7.939  1.00  0.00     0.132 C 
HETATM    5  C7  UNL     1      12.773 -12.517  -7.721  1.00  0.00     0.134 C 
HETATM    6  O1  UNL     1      13.973 -12.381  -7.645  1.00  0.00    -0.298 OA
HETATM    7  C8  UNL     1      12.126 -13.841  -7.604  1.00  0.00     0.119 C 
HETATM    8  C9  UNL     1      10.995 -13.859  -6.567  1.00  0.00     0.153 C 
HETATM    9  C10 UNL     1      10.293 -15.168  -6.699  1.00  0.00     0.041 C 
HETATM   10  C11 UNL     1      10.034 -15.859  -5.391  1.00  0.00     0.008 C 
HETATM   11  C12 UNL     1      11.232 -15.875  -4.488  1.00  0.00     0.007 C 
HETATM   12  C13 UNL     1      11.937 -17.236  -4.529  1.00  0.00     0.011 C 
HETATM   13  C14 UNL     1      12.210 -14.778  -4.765  1.00  0.00     0.237 C 
HETATM   14  N2  UNL     1      11.578 -13.609  -5.289  1.00  0.00    -0.064 N 
ATOM     15  H21 UNL     1      10.893 -13.230  -4.634  1.00  0.00     0.278 HD
ATOM     16  H22 UNL     1      12.221 -12.819  -5.320  1.00  0.00     0.278 HD
HETATM   17  C15 UNL     1      10.070 -12.714  -7.000  1.00  0.00     0.175 C 
HETATM   18  C16 UNL     1       8.839 -12.781  -6.268  1.00  0.00     0.072 C 
HETATM   19  N3  UNL     1       7.849 -12.856  -5.697  1.00  0.00    -0.196 NA
ENDROOT
BRANCH   1  20
HETATM   20  C4  UNL     1       9.824 -10.191  -5.089  1.00  0.00     0.064 C 
BRANCH  20  21
HETATM   21  C2  UNL     1       9.505  -8.708  -4.982  1.00  0.00     0.016 C 
HETATM   22  C1  UNL     1       9.064  -8.117  -6.284  1.00  0.00     0.015 C 
HETATM   23  C3  UNL     1      10.681  -7.935  -4.442  1.00  0.00     0.015 C 
ENDBRANCH  20  21
ENDBRANCH   1  20
TORSDOF 2
ENDMDL
MODEL 2
REMARK VINA RESULT: -6.288397089      2.234      5.925
REMARK  2 active torsions:
REMARK  status: ('A' for Active; 'I' for Inactive)
REMARK    1  A    between atoms: C2_2  and  C4_4 
REMARK    2  A    between atoms: C4_4  and  N1_5 
ROOT
HETATM    1  N1  UNL     1      10.528 -15.895  -4.944  1.00  0.00    -0.374 N 
ATOM      2  H1  UNL     1       9.881 -16.651  -4.717  1.00  0.00     0.164 HD
HETATM    3  C5  UNL     1      10.178 -15.285  -5.956  1.00  0.00     0.013 C 
HETATM    4  C6  UNL     1       8.907 -15.768  -6.626  1.00  0.00     0.132 C 
HETATM    5  C7  UNL     1       8.045 -14.561  -6.681  1.00  0.00     0.134 C 
HETATM    6  O1  UNL     1       6.891 -14.653  -6.330  1.00  0.00    -0.298 OA
HETATM    7  C8  UNL     1       8.617 -13.286  -7.162  1.00  0.00     0.119 C 
HETATM    8  C9  UNL     1       9.917 -12.909  -6.439  1.00  0.00     0.153 C 
HETATM    9  C10 UNL     1      10.499 -11.737  -7.153  1.00  0.00     0.041 C 
HETATM   10  C11 UNL     1      10.951 -10.629  -6.246  1.00  0.00     0.008 C 
HETATM   11  C12 UNL     1       9.942 -10.286  -5.189  1.00  0.00     0.007 C 
HETATM   12  C13 UNL     1       9.157  -9.023  -5.565  1.00  0.00     0.011 C 
HETATM   13  C14 UNL     1       9.000 -11.403  -4.870  1.00  0.00     0.237 C 
HETATM   14  N2  UNL     1       9.597 -12.686  -5.066  1.00  0.00    -0.064 N 
ATOM     15  H21 UNL     1      10.414 -12.813  -4.467  1.00  0.00     0.278 HD
ATOM     16  H22 UNL     1       9.010 -13.431  -4.693  1.00  0.00     0.278 HD
HETATM   17  C15 UNL     1      10.817 -14.140  -6.617  1.00  0.00     0.175 C 
HETATM   18  C16 UNL     1      12.155 -13.826  -6.208  1.00  0.00     0.072 C 
HETATM   19  N3  UNL     1      13.227 -13.560  -5.905  1.00  0.00    -0.196 NA
ENDROOT
BRANCH   1  20
HETATM   20  C4  UNL     1      11.570 -15.823  -4.033  1.00  0.00     0.064 C 
BRANCH  20  21
HETATM   21  C2  UNL     1      11.556 -16.935  -2.995  1.00  0.00     0.016 C 
HETATM   22  C1  UNL     1      10.807 -16.558  -1.755  1.00  0.00     0.015 C 
HETATM   23  C3  UNL     1      12.956 -17.363  -2.636  1.00  0.00     0.015 C 
ENDBRANCH  20  21
ENDBRANCH   1  20
TORSDOF 2
ENDMDL
MODEL 3
REMARK VINA RESULT: -6.258077018      2.303      3.783
REMARK  2 active torsions:
REMARK  status: ('A' for Active; 'I' for Inactive)
REMARK    1  A    between atoms: C2_2  and  C4_4 
REMARK    2  A    between atoms: C4_4  and  N1_5 
ROOT
HETATM    1  N1  UNL     1       8.921 -11.232  -5.614  1.00  0.00    -0.374 N 
ATOM      2  H1  UNL     1       7.979 -10.878  -5.783  1.00  0.00     0.164 HD
HETATM    3  C5  UNL     1       9.102 -12.321  -6.161  1.00  0.00     0.013 C 
HETATM    4  C6  UNL     1       7.931 -12.884  -6.943  1.00  0.00     0.132 C 
HETATM    5  C7  UNL     1       8.479 -13.112  -8.303  1.00  0.00     0.134 C 
HETATM    6  O1  UNL     1       7.845 -12.730  -9.260  1.00  0.00    -0.298 OA
HETATM    7  C8  UNL     1       9.781 -13.799  -8.451  1.00  0.00     0.119 C 
HETATM    8  C9  UNL     1      10.885 -13.168  -7.593  1.00  0.00     0.153 C 
HETATM    9  C10 UNL     1      12.071 -14.069  -7.663  1.00  0.00     0.041 C 
HETATM   10  C11 UNL     1      13.368 -13.356  -7.920  1.00  0.00     0.008 C 
HETATM   11  C12 UNL     1      13.275 -12.349  -9.029  1.00  0.00     0.007 C 
HETATM   12  C13 UNL     1      13.865 -12.904 -10.330  1.00  0.00     0.011 C 
HETATM   13  C14 UNL     1      11.888 -11.840  -9.266  1.00  0.00     0.237 C 
HETATM   14  N2  UNL     1      11.101 -11.842  -8.074  1.00  0.00    -0.064 N 
ATOM     15  H21 UNL     1      11.511 -11.246  -7.355  1.00  0.00     0.278 HD
ATOM     16  H22 UNL     1      10.220 -11.346  -8.208  1.00  0.00     0.278 HD
HETATM   17  C15 UNL     1      10.303 -13.166  -6.173  1.00  0.00     0.175 C 
HETATM   18  C16 UNL     1      11.330 -12.837  -5.228  1.00  0.00     0.072 C 
HETATM   19  N3  UNL     1      12.161 -12.599  -4.476  1.00  0.00    -0.196 NA
ENDROOT
BRANCH   1  20
HETATM   20  C4  UNL     1       9.661 -10.363  -4.828  1.00  0.00     0.064 C 
BRANCH  20  21
HETATM   21  C2  UNL     1       9.269  -8.903  -4.992  1.00  0.00     0.016 C 
HETATM   22  C1  UNL     1       9.020  -8.529  -6.420  1.00  0.00     0.015 C 
HETATM   23  C3  UNL     1      10.311  -7.989  -4.398  1.00  0.00     0.015 C 
ENDBRANCH  20  21
ENDBRANCH   1  20
TORSDOF 2
ENDMDL
MODEL 4
REMARK VINA RESULT: -6.205841704      2.214      3.369
REMARK  2 active torsions:
REMARK  status: ('A' for Active; 'I' for Inactive)
REMARK    1  A    between atoms: C2_2  and  C4_4 
REMARK    2  A    between atoms: C4_4  and  N1_5 
ROOT
HETATM    1  N1  UNL     1      10.707 -10.507  -5.274  1.00  0.00    -0.374 N 
ATOM      2  H1  UNL     1      10.622 -10.194  -4.306  1.00  0.00     0.164 HD
HETATM    3  C5  UNL     1      11.155 -11.653  -5.342  1.00  0.00     0.013 C 
HETATM    4  C6  UNL     1      11.473 -12.331  -4.024  1.00  0.00     0.132 C 
HETATM    5  C7  UNL     1      10.688 -13.590  -4.065  1.00  0.00     0.134 C 
HETATM    6  O1  UNL     1      10.030 -13.898  -3.097  1.00  0.00    -0.298 OA
HETATM    7  C8  UNL     1      10.731 -14.429  -5.281  1.00  0.00     0.119 C 
HETATM    8  C9  UNL     1      10.426 -13.636  -6.559  1.00  0.00     0.153 C 
HETATM    9  C10 UNL     1      10.710 -14.533  -7.716  1.00  0.00     0.041 C 
HETATM   10  C11 UNL     1       9.634 -14.541  -8.765  1.00  0.00     0.008 C 
HETATM   11  C12 UNL     1       8.255 -14.673  -8.189  1.00  0.00     0.007 C 
HETATM   12  C13 UNL     1       7.738 -16.111  -8.319  1.00  0.00     0.011 C 
HETATM   13  C14 UNL     1       8.146 -14.211  -6.771  1.00  0.00     0.237 C 
HETATM   14  N2  UNL     1       9.079 -13.173  -6.468  1.00  0.00    -0.064 N 
ATOM     15  H21 UNL     1       8.926 -12.352  -7.054  1.00  0.00     0.278 HD
ATOM     16  H22 UNL     1       8.889 -12.755  -5.558  1.00  0.00     0.278 HD
HETATM   17  C15 UNL     1      11.427 -12.474  -6.529  1.00  0.00     0.175 C 
HETATM   18  C16 UNL     1      11.423 -11.797  -7.793  1.00  0.00     0.072 C 
HETATM   19  N3  UNL     1      11.433 -11.278  -8.815  1.00  0.00    -0.196 NA
ENDROOT
BRANCH   1  20
HETATM   20  C4  UNL     1      10.288  -9.533  -6.166  1.00  0.00     0.064 C 
BRANCH  20  21
HETATM   21  C2  UNL     1       9.658  -8.320  -5.499  1.00  0.00     0.016 C 
HETATM   22  C1  UNL     1       9.581  -7.136  -6.413  1.00  0.00     0.015 C 
HETATM   23  C3  UNL     1      10.395  -7.946  -4.239  1.00  0.00     0.015 C 
ENDBRANCH  20  21
ENDBRANCH   1  20
TORSDOF 2
ENDMDL
MODEL 5
REMARK VINA RESULT: -6.045010483      3.665      5.113
REMARK  2 active torsions:
REMARK  status: ('A' for Active; 'I' for Inactive)
REMARK    1  A    between atoms: C2_2  and  C4_4 
REMARK    2  A    between atoms: C4_4  and  N1_5 
ROOT
HETATM    1  N1  UNL     1       9.194 -13.467  -5.767  1.00  0.00    -0.374 N 
ATOM      2  H1  UNL     1       9.692 -13.576  -4.883  1.00  0.00     0.164 HD
HETATM    3  C5  UNL     1       9.181 -14.515  -6.414  1.00  0.00     0.013 C 
HETATM    4  C6  UNL     1       9.882 -15.703  -5.784  1.00  0.00     0.132 C 
HETATM    5  C7  UNL     1       8.839 -16.759  -5.742  1.00  0.00     0.134 C 
HETATM    6  O1  UNL     1       8.681 -17.382  -4.718  1.00  0.00    -0.298 OA
HETATM    7  C8  UNL     1       8.026 -17.019  -6.950  1.00  0.00     0.119 C 
HETATM    8  C9  UNL     1       7.391 -15.744  -7.522  1.00  0.00     0.153 C 
HETATM    9  C10 UNL     1       6.787 -16.102  -8.838  1.00  0.00     0.041 C 
HETATM   10  C11 UNL     1       5.391 -15.582  -9.033  1.00  0.00     0.008 C 
HETATM   11  C12 UNL     1       4.504 -15.820  -7.847  1.00  0.00     0.007 C 
HETATM   12  C13 UNL     1       3.583 -17.024  -8.079  1.00  0.00     0.011 C 
HETATM   13  C14 UNL     1       5.249 -15.980  -6.560  1.00  0.00     0.237 C 
HETATM   14  N2  UNL     1       6.473 -15.246  -6.549  1.00  0.00    -0.064 N 
ATOM     15  H21 UNL     1       6.310 -14.246  -6.668  1.00  0.00     0.278 HD
ATOM     16  H22 UNL     1       6.889 -15.228  -5.618  1.00  0.00     0.278 HD
HETATM   17  C15 UNL     1       8.576 -14.791  -7.723  1.00  0.00     0.175 C 
HETATM   18  C16 UNL     1       8.159 -13.654  -8.490  1.00  0.00     0.072 C 
HETATM   19  N3  UNL     1       7.825 -12.761  -9.126  1.00  0.00    -0.196 NA
ENDROOT
BRANCH   1  20
HETATM   20  C4  UNL     1       8.710 -12.178  -5.924  1.00  0.00     0.064 C 
BRANCH  20  21
HETATM   21  C2  UNL     1       9.484 -11.130  -5.140  1.00  0.00     0.016 C 
HETATM   22  C1  UNL     1       9.219  -9.738  -5.621  1.00  0.00     0.015 C 
HETATM   23  C3  UNL     1      10.964 -11.409  -5.171  1.00  0.00     0.015 C 
ENDBRANCH  20  21
ENDBRANCH   1  20
TORSDOF 2
ENDMDL
