MODEL 1
REMARK VINA RESULT: -6.537067466      0.000      0.000
REMARK  4 active torsions:
REMARK  status: ('A' for Active; 'I' for Inactive)
REMARK    1  A    between atoms: N1_2  and  C2_3 
REMARK    2  A    between atoms: N1_2  and  C7_14 
REMARK    3  A    between atoms: C2_3  and  S2_5 
REMARK    4  A    between atoms: S2_5  and  C3_6 
ROOT
HETATM    1  C2  UNL     1      10.520  -7.337  -4.642  1.00  0.00     0.144 C 
HETATM    2  S1  UNL     1      10.079  -6.607  -6.009  1.00  0.00    -0.052 SA
ENDROOT
BRANCH   1   3
HETATM    3  N1  UNL     1      11.524  -6.908  -3.792  1.00  0.00    -0.366 N 
HETATM    4  C1  UNL     1      12.888  -6.787  -4.414  1.00  0.00     0.151 C 
BRANCH   3   5
HETATM    5  C7  UNL     1      11.440  -6.543  -2.424  1.00  0.00     0.085 C 
HETATM    6  C8  UNL     1      11.869  -5.070  -2.300  1.00  0.00     0.025 C 
HETATM    7  C9  UNL     1      13.230  -5.046  -1.677  1.00  0.00     0.002 C 
HETATM    8  C10 UNL     1      13.017  -5.414  -0.193  1.00  0.00     0.000 C 
HETATM    9  C11 UNL     1      12.323  -6.749  -0.105  1.00  0.00     0.002 C 
HETATM   10  C12 UNL     1      12.228  -7.387  -1.505  1.00  0.00     0.025 C 
ENDBRANCH   3   5
ENDBRANCH   1   3
BRANCH   1  11
HETATM   11  S2  UNL     1       9.621  -8.868  -4.241  1.00  0.00    -0.024 SA
BRANCH  11  12
HETATM   12  C3  UNL     1       9.902 -10.082  -5.505  1.00  0.00     0.151 A 
HETATM   13  N2  UNL     1      11.044 -10.225  -6.173  1.00  0.00    -0.346 N 
HETATM   14  C4  UNL     1      11.226 -11.160  -7.130  1.00  0.00     0.091 A 
ATOM     15  H2  UNL     1      11.819  -9.600  -5.952  1.00  0.00     0.167 HD
HETATM   16  C5  UNL     1      10.193 -12.012  -7.440  1.00  0.00     0.034 A 
HETATM   17  C6  UNL     1       9.005 -11.877  -6.757  1.00  0.00     0.091 A 
HETATM   18  N3  UNL     1       8.899 -10.921  -5.815  1.00  0.00    -0.346 N 
ATOM     19  H3  UNL     1       8.016 -10.828  -5.314  1.00  0.00     0.167 HD
ENDBRANCH  11  12
ENDBRANCH   1  11
TORSDOF 4
ENDMDL
MODEL 2
REMARK VINA RESULT: -5.888685902      1.376      1.906
REMARK  4 active torsions:
REMARK  status: ('A' for Active; 'I' for Inactive)
REMARK    1  A    between atoms: N1_2  and  C2_3 
REMARK    2  A    between atoms: N1_2  and  C7_14 
REMARK    3  A    between atoms: C2_3  and  S2_5 
REMARK    4  A    between atoms: S2_5  and  C3_6 
ROOT
HETATM    1  C2  UNL     1      10.149  -8.393  -5.277  1.00  0.00     0.144 C 
HETATM    2  S1  UNL     1       8.898  -8.231  -6.280  1.00  0.00    -0.052 SA
ENDROOT
BRANCH   1   3
HETATM    3  N1  UNL     1      10.865  -7.351  -4.714  1.00  0.00    -0.366 N 
HETATM    4  C1  UNL     1      10.597  -5.993  -5.301  1.00  0.00     0.151 C 
BRANCH   3   5
HETATM    5  C7  UNL     1      11.797  -7.384  -3.646  1.00  0.00     0.085 C 
HETATM    6  C8  UNL     1      11.006  -7.311  -2.327  1.00  0.00     0.025 C 
HETATM    7  C9  UNL     1      11.202  -5.941  -1.756  1.00  0.00     0.002 C 
HETATM    8  C10 UNL     1      12.652  -5.910  -1.230  1.00  0.00     0.000 C 
HETATM    9  C11 UNL     1      13.598  -6.250  -2.353  1.00  0.00     0.002 C 
HETATM   10  C12 UNL     1      12.828  -6.328  -3.685  1.00  0.00     0.025 C 
ENDBRANCH   3   5
ENDBRANCH   1   3
BRANCH   1  11
HETATM   11  S2  UNL     1      10.650 -10.104  -4.911  1.00  0.00    -0.024 SA
BRANCH  11  12
HETATM   12  C3  UNL     1       9.818 -11.225  -6.008  1.00  0.00     0.151 A 
HETATM   13  N2  UNL     1      10.188 -11.466  -7.264  1.00  0.00    -0.346 N 
HETATM   14  C4  UNL     1       9.534 -12.325  -8.073  1.00  0.00     0.091 A 
ATOM     15  H2  UNL     1      11.005 -10.978  -7.632  1.00  0.00     0.167 HD
HETATM   16  C5  UNL     1       8.432 -12.991  -7.593  1.00  0.00     0.034 A 
HETATM   17  C6  UNL     1       8.035 -12.753  -6.296  1.00  0.00     0.091 A 
HETATM   18  N3  UNL     1       8.739 -11.881  -5.548  1.00  0.00    -0.346 N 
ATOM     19  H3  UNL     1       8.439 -11.710  -4.589  1.00  0.00     0.167 HD
ENDBRANCH  11  12
ENDBRANCH   1  11
TORSDOF 4
ENDMDL
MODEL 3
REMARK VINA RESULT: -5.870095851      3.390      5.052
REMARK  4 active torsions:
REMARK  status: ('A' for Active; 'I' for Inactive)
REMARK    1  A    between atoms: N1_2  and  C2_3 
REMARK    2  A    between atoms: N1_2  and  C7_14 
REMARK    3  A    between atoms: C2_3  and  S2_5 
REMARK    4  A    between atoms: S2_5  and  C3_6 
ROOT
HETATM    1  C2  UNL     1       9.391 -11.841  -5.572  1.00  0.00     0.144 C 
HETATM    2  S1  UNL     1       8.439 -12.524  -6.678  1.00  0.00    -0.052 SA
ENDROOT
BRANCH   1   3
HETATM    3  N1  UNL     1      10.086 -10.656  -5.735  1.00  0.00    -0.366 N 
HETATM    4  C1  UNL     1      11.166 -10.680  -6.781  1.00  0.00     0.151 C 
BRANCH   3   5
HETATM    5  C7  UNL     1       9.905  -9.416  -5.071  1.00  0.00     0.085 C 
HETATM    6  C8  UNL     1       8.921  -8.573  -5.903  1.00  0.00     0.025 C 
HETATM    7  C9  UNL     1       9.709  -7.493  -6.578  1.00  0.00     0.002 C 
HETATM    8  C10 UNL     1      10.084  -6.492  -5.465  1.00  0.00     0.000 C 
HETATM    9  C11 UNL     1      10.836  -7.214  -4.376  1.00  0.00     0.002 C 
HETATM   10  C12 UNL     1      11.145  -8.657  -4.817  1.00  0.00     0.025 C 
ENDBRANCH   3   5
ENDBRANCH   1   3
BRANCH   1  11
HETATM   11  S2  UNL     1       9.566 -12.756  -4.008  1.00  0.00    -0.024 SA
BRANCH  11  12
HETATM   12  C3  UNL     1      10.776 -14.040  -4.191  1.00  0.00     0.151 A 
HETATM   13  N2  UNL     1      11.837 -13.969  -4.992  1.00  0.00    -0.346 N 
HETATM   14  C4  UNL     1      12.741 -14.964  -5.110  1.00  0.00     0.091 A 
ATOM     15  H2  UNL     1      11.974 -13.121  -5.543  1.00  0.00     0.167 HD
HETATM   16  C5  UNL     1      12.572 -16.113  -4.374  1.00  0.00     0.034 A 
HETATM   17  C6  UNL     1      11.480 -16.203  -3.540  1.00  0.00     0.091 A 
HETATM   18  N3  UNL     1      10.621 -15.168  -3.477  1.00  0.00    -0.346 N 
ATOM     19  H3  UNL     1       9.815 -15.242  -2.857  1.00  0.00     0.167 HD
ENDBRANCH  11  12
ENDBRANCH   1  11
TORSDOF 4
ENDMDL
MODEL 4
REMARK VINA RESULT: -5.851653510      3.318      5.191
REMARK  4 active torsions:
REMARK  status: ('A' for Active; 'I' for Inactive)
REMARK    1  A    between atoms: N1_2  and  C2_3 
REMARK    2  A    between atoms: N1_2  and  C7_14 
REMARK    3  A    between atoms: C2_3  and  S2_5 
REMARK    4  A    between atoms: S2_5  and  C3_6 
ROOT
HETATM    1  C2  UNL     1      11.036 -11.588  -6.047  1.00  0.00     0.144 C 
HETATM    2  S1  UNL     1      11.901 -11.534  -7.405  1.00  0.00    -0.052 SA
ENDROOT
BRANCH   1   3
HETATM    3  N1  UNL     1       9.890 -10.854  -5.797  1.00  0.00    -0.366 N 
HETATM    4  C1  UNL     1       8.614 -11.452  -6.321  1.00  0.00     0.151 C 
BRANCH   3   5
HETATM    5  C7  UNL     1       9.750  -9.630  -5.095  1.00  0.00     0.085 C 
HETATM    6  C8  UNL     1       8.843  -8.707  -5.930  1.00  0.00     0.025 C 
HETATM    7  C9  UNL     1       9.712  -7.649  -6.536  1.00  0.00     0.002 C 
HETATM    8  C10 UNL     1      10.098  -6.708  -5.376  1.00  0.00     0.000 C 
HETATM    9  C11 UNL     1      10.769  -7.507  -4.288  1.00  0.00     0.002 C 
HETATM   10  C12 UNL     1      11.018  -8.949  -4.770  1.00  0.00     0.025 C 
ENDBRANCH   3   5
ENDBRANCH   1   3
BRANCH   1  11
HETATM   11  S2  UNL     1      11.674 -12.692  -4.748  1.00  0.00    -0.024 SA
BRANCH  11  12
HETATM   12  C3  UNL     1      10.902 -14.285  -4.875  1.00  0.00     0.151 A 
HETATM   13  N2  UNL     1      10.144 -14.677  -5.897  1.00  0.00    -0.346 N 
HETATM   14  C4  UNL     1       9.571 -15.896  -5.965  1.00  0.00     0.091 A 
ATOM     15  H2  UNL     1       9.990 -14.024  -6.666  1.00  0.00     0.167 HD
HETATM   16  C5  UNL     1       9.769 -16.788  -4.938  1.00  0.00     0.034 A 
HETATM   17  C6  UNL     1      10.550 -16.399  -3.873  1.00  0.00     0.091 A 
HETATM   18  N3  UNL     1      11.089 -15.164  -3.877  1.00  0.00    -0.346 N 
ATOM     19  H3  UNL     1      11.667 -14.884  -3.085  1.00  0.00     0.167 HD
ENDBRANCH  11  12
ENDBRANCH   1  11
TORSDOF 4
ENDMDL
MODEL 5
REMARK VINA RESULT: -5.846582733      1.653      6.699
REMARK  4 active torsions:
REMARK  status: ('A' for Active; 'I' for Inactive)
REMARK    1  A    between atoms: N1_2  and  C2_3 
REMARK    2  A    between atoms: N1_2  and  C7_14 
REMARK    3  A    between atoms: C2_3  and  S2_5 
REMARK    4  A    between atoms: S2_5  and  C3_6 
ROOT
HETATM    1  C2  UNL     1      10.510  -7.520  -4.728  1.00  0.00     0.144 C 
HETATM    2  S1  UNL     1      10.672  -6.095  -5.462  1.00  0.00    -0.052 SA
ENDROOT
BRANCH   1   3
HETATM    3  N1  UNL     1      10.035  -8.677  -5.320  1.00  0.00    -0.366 N 
HETATM    4  C1  UNL     1       8.913  -8.485  -6.302  1.00  0.00     0.151 C 
BRANCH   3   5
HETATM    5  C7  UNL     1      10.475 -10.014  -5.147  1.00  0.00     0.085 C 
HETATM    6  C8  UNL     1      11.212 -10.439  -6.431  1.00  0.00     0.025 C 
HETATM    7  C9  UNL     1      10.321 -11.387  -7.171  1.00  0.00     0.002 C 
HETATM    8  C10 UNL     1      10.352 -12.704  -6.367  1.00  0.00     0.000 C 
HETATM    9  C11 UNL     1       9.919 -12.433  -4.948  1.00  0.00     0.002 C 
HETATM   10  C12 UNL     1       9.412 -10.984  -4.820  1.00  0.00     0.025 C 
ENDBRANCH   3   5
ENDBRANCH   1   3
BRANCH   1  11
HETATM   11  S2  UNL     1      10.967  -7.556  -2.966  1.00  0.00    -0.024 SA
BRANCH  11  12
HETATM   12  C3  UNL     1      12.098  -6.236  -2.609  1.00  0.00     0.151 A 
HETATM   13  N2  UNL     1      11.836  -4.945  -2.799  1.00  0.00    -0.346 N 
HETATM   14  C4  UNL     1      12.718  -3.964  -2.517  1.00  0.00     0.091 A 
ATOM     15  H2  UNL     1      10.924  -4.685  -3.175  1.00  0.00     0.167 HD
HETATM   16  C5  UNL     1      13.951  -4.297  -2.007  1.00  0.00     0.034 A 
HETATM   17  C6  UNL     1      14.238  -5.629  -1.805  1.00  0.00     0.091 A 
HETATM   18  N3  UNL     1      13.306  -6.551  -2.111  1.00  0.00    -0.346 N 
ATOM     19  H3  UNL     1      13.527  -7.535  -1.958  1.00  0.00     0.167 HD
ENDBRANCH  11  12
ENDBRANCH   1  11
TORSDOF 4
ENDMDL
