MODEL 1
REMARK VINA RESULT: -5.649068703      0.000      0.000
REMARK  2 active torsions:
REMARK  status: ('A' for Active; 'I' for Inactive)
REMARK    1  A    between atoms: C2_2  and  C3_3 
REMARK    2  A    between atoms: C12_13  and  O2_14 
ROOT
HETATM    1  C3  UNL     1       8.814 -14.784  -7.111  1.00  0.00     0.023 C 
HETATM    2  C4  UNL     1       7.949 -15.961  -6.637  1.00  0.00     0.008 C 
HETATM    3  C5  UNL     1       8.995 -16.818  -6.008  1.00  0.00     0.004 C 
HETATM    4  C6  UNL     1      10.048 -15.885  -5.461  1.00  0.00     0.042 C 
HETATM    5  C7  UNL     1       9.816 -14.512  -6.088  1.00  0.00     0.102 C 
HETATM    6  O1  UNL     1       9.616 -13.522  -5.176  1.00  0.00    -0.359 OA
HETATM    7  C8  UNL     1      10.454 -12.456  -5.371  1.00  0.00     0.107 C 
HETATM    8  C9  UNL     1      11.707 -12.510  -4.501  1.00  0.00     0.045 C 
HETATM    9  C10 UNL     1      12.872 -13.109  -5.305  1.00  0.00     0.007 C 
HETATM   10  C11 UNL     1      12.302 -14.462  -5.768  1.00  0.00     0.047 C 
HETATM   11  C12 UNL     1      11.172 -14.145  -6.731  1.00  0.00     0.132 C 
HETATM   12  C13 UNL     1      10.932 -12.653  -6.767  1.00  0.00     0.082 C 
HETATM   13  N1  UNL     1      11.061 -11.736  -7.635  1.00  0.00    -0.269 N 
ATOM     14  H1  UNL     1      11.397 -11.950  -8.575  1.00  0.00     0.194 HD
HETATM   15  O3  UNL     1      10.736 -10.436  -7.276  1.00  0.00    -0.280 OA
HETATM   16  C14 UNL     1      10.595 -10.055  -5.921  1.00  0.00     0.204 C 
HETATM   17  C15 UNL     1       9.856 -11.108  -5.118  1.00  0.00     0.073 C 
ENDROOT
BRANCH   1  18
HETATM   18  C2  UNL     1       7.875 -13.760  -7.584  1.00  0.00     0.003 C 
HETATM   19  C1  UNL     1       8.054 -13.339  -9.022  1.00  0.00     0.005 C 
ENDBRANCH   1  18
BRANCH  11  20
HETATM   20  O2  UNL     1      11.325 -14.687  -7.971  1.00  0.00    -0.381 OA
ATOM     21  H2  UNL     1      10.494 -14.880  -8.389  1.00  0.00     0.211 HD
ENDBRANCH  11  20
TORSDOF 2
ENDMDL
MODEL 2
REMARK VINA RESULT: -5.646786470      2.231      3.771
REMARK  2 active torsions:
REMARK  status: ('A' for Active; 'I' for Inactive)
REMARK    1  A    between atoms: C2_2  and  C3_3 
REMARK    2  A    between atoms: C12_13  and  O2_14 
ROOT
HETATM    1  C3  UNL     1      11.617 -16.016  -3.966  1.00  0.00     0.023 C 
HETATM    2  C4  UNL     1      12.831 -16.607  -3.234  1.00  0.00     0.008 C 
HETATM    3  C5  UNL     1      13.779 -16.754  -4.376  1.00  0.00     0.004 C 
HETATM    4  C6  UNL     1      13.463 -15.642  -5.347  1.00  0.00     0.042 C 
HETATM    5  C7  UNL     1      12.100 -15.070  -4.964  1.00  0.00     0.102 C 
HETATM    6  O1  UNL     1      12.125 -13.737  -4.692  1.00  0.00    -0.359 OA
HETATM    7  C8  UNL     1      11.192 -13.040  -5.415  1.00  0.00     0.107 C 
HETATM    8  C9  UNL     1      11.761 -12.423  -6.691  1.00  0.00     0.045 C 
HETATM    9  C10 UNL     1      11.470 -13.344  -7.887  1.00  0.00     0.007 C 
HETATM   10  C11 UNL     1      12.087 -14.682  -7.441  1.00  0.00     0.047 C 
HETATM   11  C12 UNL     1      11.264 -15.162  -6.259  1.00  0.00     0.132 C 
HETATM   12  C13 UNL     1      10.256 -14.104  -5.873  1.00  0.00     0.082 C 
HETATM   13  N1  UNL     1       8.990 -14.010  -5.888  1.00  0.00    -0.269 N 
ATOM     14  H1  UNL     1       8.413 -14.785  -6.216  1.00  0.00     0.194 HD
HETATM   15  O3  UNL     1       8.410 -12.830  -5.446  1.00  0.00    -0.280 OA
HETATM   16  C14 UNL     1       9.163 -11.641  -5.305  1.00  0.00     0.204 C 
HETATM   17  C15 UNL     1      10.525 -11.912  -4.695  1.00  0.00     0.073 C 
ENDROOT
BRANCH   1  18
HETATM   18  C2  UNL     1      10.663 -15.635  -2.919  1.00  0.00     0.003 C 
HETATM   19  C1  UNL     1      10.663 -16.520  -1.696  1.00  0.00     0.005 C 
ENDBRANCH   1  18
BRANCH  11  20
HETATM   20  O2  UNL     1      10.702 -16.391  -6.431  1.00  0.00    -0.381 OA
ATOM     21  H2  UNL     1      10.283 -16.484  -7.278  1.00  0.00     0.211 HD
ENDBRANCH  11  20
TORSDOF 2
ENDMDL
MODEL 3
REMARK VINA RESULT: -5.581208206      2.006      4.317
REMARK  2 active torsions:
REMARK  status: ('A' for Active; 'I' for Inactive)
REMARK    1  A    between atoms: C2_2  and  C3_3 
REMARK    2  A    between atoms: C12_13  and  O2_14 
ROOT
HETATM    1  C3  UNL     1       9.537 -12.005  -6.003  1.00  0.00     0.023 C 
HETATM    2  C4  UNL     1      10.584 -11.649  -4.937  1.00  0.00     0.008 C 
HETATM    3  C5  UNL     1      10.630 -12.931  -4.177  1.00  0.00     0.004 C 
HETATM    4  C6  UNL     1      10.341 -14.032  -5.168  1.00  0.00     0.042 C 
HETATM    5  C7  UNL     1       9.761 -13.383  -6.422  1.00  0.00     0.102 C 
HETATM    6  O1  UNL     1      10.469 -13.651  -7.552  1.00  0.00    -0.359 OA
HETATM    7  C8  UNL     1       9.680 -14.149  -8.556  1.00  0.00     0.107 C 
HETATM    8  C9  UNL     1       9.687 -15.674  -8.623  1.00  0.00     0.045 C 
HETATM    9  C10 UNL     1       8.464 -16.232  -7.878  1.00  0.00     0.007 C 
HETATM   10  C11 UNL     1       8.609 -15.609  -6.477  1.00  0.00     0.047 C 
HETATM   11  C12 UNL     1       8.420 -14.112  -6.651  1.00  0.00     0.132 C 
HETATM   12  C13 UNL     1       8.305 -13.777  -8.121  1.00  0.00     0.082 C 
HETATM   13  N1  UNL     1       7.393 -13.326  -8.879  1.00  0.00    -0.269 N 
ATOM     14  H1  UNL     1       6.472 -13.093  -8.506  1.00  0.00     0.194 HD
HETATM   15  O3  UNL     1       7.676 -13.157 -10.226  1.00  0.00    -0.280 OA
HETATM   16  C14 UNL     1       8.800 -13.769 -10.829  1.00  0.00     0.204 C 
HETATM   17  C15 UNL     1      10.024 -13.692  -9.938  1.00  0.00     0.073 C 
ENDROOT
BRANCH   1  18
HETATM   18  C2  UNL     1       9.533 -10.885  -6.951  1.00  0.00     0.003 C 
HETATM   19  C1  UNL     1       9.476  -9.513  -6.326  1.00  0.00     0.005 C 
ENDBRANCH   1  18
BRANCH  11  20
HETATM   20  O2  UNL     1       7.406 -13.587  -5.908  1.00  0.00    -0.381 OA
ATOM     21  H2  UNL     1       6.549 -13.834  -6.235  1.00  0.00     0.211 HD
ENDBRANCH  11  20
TORSDOF 2
ENDMDL
MODEL 4
REMARK VINA RESULT: -5.558619643      1.860      3.412
REMARK  2 active torsions:
REMARK  status: ('A' for Active; 'I' for Inactive)
REMARK    1  A    between atoms: C2_2  and  C3_3 
REMARK    2  A    between atoms: C12_13  and  O2_14 
ROOT
HETATM    1  C3  UNL     1      10.544 -15.632  -4.924  1.00  0.00     0.023 C 
HETATM    2  C4  UNL     1      11.515 -16.818  -5.022  1.00  0.00     0.008 C 
HETATM    3  C5  UNL     1      11.323 -17.196  -6.451  1.00  0.00     0.004 C 
HETATM    4  C6  UNL     1      10.999 -15.924  -7.196  1.00  0.00     0.042 C 
HETATM    5  C7  UNL     1      10.634 -14.864  -6.159  1.00  0.00     0.102 C 
HETATM    6  O1  UNL     1      11.413 -13.749  -6.221  1.00  0.00    -0.359 OA
HETATM    7  C8  UNL     1      10.672 -12.600  -6.313  1.00  0.00     0.107 C 
HETATM    8  C9  UNL     1      10.494 -12.116  -7.750  1.00  0.00     0.045 C 
HETATM    9  C10 UNL     1       9.142 -12.600  -8.297  1.00  0.00     0.007 C 
HETATM   10  C11 UNL     1       9.223 -14.125  -8.095  1.00  0.00     0.047 C 
HETATM   11  C12 UNL     1       9.242 -14.359  -6.595  1.00  0.00     0.132 C 
HETATM   12  C13 UNL     1       9.318 -13.034  -5.870  1.00  0.00     0.082 C 
HETATM   13  N1  UNL     1       8.550 -12.374  -5.105  1.00  0.00    -0.269 N 
ATOM     14  H1  UNL     1       7.634 -12.739  -4.845  1.00  0.00     0.194 HD
HETATM   15  O3  UNL     1       8.987 -11.146  -4.629  1.00  0.00    -0.280 OA
HETATM   16  C14 UNL     1      10.079 -10.470  -5.220  1.00  0.00     0.204 C 
HETATM   17  C15 UNL     1      11.208 -11.423  -5.563  1.00  0.00     0.073 C 
ENDROOT
BRANCH   1  18
HETATM   18  C2  UNL     1      10.776 -15.030  -3.606  1.00  0.00     0.003 C 
HETATM   19  C1  UNL     1      10.718 -15.990  -2.442  1.00  0.00     0.005 C 
ENDBRANCH   1  18
BRANCH  11  20
HETATM   20  O2  UNL     1       8.232 -15.153  -6.140  1.00  0.00    -0.381 OA
ATOM     21  H2  UNL     1       8.538 -16.011  -5.871  1.00  0.00     0.211 HD
ENDBRANCH  11  20
TORSDOF 2
ENDMDL
MODEL 5
REMARK VINA RESULT: -5.317543411      2.441      5.429
REMARK  2 active torsions:
REMARK  status: ('A' for Active; 'I' for Inactive)
REMARK    1  A    between atoms: C2_2  and  C3_3 
REMARK    2  A    between atoms: C12_13  and  O2_14 
ROOT
HETATM    1  C3  UNL     1      10.572  -8.688  -5.256  1.00  0.00     0.023 C 
HETATM    2  C4  UNL     1       9.847  -7.334  -5.258  1.00  0.00     0.008 C 
HETATM    3  C5  UNL     1       9.111  -7.433  -6.551  1.00  0.00     0.004 C 
HETATM    4  C6  UNL     1       8.797  -8.895  -6.760  1.00  0.00     0.042 C 
HETATM    5  C7  UNL     1       9.663  -9.695  -5.789  1.00  0.00     0.102 C 
HETATM    6  O1  UNL     1       8.948 -10.490  -4.948  1.00  0.00    -0.359 OA
HETATM    7  C8  UNL     1       9.378 -11.791  -4.968  1.00  0.00     0.107 C 
HETATM    8  C9  UNL     1       8.567 -12.676  -5.913  1.00  0.00     0.045 C 
HETATM    9  C10 UNL     1       9.291 -12.795  -7.263  1.00  0.00     0.007 C 
HETATM   10  C11 UNL     1       9.464 -11.324  -7.684  1.00  0.00     0.047 C 
HETATM   11  C12 UNL     1      10.421 -10.700  -6.683  1.00  0.00     0.132 C 
HETATM   12  C13 UNL     1      10.730 -11.690  -5.583  1.00  0.00     0.082 C 
HETATM   13  N1  UNL     1      11.761 -12.321  -5.196  1.00  0.00    -0.269 N 
ATOM     14  H1  UNL     1      12.656 -12.199  -5.670  1.00  0.00     0.194 HD
HETATM   15  O3  UNL     1      11.642 -13.180  -4.114  1.00  0.00    -0.280 OA
HETATM   16  C14 UNL     1      10.379 -13.623  -3.655  1.00  0.00     0.204 C 
HETATM   17  C15 UNL     1       9.360 -12.499  -3.652  1.00  0.00     0.073 C 
ENDROOT
BRANCH   1  18
HETATM   18  C2  UNL     1      11.190  -8.810  -3.931  1.00  0.00     0.003 C 
HETATM   19  C1  UNL     1      11.300  -7.523  -3.151  1.00  0.00     0.005 C 
ENDBRANCH   1  18
BRANCH  11  20
HETATM   20  O2  UNL     1      11.541 -10.162  -7.241  1.00  0.00    -0.381 OA
ATOM     21  H2  UNL     1      11.894 -10.700  -7.940  1.00  0.00     0.211 HD
ENDBRANCH  11  20
TORSDOF 2
ENDMDL
