MODEL 1
REMARK VINA RESULT: -7.244990768      0.000      0.000
REMARK  7 active torsions:
REMARK  status: ('A' for Active; 'I' for Inactive)
REMARK    1  A    between atoms: C3_3  and  N1_4 
REMARK    2  A    between atoms: N1_4  and  C4_5 
REMARK    3  A    between atoms: N1_4  and  C6_9 
REMARK    4  A    between atoms: C4_5  and  C5_6 
REMARK    5  A    between atoms: C5_6  and  O1_7 
REMARK    6  A    between atoms: N2_19  and  C12_20 
REMARK    7  A    between atoms: C14_22  and  C15_23 
REMARK       I    between atoms: C15_23  and  N3_25 
ROOT
HETATM    1  C1  UNL     1      10.581  -0.107  17.889  1.00  0.00     0.014 C 
HETATM    2  C2  UNL     1      10.519   1.097  17.781  1.00  0.00    -0.097 C 
HETATM    3  C3  UNL     1      10.464   2.544  17.637  1.00  0.00     0.221 C 
ENDROOT
BRANCH   3   4
HETATM    4  N1  UNL     1       9.039   2.840  17.256  1.00  0.00    -0.347 N 
BRANCH   4   5
HETATM    5  C4  UNL     1       8.731   2.546  15.916  1.00  0.00     0.091 C 
BRANCH   5   6
HETATM    6  C5  UNL     1       7.497   1.753  15.632  1.00  0.00     0.208 C 
BRANCH   6   7
HETATM    7  O1  UNL     1       7.752   0.386  15.631  1.00  0.00    -0.396 OA
ATOM      8  H1  UNL     1       8.505   0.169  15.095  1.00  0.00     0.209 HD
ENDBRANCH   6   7
ENDBRANCH   5   6
ENDBRANCH   4   5
BRANCH   4   9
HETATM    9  C6  UNL     1       8.295   3.411  18.297  1.00  0.00     0.037 A 
HETATM   10  C7  UNL     1       7.531   2.720  19.176  1.00  0.00     0.051 A 
HETATM   11  C8  UNL     1       6.791   3.390  20.160  1.00  0.00     0.041 A 
HETATM   12 BR1  UNL     1       5.776   2.217  21.311  1.00  0.00    -0.049 Br
HETATM   13  C9  UNL     1       6.771   4.762  20.322  1.00  0.00     0.075 A 
HETATM   14  C10 UNL     1       7.571   5.441  19.406  1.00  0.00     0.110 A 
HETATM   15  N4  UNL     1       5.946   5.381  21.252  1.00  0.00    -0.335 N 
HETATM   16  C11 UNL     1       8.283   4.810  18.458  1.00  0.00     0.057 A 
HETATM   17  S1  UNL     1       7.715   7.155  19.602  1.00  0.00     0.268 S 
HETATM   18  O2  UNL     1       8.998   7.577  20.207  1.00  0.00    -0.200 OA
HETATM   19  O3  UNL     1       7.490   7.811  18.248  1.00  0.00    -0.200 OA
HETATM   20  N2  UNL     1       6.402   7.632  20.639  1.00  0.00    -0.252 N 
HETATM   21  C14 UNL     1       5.760   6.644  21.428  1.00  0.00     0.187 C 
ATOM     22  H4  UNL     1       5.424   4.761  21.871  1.00  0.00     0.168 HD
BRANCH  20  23
HETATM   23  C12 UNL     1       6.059   9.016  20.559  1.00  0.00     0.139 C 
HETATM   24  C13 UNL     1       6.999   9.938  21.307  1.00  0.00     0.028 C 
ENDBRANCH  20  23
BRANCH  21  25
HETATM   25  C15 UNL     1       4.889   7.094  22.492  1.00  0.00     0.287 C 
HETATM   26  O4  UNL     1       3.623   7.065  22.303  1.00  0.00    -0.264 OA
HETATM   27  N3  UNL     1       5.261   7.577  23.747  1.00  0.00    -0.354 N 
HETATM   28  C16 UNL     1       6.585   7.727  24.254  1.00  0.00     0.152 C 
HETATM   29  C17 UNL     1       4.186   7.991  24.688  1.00  0.00     0.152 C 
ENDBRANCH  21  25
ENDBRANCH   4   9
ENDBRANCH   3   4
TORSDOF 7
ENDMDL
MODEL 2
REMARK VINA RESULT: -7.128242881      0.853      1.164
REMARK  7 active torsions:
REMARK  status: ('A' for Active; 'I' for Inactive)
REMARK    1  A    between atoms: C3_3  and  N1_4 
REMARK    2  A    between atoms: N1_4  and  C4_5 
REMARK    3  A    between atoms: N1_4  and  C6_9 
REMARK    4  A    between atoms: C4_5  and  C5_6 
REMARK    5  A    between atoms: C5_6  and  O1_7 
REMARK    6  A    between atoms: N2_19  and  C12_20 
REMARK    7  A    between atoms: C14_22  and  C15_23 
REMARK       I    between atoms: C15_23  and  N3_25 
ROOT
HETATM    1  C1  UNL     1      10.579  -0.064  17.885  1.00  0.00     0.014 C 
HETATM    2  C2  UNL     1      10.518   1.138  17.767  1.00  0.00    -0.097 C 
HETATM    3  C3  UNL     1      10.464   2.584  17.611  1.00  0.00     0.221 C 
ENDROOT
BRANCH   3   4
HETATM    4  N1  UNL     1       9.032   2.882  17.259  1.00  0.00    -0.347 N 
BRANCH   4   5
HETATM    5  C4  UNL     1       8.712   2.647  15.911  1.00  0.00     0.091 C 
BRANCH   5   6
HETATM    6  C5  UNL     1       7.484   1.852  15.604  1.00  0.00     0.208 C 
BRANCH   6   7
HETATM    7  O1  UNL     1       7.724   0.484  15.681  1.00  0.00    -0.396 OA
ATOM      8  H1  UNL     1       7.382   0.025  14.923  1.00  0.00     0.209 HD
ENDBRANCH   6   7
ENDBRANCH   5   6
ENDBRANCH   4   5
BRANCH   4   9
HETATM    9  C6  UNL     1       8.294   3.396  18.334  1.00  0.00     0.037 A 
HETATM   10  C7  UNL     1       7.542   2.658  19.184  1.00  0.00     0.051 A 
HETATM   11  C8  UNL     1       6.807   3.273  20.207  1.00  0.00     0.041 A 
HETATM   12 BR1  UNL     1       5.809   2.039  21.307  1.00  0.00    -0.049 Br
HETATM   13  C9  UNL     1       6.780   4.636  20.437  1.00  0.00     0.075 A 
HETATM   14  C10 UNL     1       7.568   5.364  19.549  1.00  0.00     0.110 A 
HETATM   15  N4  UNL     1       5.960   5.203  21.403  1.00  0.00    -0.335 N 
HETATM   16  C11 UNL     1       8.275   4.786  18.564  1.00  0.00     0.057 A 
HETATM   17  S1  UNL     1       7.704   7.067  19.828  1.00  0.00     0.268 S 
HETATM   18  O2  UNL     1       8.990   7.467  20.442  1.00  0.00    -0.200 OA
HETATM   19  O3  UNL     1       7.463   7.788  18.510  1.00  0.00    -0.200 OA
HETATM   20  N2  UNL     1       6.398   7.485  20.898  1.00  0.00    -0.252 N 
HETATM   21  C14 UNL     1       5.768   6.455  21.642  1.00  0.00     0.187 C 
ATOM     22  H4  UNL     1       5.448   4.550  21.995  1.00  0.00     0.168 HD
BRANCH  20  23
HETATM   23  C12 UNL     1       6.046   8.868  20.889  1.00  0.00     0.139 C 
HETATM   24  C13 UNL     1       6.868   9.729  21.826  1.00  0.00     0.028 C 
ENDBRANCH  20  23
BRANCH  21  25
HETATM   25  C15 UNL     1       4.904   6.847  22.735  1.00  0.00     0.287 C 
HETATM   26  O4  UNL     1       5.401   6.931  23.911  1.00  0.00    -0.264 OA
HETATM   27  N3  UNL     1       3.545   7.156  22.674  1.00  0.00    -0.354 N 
HETATM   28  C16 UNL     1       2.713   7.156  21.516  1.00  0.00     0.152 C 
HETATM   29  C17 UNL     1       2.852   7.533  23.935  1.00  0.00     0.152 C 
ENDBRANCH  21  25
ENDBRANCH   4   9
ENDBRANCH   3   4
TORSDOF 7
ENDMDL
MODEL 3
REMARK VINA RESULT: -7.045496441      0.881      1.693
REMARK  7 active torsions:
REMARK  status: ('A' for Active; 'I' for Inactive)
REMARK    1  A    between atoms: C3_3  and  N1_4 
REMARK    2  A    between atoms: N1_4  and  C4_5 
REMARK    3  A    between atoms: N1_4  and  C6_9 
REMARK    4  A    between atoms: C4_5  and  C5_6 
REMARK    5  A    between atoms: C5_6  and  O1_7 
REMARK    6  A    between atoms: N2_19  and  C12_20 
REMARK    7  A    between atoms: C14_22  and  C15_23 
REMARK       I    between atoms: C15_23  and  N3_25 
ROOT
HETATM    1  C1  UNL     1       6.909   0.811  15.626  1.00  0.00     0.014 C 
HETATM    2  C2  UNL     1       7.674   1.735  15.781  1.00  0.00    -0.097 C 
HETATM    3  C3  UNL     1       8.577   2.862  15.961  1.00  0.00     0.221 C 
ENDROOT
BRANCH   3   4
HETATM    4  N1  UNL     1       9.171   2.668  17.329  1.00  0.00    -0.347 N 
BRANCH   4   5
HETATM    5  C4  UNL     1      10.339   1.886  17.342  1.00  0.00     0.091 C 
BRANCH   5   6
HETATM    6  C5  UNL     1      10.312   0.587  18.079  1.00  0.00     0.208 C 
BRANCH   6   7
HETATM    7  O1  UNL     1      11.395  -0.218  17.744  1.00  0.00    -0.396 OA
ATOM      8  H1  UNL     1      11.270  -1.114  18.034  1.00  0.00     0.209 HD
ENDBRANCH   6   7
ENDBRANCH   5   6
ENDBRANCH   4   5
BRANCH   4   9
HETATM    9  C6  UNL     1       8.413   3.259  18.349  1.00  0.00     0.037 A 
HETATM   10  C7  UNL     1       7.663   2.582  19.251  1.00  0.00     0.051 A 
HETATM   11  C8  UNL     1       6.907   3.270  20.211  1.00  0.00     0.041 A 
HETATM   12 BR1  UNL     1       5.916   2.117  21.401  1.00  0.00    -0.049 Br
HETATM   13  C9  UNL     1       6.858   4.646  20.325  1.00  0.00     0.075 A 
HETATM   14  C10 UNL     1       7.645   5.310  19.387  1.00  0.00     0.110 A 
HETATM   15  N4  UNL     1       6.018   5.280  21.232  1.00  0.00    -0.335 N 
HETATM   16  C11 UNL     1       8.371   4.662  18.462  1.00  0.00     0.057 A 
HETATM   17  S1  UNL     1       7.752   7.032  19.523  1.00  0.00     0.268 S 
HETATM   18  O2  UNL     1       9.025   7.503  20.114  1.00  0.00    -0.200 OA
HETATM   19  O3  UNL     1       7.514   7.636  18.147  1.00  0.00    -0.200 OA
HETATM   20  N2  UNL     1       6.427   7.517  20.541  1.00  0.00    -0.252 N 
HETATM   21  C14 UNL     1       5.805   6.544  21.364  1.00  0.00     0.187 C 
ATOM     22  H4  UNL     1       5.509   4.671  21.872  1.00  0.00     0.168 HD
BRANCH  20  23
HETATM   23  C12 UNL     1       6.055   8.890  20.413  1.00  0.00     0.139 C 
HETATM   24  C13 UNL     1       6.930   9.851  21.190  1.00  0.00     0.028 C 
ENDBRANCH  20  23
BRANCH  21  25
HETATM   25  C15 UNL     1       4.923   7.012  22.411  1.00  0.00     0.287 C 
HETATM   26  O4  UNL     1       3.660   6.979  22.210  1.00  0.00    -0.264 OA
HETATM   27  N3  UNL     1       5.282   7.517  23.661  1.00  0.00    -0.354 N 
HETATM   28  C16 UNL     1       6.601   7.677  24.179  1.00  0.00     0.152 C 
HETATM   29  C17 UNL     1       4.198   7.947  24.584  1.00  0.00     0.152 C 
ENDBRANCH  21  25
ENDBRANCH   4   9
ENDBRANCH   3   4
TORSDOF 7
ENDMDL
MODEL 4
REMARK VINA RESULT: -6.798901371      1.193      2.062
REMARK  7 active torsions:
REMARK  status: ('A' for Active; 'I' for Inactive)
REMARK    1  A    between atoms: C3_3  and  N1_4 
REMARK    2  A    between atoms: N1_4  and  C4_5 
REMARK    3  A    between atoms: N1_4  and  C6_9 
REMARK    4  A    between atoms: C4_5  and  C5_6 
REMARK    5  A    between atoms: C5_6  and  O1_7 
REMARK    6  A    between atoms: N2_19  and  C12_20 
REMARK    7  A    between atoms: C14_22  and  C15_23 
REMARK       I    between atoms: C15_23  and  N3_25 
ROOT
HETATM    1  C1  UNL     1       6.835   0.972  15.446  1.00  0.00     0.014 C 
HETATM    2  C2  UNL     1       7.593   1.892  15.652  1.00  0.00    -0.097 C 
HETATM    3  C3  UNL     1       8.487   3.015  15.895  1.00  0.00     0.221 C 
ENDROOT
BRANCH   3   4
HETATM    4  N1  UNL     1       9.096   2.740  17.242  1.00  0.00    -0.347 N 
BRANCH   4   5
HETATM    5  C4  UNL     1      10.245   1.931  17.199  1.00  0.00     0.091 C 
BRANCH   5   6
HETATM    6  C5  UNL     1      10.287   0.715  18.066  1.00  0.00     0.208 C 
BRANCH   6   7
HETATM    7  O1  UNL     1      11.342  -0.125  17.726  1.00  0.00    -0.396 OA
ATOM      8  H1  UNL     1      11.368  -0.897  18.278  1.00  0.00     0.209 HD
ENDBRANCH   6   7
ENDBRANCH   5   6
ENDBRANCH   4   5
BRANCH   4   9
HETATM    9  C6  UNL     1       8.368   3.298  18.302  1.00  0.00     0.037 A 
HETATM   10  C7  UNL     1       7.633   2.594  19.195  1.00  0.00     0.051 A 
HETATM   11  C8  UNL     1       6.907   3.251  20.199  1.00  0.00     0.041 A 
HETATM   12 BR1  UNL     1       5.934   2.063  21.368  1.00  0.00    -0.049 Br
HETATM   13  C9  UNL     1       6.873   4.622  20.366  1.00  0.00     0.075 A 
HETATM   14  C10 UNL     1       7.644   5.315  19.434  1.00  0.00     0.110 A 
HETATM   15  N4  UNL     1       6.061   5.228  21.316  1.00  0.00    -0.335 N 
HETATM   16  C11 UNL     1       8.342   4.696  18.468  1.00  0.00     0.057 A 
HETATM   17  S1  UNL     1       7.769   7.030  19.633  1.00  0.00     0.268 S 
HETATM   18  O2  UNL     1       9.061   7.467  20.210  1.00  0.00    -0.200 OA
HETATM   19  O3  UNL     1       7.505   7.687  18.286  1.00  0.00    -0.200 OA
HETATM   20  N2  UNL     1       6.474   7.487  20.700  1.00  0.00    -0.252 N 
HETATM   21  C14 UNL     1       5.863   6.488  21.500  1.00  0.00     0.187 C 
ATOM     22  H4  UNL     1       5.562   4.600  21.944  1.00  0.00     0.168 HD
BRANCH  20  23
HETATM   23  C12 UNL     1       6.112   8.866  20.632  1.00  0.00     0.139 C 
HETATM   24  C13 UNL     1       6.960   9.779  21.493  1.00  0.00     0.028 C 
ENDBRANCH  20  23
BRANCH  21  25
HETATM   25  C15 UNL     1       5.010   6.924  22.585  1.00  0.00     0.287 C 
HETATM   26  O4  UNL     1       5.538   7.143  23.730  1.00  0.00    -0.264 OA
HETATM   27  N3  UNL     1       3.633   7.146  22.546  1.00  0.00    -0.354 N 
HETATM   28  C16 UNL     1       2.767   6.994  21.424  1.00  0.00     0.152 C 
HETATM   29  C17 UNL     1       2.958   7.592  23.794  1.00  0.00     0.152 C 
ENDBRANCH  21  25
ENDBRANCH   4   9
ENDBRANCH   3   4
TORSDOF 7
ENDMDL
MODEL 5
REMARK VINA RESULT: -6.611348811      4.909      7.191
REMARK  7 active torsions:
REMARK  status: ('A' for Active; 'I' for Inactive)
REMARK    1  A    between atoms: C3_3  and  N1_4 
REMARK    2  A    between atoms: N1_4  and  C4_5 
REMARK    3  A    between atoms: N1_4  and  C6_9 
REMARK    4  A    between atoms: C4_5  and  C5_6 
REMARK    5  A    between atoms: C5_6  and  O1_7 
REMARK    6  A    between atoms: N2_19  and  C12_20 
REMARK    7  A    between atoms: C14_22  and  C15_23 
REMARK       I    between atoms: C15_23  and  N3_25 
ROOT
HETATM    1  C1  UNL     1      13.575   7.558  25.695  1.00  0.00     0.014 C 
HETATM    2  C2  UNL     1      12.715   8.098  25.038  1.00  0.00    -0.097 C 
HETATM    3  C3  UNL     1      11.687   8.738  24.230  1.00  0.00     0.221 C 
ENDROOT
BRANCH   3   4
HETATM    4  N1  UNL     1      10.404   8.503  24.977  1.00  0.00    -0.347 N 
BRANCH   4   5
HETATM    5  C4  UNL     1      10.581   8.172  26.332  1.00  0.00     0.091 C 
BRANCH   5   6
HETATM    6  C5  UNL     1      10.112   6.832  26.800  1.00  0.00     0.208 C 
BRANCH   6   7
HETATM    7  O1  UNL     1       9.168   6.943  27.815  1.00  0.00    -0.396 OA
ATOM      8  H1  UNL     1       8.283   6.865  27.482  1.00  0.00     0.209 HD
ENDBRANCH   6   7
ENDBRANCH   5   6
ENDBRANCH   4   5
BRANCH   4   9
HETATM    9  C6  UNL     1       9.265   8.603  24.167  1.00  0.00     0.037 A 
HETATM   10  C7  UNL     1       7.993   8.398  24.584  1.00  0.00     0.051 A 
HETATM   11  C8  UNL     1       6.923   8.483  23.683  1.00  0.00     0.041 A 
HETATM   12 BR1  UNL     1       5.196   8.162  24.484  1.00  0.00    -0.049 Br
HETATM   13  C9  UNL     1       7.056   8.774  22.338  1.00  0.00     0.075 A 
HETATM   14  C10 UNL     1       8.376   8.984  21.944  1.00  0.00     0.110 A 
HETATM   15  N4  UNL     1       5.974   8.752  21.469  1.00  0.00    -0.335 N 
HETATM   16  C11 UNL     1       9.409   8.903  22.798  1.00  0.00     0.057 A 
HETATM   17  S1  UNL     1       8.641   9.478  20.306  1.00  0.00     0.268 S 
HETATM   18  O2  UNL     1       8.944  10.920  20.162  1.00  0.00    -0.200 OA
HETATM   19  O3  UNL     1       9.745   8.611  19.719  1.00  0.00    -0.200 OA
HETATM   20  N2  UNL     1       7.175   9.107  19.448  1.00  0.00    -0.252 N 
HETATM   21  C14 UNL     1       5.983   8.900  20.189  1.00  0.00     0.187 C 
ATOM     22  H4  UNL     1       5.060   8.600  21.896  1.00  0.00     0.168 HD
BRANCH  20  23
HETATM   23  C12 UNL     1       7.328   9.000  18.033  1.00  0.00     0.139 C 
HETATM   24  C13 UNL     1       7.227  10.316  17.291  1.00  0.00     0.028 C 
ENDBRANCH  20  23
BRANCH  21  25
HETATM   25  C15 UNL     1       4.732   8.894  19.463  1.00  0.00     0.287 C 
HETATM   26  O4  UNL     1       4.143  10.009  19.243  1.00  0.00    -0.264 OA
HETATM   27  N3  UNL     1       4.054   7.788  18.948  1.00  0.00    -0.354 N 
HETATM   28  C16 UNL     1       4.452   6.421  19.026  1.00  0.00     0.152 C 
HETATM   29  C17 UNL     1       2.770   8.020  18.234  1.00  0.00     0.152 C 
ENDBRANCH  21  25
ENDBRANCH   4   9
ENDBRANCH   3   4
TORSDOF 7
ENDMDL
