MODEL 1
REMARK VINA RESULT: -7.124010543      0.000      0.000
REMARK  9 active torsions:
REMARK  status: ('A' for Active; 'I' for Inactive)
REMARK       I    between atoms: N1_2  and  C2_4 
REMARK    1  A    between atoms: C2_4  and  C3_6 
REMARK    2  A    between atoms: C3_6  and  C4_7 
REMARK    3  A    between atoms: C4_7  and  C5_8 
REMARK    4  A    between atoms: C5_8  and  O2_9 
REMARK    5  A    between atoms: O2_9  and  C6_10 
REMARK    6  A    between atoms: C9_13  and  C10_14 
REMARK    7  A    between atoms: N2_15  and  O3_16 
REMARK    8  A    between atoms: N3_25  and  O4_26 
REMARK    9  A    between atoms: N4_28  and  O5_29 
ROOT
HETATM    1  C10 UNL     1       8.641   8.249  22.996  1.00  0.00     0.191 A 
HETATM    2  N2  UNL     1       8.543   7.712  24.225  1.00  0.00    -0.201 N 
HETATM    3  C11 UNL     1       9.631   7.686  25.022  1.00  0.00     0.096 A 
HETATM    4  C12 UNL     1       9.565   7.136  26.302  1.00  0.00     0.036 A 
HETATM    5  C13 UNL     1      10.664   7.100  27.132  1.00  0.00     0.021 A 
HETATM    6  C14 UNL     1      11.862   7.617  26.697  1.00  0.00     0.013 A 
HETATM    7 BR1  UNL     1      13.382   7.571  27.835  1.00  0.00    -0.051 Br
HETATM    8  C15 UNL     1      11.975   8.172  25.439  1.00  0.00     0.055 A 
HETATM    9  C16 UNL     1      10.853   8.192  24.631  1.00  0.00     0.114 A 
HETATM   10  N3  UNL     1      10.909   8.724  23.388  1.00  0.00    -0.133 N 
HETATM   11  N4  UNL     1       9.836   8.744  22.615  1.00  0.00    -0.116 N 
ENDROOT
BRANCH   1  12
HETATM   12  C9  UNL     1       7.475   8.296  22.097  1.00  0.00     0.015 A 
HETATM   13  C8  UNL     1       7.319   7.272  21.191  1.00  0.00     0.018 A 
HETATM   14  C7  UNL     1       6.253   7.257  20.326  1.00  0.00     0.037 A 
HETATM   15  C6  UNL     1       5.299   8.250  20.318  1.00  0.00     0.068 A 
HETATM   16  C18 UNL     1       5.469   9.269  21.231  1.00  0.00     0.037 A 
HETATM   17  C17 UNL     1       6.550   9.297  22.118  1.00  0.00     0.018 A 
BRANCH  15  18
HETATM   18  O2  UNL     1       4.228   8.219  19.436  1.00  0.00    -0.351 OA
BRANCH  18  19
HETATM   19  C5  UNL     1       4.479   8.414  18.038  1.00  0.00     0.176 C 
BRANCH  19  20
HETATM   20  C4  UNL     1       5.175   9.704  17.782  1.00  0.00     0.036 C 
BRANCH  20  21
HETATM   21  C3  UNL     1       6.582   9.562  17.284  1.00  0.00     0.105 C 
BRANCH  21  22
HETATM   22  C2  UNL     1       7.585  10.077  18.204  1.00  0.00     0.217 C 
HETATM   23  N1  UNL     1       7.440  11.370  18.759  1.00  0.00    -0.365 N 
HETATM   24  C1  UNL     1       8.413  11.934  19.685  1.00  0.00     0.149 C 
ATOM     25  H1  UNL     1       6.626  11.927  18.501  1.00  0.00     0.161 HD
HETATM   26  O1  UNL     1       8.585   9.410  18.529  1.00  0.00    -0.274 OA
ENDBRANCH  21  22
ENDBRANCH  20  21
ENDBRANCH  19  20
ENDBRANCH  18  19
ENDBRANCH  15  18
ENDBRANCH   1  12
BRANCH   2  27
HETATM   27  O3  UNL     1       7.339   7.187  24.674  1.00  0.00    -0.281 OA
ATOM     28  H3  UNL     1       7.325   6.501  25.331  1.00  0.00     0.245 HD
ENDBRANCH   2  27
BRANCH  11  29
HETATM   29  O5  UNL     1       9.921   9.294  21.348  1.00  0.00    -0.264 OA
ATOM     30  H5  UNL     1      10.677   9.836  21.158  1.00  0.00     0.247 HD
ENDBRANCH  11  29
BRANCH  10  31
HETATM   31  O4  UNL     1      12.115   9.231  22.985  1.00  0.00    -0.266 OA
ATOM     32  H4  UNL     1      12.155   9.602  22.111  1.00  0.00     0.247 HD
ENDBRANCH  10  31
TORSDOF 9
ENDMDL
MODEL 2
REMARK VINA RESULT: -6.900695586      4.806      8.186
REMARK  9 active torsions:
REMARK  status: ('A' for Active; 'I' for Inactive)
REMARK       I    between atoms: N1_2  and  C2_4 
REMARK    1  A    between atoms: C2_4  and  C3_6 
REMARK    2  A    between atoms: C3_6  and  C4_7 
REMARK    3  A    between atoms: C4_7  and  C5_8 
REMARK    4  A    between atoms: C5_8  and  O2_9 
REMARK    5  A    between atoms: O2_9  and  C6_10 
REMARK    6  A    between atoms: C9_13  and  C10_14 
REMARK    7  A    between atoms: N2_15  and  O3_16 
REMARK    8  A    between atoms: N3_25  and  O4_26 
REMARK    9  A    between atoms: N4_28  and  O5_29 
ROOT
HETATM    1  C10 UNL     1       7.666   5.903  19.410  1.00  0.00     0.191 A 
HETATM    2  N2  UNL     1       7.820   4.588  19.648  1.00  0.00    -0.201 N 
HETATM    3  C11 UNL     1       7.577   3.705  18.656  1.00  0.00     0.096 A 
HETATM    4  C12 UNL     1       7.727   2.335  18.869  1.00  0.00     0.036 A 
HETATM    5  C13 UNL     1       7.485   1.417  17.871  1.00  0.00     0.021 A 
HETATM    6  C14 UNL     1       7.085   1.853  16.629  1.00  0.00     0.013 A 
HETATM    7 BR1  UNL     1       6.749   0.594  15.247  1.00  0.00    -0.051 Br
HETATM    8  C15 UNL     1       6.924   3.199  16.372  1.00  0.00     0.055 A 
HETATM    9  C16 UNL     1       7.176   4.093  17.396  1.00  0.00     0.114 A 
HETATM   10  N3  UNL     1       7.033   5.425  17.197  1.00  0.00    -0.133 N 
HETATM   11  N4  UNL     1       7.273   6.281  18.177  1.00  0.00    -0.116 N 
ENDROOT
BRANCH   1  12
HETATM   12  C9  UNL     1       7.922   6.897  20.466  1.00  0.00     0.015 A 
HETATM   13  C8  UNL     1       9.078   7.638  20.388  1.00  0.00     0.018 A 
HETATM   14  C7  UNL     1       9.373   8.581  21.341  1.00  0.00     0.037 A 
HETATM   15  C6  UNL     1       8.542   8.831  22.409  1.00  0.00     0.068 A 
HETATM   16  C18 UNL     1       7.386   8.081  22.474  1.00  0.00     0.037 A 
HETATM   17  C17 UNL     1       7.073   7.117  21.510  1.00  0.00     0.018 A 
BRANCH  15  18
HETATM   18  O2  UNL     1       8.855   9.788  23.364  1.00  0.00    -0.351 OA
BRANCH  18  19
HETATM   19  C5  UNL     1      10.015   9.592  24.183  1.00  0.00     0.176 C 
BRANCH  19  20
HETATM   20  C4  UNL     1      10.128   8.181  24.643  1.00  0.00     0.036 C 
BRANCH  20  21
HETATM   21  C3  UNL     1      10.271   8.021  26.126  1.00  0.00     0.105 C 
BRANCH  21  22
HETATM   22  C2  UNL     1      11.613   7.647  26.549  1.00  0.00     0.217 C 
HETATM   23  N1  UNL     1      12.692   7.733  25.638  1.00  0.00    -0.365 N 
HETATM   24  C1  UNL     1      14.054   7.373  26.007  1.00  0.00     0.149 C 
ATOM     25  H1  UNL     1      12.509   8.058  24.689  1.00  0.00     0.161 HD
HETATM   26  O1  UNL     1      11.854   7.248  27.704  1.00  0.00    -0.274 OA
ENDBRANCH  21  22
ENDBRANCH  20  21
ENDBRANCH  19  20
ENDBRANCH  18  19
ENDBRANCH  15  18
ENDBRANCH   1  12
BRANCH   2  27
HETATM   27  O3  UNL     1       8.223   4.137  20.897  1.00  0.00    -0.281 OA
ATOM     28  H3  UNL     1       8.709   3.326  20.985  1.00  0.00     0.245 HD
ENDBRANCH   2  27
BRANCH  11  29
HETATM   29  O5  UNL     1       7.120   7.637  17.947  1.00  0.00    -0.264 OA
ATOM     30  H5  UNL     1       6.756   7.899  17.110  1.00  0.00     0.247 HD
ENDBRANCH  11  29
BRANCH  10  31
HETATM   31  O4  UNL     1       6.635   5.826  15.951  1.00  0.00    -0.266 OA
ATOM     32  H4  UNL     1       5.715   6.040  15.841  1.00  0.00     0.247 HD
ENDBRANCH  10  31
TORSDOF 9
ENDMDL
MODEL 3
REMARK VINA RESULT: -6.774098188      5.204      8.588
REMARK  9 active torsions:
REMARK  status: ('A' for Active; 'I' for Inactive)
REMARK       I    between atoms: N1_2  and  C2_4 
REMARK    1  A    between atoms: C2_4  and  C3_6 
REMARK    2  A    between atoms: C3_6  and  C4_7 
REMARK    3  A    between atoms: C4_7  and  C5_8 
REMARK    4  A    between atoms: C5_8  and  O2_9 
REMARK    5  A    between atoms: O2_9  and  C6_10 
REMARK    6  A    between atoms: C9_13  and  C10_14 
REMARK    7  A    between atoms: N2_15  and  O3_16 
REMARK    8  A    between atoms: N3_25  and  O4_26 
REMARK    9  A    between atoms: N4_28  and  O5_29 
ROOT
HETATM    1  C10 UNL     1       7.632   5.193  19.254  1.00  0.00     0.191 A 
HETATM    2  N2  UNL     1       7.177   5.363  17.999  1.00  0.00    -0.201 N 
HETATM    3  C11 UNL     1       6.901   4.280  17.245  1.00  0.00     0.096 A 
HETATM    4  C12 UNL     1       6.427   4.421  15.940  1.00  0.00     0.036 A 
HETATM    5  C13 UNL     1       6.139   3.328  15.153  1.00  0.00     0.021 A 
HETATM    6  C14 UNL     1       6.319   2.061  15.657  1.00  0.00     0.013 A 
HETATM    7 BR1  UNL     1       5.923   0.549  14.578  1.00  0.00    -0.051 Br
HETATM    8  C15 UNL     1       6.784   1.872  16.942  1.00  0.00     0.055 A 
HETATM    9  C16 UNL     1       7.064   2.990  17.705  1.00  0.00     0.114 A 
HETATM   10  N3  UNL     1       7.524   2.862  18.972  1.00  0.00    -0.133 N 
HETATM   11  N4  UNL     1       7.791   3.931  19.703  1.00  0.00    -0.116 N 
ENDROOT
BRANCH   1  12
HETATM   12  C9  UNL     1       7.944   6.351  20.108  1.00  0.00     0.015 A 
HETATM   13  C8  UNL     1       9.036   7.120  19.778  1.00  0.00     0.018 A 
HETATM   14  C7  UNL     1       9.380   8.213  20.534  1.00  0.00     0.037 A 
HETATM   15  C6  UNL     1       8.663   8.592  21.646  1.00  0.00     0.068 A 
HETATM   16  C18 UNL     1       7.571   7.812  21.964  1.00  0.00     0.037 A 
HETATM   17  C17 UNL     1       7.209   6.696  21.203  1.00  0.00     0.018 A 
BRANCH  15  18
HETATM   18  O2  UNL     1       9.024   9.700  22.399  1.00  0.00    -0.351 OA
BRANCH  18  19
HETATM   19  C5  UNL     1       9.138   9.561  23.821  1.00  0.00     0.176 C 
BRANCH  19  20
HETATM   20  C4  UNL     1      10.303   8.714  24.196  1.00  0.00     0.036 C 
BRANCH  20  21
HETATM   21  C3  UNL     1      10.136   7.961  25.481  1.00  0.00     0.105 C 
BRANCH  21  22
HETATM   22  C2  UNL     1      11.392   7.662  26.153  1.00  0.00     0.217 C 
HETATM   23  N1  UNL     1      12.611   7.723  25.437  1.00  0.00    -0.365 N 
HETATM   24  C1  UNL     1      13.895   7.434  26.059  1.00  0.00     0.149 C 
ATOM     25  H1  UNL     1      12.588   7.979  24.450  1.00  0.00     0.161 HD
HETATM   26  O1  UNL     1      11.437   7.348  27.358  1.00  0.00    -0.274 OA
ENDBRANCH  21  22
ENDBRANCH  20  21
ENDBRANCH  19  20
ENDBRANCH  18  19
ENDBRANCH  15  18
ENDBRANCH   1  12
BRANCH   2  27
HETATM   27  O3  UNL     1       6.992   6.637  17.481  1.00  0.00    -0.281 OA
ATOM     28  H3  UNL     1       6.737   6.759  16.574  1.00  0.00     0.245 HD
ENDBRANCH   2  27
BRANCH  11  29
HETATM   29  O5  UNL     1       8.260   3.772  20.995  1.00  0.00    -0.264 OA
ATOM     30  H5  UNL     1       7.658   3.413  21.636  1.00  0.00     0.247 HD
ENDBRANCH  11  29
BRANCH  10  31
HETATM   31  O4  UNL     1       7.691   1.588  19.444  1.00  0.00    -0.266 OA
ATOM     32  H4  UNL     1       8.548   1.367  19.791  1.00  0.00     0.247 HD
ENDBRANCH  10  31
TORSDOF 9
ENDMDL
MODEL 4
REMARK VINA RESULT: -6.765508114      1.955      3.346
REMARK  9 active torsions:
REMARK  status: ('A' for Active; 'I' for Inactive)
REMARK       I    between atoms: N1_2  and  C2_4 
REMARK    1  A    between atoms: C2_4  and  C3_6 
REMARK    2  A    between atoms: C3_6  and  C4_7 
REMARK    3  A    between atoms: C4_7  and  C5_8 
REMARK    4  A    between atoms: C5_8  and  O2_9 
REMARK    5  A    between atoms: O2_9  and  C6_10 
REMARK    6  A    between atoms: C9_13  and  C10_14 
REMARK    7  A    between atoms: N2_15  and  O3_16 
REMARK    8  A    between atoms: N3_25  and  O4_26 
REMARK    9  A    between atoms: N4_28  and  O5_29 
ROOT
HETATM    1  C10 UNL     1       8.405   8.256  22.991  1.00  0.00     0.191 A 
HETATM    2  N2  UNL     1       8.357   7.694  24.212  1.00  0.00    -0.201 N 
HETATM    3  C11 UNL     1       9.471   7.675  24.974  1.00  0.00     0.096 A 
HETATM    4  C12 UNL     1       9.456   7.101  26.245  1.00  0.00     0.036 A 
HETATM    5  C13 UNL     1      10.581   7.070  27.038  1.00  0.00     0.021 A 
HETATM    6  C14 UNL     1      11.755   7.618  26.575  1.00  0.00     0.013 A 
HETATM    7 BR1  UNL     1      13.311   7.581  27.663  1.00  0.00    -0.051 Br
HETATM    8  C15 UNL     1      11.817   8.198  25.325  1.00  0.00     0.055 A 
HETATM    9  C16 UNL     1      10.669   8.211  24.554  1.00  0.00     0.114 A 
HETATM   10  N3  UNL     1      10.676   8.766  23.319  1.00  0.00    -0.133 N 
HETATM   11  N4  UNL     1       9.578   8.780  22.581  1.00  0.00    -0.116 N 
ENDROOT
BRANCH   1  12
HETATM   12  C9  UNL     1       7.210   8.296  22.130  1.00  0.00     0.015 A 
HETATM   13  C8  UNL     1       7.039   7.281  21.218  1.00  0.00     0.018 A 
HETATM   14  C7  UNL     1       5.946   7.261  20.387  1.00  0.00     0.037 A 
HETATM   15  C6  UNL     1       4.979   8.240  20.422  1.00  0.00     0.068 A 
HETATM   16  C18 UNL     1       5.164   9.250  21.342  1.00  0.00     0.037 A 
HETATM   17  C17 UNL     1       6.272   9.283  22.195  1.00  0.00     0.018 A 
BRANCH  15  18
HETATM   18  O2  UNL     1       3.880   8.204  19.575  1.00  0.00    -0.351 OA
BRANCH  18  19
HETATM   19  C5  UNL     1       2.936   7.135  19.715  1.00  0.00     0.176 C 
BRANCH  19  20
HETATM   20  C4  UNL     1       2.267   7.165  21.044  1.00  0.00     0.036 C 
BRANCH  20  21
HETATM   21  C3  UNL     1       2.710   6.087  21.987  1.00  0.00     0.105 C 
BRANCH  21  22
HETATM   22  C2  UNL     1       3.466   6.581  23.129  1.00  0.00     0.217 C 
HETATM   23  N1  UNL     1       2.964   7.656  23.899  1.00  0.00    -0.365 N 
HETATM   24  C1  UNL     1       3.678   8.190  25.051  1.00  0.00     0.149 C 
ATOM     25  H1  UNL     1       2.071   8.074  23.637  1.00  0.00     0.161 HD
HETATM   26  O1  UNL     1       4.558   6.083  23.462  1.00  0.00    -0.274 OA
ENDBRANCH  21  22
ENDBRANCH  20  21
ENDBRANCH  19  20
ENDBRANCH  18  19
ENDBRANCH  15  18
ENDBRANCH   1  12
BRANCH   2  27
HETATM   27  O3  UNL     1       7.178   7.138  24.690  1.00  0.00    -0.281 OA
ATOM     28  H3  UNL     1       6.742   7.507  25.449  1.00  0.00     0.245 HD
ENDBRANCH   2  27
BRANCH  11  29
HETATM   29  O5  UNL     1       9.612   9.354  21.323  1.00  0.00    -0.264 OA
ATOM     30  H5  UNL     1      10.014   8.852  20.625  1.00  0.00     0.247 HD
ENDBRANCH  11  29
BRANCH  10  31
HETATM   31  O4  UNL     1      11.858   9.304  22.888  1.00  0.00    -0.266 OA
ATOM     32  H4  UNL     1      11.862   9.694  22.022  1.00  0.00     0.247 HD
ENDBRANCH  10  31
TORSDOF 9
ENDMDL
MODEL 5
REMARK VINA RESULT: -6.572182995      2.218      3.575
REMARK  9 active torsions:
REMARK  status: ('A' for Active; 'I' for Inactive)
REMARK       I    between atoms: N1_2  and  C2_4 
REMARK    1  A    between atoms: C2_4  and  C3_6 
REMARK    2  A    between atoms: C3_6  and  C4_7 
REMARK    3  A    between atoms: C4_7  and  C5_8 
REMARK    4  A    between atoms: C5_8  and  O2_9 
REMARK    5  A    between atoms: O2_9  and  C6_10 
REMARK    6  A    between atoms: C9_13  and  C10_14 
REMARK    7  A    between atoms: N2_15  and  O3_16 
REMARK    8  A    between atoms: N3_25  and  O4_26 
REMARK    9  A    between atoms: N4_28  and  O5_29 
ROOT
HETATM    1  C10 UNL     1       7.965   8.872  23.569  1.00  0.00     0.191 A 
HETATM    2  N2  UNL     1       8.171   7.881  24.455  1.00  0.00    -0.201 N 
HETATM    3  C11 UNL     1       9.333   7.839  25.139  1.00  0.00     0.096 A 
HETATM    4  C12 UNL     1       9.579   6.825  26.065  1.00  0.00     0.036 A 
HETATM    5  C13 UNL     1      10.759   6.764  26.774  1.00  0.00     0.021 A 
HETATM    6  C14 UNL     1      11.725   7.721  26.571  1.00  0.00     0.013 A 
HETATM    7 BR1  UNL     1      13.354   7.642  27.544  1.00  0.00    -0.051 Br
HETATM    8  C15 UNL     1      11.526   8.742  25.665  1.00  0.00     0.055 A 
HETATM    9  C16 UNL     1      10.331   8.775  24.970  1.00  0.00     0.114 A 
HETATM   10  N3  UNL     1      10.085   9.755  24.069  1.00  0.00    -0.133 N 
HETATM   11  N4  UNL     1       8.942   9.787  23.405  1.00  0.00    -0.116 N 
ENDROOT
BRANCH   1  12
HETATM   12  C9  UNL     1       6.709   8.953  22.803  1.00  0.00     0.015 A 
HETATM   13  C8  UNL     1       5.565   9.310  23.478  1.00  0.00     0.018 A 
HETATM   14  C7  UNL     1       4.363   9.404  22.821  1.00  0.00     0.037 A 
HETATM   15  C6  UNL     1       4.240   9.148  21.474  1.00  0.00     0.068 A 
HETATM   16  C18 UNL     1       5.396   8.791  20.811  1.00  0.00     0.037 A 
HETATM   17  C17 UNL     1       6.627   8.692  21.468  1.00  0.00     0.018 A 
BRANCH  15  18
HETATM   18  O2  UNL     1       3.018   9.248  20.826  1.00  0.00    -0.351 OA
BRANCH  18  19
HETATM   19  C5  UNL     1       1.916   8.466  21.305  1.00  0.00     0.176 C 
BRANCH  19  20
HETATM   20  C4  UNL     1       2.088   7.023  20.982  1.00  0.00     0.036 C 
BRANCH  20  21
HETATM   21  C3  UNL     1       2.496   6.170  22.144  1.00  0.00     0.105 C 
BRANCH  21  22
HETATM   22  C2  UNL     1       3.889   5.750  22.103  1.00  0.00     0.217 C 
HETATM   23  N1  UNL     1       4.437   5.229  20.907  1.00  0.00    -0.365 N 
HETATM   24  C1  UNL     1       5.823   4.795  20.810  1.00  0.00     0.149 C 
ATOM     25  H1  UNL     1       3.839   5.155  20.084  1.00  0.00     0.161 HD
HETATM   26  O1  UNL     1       4.633   5.833  23.099  1.00  0.00    -0.274 OA
ENDBRANCH  21  22
ENDBRANCH  20  21
ENDBRANCH  19  20
ENDBRANCH  18  19
ENDBRANCH  15  18
ENDBRANCH   1  12
BRANCH   2  27
HETATM   27  O3  UNL     1       7.203   6.910  24.668  1.00  0.00    -0.281 OA
ATOM     28  H3  UNL     1       7.442   6.052  24.998  1.00  0.00     0.245 HD
ENDBRANCH   2  27
BRANCH  11  29
HETATM   29  O5  UNL     1       8.716  10.800  22.490  1.00  0.00    -0.264 OA
ATOM     30  H5  UNL     1       8.497  11.658  22.834  1.00  0.00     0.247 HD
ENDBRANCH  11  29
BRANCH  10  31
HETATM   31  O4  UNL     1      11.066  10.693  23.891  1.00  0.00    -0.266 OA
ATOM     32  H4  UNL     1      11.147  11.070  23.022  1.00  0.00     0.247 HD
ENDBRANCH  10  31
TORSDOF 9
ENDMDL
