MODEL 1
REMARK VINA RESULT: -6.767310810      0.000      0.000
REMARK  9 active torsions:
REMARK  status: ('A' for Active; 'I' for Inactive)
REMARK    1  A    between atoms: C2_2  and  O1_3 
REMARK    2  A    between atoms: O1_3  and  C3_4 
REMARK    3  A    between atoms: C3_4  and  C4_6 
REMARK       I    between atoms: N1_8  and  C6_9 
REMARK    4  A    between atoms: C11_15  and  C12_16 
REMARK    5  A    between atoms: C12_16  and  O4_17 
REMARK    6  A    between atoms: C12_16  and  N2_19 
REMARK    7  A    between atoms: N2_19  and  C13_21 
REMARK    8  A    between atoms: C13_21  and  C14_22 
REMARK    9  A    between atoms: C14_22  and  N3_23 
ROOT
HETATM    1  C4  UNL     1       5.685   6.874  18.723  1.00  0.00     0.137 C 
HETATM    2  C5  UNL     1       6.213   5.679  18.029  1.00  0.00     0.145 C 
HETATM    3  N1  UNL     1       7.504   5.220  18.373  1.00  0.00    -0.347 N 
HETATM    4  C6  UNL     1       8.013   4.093  17.637  1.00  0.00     0.216 C 
HETATM    5  C7  UNL     1       9.371   3.597  17.955  1.00  0.00     0.117 C 
HETATM    6  O3  UNL     1       7.302   3.562  16.751  1.00  0.00    -0.274 OA
HETATM    7  C8  UNL     1       8.331   5.774  19.373  1.00  0.00     0.165 C 
HETATM    8  C9  UNL     1       7.596   6.619  20.333  1.00  0.00    -0.032 A 
HETATM    9  C10 UNL     1       8.169   6.896  21.564  1.00  0.00     0.026 A 
HETATM   10  C11 UNL     1       7.558   7.708  22.544  1.00  0.00     0.032 A 
HETATM   11  C17 UNL     1       6.337   8.214  22.190  1.00  0.00     0.026 A 
HETATM   12 BR1  UNL     1       5.368   9.285  23.442  1.00  0.00    -0.050 Br
HETATM   13  C18 UNL     1       5.759   7.933  20.942  1.00  0.00     0.028 A 
HETATM   14  C19 UNL     1       6.375   7.139  20.010  1.00  0.00    -0.034 A 
ENDROOT
BRANCH  10  15
HETATM   15  C12 UNL     1       8.276   7.962  23.781  1.00  0.00     0.147 C 
BRANCH  15  16
HETATM   16  O4  UNL     1       8.116   6.999  24.657  1.00  0.00    -0.346 OA
ATOM     17  H4  UNL     1       8.823   6.365  24.628  1.00  0.00     0.219 HD
ENDBRANCH  15  16
BRANCH  15  18
HETATM   18  N2  UNL     1       9.078   9.042  24.140  1.00  0.00    -0.369 N 
ATOM     19  H2  UNL     1       8.671   9.951  24.357  1.00  0.00     0.161 HD
BRANCH  18  20
HETATM   20  C13 UNL     1      10.511   8.834  24.194  1.00  0.00     0.152 C 
BRANCH  20  21
HETATM   21  C14 UNL     1      11.079   8.897  25.585  1.00  0.00     0.290 C 
BRANCH  21  22
HETATM   22  N3  UNL     1      11.608   7.602  25.969  1.00  0.00     0.081 N 
HETATM   23  C15 UNL     1      13.007   7.599  26.262  1.00  0.00     0.309 C 
HETATM   24  C16 UNL     1      10.806   6.949  26.976  1.00  0.00     0.309 C 
ENDBRANCH  21  22
ENDBRANCH  20  21
ENDBRANCH  18  20
ENDBRANCH  15  18
ENDBRANCH  10  15
BRANCH   1  25
HETATM   25  C3  UNL     1       5.660   8.032  17.808  1.00  0.00     0.269 C 
HETATM   26  O2  UNL     1       4.583   8.489  17.343  1.00  0.00    -0.264 OA
BRANCH  25  27
HETATM   27  O1  UNL     1       6.835   8.643  17.442  1.00  0.00    -0.321 OA
BRANCH  27  28
HETATM   28  C2  UNL     1       7.199   9.978  17.613  1.00  0.00     0.174 C 
HETATM   29  C1  UNL     1       8.023  10.174  18.836  1.00  0.00     0.034 C 
ENDBRANCH  27  28
ENDBRANCH  25  27
ENDBRANCH   1  25
TORSDOF 9
ENDMDL
MODEL 2
REMARK VINA RESULT: -6.644813472      2.372      3.527
REMARK  9 active torsions:
REMARK  status: ('A' for Active; 'I' for Inactive)
REMARK    1  A    between atoms: C2_2  and  O1_3 
REMARK    2  A    between atoms: O1_3  and  C3_4 
REMARK    3  A    between atoms: C3_4  and  C4_6 
REMARK       I    between atoms: N1_8  and  C6_9 
REMARK    4  A    between atoms: C11_15  and  C12_16 
REMARK    5  A    between atoms: C12_16  and  O4_17 
REMARK    6  A    between atoms: C12_16  and  N2_19 
REMARK    7  A    between atoms: N2_19  and  C13_21 
REMARK    8  A    between atoms: C13_21  and  C14_22 
REMARK    9  A    between atoms: C14_22  and  N3_23 
ROOT
HETATM    1  C4  UNL     1       6.205   5.251  17.847  1.00  0.00     0.137 C 
HETATM    2  C5  UNL     1       5.575   4.051  18.440  1.00  0.00     0.145 C 
HETATM    3  N1  UNL     1       6.044   3.599  19.694  1.00  0.00    -0.347 N 
HETATM    4  C6  UNL     1       5.452   2.395  20.215  1.00  0.00     0.216 C 
HETATM    5  C7  UNL     1       5.933   1.878  21.516  1.00  0.00     0.117 C 
HETATM    6  O3  UNL     1       4.554   1.815  19.561  1.00  0.00    -0.274 OA
HETATM    7  C8  UNL     1       7.038   4.228  20.471  1.00  0.00     0.165 C 
HETATM    8  C9  UNL     1       7.278   5.631  20.085  1.00  0.00    -0.032 A 
HETATM    9  C10 UNL     1       7.908   6.479  20.982  1.00  0.00     0.026 A 
HETATM   10  C11 UNL     1       8.201   7.831  20.703  1.00  0.00     0.032 A 
HETATM   11  C17 UNL     1       7.812   8.259  19.463  1.00  0.00     0.026 A 
HETATM   12 BR1  UNL     1       8.094  10.084  18.969  1.00  0.00    -0.050 Br
HETATM   13  C18 UNL     1       7.174   7.397  18.555  1.00  0.00     0.028 A 
HETATM   14  C19 UNL     1       6.902   6.088  18.855  1.00  0.00    -0.034 A 
ENDROOT
BRANCH  10  15
HETATM   15  C12 UNL     1       8.905   8.611  21.706  1.00  0.00     0.147 C 
BRANCH  15  16
HETATM   16  O4  UNL     1      10.165   8.803  21.394  1.00  0.00    -0.346 OA
ATOM     17  H4  UNL     1      10.577   9.456  21.946  1.00  0.00     0.219 HD
ENDBRANCH  15  16
BRANCH  15  18
HETATM   18  N2  UNL     1       8.438   9.160  22.898  1.00  0.00    -0.369 N 
ATOM     19  H2  UNL     1       7.492   9.532  22.970  1.00  0.00     0.161 HD
BRANCH  18  20
HETATM   20  C13 UNL     1       9.338   9.186  24.032  1.00  0.00     0.152 C 
BRANCH  20  21
HETATM   21  C14 UNL     1       9.182   8.010  24.955  1.00  0.00     0.290 C 
BRANCH  21  22
HETATM   22  N3  UNL     1      10.440   7.722  25.618  1.00  0.00     0.081 N 
HETATM   23  C15 UNL     1      11.294   8.857  25.781  1.00  0.00     0.309 C 
HETATM   24  C16 UNL     1      10.272   6.949  26.824  1.00  0.00     0.309 C 
ENDBRANCH  21  22
ENDBRANCH  20  21
ENDBRANCH  18  20
ENDBRANCH  15  18
ENDBRANCH  10  15
BRANCH   1  25
HETATM   25  C3  UNL     1       7.047   4.875  16.695  1.00  0.00     0.269 C 
HETATM   26  O2  UNL     1       7.052   5.542  15.628  1.00  0.00    -0.264 OA
BRANCH  25  27
HETATM   27  O1  UNL     1       7.857   3.767  16.771  1.00  0.00    -0.321 OA
BRANCH  27  28
HETATM   28  C2  UNL     1       9.071   3.636  17.446  1.00  0.00     0.174 C 
HETATM   29  C1  UNL     1       9.167   2.334  18.160  1.00  0.00     0.034 C 
ENDBRANCH  27  28
ENDBRANCH  25  27
ENDBRANCH   1  25
TORSDOF 9
ENDMDL
MODEL 3
REMARK VINA RESULT: -6.340186528      2.261      2.927
REMARK  9 active torsions:
REMARK  status: ('A' for Active; 'I' for Inactive)
REMARK    1  A    between atoms: C2_2  and  O1_3 
REMARK    2  A    between atoms: O1_3  and  C3_4 
REMARK    3  A    between atoms: C3_4  and  C4_6 
REMARK       I    between atoms: N1_8  and  C6_9 
REMARK    4  A    between atoms: C11_15  and  C12_16 
REMARK    5  A    between atoms: C12_16  and  O4_17 
REMARK    6  A    between atoms: C12_16  and  N2_19 
REMARK    7  A    between atoms: N2_19  and  C13_21 
REMARK    8  A    between atoms: C13_21  and  C14_22 
REMARK    9  A    between atoms: C14_22  and  N3_23 
ROOT
HETATM    1  C4  UNL     1       5.873   4.374  19.693  1.00  0.00     0.137 C 
HETATM    2  C5  UNL     1       6.709   3.227  19.276  1.00  0.00     0.145 C 
HETATM    3  N1  UNL     1       8.022   3.486  18.824  1.00  0.00    -0.347 N 
HETATM    4  C6  UNL     1       8.788   2.356  18.368  1.00  0.00     0.216 C 
HETATM    5  C7  UNL     1      10.162   2.590  17.866  1.00  0.00     0.117 C 
HETATM    6  O3  UNL     1       8.281   1.210  18.404  1.00  0.00    -0.274 OA
HETATM    7  C8  UNL     1       8.640   4.753  18.782  1.00  0.00     0.165 C 
HETATM    8  C9  UNL     1       7.969   5.755  19.632  1.00  0.00    -0.032 A 
HETATM    9  C10 UNL     1       8.663   6.895  20.006  1.00  0.00     0.026 A 
HETATM   10  C11 UNL     1       8.107   7.921  20.800  1.00  0.00     0.032 A 
HETATM   11  C17 UNL     1       6.811   7.711  21.185  1.00  0.00     0.026 A 
HETATM   12 BR1  UNL     1       5.948   8.993  22.310  1.00  0.00    -0.050 Br
HETATM   13  C18 UNL     1       6.109   6.555  20.804  1.00  0.00     0.028 A 
HETATM   14  C19 UNL     1       6.676   5.574  20.032  1.00  0.00    -0.034 A 
ENDROOT
BRANCH  10  15
HETATM   15  C12 UNL     1       8.918   9.091  21.091  1.00  0.00     0.147 C 
BRANCH  15  16
HETATM   16  O4  UNL     1       9.296   9.717  20.002  1.00  0.00    -0.346 OA
ATOM     17  H4  UNL     1       9.693  10.560  20.190  1.00  0.00     0.219 HD
ENDBRANCH  15  16
BRANCH  15  18
HETATM   18  N2  UNL     1       9.322   9.613  22.316  1.00  0.00    -0.369 N 
ATOM     19  H2  UNL     1       9.361  10.619  22.472  1.00  0.00     0.161 HD
BRANCH  18  20
HETATM   20  C13 UNL     1       9.686   8.681  23.364  1.00  0.00     0.152 C 
BRANCH  20  21
HETATM   21  C14 UNL     1      10.912   9.086  24.134  1.00  0.00     0.290 C 
BRANCH  21  22
HETATM   22  N3  UNL     1      10.783   8.690  25.524  1.00  0.00     0.081 N 
HETATM   23  C15 UNL     1       9.567   8.006  25.833  1.00  0.00     0.309 C 
HETATM   24  C16 UNL     1      11.962   8.026  26.026  1.00  0.00     0.309 C 
ENDBRANCH  21  22
ENDBRANCH  20  21
ENDBRANCH  18  20
ENDBRANCH  15  18
ENDBRANCH  10  15
BRANCH   1  25
HETATM   25  C3  UNL     1       4.811   4.626  18.699  1.00  0.00     0.269 C 
HETATM   26  O2  UNL     1       3.638   4.198  18.856  1.00  0.00    -0.264 OA
BRANCH  25  27
HETATM   27  O1  UNL     1       5.092   5.347  17.563  1.00  0.00    -0.321 OA
BRANCH  27  28
HETATM   28  C2  UNL     1       5.296   4.867  16.269  1.00  0.00     0.174 C 
HETATM   29  C1  UNL     1       6.690   5.102  15.806  1.00  0.00     0.034 C 
ENDBRANCH  27  28
ENDBRANCH  25  27
ENDBRANCH   1  25
TORSDOF 9
ENDMDL
MODEL 4
REMARK VINA RESULT: -6.326983786      2.628      3.332
REMARK  9 active torsions:
REMARK  status: ('A' for Active; 'I' for Inactive)
REMARK    1  A    between atoms: C2_2  and  O1_3 
REMARK    2  A    between atoms: O1_3  and  C3_4 
REMARK    3  A    between atoms: C3_4  and  C4_6 
REMARK       I    between atoms: N1_8  and  C6_9 
REMARK    4  A    between atoms: C11_15  and  C12_16 
REMARK    5  A    between atoms: C12_16  and  O4_17 
REMARK    6  A    between atoms: C12_16  and  N2_19 
REMARK    7  A    between atoms: N2_19  and  C13_21 
REMARK    8  A    between atoms: C13_21  and  C14_22 
REMARK    9  A    between atoms: C14_22  and  N3_23 
ROOT
HETATM    1  C4  UNL     1       6.228   5.395  17.764  1.00  0.00     0.137 C 
HETATM    2  C5  UNL     1       5.686   4.149  18.349  1.00  0.00     0.145 C 
HETATM    3  N1  UNL     1       6.238   3.685  19.565  1.00  0.00    -0.347 N 
HETATM    4  C6  UNL     1       5.732   2.439  20.077  1.00  0.00     0.216 C 
HETATM    5  C7  UNL     1       6.301   1.910  21.337  1.00  0.00     0.117 C 
HETATM    6  O3  UNL     1       4.830   1.834  19.450  1.00  0.00    -0.274 OA
HETATM    7  C8  UNL     1       7.238   4.340  20.313  1.00  0.00     0.165 C 
HETATM    8  C9  UNL     1       7.392   5.764  19.958  1.00  0.00    -0.032 A 
HETATM    9  C10 UNL     1       8.025   6.616  20.849  1.00  0.00     0.026 A 
HETATM   10  C11 UNL     1       8.238   7.988  20.597  1.00  0.00     0.032 A 
HETATM   11  C17 UNL     1       7.768   8.431  19.391  1.00  0.00     0.026 A 
HETATM   12 BR1  UNL     1       7.938  10.281  18.941  1.00  0.00    -0.050 Br
HETATM   13  C18 UNL     1       7.128   7.565  18.490  1.00  0.00     0.028 A 
HETATM   14  C19 UNL     1       6.934   6.236  18.762  1.00  0.00    -0.034 A 
ENDROOT
BRANCH  10  15
HETATM   15  C12 UNL     1       8.953   8.773  21.589  1.00  0.00     0.147 C 
BRANCH  15  16
HETATM   16  O4  UNL     1      10.218   8.935  21.278  1.00  0.00    -0.346 OA
ATOM     17  H4  UNL     1      10.786   8.351  21.767  1.00  0.00     0.219 HD
ENDBRANCH  15  16
BRANCH  15  18
HETATM   18  N2  UNL     1       8.493   9.354  22.768  1.00  0.00    -0.369 N 
ATOM     19  H2  UNL     1       7.571   9.786  22.815  1.00  0.00     0.161 HD
BRANCH  18  20
HETATM   20  C13 UNL     1       9.364   9.325  23.924  1.00  0.00     0.152 C 
BRANCH  20  21
HETATM   21  C14 UNL     1       9.163   8.123  24.804  1.00  0.00     0.290 C 
BRANCH  21  22
HETATM   22  N3  UNL     1      10.390   7.807  25.510  1.00  0.00     0.081 N 
HETATM   23  C15 UNL     1      11.245   8.930  25.737  1.00  0.00     0.309 C 
HETATM   24  C16 UNL     1      10.166   7.004  26.687  1.00  0.00     0.309 C 
ENDBRANCH  21  22
ENDBRANCH  20  21
ENDBRANCH  18  20
ENDBRANCH  15  18
ENDBRANCH  10  15
BRANCH   1  25
HETATM   25  C3  UNL     1       7.029   5.093  16.561  1.00  0.00     0.269 C 
HETATM   26  O2  UNL     1       7.873   4.160  16.541  1.00  0.00    -0.264 OA
BRANCH  25  27
HETATM   27  O1  UNL     1       6.860   5.840  15.420  1.00  0.00    -0.321 OA
BRANCH  27  28
HETATM   28  C2  UNL     1       6.873   5.401  14.096  1.00  0.00     0.174 C 
HETATM   29  C1  UNL     1       7.173   6.509  13.150  1.00  0.00     0.034 C 
ENDBRANCH  27  28
ENDBRANCH  25  27
ENDBRANCH   1  25
TORSDOF 9
ENDMDL
MODEL 5
REMARK VINA RESULT: -6.283139653      3.483      5.430
REMARK  9 active torsions:
REMARK  status: ('A' for Active; 'I' for Inactive)
REMARK    1  A    between atoms: C2_2  and  O1_3 
REMARK    2  A    between atoms: O1_3  and  C3_4 
REMARK    3  A    between atoms: C3_4  and  C4_6 
REMARK       I    between atoms: N1_8  and  C6_9 
REMARK    4  A    between atoms: C11_15  and  C12_16 
REMARK    5  A    between atoms: C12_16  and  O4_17 
REMARK    6  A    between atoms: C12_16  and  N2_19 
REMARK    7  A    between atoms: N2_19  and  C13_21 
REMARK    8  A    between atoms: C13_21  and  C14_22 
REMARK    9  A    between atoms: C14_22  and  N3_23 
ROOT
HETATM    1  C4  UNL     1       4.229   6.334  21.356  1.00  0.00     0.137 C 
HETATM    2  C5  UNL     1       2.921   6.744  21.914  1.00  0.00     0.145 C 
HETATM    3  N1  UNL     1       2.909   7.669  22.982  1.00  0.00    -0.347 N 
HETATM    4  C6  UNL     1       1.626   8.001  23.542  1.00  0.00     0.216 C 
HETATM    5  C7  UNL     1       1.574   8.951  24.677  1.00  0.00     0.117 C 
HETATM    6  O3  UNL     1       0.590   7.482  23.064  1.00  0.00    -0.274 OA
HETATM    7  C8  UNL     1       4.045   8.291  23.540  1.00  0.00     0.165 C 
HETATM    8  C9  UNL     1       5.232   8.229  22.665  1.00  0.00    -0.032 A 
HETATM    9  C10 UNL     1       6.276   9.113  22.881  1.00  0.00     0.026 A 
HETATM   10  C11 UNL     1       7.461   9.123  22.113  1.00  0.00     0.032 A 
HETATM   11  C17 UNL     1       7.510   8.183  21.120  1.00  0.00     0.026 A 
HETATM   12 BR1  UNL     1       9.031   8.118  19.966  1.00  0.00    -0.050 Br
HETATM   13  C18 UNL     1       6.450   7.287  20.904  1.00  0.00     0.028 A 
HETATM   14  C19 UNL     1       5.311   7.302  21.665  1.00  0.00    -0.034 A 
ENDROOT
BRANCH  10  15
HETATM   15  C12 UNL     1       8.506  10.070  22.462  1.00  0.00     0.147 C 
BRANCH  15  16
HETATM   16  O4  UNL     1       8.493  11.132  21.692  1.00  0.00    -0.346 OA
ATOM     17  H4  UNL     1       8.567  11.939  22.189  1.00  0.00     0.219 HD
ENDBRANCH  15  16
BRANCH  15  18
HETATM   18  N2  UNL     1       9.471  10.003  23.464  1.00  0.00    -0.369 N 
ATOM     19  H2  UNL     1       9.849  10.850  23.886  1.00  0.00     0.161 HD
BRANCH  18  20
HETATM   20  C13 UNL     1       9.921   8.693  23.887  1.00  0.00     0.152 C 
BRANCH  20  21
HETATM   21  C14 UNL     1      11.235   8.711  24.617  1.00  0.00     0.290 C 
BRANCH  21  22
HETATM   22  N3  UNL     1      11.056   8.252  25.981  1.00  0.00     0.081 N 
HETATM   23  C15 UNL     1       9.814   7.587  26.223  1.00  0.00     0.309 C 
HETATM   24  C16 UNL     1      12.203   7.533  26.482  1.00  0.00     0.309 C 
ENDBRANCH  21  22
ENDBRANCH  20  21
ENDBRANCH  18  20
ENDBRANCH  15  18
ENDBRANCH  10  15
BRANCH   1  25
HETATM   25  C3  UNL     1       4.540   4.944  21.741  1.00  0.00     0.269 C 
HETATM   26  O2  UNL     1       4.388   4.530  22.919  1.00  0.00    -0.264 OA
BRANCH  25  27
HETATM   27  O1  UNL     1       5.010   4.061  20.799  1.00  0.00    -0.321 OA
BRANCH  27  28
HETATM   28  C2  UNL     1       6.287   3.508  20.699  1.00  0.00     0.174 C 
HETATM   29  C1  UNL     1       6.323   2.107  21.197  1.00  0.00     0.034 C 
ENDBRANCH  27  28
ENDBRANCH  25  27
ENDBRANCH   1  25
TORSDOF 9
ENDMDL
