MODEL 1
REMARK VINA RESULT: -8.899230158      0.000      0.000
REMARK  6 active torsions:
REMARK  status: ('A' for Active; 'I' for Inactive)
REMARK    1  A    between atoms: C2_2  and  O1_3 
REMARK    2  A    between atoms: O1_3  and  C3_4 
REMARK    3  A    between atoms: N2_18  and  C12_19 
REMARK    4  A    between atoms: C12_19  and  C13_20 
REMARK    5  A    between atoms: C13_20  and  C14_21 
REMARK    6  A    between atoms: C14_21  and  N3_22 
ROOT
HETATM    1  C3  UNL     1       8.248   8.425  23.862  1.00  0.00     0.089 A 
HETATM    2  C4  UNL     1       7.115   8.171  24.602  1.00  0.00     0.080 A 
HETATM    3  C5  UNL     1       5.941   7.857  23.965  1.00  0.00     0.121 A 
HETATM    4  F1  UNL     1       4.815   7.603  24.667  1.00  0.00    -0.206 F 
HETATM    5  C6  UNL     1       5.887   7.795  22.575  1.00  0.00     0.073 A 
HETATM    6  C7  UNL     1       6.987   8.041  21.815  1.00  0.00     0.058 A 
HETATM    7  C8  UNL     1       8.153   8.353  22.491  1.00  0.00     0.092 A 
HETATM    8  C9  UNL     1       9.439   8.645  21.841  1.00  0.00     0.257 C 
HETATM    9  O2  UNL     1      10.400   8.818  22.632  1.00  0.00    -0.267 OA
HETATM   10  N1  UNL     1       9.800   8.770  20.482  1.00  0.00    -0.348 N 
ATOM     11  H1  UNL     1      10.788   8.668  20.251  1.00  0.00     0.163 HD
HETATM   12  C10 UNL     1       8.877   9.032  19.377  1.00  0.00     0.226 C 
HETATM   13  C11 UNL     1       7.697   8.158  19.410  1.00  0.00     0.242 C 
HETATM   14  O3  UNL     1       7.494   7.461  18.351  1.00  0.00    -0.271 OA
HETATM   15  N2  UNL     1       6.694   7.919  20.425  1.00  0.00    -0.315 N 
ENDROOT
BRANCH  15  16
HETATM   16  C12 UNL     1       5.389   7.551  19.978  1.00  0.00     0.134 C 
BRANCH  16  17
HETATM   17  C13 UNL     1       4.979   6.147  20.331  1.00  0.00     0.040 C 
BRANCH  17  18
HETATM   18  C14 UNL     1       4.936   5.227  19.140  1.00  0.00     0.127 C 
BRANCH  18  19
HETATM   19  N3  UNL     1       6.045   4.312  19.243  1.00  0.00    -0.351 N 
HETATM   20  C15 UNL     1       6.424   3.564  20.445  1.00  0.00     0.127 C 
HETATM   21  C16 UNL     1       7.922   3.319  20.231  1.00  0.00     0.041 C 
HETATM   22  C17 UNL     1       7.997   3.150  18.753  1.00  0.00     0.075 C 
HETATM   23  C18 UNL     1       9.387   3.542  18.211  1.00  0.00     0.057 C 
HETATM   24  C21 UNL     1       7.971   1.727  18.294  1.00  0.00     0.242 C 
HETATM   25  C23 UNL     1       6.945   3.993  18.190  1.00  0.00     0.230 C 
HETATM   26  C19 UNL     1       9.756   2.206  17.616  1.00  0.00     0.226 C 
HETATM   27  C20 UNL     1       9.342   1.230  18.671  1.00  0.00     0.073 C 
HETATM   28  N4  UNL     1       8.504   1.854  16.927  1.00  0.00     0.095 N 
HETATM   29  C22 UNL     1       8.554   0.587  16.251  1.00  0.00     0.310 C 
HETATM   30  O4  UNL     1       6.838   4.375  16.998  1.00  0.00    -0.272 OA
ENDBRANCH  18  19
ENDBRANCH  17  18
ENDBRANCH  16  17
ENDBRANCH  15  16
BRANCH   1  31
HETATM   31  O1  UNL     1       9.447   8.742  24.420  1.00  0.00    -0.350 OA
BRANCH  31  32
HETATM   32  C2  UNL     1       9.895   8.500  25.704  1.00  0.00     0.171 C 
HETATM   33  C1  UNL     1      11.327   8.158  25.852  1.00  0.00     0.034 C 
ENDBRANCH  31  32
ENDBRANCH   1  31
TORSDOF 6
ENDMDL
MODEL 2
REMARK VINA RESULT: -8.631257782      1.991      2.867
REMARK  6 active torsions:
REMARK  status: ('A' for Active; 'I' for Inactive)
REMARK    1  A    between atoms: C2_2  and  O1_3 
REMARK    2  A    between atoms: O1_3  and  C3_4 
REMARK    3  A    between atoms: N2_18  and  C12_19 
REMARK    4  A    between atoms: C12_19  and  C13_20 
REMARK    5  A    between atoms: C13_20  and  C14_21 
REMARK    6  A    between atoms: C14_21  and  N3_22 
ROOT
HETATM    1  C3  UNL     1       8.933   8.377  22.723  1.00  0.00     0.089 A 
HETATM    2  C4  UNL     1       9.592   8.519  21.522  1.00  0.00     0.080 A 
HETATM    3  C5  UNL     1       8.893   8.424  20.345  1.00  0.00     0.121 A 
HETATM    4  F1  UNL     1       9.515   8.559  19.154  1.00  0.00    -0.206 F 
HETATM    5  C6  UNL     1       7.521   8.185  20.357  1.00  0.00     0.073 A 
HETATM    6  C7  UNL     1       6.841   8.040  21.525  1.00  0.00     0.058 A 
HETATM    7  C8  UNL     1       7.577   8.143  22.692  1.00  0.00     0.092 A 
HETATM    8  C9  UNL     1       7.015   8.018  24.044  1.00  0.00     0.257 C 
HETATM    9  O2  UNL     1       7.833   8.231  24.974  1.00  0.00    -0.267 OA
HETATM   10  N1  UNL     1       5.717   7.701  24.499  1.00  0.00    -0.348 N 
ATOM     11  H1  UNL     1       5.478   7.971  25.453  1.00  0.00     0.163 HD
HETATM   12  C10 UNL     1       4.686   7.017  23.718  1.00  0.00     0.226 C 
HETATM   13  C11 UNL     1       4.522   7.593  22.376  1.00  0.00     0.242 C 
HETATM   14  O3  UNL     1       3.336   7.992  22.087  1.00  0.00    -0.271 OA
HETATM   15  N2  UNL     1       5.453   7.805  21.290  1.00  0.00    -0.315 N 
ENDROOT
BRANCH  15  16
HETATM   16  C12 UNL     1       4.927   7.771  19.964  1.00  0.00     0.134 C 
BRANCH  16  17
HETATM   17  C13 UNL     1       4.604   6.393  19.454  1.00  0.00     0.040 C 
BRANCH  17  18
HETATM   18  C14 UNL     1       5.394   6.016  18.229  1.00  0.00     0.127 C 
BRANCH  18  19
HETATM   19  N3  UNL     1       6.299   4.954  18.590  1.00  0.00    -0.351 N 
HETATM   20  C15 UNL     1       6.368   4.302  19.902  1.00  0.00     0.127 C 
HETATM   21  C16 UNL     1       7.814   3.798  19.952  1.00  0.00     0.041 C 
HETATM   22  C17 UNL     1       8.066   3.446  18.526  1.00  0.00     0.075 C 
HETATM   23  C18 UNL     1       9.566   3.544  18.179  1.00  0.00     0.057 C 
HETATM   24  C21 UNL     1       7.856   2.002  18.202  1.00  0.00     0.242 C 
HETATM   25  C23 UNL     1       7.269   4.374  17.728  1.00  0.00     0.230 C 
HETATM   26  C19 UNL     1       9.775   2.106  17.776  1.00  0.00     0.226 C 
HETATM   27  C20 UNL     1       9.052   1.340  18.837  1.00  0.00     0.073 C 
HETATM   28  N4  UNL     1       8.590   1.880  16.933  1.00  0.00     0.095 N 
HETATM   29  C22 UNL     1       8.513   0.550  16.393  1.00  0.00     0.310 C 
HETATM   30  O4  UNL     1       7.400   4.625  16.505  1.00  0.00    -0.272 OA
ENDBRANCH  18  19
ENDBRANCH  17  18
ENDBRANCH  16  17
ENDBRANCH  15  16
BRANCH   1  31
HETATM   31  O1  UNL     1       9.555   8.459  23.929  1.00  0.00    -0.350 OA
BRANCH  31  32
HETATM   32  C2  UNL     1      10.840   8.882  24.213  1.00  0.00     0.171 C 
HETATM   33  C1  UNL     1      11.230   8.898  25.640  1.00  0.00     0.034 C 
ENDBRANCH  31  32
ENDBRANCH   1  31
TORSDOF 6
ENDMDL
MODEL 3
REMARK VINA RESULT: -8.498633171      1.071      1.455
REMARK  6 active torsions:
REMARK  status: ('A' for Active; 'I' for Inactive)
REMARK    1  A    between atoms: C2_2  and  O1_3 
REMARK    2  A    between atoms: O1_3  and  C3_4 
REMARK    3  A    between atoms: N2_18  and  C12_19 
REMARK    4  A    between atoms: C12_19  and  C13_20 
REMARK    5  A    between atoms: C13_20  and  C14_21 
REMARK    6  A    between atoms: C14_21  and  N3_22 
ROOT
HETATM    1  C3  UNL     1       8.206   8.621  23.861  1.00  0.00     0.089 A 
HETATM    2  C4  UNL     1       7.049   8.487  24.595  1.00  0.00     0.080 A 
HETATM    3  C5  UNL     1       5.850   8.309  23.952  1.00  0.00     0.121 A 
HETATM    4  F1  UNL     1       4.700   8.175  24.647  1.00  0.00    -0.206 F 
HETATM    5  C6  UNL     1       5.797   8.262  22.560  1.00  0.00     0.073 A 
HETATM    6  C7  UNL     1       6.920   8.391  21.807  1.00  0.00     0.058 A 
HETATM    7  C8  UNL     1       8.111   8.569  22.490  1.00  0.00     0.092 A 
HETATM    8  C9  UNL     1       9.424   8.723  21.847  1.00  0.00     0.257 C 
HETATM    9  O2  UNL     1      10.394   8.784  22.643  1.00  0.00    -0.267 OA
HETATM   10  N1  UNL     1       9.802   8.817  20.490  1.00  0.00    -0.348 N 
ATOM     11  H1  UNL     1      10.775   8.609  20.262  1.00  0.00     0.163 HD
HETATM   12  C10 UNL     1       8.919   9.186  19.384  1.00  0.00     0.226 C 
HETATM   13  C11 UNL     1       7.650   8.446  19.406  1.00  0.00     0.242 C 
HETATM   14  O3  UNL     1       7.377   7.784  18.340  1.00  0.00    -0.271 OA
HETATM   15  N2  UNL     1       6.622   8.311  20.415  1.00  0.00    -0.315 N 
ENDROOT
BRANCH  15  16
HETATM   16  C12 UNL     1       5.287   8.092  19.960  1.00  0.00     0.134 C 
BRANCH  16  17
HETATM   17  C13 UNL     1       5.067   6.768  19.280  1.00  0.00     0.040 C 
BRANCH  17  18
HETATM   18  C14 UNL     1       4.951   5.619  20.247  1.00  0.00     0.127 C 
BRANCH  18  19
HETATM   19  N3  UNL     1       5.510   4.449  19.619  1.00  0.00    -0.351 N 
HETATM   20  C15 UNL     1       4.822   3.591  18.649  1.00  0.00     0.127 C 
HETATM   21  C16 UNL     1       5.535   2.245  18.826  1.00  0.00     0.041 C 
HETATM   22  C17 UNL     1       6.928   2.674  19.131  1.00  0.00     0.075 C 
HETATM   23  C18 UNL     1       7.672   1.615  19.971  1.00  0.00     0.057 C 
HETATM   24  C21 UNL     1       7.839   2.698  17.945  1.00  0.00     0.242 C 
HETATM   25  C23 UNL     1       6.820   3.944  19.844  1.00  0.00     0.230 C 
HETATM   26  C19 UNL     1       8.786   1.329  18.995  1.00  0.00     0.226 C 
HETATM   27  C20 UNL     1       8.081   1.234  17.680  1.00  0.00     0.073 C 
HETATM   28  N4  UNL     1       9.160   2.695  18.593  1.00  0.00     0.095 N 
HETATM   29  C22 UNL     1      10.229   2.741  17.635  1.00  0.00     0.310 C 
HETATM   30  O4  UNL     1       7.709   4.503  20.532  1.00  0.00    -0.272 OA
ENDBRANCH  18  19
ENDBRANCH  17  18
ENDBRANCH  16  17
ENDBRANCH  15  16
BRANCH   1  31
HETATM   31  O1  UNL     1       9.430   8.800  24.426  1.00  0.00    -0.350 OA
BRANCH  31  32
HETATM   32  C2  UNL     1       9.850   8.476  25.702  1.00  0.00     0.171 C 
HETATM   33  C1  UNL     1      11.307   8.542  25.955  1.00  0.00     0.034 C 
ENDBRANCH  31  32
ENDBRANCH   1  31
TORSDOF 6
ENDMDL
MODEL 4
REMARK VINA RESULT: -8.488228919      2.172      3.026
REMARK  6 active torsions:
REMARK  status: ('A' for Active; 'I' for Inactive)
REMARK    1  A    between atoms: C2_2  and  O1_3 
REMARK    2  A    between atoms: O1_3  and  C3_4 
REMARK    3  A    between atoms: N2_18  and  C12_19 
REMARK    4  A    between atoms: C12_19  and  C13_20 
REMARK    5  A    between atoms: C13_20  and  C14_21 
REMARK    6  A    between atoms: C14_21  and  N3_22 
ROOT
HETATM    1  C3  UNL     1       8.342   8.398  22.610  1.00  0.00     0.089 A 
HETATM    2  C4  UNL     1       9.032   7.982  21.493  1.00  0.00     0.080 A 
HETATM    3  C5  UNL     1       8.371   7.311  20.495  1.00  0.00     0.121 A 
HETATM    4  F1  UNL     1       9.023   6.892  19.388  1.00  0.00    -0.206 F 
HETATM    5  C6  UNL     1       7.008   7.046  20.605  1.00  0.00     0.073 A 
HETATM    6  C7  UNL     1       6.299   7.443  21.695  1.00  0.00     0.058 A 
HETATM    7  C8  UNL     1       6.997   8.118  22.680  1.00  0.00     0.092 A 
HETATM    8  C9  UNL     1       6.400   8.624  23.925  1.00  0.00     0.257 C 
HETATM    9  O2  UNL     1       7.183   9.288  24.649  1.00  0.00    -0.267 OA
HETATM   10  N1  UNL     1       5.101   8.504  24.462  1.00  0.00    -0.348 N 
ATOM     11  H1  UNL     1       4.825   9.184  25.172  1.00  0.00     0.163 HD
HETATM   12  C10 UNL     1       4.117   7.488  24.090  1.00  0.00     0.226 C 
HETATM   13  C11 UNL     1       3.973   7.351  22.634  1.00  0.00     0.242 C 
HETATM   14  O3  UNL     1       2.783   7.514  22.178  1.00  0.00    -0.271 OA
HETATM   15  N2  UNL     1       4.928   7.064  21.586  1.00  0.00    -0.315 N 
ENDROOT
BRANCH  15  16
HETATM   16  C12 UNL     1       4.442   6.383  20.430  1.00  0.00     0.134 C 
BRANCH  16  17
HETATM   17  C13 UNL     1       4.141   4.924  20.643  1.00  0.00     0.040 C 
BRANCH  17  18
HETATM   18  C14 UNL     1       4.173   4.122  19.370  1.00  0.00     0.127 C 
BRANCH  18  19
HETATM   19  N3  UNL     1       5.428   3.413  19.321  1.00  0.00    -0.351 N 
HETATM   20  C15 UNL     1       5.738   2.178  20.049  1.00  0.00     0.127 C 
HETATM   21  C16 UNL     1       7.263   2.241  20.181  1.00  0.00     0.041 C 
HETATM   22  C17 UNL     1       7.656   2.902  18.905  1.00  0.00     0.075 C 
HETATM   23  C18 UNL     1       8.991   3.661  19.051  1.00  0.00     0.057 C 
HETATM   24  C21 UNL     1       8.056   1.954  17.819  1.00  0.00     0.242 C 
HETATM   25  C23 UNL     1       6.560   3.803  18.557  1.00  0.00     0.230 C 
HETATM   26  C19 UNL     1       9.772   2.900  18.010  1.00  0.00     0.226 C 
HETATM   27  C20 UNL     1       9.409   1.474  18.277  1.00  0.00     0.073 C 
HETATM   28  N4  UNL     1       8.793   2.849  16.912  1.00  0.00     0.095 N 
HETATM   29  C22 UNL     1       9.270   2.157  15.746  1.00  0.00     0.310 C 
HETATM   30  O4  UNL     1       6.595   4.753  17.736  1.00  0.00    -0.272 OA
ENDBRANCH  18  19
ENDBRANCH  17  18
ENDBRANCH  16  17
ENDBRANCH  15  16
BRANCH   1  31
HETATM   31  O1  UNL     1       8.926   9.068  23.638  1.00  0.00    -0.350 OA
BRANCH  31  32
HETATM   32  C2  UNL     1      10.268   9.174  23.953  1.00  0.00     0.171 C 
HETATM   33  C1  UNL     1      10.652   8.829  25.339  1.00  0.00     0.034 C 
ENDBRANCH  31  32
ENDBRANCH   1  31
TORSDOF 6
ENDMDL
MODEL 5
REMARK VINA RESULT: -8.321250137      2.158      3.187
REMARK  6 active torsions:
REMARK  status: ('A' for Active; 'I' for Inactive)
REMARK    1  A    between atoms: C2_2  and  O1_3 
REMARK    2  A    between atoms: O1_3  and  C3_4 
REMARK    3  A    between atoms: N2_18  and  C12_19 
REMARK    4  A    between atoms: C12_19  and  C13_20 
REMARK    5  A    between atoms: C13_20  and  C14_21 
REMARK    6  A    between atoms: C14_21  and  N3_22 
ROOT
HETATM    1  C3  UNL     1       8.916   8.812  22.862  1.00  0.00     0.089 A 
HETATM    2  C4  UNL     1       9.652   8.855  21.700  1.00  0.00     0.080 A 
HETATM    3  C5  UNL     1       9.080   8.461  20.516  1.00  0.00     0.121 A 
HETATM    4  F1  UNL     1       9.779   8.494  19.360  1.00  0.00    -0.206 F 
HETATM    5  C6  UNL     1       7.760   8.018  20.484  1.00  0.00     0.073 A 
HETATM    6  C7  UNL     1       7.007   7.963  21.614  1.00  0.00     0.058 A 
HETATM    7  C8  UNL     1       7.616   8.368  22.788  1.00  0.00     0.092 A 
HETATM    8  C9  UNL     1       6.961   8.381  24.104  1.00  0.00     0.257 C 
HETATM    9  O2  UNL     1       7.655   8.868  25.031  1.00  0.00    -0.267 OA
HETATM   10  N1  UNL     1       5.686   7.945  24.525  1.00  0.00    -0.348 N 
ATOM     11  H1  UNL     1       5.328   8.328  25.400  1.00  0.00     0.163 HD
HETATM   12  C10 UNL     1       4.835   6.991  23.813  1.00  0.00     0.226 C 
HETATM   13  C11 UNL     1       4.710   7.307  22.384  1.00  0.00     0.242 C 
HETATM   14  O3  UNL     1       3.510   7.465  21.956  1.00  0.00    -0.271 OA
HETATM   15  N2  UNL     1       5.694   7.480  21.338  1.00  0.00    -0.315 N 
ENDROOT
BRANCH  15  16
HETATM   16  C12 UNL     1       5.297   7.148  20.008  1.00  0.00     0.134 C 
BRANCH  16  17
HETATM   17  C13 UNL     1       5.094   5.677  19.764  1.00  0.00     0.040 C 
BRANCH  17  18
HETATM   18  C14 UNL     1       6.207   4.828  20.316  1.00  0.00     0.127 C 
BRANCH  18  19
HETATM   19  N3  UNL     1       6.997   4.351  19.208  1.00  0.00    -0.351 N 
HETATM   20  C15 UNL     1       7.655   5.194  18.205  1.00  0.00     0.127 C 
HETATM   21  C16 UNL     1       7.750   4.262  16.993  1.00  0.00     0.041 C 
HETATM   22  C17 UNL     1       7.966   2.938  17.639  1.00  0.00     0.075 C 
HETATM   23  C18 UNL     1       7.453   1.786  16.750  1.00  0.00     0.057 C 
HETATM   24  C21 UNL     1       9.401   2.525  17.732  1.00  0.00     0.242 C 
HETATM   25  C23 UNL     1       7.260   2.985  18.917  1.00  0.00     0.230 C 
HETATM   26  C19 UNL     1       8.764   1.062  16.579  1.00  0.00     0.226 C 
HETATM   27  C20 UNL     1       9.737   2.165  16.308  1.00  0.00     0.073 C 
HETATM   28  N4  UNL     1       9.271   1.077  17.961  1.00  0.00     0.095 N 
HETATM   29  C22 UNL     1      10.550   0.440  18.112  1.00  0.00     0.310 C 
HETATM   30  O4  UNL     1       6.937   2.010  19.639  1.00  0.00    -0.272 OA
ENDBRANCH  18  19
ENDBRANCH  17  18
ENDBRANCH  16  17
ENDBRANCH  15  16
BRANCH   1  31
HETATM   31  O1  UNL     1       9.413   9.185  24.072  1.00  0.00    -0.350 OA
BRANCH  31  32
HETATM   32  C2  UNL     1      10.730   9.262  24.481  1.00  0.00     0.171 C 
HETATM   33  C1  UNL     1      11.147   8.325  25.547  1.00  0.00     0.034 C 
ENDBRANCH  31  32
ENDBRANCH   1  31
TORSDOF 6
ENDMDL
