MODEL 1
REMARK VINA RESULT: -7.579974190      0.000      0.000
REMARK  6 active torsions:
REMARK  status: ('A' for Active; 'I' for Inactive)
REMARK    1  A    between atoms: C2_2  and  C3_4 
REMARK    2  A    between atoms: C10_12  and  O2_13 
REMARK    3  A    between atoms: O2_13  and  C11_14 
REMARK    4  A    between atoms: C11_14  and  C12_15 
REMARK    5  A    between atoms: C12_15  and  N2_16 
REMARK    6  A    between atoms: N3_24  and  O4_25 
ROOT
HETATM    1  C11 UNL     1       6.707   5.874  19.476  1.00  0.00     0.200 C 
ENDROOT
BRANCH   1   2
HETATM    2  O2  UNL     1       7.707   4.908  19.530  1.00  0.00    -0.355 OA
BRANCH   2   3
HETATM    3  C10 UNL     1       7.386   3.779  18.804  1.00  0.00     0.370 C 
HETATM    4  C3  UNL     1       7.761   2.508  19.521  1.00  0.00     0.118 C 
HETATM    5  C4  UNL     1       7.765   1.426  18.451  1.00  0.00     0.003 C 
HETATM    6  C5  UNL     1       9.152   1.134  17.955  1.00  0.00     0.007 C 
HETATM    7  C9  UNL     1       6.930   1.808  17.248  1.00  0.00     0.036 C 
HETATM    8  C6  UNL     1      10.102   2.261  18.041  1.00  0.00     0.031 C 
HETATM    9  C7  UNL     1       9.565   3.623  17.951  1.00  0.00     0.276 C 
HETATM   10  N1  UNL     1       8.209   3.781  17.591  1.00  0.00     0.118 N 
HETATM   11  C8  UNL     1       7.699   2.946  16.564  1.00  0.00     0.276 C 
BRANCH   4  12
HETATM   12  C2  UNL     1       6.905   2.156  20.655  1.00  0.00     0.132 C 
HETATM   13  C1  UNL     1       5.459   2.448  20.743  1.00  0.00     0.091 C 
HETATM   14  O1  UNL     1       7.401   1.574  21.618  1.00  0.00    -0.298 OA
ENDBRANCH   4  12
ENDBRANCH   2   3
ENDBRANCH   1   2
BRANCH   1  15
HETATM   15  C12 UNL     1       6.481   6.485  20.837  1.00  0.00     0.287 C 
BRANCH  15  16
HETATM   16  N2  UNL     1       6.871   7.900  20.893  1.00  0.00     0.023 N 
HETATM   17  C13 UNL     1       5.891   8.538  21.735  1.00  0.00     0.299 C 
HETATM   18  C14 UNL     1       7.078   8.360  19.621  1.00  0.00     0.251 C 
HETATM   19  C15 UNL     1       6.538   9.574  19.017  1.00  0.00     0.071 C 
HETATM   20  C17 UNL     1       8.560   8.792  19.598  1.00  0.00     0.123 C 
HETATM   21  C16 UNL     1       7.865  10.060  18.404  1.00  0.00     0.142 C 
HETATM   22  O3  UNL     1       8.677   8.907  18.251  1.00  0.00    -0.369 OA
HETATM   23  C19 UNL     1       8.655  10.250  19.670  1.00  0.00     0.125 C 
HETATM   24 BR1  UNL     1       7.952  11.285  21.041  1.00  0.00    -0.085 Br
HETATM   25  C18 UNL     1       9.139   7.872  20.491  1.00  0.00     0.195 C 
HETATM   26  N3  UNL     1       8.139   7.834  21.551  1.00  0.00    -0.015 NA
BRANCH  26  27
HETATM   27  O4  UNL     1       8.271   6.748  22.308  1.00  0.00    -0.288 OA
ATOM     28  H4  UNL     1       8.019   5.952  21.855  1.00  0.00     0.239 HD
ENDBRANCH  26  27
ENDBRANCH  15  16
ENDBRANCH   1  15
TORSDOF 6
ENDMDL
MODEL 2
REMARK VINA RESULT: -7.572484676      1.548      2.324
REMARK  6 active torsions:
REMARK  status: ('A' for Active; 'I' for Inactive)
REMARK    1  A    between atoms: C2_2  and  C3_4 
REMARK    2  A    between atoms: C10_12  and  O2_13 
REMARK    3  A    between atoms: O2_13  and  C11_14 
REMARK    4  A    between atoms: C11_14  and  C12_15 
REMARK    5  A    between atoms: C12_15  and  N2_16 
REMARK    6  A    between atoms: N3_24  and  O4_25 
ROOT
HETATM    1  C11 UNL     1       7.186   5.611  18.472  1.00  0.00     0.200 C 
ENDROOT
BRANCH   1   2
HETATM    2  O2  UNL     1       8.164   4.644  18.672  1.00  0.00    -0.355 OA
BRANCH   2   3
HETATM    3  C10 UNL     1       7.900   3.480  17.978  1.00  0.00     0.370 C 
HETATM    4  C3  UNL     1       7.994   2.256  18.852  1.00  0.00     0.118 C 
HETATM    5  C4  UNL     1       8.123   1.082  17.892  1.00  0.00     0.003 C 
HETATM    6  C5  UNL     1       9.549   0.641  17.736  1.00  0.00     0.007 C 
HETATM    7  C9  UNL     1       7.601   1.413  16.510  1.00  0.00     0.036 C 
HETATM    8  C6  UNL     1      10.561   1.696  17.944  1.00  0.00     0.031 C 
HETATM    9  C7  UNL     1      10.186   3.081  17.638  1.00  0.00     0.276 C 
HETATM   10  N1  UNL     1       8.959   3.306  16.979  1.00  0.00     0.118 N 
HETATM   11  C8  UNL     1       8.602   2.421  15.929  1.00  0.00     0.276 C 
BRANCH   4  12
HETATM   12  C2  UNL     1       6.887   2.076  19.794  1.00  0.00     0.132 C 
HETATM   13  C1  UNL     1       7.045   1.763  21.230  1.00  0.00     0.091 C 
HETATM   14  O1  UNL     1       5.734   2.189  19.387  1.00  0.00    -0.298 OA
ENDBRANCH   4  12
ENDBRANCH   2   3
ENDBRANCH   1   2
BRANCH   1  15
HETATM   15  C12 UNL     1       6.559   6.015  19.783  1.00  0.00     0.287 C 
BRANCH  15  16
HETATM   16  N2  UNL     1       6.936   7.373  20.196  1.00  0.00     0.023 N 
HETATM   17  C13 UNL     1       6.927   8.161  18.990  1.00  0.00     0.299 C 
HETATM   18  C14 UNL     1       8.070   7.312  20.959  1.00  0.00     0.251 C 
HETATM   19  C15 UNL     1       9.286   8.105  20.808  1.00  0.00     0.071 C 
HETATM   20  C17 UNL     1       7.651   7.887  22.329  1.00  0.00     0.123 C 
HETATM   21  C16 UNL     1       9.431   8.474  22.296  1.00  0.00     0.142 C 
HETATM   22  O3  UNL     1       8.741   7.471  23.023  1.00  0.00    -0.369 OA
HETATM   23  C19 UNL     1       8.157   9.252  22.473  1.00  0.00     0.125 C 
HETATM   24 BR1  UNL     1       7.767  10.647  21.311  1.00  0.00    -0.085 Br
HETATM   25  C18 UNL     1       6.306   7.481  22.409  1.00  0.00     0.195 C 
HETATM   26  N3  UNL     1       5.848   7.739  21.049  1.00  0.00    -0.015 NA
BRANCH  26  27
HETATM   27  O4  UNL     1       4.731   7.070  20.776  1.00  0.00    -0.288 OA
ATOM     28  H4  UNL     1       4.118   7.067  21.501  1.00  0.00     0.239 HD
ENDBRANCH  26  27
ENDBRANCH  15  16
ENDBRANCH   1  15
TORSDOF 6
ENDMDL
MODEL 3
REMARK VINA RESULT: -7.554552621      1.604      2.276
REMARK  6 active torsions:
REMARK  status: ('A' for Active; 'I' for Inactive)
REMARK    1  A    between atoms: C2_2  and  C3_4 
REMARK    2  A    between atoms: C10_12  and  O2_13 
REMARK    3  A    between atoms: O2_13  and  C11_14 
REMARK    4  A    between atoms: C11_14  and  C12_15 
REMARK    5  A    between atoms: C12_15  and  N2_16 
REMARK    6  A    between atoms: N3_24  and  O4_25 
ROOT
HETATM    1  C11 UNL     1       7.690   5.981  18.837  1.00  0.00     0.200 C 
ENDROOT
BRANCH   1   2
HETATM    2  O2  UNL     1       8.410   4.809  19.044  1.00  0.00    -0.355 OA
BRANCH   2   3
HETATM    3  C10 UNL     1       7.967   3.774  18.247  1.00  0.00     0.370 C 
HETATM    4  C3  UNL     1       7.920   2.460  18.984  1.00  0.00     0.118 C 
HETATM    5  C4  UNL     1       7.856   1.392  17.902  1.00  0.00     0.003 C 
HETATM    6  C5  UNL     1       9.202   0.784  17.634  1.00  0.00     0.007 C 
HETATM    7  C9  UNL     1       7.341   1.938  16.588  1.00  0.00     0.036 C 
HETATM    8  C6  UNL     1      10.356   1.667  17.904  1.00  0.00     0.031 C 
HETATM    9  C7  UNL     1      10.164   3.114  17.761  1.00  0.00     0.276 C 
HETATM   10  N1  UNL     1       8.959   3.571  17.186  1.00  0.00     0.118 N 
HETATM   11  C8  UNL     1       8.451   2.861  16.068  1.00  0.00     0.276 C 
BRANCH   4  12
HETATM   12  C2  UNL     1       6.830   2.328  19.952  1.00  0.00     0.132 C 
HETATM   13  C1  UNL     1       6.983   1.807  21.327  1.00  0.00     0.091 C 
HETATM   14  O1  UNL     1       5.696   2.667  19.623  1.00  0.00    -0.298 OA
ENDBRANCH   4  12
ENDBRANCH   2   3
ENDBRANCH   1   2
BRANCH   1  15
HETATM   15  C12 UNL     1       8.442   7.172  19.379  1.00  0.00     0.287 C 
BRANCH  15  16
HETATM   16  N2  UNL     1       7.891   7.658  20.651  1.00  0.00     0.023 N 
HETATM   17  C13 UNL     1       8.321   6.710  21.647  1.00  0.00     0.299 C 
HETATM   18  C14 UNL     1       6.557   7.918  20.492  1.00  0.00     0.251 C 
HETATM   19  C15 UNL     1       5.458   7.474  21.343  1.00  0.00     0.071 C 
HETATM   20  C17 UNL     1       6.415   9.426  20.789  1.00  0.00     0.123 C 
HETATM   21  C16 UNL     1       4.755   8.842  21.437  1.00  0.00     0.142 C 
HETATM   22  O3  UNL     1       5.160   9.574  20.292  1.00  0.00    -0.369 OA
HETATM   23  C19 UNL     1       5.844   9.621  22.121  1.00  0.00     0.125 C 
HETATM   24 BR1  UNL     1       6.590   8.967  23.691  1.00  0.00    -0.085 Br
HETATM   25  C18 UNL     1       7.646   9.925  20.326  1.00  0.00     0.195 C 
HETATM   26  N3  UNL     1       8.569   8.907  20.813  1.00  0.00    -0.015 NA
BRANCH  26  27
HETATM   27  O4  UNL     1       9.730   8.950  20.165  1.00  0.00    -0.288 OA
ATOM     28  H4  UNL     1      10.186   9.775  20.285  1.00  0.00     0.239 HD
ENDBRANCH  26  27
ENDBRANCH  15  16
ENDBRANCH   1  15
TORSDOF 6
ENDMDL
MODEL 4
REMARK VINA RESULT: -7.220994958      1.505      1.807
REMARK  6 active torsions:
REMARK  status: ('A' for Active; 'I' for Inactive)
REMARK    1  A    between atoms: C2_2  and  C3_4 
REMARK    2  A    between atoms: C10_12  and  O2_13 
REMARK    3  A    between atoms: O2_13  and  C11_14 
REMARK    4  A    between atoms: C11_14  and  C12_15 
REMARK    5  A    between atoms: C12_15  and  N2_16 
REMARK    6  A    between atoms: N3_24  and  O4_25 
ROOT
HETATM    1  C11 UNL     1       5.563   5.614  20.742  1.00  0.00     0.200 C 
ENDROOT
BRANCH   1   2
HETATM    2  O2  UNL     1       6.752   4.935  20.497  1.00  0.00    -0.355 OA
BRANCH   2   3
HETATM    3  C10 UNL     1       6.585   3.889  19.612  1.00  0.00     0.370 C 
HETATM    4  C3  UNL     1       7.324   2.648  20.042  1.00  0.00     0.118 C 
HETATM    5  C4  UNL     1       7.413   1.778  18.797  1.00  0.00     0.003 C 
HETATM    6  C5  UNL     1       8.747   1.904  18.120  1.00  0.00     0.007 C 
HETATM    7  C9  UNL     1       6.355   2.132  17.774  1.00  0.00     0.036 C 
HETATM    8  C6  UNL     1       9.432   3.198  18.316  1.00  0.00     0.031 C 
HETATM    9  C7  UNL     1       8.606   4.390  18.532  1.00  0.00     0.276 C 
HETATM   10  N1  UNL     1       7.212   4.275  18.343  1.00  0.00     0.118 N 
HETATM   11  C8  UNL     1       6.756   3.513  17.237  1.00  0.00     0.276 C 
BRANCH   4  12
HETATM   12  C2  UNL     1       6.731   1.930  21.173  1.00  0.00     0.132 C 
HETATM   13  C1  UNL     1       5.281   1.836  21.444  1.00  0.00     0.091 C 
HETATM   14  O1  UNL     1       7.472   1.356  21.968  1.00  0.00    -0.298 OA
ENDBRANCH   4  12
ENDBRANCH   2   3
ENDBRANCH   1   2
BRANCH   1  15
HETATM   15  C12 UNL     1       5.826   6.894  21.497  1.00  0.00     0.287 C 
BRANCH  15  16
HETATM   16  N2  UNL     1       6.217   8.000  20.614  1.00  0.00     0.023 N 
HETATM   17  C13 UNL     1       5.407   7.857  19.430  1.00  0.00     0.299 C 
HETATM   18  C14 UNL     1       7.581   8.027  20.504  1.00  0.00     0.251 C 
HETATM   19  C15 UNL     1       8.372   8.102  19.281  1.00  0.00     0.071 C 
HETATM   20  C17 UNL     1       7.990   9.406  21.067  1.00  0.00     0.123 C 
HETATM   21  C16 UNL     1       9.326   9.211  19.766  1.00  0.00     0.142 C 
HETATM   22  O3  UNL     1       9.318   9.148  21.183  1.00  0.00    -0.369 OA
HETATM   23  C19 UNL     1       8.324  10.313  19.969  1.00  0.00     0.125 C 
HETATM   24 BR1  UNL     1       7.168  10.766  18.589  1.00  0.00    -0.085 Br
HETATM   25  C18 UNL     1       7.010   9.614  22.054  1.00  0.00     0.195 C 
HETATM   26  N3  UNL     1       5.811   9.144  21.370  1.00  0.00    -0.015 NA
BRANCH  26  27
HETATM   27  O4  UNL     1       4.833   8.872  22.230  1.00  0.00    -0.288 OA
ATOM     28  H4  UNL     1       4.046   9.378  22.063  1.00  0.00     0.239 HD
ENDBRANCH  26  27
ENDBRANCH  15  16
ENDBRANCH   1  15
TORSDOF 6
ENDMDL
MODEL 5
REMARK VINA RESULT: -7.191039137      1.110      1.199
REMARK  6 active torsions:
REMARK  status: ('A' for Active; 'I' for Inactive)
REMARK    1  A    between atoms: C2_2  and  C3_4 
REMARK    2  A    between atoms: C10_12  and  O2_13 
REMARK    3  A    between atoms: O2_13  and  C11_14 
REMARK    4  A    between atoms: C11_14  and  C12_15 
REMARK    5  A    between atoms: C12_15  and  N2_16 
REMARK    6  A    between atoms: N3_24  and  O4_25 
ROOT
HETATM    1  C11 UNL     1       6.876   6.233  20.906  1.00  0.00     0.200 C 
ENDROOT
BRANCH   1   2
HETATM    2  O2  UNL     1       7.632   5.085  20.692  1.00  0.00    -0.355 OA
BRANCH   2   3
HETATM    3  C10 UNL     1       7.055   4.244  19.763  1.00  0.00     0.370 C 
HETATM    4  C3  UNL     1       7.414   2.798  19.995  1.00  0.00     0.118 C 
HETATM    5  C4  UNL     1       7.094   2.087  18.689  1.00  0.00     0.003 C 
HETATM    6  C5  UNL     1       8.320   1.885  17.846  1.00  0.00     0.007 C 
HETATM    7  C9  UNL     1       6.094   2.854  17.850  1.00  0.00     0.036 C 
HETATM    8  C6  UNL     1       9.389   2.885  18.041  1.00  0.00     0.031 C 
HETATM    9  C7  UNL     1       9.002   4.237  18.456  1.00  0.00     0.276 C 
HETATM   10  N1  UNL     1       7.629   4.565  18.453  1.00  0.00     0.118 N 
HETATM   11  C8  UNL     1       6.843   4.103  17.366  1.00  0.00     0.276 C 
BRANCH   4  12
HETATM   12  C2  UNL     1       6.754   2.168  21.140  1.00  0.00     0.132 C 
HETATM   13  C1  UNL     1       5.331   2.350  21.498  1.00  0.00     0.091 C 
HETATM   14  O1  UNL     1       7.408   1.430  21.872  1.00  0.00    -0.298 OA
ENDBRANCH   4  12
ENDBRANCH   2   3
ENDBRANCH   1   2
BRANCH   1  15
HETATM   15  C12 UNL     1       7.634   7.219  21.761  1.00  0.00     0.287 C 
BRANCH  15  16
HETATM   16  N2  UNL     1       7.655   8.569  21.182  1.00  0.00     0.023 N 
HETATM   17  C13 UNL     1       7.124   9.436  22.204  1.00  0.00     0.299 C 
HETATM   18  C14 UNL     1       7.070   8.538  19.946  1.00  0.00     0.251 C 
HETATM   19  C15 UNL     1       6.031   9.425  19.433  1.00  0.00     0.071 C 
HETATM   20  C17 UNL     1       8.183   8.986  18.976  1.00  0.00     0.123 C 
HETATM   21  C16 UNL     1       6.703   9.701  18.074  1.00  0.00     0.142 C 
HETATM   22  O3  UNL     1       7.566   8.602  17.829  1.00  0.00    -0.369 OA
HETATM   23  C19 UNL     1       7.958  10.370  18.562  1.00  0.00     0.125 C 
HETATM   24 BR1  UNL     1       7.833  11.810  19.727  1.00  0.00    -0.085 Br
HETATM   25  C18 UNL     1       9.333   8.479  19.608  1.00  0.00     0.195 C 
HETATM   26  N3  UNL     1       9.056   8.796  21.003  1.00  0.00    -0.015 NA
BRANCH  26  27
HETATM   27  O4  UNL     1       9.805   8.069  21.827  1.00  0.00    -0.288 OA
ATOM     28  H4  UNL     1      10.733   8.144  21.642  1.00  0.00     0.239 HD
ENDBRANCH  26  27
ENDBRANCH  15  16
ENDBRANCH   1  15
TORSDOF 6
ENDMDL
