MODEL 1
REMARK VINA RESULT: -6.563660028      0.000      0.000
REMARK  6 active torsions:
REMARK  status: ('A' for Active; 'I' for Inactive)
REMARK    1  A    between atoms: C3_3  and  C4_4 
REMARK    2  A    between atoms: C5_5  and  O1_6 
REMARK    3  A    between atoms: C6_8  and  C7_9 
REMARK    4  A    between atoms: C9_12  and  O3_13 
REMARK    5  A    between atoms: C17_23  and  C18_24 
REMARK    6  A    between atoms: C18_24  and  O5_25 
ROOT
HETATM    1  C4  UNL     1      14.182   2.787 196.393  1.00  0.00     0.032 A 
HETATM    2  C5  UNL     1      13.525   2.939 197.628  1.00  0.00     0.095 A 
HETATM    3  C6  UNL     1      13.176   1.805 198.415  1.00  0.00     0.077 A 
HETATM    4  C9  UNL     1      13.503   0.566 197.927  1.00  0.00     0.091 A 
HETATM    5  C10 UNL     1      14.167   0.433 196.673  1.00  0.00     0.017 A 
HETATM    6  C11 UNL     1      14.494   1.524 195.933  1.00  0.00     0.092 A 
HETATM    7  O4  UNL     1      15.155   1.315 194.689  1.00  0.00    -0.339 OA
HETATM    8  C12 UNL     1      14.677   0.167 193.961  1.00  0.00     0.064 C 
HETATM    9  C13 UNL     1      13.310   0.454 193.376  1.00  0.00     0.046 C 
HETATM   10  C14 UNL     1      15.646   0.014 192.796  1.00  0.00     0.046 C 
HETATM   11  C15 UNL     1      14.687  -1.081 194.767  1.00  0.00     0.026 C 
HETATM   12  C16 UNL     1      13.615  -1.996 194.170  1.00  0.00     0.014 C 
HETATM   13  C17 UNL     1      14.499  -0.919 196.228  1.00  0.00     0.054 C 
ENDROOT
BRANCH   1  14
HETATM   14  C3  UNL     1      14.550   3.923 195.579  1.00  0.00     0.013 C 
HETATM   15  C2  UNL     1      13.827   4.777 194.941  1.00  0.00    -0.030 C 
HETATM   16  C1  UNL     1      14.575   5.863 194.173  1.00  0.00     0.036 C 
ENDBRANCH   1  14
BRANCH   2  17
HETATM   17  O1  UNL     1      13.199   4.111 198.125  1.00  0.00    -0.359 OA
ATOM     18  H1  UNL     1      13.675   4.522 198.837  1.00  0.00     0.217 HD
ENDBRANCH   2  17
BRANCH   3  19
HETATM   19  C7  UNL     1      12.500   1.982 199.688  1.00  0.00     0.161 C 
HETATM   20  C8  UNL     1      11.156   1.469 200.018  1.00  0.00     0.097 C 
HETATM   21  O2  UNL     1      13.071   2.617 200.607  1.00  0.00    -0.293 OA
ENDBRANCH   3  19
BRANCH   4  22
HETATM   22  O3  UNL     1      13.221  -0.594 198.587  1.00  0.00    -0.359 OA
ATOM     23  H3  UNL     1      13.009  -1.406 198.142  1.00  0.00     0.217 HD
ENDBRANCH   4  22
BRANCH  13  24
HETATM   24  C18 UNL     1      15.679  -1.498 196.987  1.00  0.00     0.174 C 
BRANCH  24  25
HETATM   25  O5  UNL     1      15.294  -2.354 197.987  1.00  0.00    -0.400 OA
ATOM     26  H5  UNL     1      15.522  -2.032 198.852  1.00  0.00     0.209 HD
ENDBRANCH  24  25
ENDBRANCH  13  24
TORSDOF 6
ENDMDL
MODEL 2
REMARK VINA RESULT: -5.487390543      1.415      4.565
REMARK  6 active torsions:
REMARK  status: ('A' for Active; 'I' for Inactive)
REMARK    1  A    between atoms: C3_3  and  C4_4 
REMARK    2  A    between atoms: C5_5  and  O1_6 
REMARK    3  A    between atoms: C6_8  and  C7_9 
REMARK    4  A    between atoms: C9_12  and  O3_13 
REMARK    5  A    between atoms: C17_23  and  C18_24 
REMARK    6  A    between atoms: C18_24  and  O5_25 
ROOT
HETATM    1  C4  UNL     1      13.354   2.025 197.482  1.00  0.00     0.032 A 
HETATM    2  C5  UNL     1      13.631   3.258 196.863  1.00  0.00     0.095 A 
HETATM    3  C6  UNL     1      14.181   3.309 195.550  1.00  0.00     0.077 A 
HETATM    4  C9  UNL     1      14.428   2.119 194.916  1.00  0.00     0.091 A 
HETATM    5  C10 UNL     1      14.141   0.881 195.561  1.00  0.00     0.017 A 
HETATM    6  C11 UNL     1      13.617   0.847 196.813  1.00  0.00     0.092 A 
HETATM    7  O4  UNL     1      13.358  -0.427 197.396  1.00  0.00    -0.339 OA
HETATM    8  C12 UNL     1      14.356  -1.420 197.093  1.00  0.00     0.064 C 
HETATM    9  C13 UNL     1      15.625  -1.137 197.871  1.00  0.00     0.046 C 
HETATM   10  C14 UNL     1      13.781  -2.726 197.624  1.00  0.00     0.046 C 
HETATM   11  C15 UNL     1      14.616  -1.561 195.637  1.00  0.00     0.026 C 
HETATM   12  C16 UNL     1      16.045  -2.093 195.496  1.00  0.00     0.014 C 
HETATM   13  C17 UNL     1      14.415  -0.345 194.814  1.00  0.00     0.054 C 
ENDROOT
BRANCH   1  14
HETATM   14  C3  UNL     1      12.792   1.948 198.811  1.00  0.00     0.013 C 
HETATM   15  C2  UNL     1      11.815   1.249 199.278  1.00  0.00    -0.030 C 
HETATM   16  C1  UNL     1      11.498   1.429 200.760  1.00  0.00     0.036 C 
ENDBRANCH   1  14
BRANCH   2  17
HETATM   17  O1  UNL     1      13.405   4.416 197.441  1.00  0.00    -0.359 OA
ATOM     18  H1  UNL     1      12.864   4.511 198.216  1.00  0.00     0.217 HD
ENDBRANCH   2  17
BRANCH   3  19
HETATM   19  C7  UNL     1      14.459   4.591 194.927  1.00  0.00     0.161 C 
HETATM   20  C8  UNL     1      14.037   5.903 195.454  1.00  0.00     0.097 C 
HETATM   21  O2  UNL     1      15.106   4.628 193.853  1.00  0.00    -0.293 OA
ENDBRANCH   3  19
BRANCH   4  22
HETATM   22  O3  UNL     1      14.954   2.038 193.660  1.00  0.00    -0.359 OA
ATOM     23  H3  UNL     1      14.419   1.957 192.879  1.00  0.00     0.217 HD
ENDBRANCH   4  22
BRANCH  13  24
HETATM   24  C18 UNL     1      13.382  -0.597 193.729  1.00  0.00     0.174 C 
BRANCH  24  25
HETATM   25  O5  UNL     1      13.842  -0.272 192.479  1.00  0.00    -0.400 OA
ATOM     26  H5  UNL     1      13.678  -0.956 191.840  1.00  0.00     0.209 HD
ENDBRANCH  24  25
ENDBRANCH  13  24
TORSDOF 6
ENDMDL
MODEL 3
REMARK VINA RESULT: -4.874136880      2.264      3.597
REMARK  6 active torsions:
REMARK  status: ('A' for Active; 'I' for Inactive)
REMARK    1  A    between atoms: C3_3  and  C4_4 
REMARK    2  A    between atoms: C5_5  and  O1_6 
REMARK    3  A    between atoms: C6_8  and  C7_9 
REMARK    4  A    between atoms: C9_12  and  O3_13 
REMARK    5  A    between atoms: C17_23  and  C18_24 
REMARK    6  A    between atoms: C18_24  and  O5_25 
ROOT
HETATM    1  C4  UNL     1      12.634   4.245 199.645  1.00  0.00     0.032 A 
HETATM    2  C5  UNL     1      11.754   3.759 200.630  1.00  0.00     0.095 A 
HETATM    3  C6  UNL     1      11.492   2.364 200.751  1.00  0.00     0.077 A 
HETATM    4  C9  UNL     1      12.126   1.519 199.877  1.00  0.00     0.091 A 
HETATM    5  C10 UNL     1      13.012   2.032 198.886  1.00  0.00     0.017 A 
HETATM    6  C11 UNL     1      13.253   3.364 198.782  1.00  0.00     0.092 A 
HETATM    7  O4  UNL     1      14.148   3.805 197.766  1.00  0.00    -0.339 OA
HETATM    8  C12 UNL     1      14.029   3.077 196.528  1.00  0.00     0.064 C 
HETATM    9  C13 UNL     1      12.756   3.476 195.811  1.00  0.00     0.046 C 
HETATM   10  C14 UNL     1      15.198   3.559 195.679  1.00  0.00     0.046 C 
HETATM   11  C15 UNL     1      14.131   1.606 196.704  1.00  0.00     0.026 C 
HETATM   12  C16 UNL     1      13.371   0.971 195.537  1.00  0.00     0.014 C 
HETATM   13  C17 UNL     1      13.664   1.067 198.003  1.00  0.00     0.054 C 
ENDROOT
BRANCH   1  14
HETATM   14  C3  UNL     1      12.919   5.656 199.505  1.00  0.00     0.013 C 
HETATM   15  C2  UNL     1      12.184   6.632 199.098  1.00  0.00    -0.030 C 
HETATM   16  C1  UNL     1      12.832   8.013 199.084  1.00  0.00     0.036 C 
ENDBRANCH   1  14
BRANCH   2  17
HETATM   17  O1  UNL     1      11.133   4.541 201.483  1.00  0.00    -0.359 OA
ATOM     18  H1  UNL     1      11.052   5.480 201.361  1.00  0.00     0.217 HD
ENDBRANCH   2  17
BRANCH   3  19
HETATM   19  C7  UNL     1      10.583   1.881 201.775  1.00  0.00     0.161 C 
HETATM   20  C8  UNL     1       9.259   2.457 202.079  1.00  0.00     0.097 C 
HETATM   21  O2  UNL     1      10.914   0.897 202.479  1.00  0.00    -0.293 OA
ENDBRANCH   3  19
BRANCH   4  22
HETATM   22  O3  UNL     1      11.955   0.165 199.893  1.00  0.00    -0.359 OA
ATOM     23  H3  UNL     1      12.586  -0.441 199.524  1.00  0.00     0.217 HD
ENDBRANCH   4  22
BRANCH  13  24
HETATM   24  C18 UNL     1      14.781   0.313 198.704  1.00  0.00     0.174 C 
BRANCH  24  25
HETATM   25  O5  UNL     1      14.491  -1.016 198.876  1.00  0.00    -0.400 OA
ATOM     26  H5  UNL     1      14.266  -1.450 198.061  1.00  0.00     0.209 HD
ENDBRANCH  24  25
ENDBRANCH  13  24
TORSDOF 6
ENDMDL
MODEL 4
REMARK VINA RESULT: -3.629713189      1.708      5.091
REMARK  6 active torsions:
REMARK  status: ('A' for Active; 'I' for Inactive)
REMARK    1  A    between atoms: C3_3  and  C4_4 
REMARK    2  A    between atoms: C5_5  and  O1_6 
REMARK    3  A    between atoms: C6_8  and  C7_9 
REMARK    4  A    between atoms: C9_12  and  O3_13 
REMARK    5  A    between atoms: C17_23  and  C18_24 
REMARK    6  A    between atoms: C18_24  and  O5_25 
ROOT
HETATM    1  C4  UNL     1      13.849   3.644 195.343  1.00  0.00     0.032 A 
HETATM    2  C5  UNL     1      14.305   2.744 194.362  1.00  0.00     0.095 A 
HETATM    3  C6  UNL     1      14.338   1.342 194.615  1.00  0.00     0.077 A 
HETATM    4  C9  UNL     1      13.911   0.907 195.843  1.00  0.00     0.091 A 
HETATM    5  C10 UNL     1      13.453   1.835 196.823  1.00  0.00     0.017 A 
HETATM    6  C11 UNL     1      13.427   3.169 196.568  1.00  0.00     0.092 A 
HETATM    7  O4  UNL     1      12.960   4.037 197.595  1.00  0.00    -0.339 OA
HETATM    8  C12 UNL     1      13.370   3.647 198.919  1.00  0.00     0.064 C 
HETATM    9  C13 UNL     1      14.843   3.937 199.115  1.00  0.00     0.046 C 
HETATM   10  C14 UNL     1      12.598   4.569 199.854  1.00  0.00     0.046 C 
HETATM   11  C15 UNL     1      13.033   2.236 199.243  1.00  0.00     0.026 C 
HETATM   12  C16 UNL     1      14.035   1.778 200.305  1.00  0.00     0.014 C 
HETATM   13  C17 UNL     1      12.997   1.293 198.101  1.00  0.00     0.054 C 
ENDROOT
BRANCH   1  14
HETATM   14  C3  UNL     1      13.802   5.069 195.108  1.00  0.00     0.013 C 
HETATM   15  C2  UNL     1      14.725   5.966 195.158  1.00  0.00    -0.030 C 
HETATM   16  C1  UNL     1      14.300   7.398 194.843  1.00  0.00     0.036 C 
ENDBRANCH   1  14
BRANCH   2  17
HETATM   17  O1  UNL     1      14.720   3.127 193.176  1.00  0.00    -0.359 OA
ATOM     18  H1  UNL     1      14.189   3.647 192.585  1.00  0.00     0.217 HD
ENDBRANCH   2  17
BRANCH   3  19
HETATM   19  C7  UNL     1      14.811   0.428 193.590  1.00  0.00     0.161 C 
HETATM   20  C8  UNL     1      13.949  -0.400 192.725  1.00  0.00     0.097 C 
HETATM   21  O2  UNL     1      16.043   0.305 193.395  1.00  0.00    -0.293 OA
ENDBRANCH   3  19
BRANCH   4  22
HETATM   22  O3  UNL     1      13.896  -0.409 196.203  1.00  0.00    -0.359 OA
ATOM     23  H3  UNL     1      14.508  -0.783 196.826  1.00  0.00     0.217 HD
ENDBRANCH   4  22
BRANCH  13  24
HETATM   24  C18 UNL     1      11.630   0.639 197.990  1.00  0.00     0.174 C 
BRANCH  24  25
HETATM   25  O5  UNL     1      10.728   1.146 198.889  1.00  0.00    -0.400 OA
ATOM     26  H5  UNL     1      10.804   0.746 199.748  1.00  0.00     0.209 HD
ENDBRANCH  24  25
ENDBRANCH  13  24
TORSDOF 6
ENDMDL
MODEL 5
REMARK VINA RESULT: -3.621020980      1.865      4.827
REMARK  6 active torsions:
REMARK  status: ('A' for Active; 'I' for Inactive)
REMARK    1  A    between atoms: C3_3  and  C4_4 
REMARK    2  A    between atoms: C5_5  and  O1_6 
REMARK    3  A    between atoms: C6_8  and  C7_9 
REMARK    4  A    between atoms: C9_12  and  O3_13 
REMARK    5  A    between atoms: C17_23  and  C18_24 
REMARK    6  A    between atoms: C18_24  and  O5_25 
ROOT
HETATM    1  C4  UNL     1      14.193   2.872 195.614  1.00  0.00     0.032 A 
HETATM    2  C5  UNL     1      14.087   4.254 195.376  1.00  0.00     0.095 A 
HETATM    3  C6  UNL     1      13.655   5.142 196.403  1.00  0.00     0.077 A 
HETATM    4  C9  UNL     1      13.348   4.600 197.625  1.00  0.00     0.091 A 
HETATM    5  C10 UNL     1      13.462   3.197 197.845  1.00  0.00     0.017 A 
HETATM    6  C11 UNL     1      13.875   2.362 196.856  1.00  0.00     0.092 A 
HETATM    7  O4  UNL     1      13.962   0.971 197.148  1.00  0.00    -0.339 OA
HETATM    8  C12 UNL     1      12.902   0.485 197.993  1.00  0.00     0.064 C 
HETATM    9  C13 UNL     1      11.607   0.410 197.213  1.00  0.00     0.046 C 
HETATM   10  C14 UNL     1      13.305  -0.941 198.343  1.00  0.00     0.046 C 
HETATM   11  C15 UNL     1      12.751   1.267 199.248  1.00  0.00     0.026 C 
HETATM   12  C16 UNL     1      11.295   1.107 199.692  1.00  0.00     0.014 C 
HETATM   13  C17 UNL     1      13.135   2.697 199.179  1.00  0.00     0.054 C 
ENDROOT
BRANCH   1  14
HETATM   14  C3  UNL     1      14.633   1.952 194.589  1.00  0.00     0.013 C 
HETATM   15  C2  UNL     1      14.426   0.690 194.438  1.00  0.00    -0.030 C 
HETATM   16  C1  UNL     1      15.060   0.038 193.213  1.00  0.00     0.036 C 
ENDBRANCH   1  14
BRANCH   2  17
HETATM   17  O1  UNL     1      14.373   4.805 194.218  1.00  0.00    -0.359 OA
ATOM     18  H1  UNL     1      13.789   5.408 193.774  1.00  0.00     0.217 HD
ENDBRANCH   2  17
BRANCH   3  19
HETATM   19  C7  UNL     1      13.553   6.566 196.140  1.00  0.00     0.161 C 
HETATM   20  C8  UNL     1      12.478   7.449 196.633  1.00  0.00     0.097 C 
HETATM   21  O2  UNL     1      14.429   7.128 195.440  1.00  0.00    -0.293 OA
ENDBRANCH   3  19
BRANCH   4  22
HETATM   22  O3  UNL     1      12.924   5.346 198.686  1.00  0.00    -0.359 OA
ATOM     23  H3  UNL     1      13.418   5.428 199.493  1.00  0.00     0.217 HD
ENDBRANCH   4  22
BRANCH  13  24
HETATM   24  C18 UNL     1      14.225   3.008 200.190  1.00  0.00     0.174 C 
BRANCH  24  25
HETATM   25  O5  UNL     1      14.390   2.007 201.112  1.00  0.00    -0.400 OA
ATOM     26  H5  UNL     1      13.862   1.241 200.918  1.00  0.00     0.209 HD
ENDBRANCH  24  25
ENDBRANCH  13  24
TORSDOF 6
ENDMDL
