MODEL 1
REMARK VINA RESULT: -9.555526257      0.000      0.000
REMARK  8 active torsions:
REMARK  status: ('A' for Active; 'I' for Inactive)
REMARK    1  A    between atoms: C2_2  and  C4_4 
REMARK    2  A    between atoms: C9_9  and  C10_10 
REMARK    3  A    between atoms: C10_10  and  O1_11 
REMARK    4  A    between atoms: C10_10  and  S1_13 
REMARK    5  A    between atoms: S1_13  and  C11_14 
REMARK    6  A    between atoms: C15_18  and  O2_19 
REMARK    7  A    between atoms: C16_21  and  O3_22 
REMARK    8  A    between atoms: C17_24  and  O4_25 
ROOT
HETATM    1  C4  UNL     1      14.564  -0.143 196.472  1.00  0.00     0.051 C 
HETATM    2  C5  UNL     1      14.370   1.265 195.891  1.00  0.00     0.054 C 
HETATM    3  C6  UNL     1      13.791   1.964 197.067  1.00  0.00    -0.013 A 
HETATM    4  C7  UNL     1      13.157   1.040 197.876  1.00  0.00    -0.019 A 
HETATM    5  C8  UNL     1      12.553   1.491 199.023  1.00  0.00     0.028 A 
HETATM    6  C9  UNL     1      12.537   2.838 199.434  1.00  0.00     0.041 A 
HETATM    7  C15 UNL     1      13.188   3.702 198.581  1.00  0.00     0.113 A 
HETATM    8  C16 UNL     1      13.814   3.298 197.409  1.00  0.00     0.106 A 
HETATM    9  C17 UNL     1      13.297  -0.318 197.249  1.00  0.00     0.160 C 
ENDROOT
BRANCH   6  10
HETATM   10  C10 UNL     1      11.875   3.229 200.670  1.00  0.00     0.116 C 
BRANCH  10  11
HETATM   11  O1  UNL     1      12.621   4.198 201.266  1.00  0.00    -0.353 OA
ATOM     12  H1  UNL     1      12.944   4.784 200.591  1.00  0.00     0.218 HD
ENDBRANCH  10  11
BRANCH  10  13
HETATM   13  S1  UNL     1      10.525   2.842 201.522  1.00  0.00    -0.096 SA
BRANCH  13  14
HETATM   14  C11 UNL     1       9.773   2.859 202.997  1.00  0.00     0.004 C 
HETATM   15  C12 UNL     1      10.113   3.929 204.046  1.00  0.00     0.026 C 
HETATM   16  C13 UNL     1       9.605   1.531 203.786  1.00  0.00     0.026 C 
HETATM   17  C14 UNL     1       8.216   3.183 202.748  1.00  0.00     0.026 C 
ENDBRANCH  13  14
ENDBRANCH  10  13
ENDBRANCH   6  10
BRANCH   7  18
HETATM   18  O2  UNL     1      13.247   5.033 198.861  1.00  0.00    -0.357 OA
ATOM     19  H2  UNL     1      14.010   5.401 199.291  1.00  0.00     0.217 HD
ENDBRANCH   7  18
BRANCH   8  20
HETATM   20  O3  UNL     1      14.445   4.239 196.612  1.00  0.00    -0.357 OA
ATOM     21  H3  UNL     1      14.073   4.518 195.784  1.00  0.00     0.217 HD
ENDBRANCH   8  20
BRANCH   9  22
HETATM   22  O4  UNL     1      13.342  -1.323 198.178  1.00  0.00    -0.390 OA
ATOM     23  H4  UNL     1      12.806  -1.168 198.946  1.00  0.00     0.210 HD
ENDBRANCH   9  22
BRANCH   1  24
HETATM   24  C2  UNL     1      14.755  -1.064 195.351  1.00  0.00    -0.086 C 
HETATM   25  C1  UNL     1      15.415  -2.203 195.438  1.00  0.00     0.014 C 
HETATM   26  C3  UNL     1      14.168  -0.685 194.036  1.00  0.00     0.043 C 
ENDBRANCH   1  24
TORSDOF 8
ENDMDL
MODEL 2
REMARK VINA RESULT: -9.253107854      1.253      2.818
REMARK  8 active torsions:
REMARK  status: ('A' for Active; 'I' for Inactive)
REMARK    1  A    between atoms: C2_2  and  C4_4 
REMARK    2  A    between atoms: C9_9  and  C10_10 
REMARK    3  A    between atoms: C10_10  and  O1_11 
REMARK    4  A    between atoms: C10_10  and  S1_13 
REMARK    5  A    between atoms: S1_13  and  C11_14 
REMARK    6  A    between atoms: C15_18  and  O2_19 
REMARK    7  A    between atoms: C16_21  and  O3_22 
REMARK    8  A    between atoms: C17_24  and  O4_25 
ROOT
HETATM    1  C4  UNL     1      13.865   1.072 195.461  1.00  0.00     0.051 C 
HETATM    2  C5  UNL     1      14.273   0.133 196.607  1.00  0.00     0.054 C 
HETATM    3  C6  UNL     1      13.669   0.844 197.764  1.00  0.00    -0.013 A 
HETATM    4  C7  UNL     1      13.563   2.189 197.464  1.00  0.00    -0.019 A 
HETATM    5  C8  UNL     1      13.024   3.022 198.412  1.00  0.00     0.028 A 
HETATM    6  C9  UNL     1      12.570   2.598 199.676  1.00  0.00     0.041 A 
HETATM    7  C15 UNL     1      12.706   1.246 199.905  1.00  0.00     0.113 A 
HETATM    8  C16 UNL     1      13.243   0.360 198.981  1.00  0.00     0.106 A 
HETATM    9  C17 UNL     1      14.103   2.413 196.081  1.00  0.00     0.160 C 
ENDROOT
BRANCH   6  10
HETATM   10  C10 UNL     1      12.008   3.550 200.622  1.00  0.00     0.116 C 
BRANCH  10  11
HETATM   11  O1  UNL     1      12.888   4.578 200.767  1.00  0.00    -0.353 OA
ATOM     12  H1  UNL     1      13.069   4.687 201.693  1.00  0.00     0.218 HD
ENDBRANCH  10  11
BRANCH  10  13
HETATM   13  S1  UNL     1      10.655   3.729 201.536  1.00  0.00    -0.096 SA
BRANCH  13  14
HETATM   14  C11 UNL     1       9.642   3.041 202.650  1.00  0.00     0.004 C 
HETATM   15  C12 UNL     1       9.845   1.591 203.113  1.00  0.00     0.026 C 
HETATM   16  C13 UNL     1       8.105   3.228 202.506  1.00  0.00     0.026 C 
HETATM   17  C14 UNL     1       9.844   3.821 204.043  1.00  0.00     0.026 C 
ENDBRANCH  13  14
ENDBRANCH  10  13
ENDBRANCH   6  10
BRANCH   7  18
HETATM   18  O2  UNL     1      12.305   0.704 201.089  1.00  0.00    -0.357 OA
ATOM     19  H2  UNL     1      11.876   1.243 201.743  1.00  0.00     0.217 HD
ENDBRANCH   7  18
BRANCH   8  20
HETATM   20  O3  UNL     1      13.341  -0.985 199.299  1.00  0.00    -0.357 OA
ATOM     21  H3  UNL     1      12.914  -1.345 200.067  1.00  0.00     0.217 HD
ENDBRANCH   8  20
BRANCH   9  22
HETATM   22  O4  UNL     1      13.481   3.448 195.434  1.00  0.00    -0.390 OA
ATOM     23  H4  UNL     1      13.418   4.245 195.947  1.00  0.00     0.210 HD
ENDBRANCH   9  22
BRANCH   1  24
HETATM   24  C2  UNL     1      14.700   0.748 194.304  1.00  0.00    -0.086 C 
HETATM   25  C1  UNL     1      15.054   1.624 193.383  1.00  0.00     0.014 C 
HETATM   26  C3  UNL     1      15.175  -0.656 194.163  1.00  0.00     0.043 C 
ENDBRANCH   1  24
TORSDOF 8
ENDMDL
MODEL 3
REMARK VINA RESULT: -9.100282928      1.229      1.803
REMARK  8 active torsions:
REMARK  status: ('A' for Active; 'I' for Inactive)
REMARK    1  A    between atoms: C2_2  and  C4_4 
REMARK    2  A    between atoms: C9_9  and  C10_10 
REMARK    3  A    between atoms: C10_10  and  O1_11 
REMARK    4  A    between atoms: C10_10  and  S1_13 
REMARK    5  A    between atoms: S1_13  and  C11_14 
REMARK    6  A    between atoms: C15_18  and  O2_19 
REMARK    7  A    between atoms: C16_21  and  O3_22 
REMARK    8  A    between atoms: C17_24  and  O4_25 
ROOT
HETATM    1  C4  UNL     1      14.317   0.357 196.581  1.00  0.00     0.051 C 
HETATM    2  C5  UNL     1      14.130   1.881 196.580  1.00  0.00     0.054 C 
HETATM    3  C6  UNL     1      13.394   2.063 197.859  1.00  0.00    -0.013 A 
HETATM    4  C7  UNL     1      12.714   0.898 198.158  1.00  0.00    -0.019 A 
HETATM    5  C8  UNL     1      11.968   0.863 199.310  1.00  0.00     0.028 A 
HETATM    6  C9  UNL     1      11.848   1.939 200.211  1.00  0.00     0.041 A 
HETATM    7  C15 UNL     1      12.553   3.066 199.849  1.00  0.00     0.113 A 
HETATM    8  C16 UNL     1      13.323   3.153 198.696  1.00  0.00     0.106 A 
HETATM    9  C17 UNL     1      12.980  -0.103 197.071  1.00  0.00     0.160 C 
ENDROOT
BRANCH   6  10
HETATM   10  C10 UNL     1      11.037   1.814 201.414  1.00  0.00     0.116 C 
BRANCH  10  11
HETATM   11  O1  UNL     1      11.412   0.681 202.066  1.00  0.00    -0.353 OA
ATOM     12  H1  UNL     1      10.636   0.155 202.221  1.00  0.00     0.218 HD
ENDBRANCH  10  11
BRANCH  10  13
HETATM   13  S1  UNL     1       9.835   2.629 202.180  1.00  0.00    -0.096 SA
BRANCH  13  14
HETATM   14  C11 UNL     1       9.095   2.960 203.624  1.00  0.00     0.004 C 
HETATM   15  C12 UNL     1       7.603   3.318 203.683  1.00  0.00     0.026 C 
HETATM   16  C13 UNL     1       9.797   3.898 204.646  1.00  0.00     0.026 C 
HETATM   17  C14 UNL     1       9.105   1.610 204.499  1.00  0.00     0.026 C 
ENDBRANCH  13  14
ENDBRANCH  10  13
ENDBRANCH   6  10
BRANCH   7  18
HETATM   18  O2  UNL     1      12.524   4.178 200.634  1.00  0.00    -0.357 OA
ATOM     19  H2  UNL     1      13.284   4.747 200.690  1.00  0.00     0.217 HD
ENDBRANCH   7  18
BRANCH   8  20
HETATM   20  O3  UNL     1      13.998   4.329 198.413  1.00  0.00    -0.357 OA
ATOM     21  H3  UNL     1      13.535   5.145 198.266  1.00  0.00     0.217 HD
ENDBRANCH   8  20
BRANCH   9  22
HETATM   22  O4  UNL     1      12.964  -1.394 197.530  1.00  0.00    -0.390 OA
ATOM     23  H4  UNL     1      13.263  -1.493 198.425  1.00  0.00     0.210 HD
ENDBRANCH   9  22
BRANCH   1  24
HETATM   24  C2  UNL     1      14.671  -0.048 195.220  1.00  0.00    -0.086 C 
HETATM   25  C1  UNL     1      14.622   0.758 194.177  1.00  0.00     0.014 C 
HETATM   26  C3  UNL     1      15.111  -1.454 195.008  1.00  0.00     0.043 C 
ENDBRANCH   1  24
TORSDOF 8
ENDMDL
MODEL 4
REMARK VINA RESULT: -9.018673946      1.245      1.707
REMARK  8 active torsions:
REMARK  status: ('A' for Active; 'I' for Inactive)
REMARK    1  A    between atoms: C2_2  and  C4_4 
REMARK    2  A    between atoms: C9_9  and  C10_10 
REMARK    3  A    between atoms: C10_10  and  O1_11 
REMARK    4  A    between atoms: C10_10  and  S1_13 
REMARK    5  A    between atoms: S1_13  and  C11_14 
REMARK    6  A    between atoms: C15_18  and  O2_19 
REMARK    7  A    between atoms: C16_21  and  O3_22 
REMARK    8  A    between atoms: C17_24  and  O4_25 
ROOT
HETATM    1  C4  UNL     1      14.326   0.502 196.484  1.00  0.00     0.051 C 
HETATM    2  C5  UNL     1      14.098   2.021 196.505  1.00  0.00     0.054 C 
HETATM    3  C6  UNL     1      13.375   2.167 197.795  1.00  0.00    -0.013 A 
HETATM    4  C7  UNL     1      12.729   0.981 198.089  1.00  0.00    -0.019 A 
HETATM    5  C8  UNL     1      11.999   0.912 199.249  1.00  0.00     0.028 A 
HETATM    6  C9  UNL     1      11.863   1.973 200.165  1.00  0.00     0.041 A 
HETATM    7  C15 UNL     1      12.533   3.123 199.808  1.00  0.00     0.113 A 
HETATM    8  C16 UNL     1      13.285   3.245 198.647  1.00  0.00     0.106 A 
HETATM    9  C17 UNL     1      13.008   0.000 196.985  1.00  0.00     0.160 C 
ENDROOT
BRANCH   6  10
HETATM   10  C10 UNL     1      11.072   1.813 201.376  1.00  0.00     0.116 C 
BRANCH  10  11
HETATM   11  O1  UNL     1      11.500   0.694 202.021  1.00  0.00    -0.353 OA
ATOM     12  H1  UNL     1      10.947   0.558 202.781  1.00  0.00     0.218 HD
ENDBRANCH  10  11
BRANCH  10  13
HETATM   13  S1  UNL     1       9.845   2.576 202.157  1.00  0.00    -0.096 SA
BRANCH  13  14
HETATM   14  C11 UNL     1       8.977   2.713 203.561  1.00  0.00     0.004 C 
HETATM   15  C12 UNL     1       8.922   1.558 204.572  1.00  0.00     0.026 C 
HETATM   16  C13 UNL     1       7.542   3.308 203.519  1.00  0.00     0.026 C 
HETATM   17  C14 UNL     1       9.677   3.851 204.459  1.00  0.00     0.026 C 
ENDBRANCH  13  14
ENDBRANCH  10  13
ENDBRANCH   6  10
BRANCH   7  18
HETATM   18  O2  UNL     1      12.485   4.225 200.607  1.00  0.00    -0.357 OA
ATOM     19  H2  UNL     1      12.241   5.069 200.247  1.00  0.00     0.217 HD
ENDBRANCH   7  18
BRANCH   8  20
HETATM   20  O3  UNL     1      13.926   4.442 198.370  1.00  0.00    -0.357 OA
ATOM     21  H3  UNL     1      13.738   5.231 198.864  1.00  0.00     0.217 HD
ENDBRANCH   8  20
BRANCH   9  22
HETATM   22  O4  UNL     1      13.031  -1.296 197.428  1.00  0.00    -0.390 OA
ATOM     23  H4  UNL     1      13.321  -1.924 196.778  1.00  0.00     0.210 HD
ENDBRANCH   9  22
BRANCH   1  24
HETATM   24  C2  UNL     1      14.672   0.123 195.114  1.00  0.00    -0.086 C 
HETATM   25  C1  UNL     1      15.003  -1.101 194.750  1.00  0.00     0.014 C 
HETATM   26  C3  UNL     1      14.647   1.188 194.074  1.00  0.00     0.043 C 
ENDBRANCH   1  24
TORSDOF 8
ENDMDL
MODEL 5
REMARK VINA RESULT: -8.465803885      1.430      1.899
REMARK  8 active torsions:
REMARK  status: ('A' for Active; 'I' for Inactive)
REMARK    1  A    between atoms: C2_2  and  C4_4 
REMARK    2  A    between atoms: C9_9  and  C10_10 
REMARK    3  A    between atoms: C10_10  and  O1_11 
REMARK    4  A    between atoms: C10_10  and  S1_13 
REMARK    5  A    between atoms: S1_13  and  C11_14 
REMARK    6  A    between atoms: C15_18  and  O2_19 
REMARK    7  A    between atoms: C16_21  and  O3_22 
REMARK    8  A    between atoms: C17_24  and  O4_25 
ROOT
HETATM    1  C4  UNL     1      14.825   0.493 194.797  1.00  0.00     0.051 C 
HETATM    2  C5  UNL     1      14.272   1.926 194.825  1.00  0.00     0.054 C 
HETATM    3  C6  UNL     1      13.828   2.017 196.240  1.00  0.00    -0.013 A 
HETATM    4  C7  UNL     1      13.544   0.747 196.707  1.00  0.00    -0.019 A 
HETATM    5  C8  UNL     1      13.116   0.617 198.004  1.00  0.00     0.028 A 
HETATM    6  C9  UNL     1      12.945   1.693 198.896  1.00  0.00     0.041 A 
HETATM    7  C15 UNL     1      13.247   2.927 198.363  1.00  0.00     0.113 A 
HETATM    8  C16 UNL     1      13.685   3.115 197.058  1.00  0.00     0.106 A 
HETATM    9  C17 UNL     1      13.792  -0.235 195.599  1.00  0.00     0.160 C 
ENDROOT
BRANCH   6  10
HETATM   10  C10 UNL     1      12.489   1.464 200.259  1.00  0.00     0.116 C 
BRANCH  10  11
HETATM   11  O1  UNL     1      13.561   1.096 201.012  1.00  0.00    -0.353 OA
ATOM     12  H1  UNL     1      14.199   0.683 200.441  1.00  0.00     0.218 HD
ENDBRANCH  10  11
BRANCH  10  13
HETATM   13  S1  UNL     1      11.090   1.521 201.117  1.00  0.00    -0.096 SA
BRANCH  13  14
HETATM   14  C11 UNL     1      10.086   2.441 202.059  1.00  0.00     0.004 C 
HETATM   15  C12 UNL     1       9.719   2.004 203.485  1.00  0.00     0.026 C 
HETATM   16  C13 UNL     1       8.781   3.022 201.446  1.00  0.00     0.026 C 
HETATM   17  C14 UNL     1      10.839   3.830 202.366  1.00  0.00     0.026 C 
ENDBRANCH  13  14
ENDBRANCH  10  13
ENDBRANCH   6  10
BRANCH   7  18
HETATM   18  O2  UNL     1      13.126   4.053 199.120  1.00  0.00    -0.357 OA
ATOM     19  H2  UNL     1      13.898   4.538 199.387  1.00  0.00     0.217 HD
ENDBRANCH   7  18
BRANCH   8  20
HETATM   20  O3  UNL     1      13.965   4.394 196.608  1.00  0.00    -0.357 OA
ATOM     21  H3  UNL     1      14.608   4.943 197.041  1.00  0.00     0.217 HD
ENDBRANCH   8  20
BRANCH   9  22
HETATM   22  O4  UNL     1      14.201  -1.458 196.062  1.00  0.00    -0.390 OA
ATOM     23  H4  UNL     1      13.864  -1.682 196.920  1.00  0.00     0.210 HD
ENDBRANCH   9  22
BRANCH   1  24
HETATM   24  C2  UNL     1      14.945   0.090 193.395  1.00  0.00    -0.086 C 
HETATM   25  C1  UNL     1      16.082   0.078 192.728  1.00  0.00     0.014 C 
HETATM   26  C3  UNL     1      13.705  -0.330 192.688  1.00  0.00     0.043 C 
ENDBRANCH   1  24
TORSDOF 8
ENDMDL
