MODEL 1
REMARK VINA RESULT: -2.363768375      0.000      0.000
REMARK  4 active torsions:
REMARK  status: ('A' for Active; 'I' for Inactive)
REMARK    1  A    between atoms: O1_2  and  C2_3 
REMARK    2  A    between atoms: C4_5  and  O2_6 
REMARK    3  A    between atoms: C6_9  and  O3_10 
REMARK    4  A    between atoms: C12_17  and  O4_18 
ROOT
HETATM    1  C2  UNL     1      12.928   5.235 196.357  1.00  0.00     0.080 A 
HETATM    2  C3  UNL     1      12.626   4.900 195.069  1.00  0.00     0.076 A 
HETATM    3  C4  UNL     1      13.441   3.943 194.521  1.00  0.00     0.104 A 
HETATM    4  C5  UNL     1      14.492   3.361 195.202  1.00  0.00     0.136 A 
HETATM    5  C6  UNL     1      14.845   3.721 196.530  1.00  0.00     0.111 A 
HETATM    6  C7  UNL     1      14.004   4.657 197.076  1.00  0.00     0.012 A 
HETATM    7  C8  UNL     1      13.696   4.905 198.563  1.00  0.00     0.049 C 
HETATM    8  C9  UNL     1      12.728   3.789 198.996  1.00  0.00    -0.012 C 
HETATM    9  C10 UNL     1      12.488   4.046 200.473  1.00  0.00     0.010 C 
HETATM   10  C11 UNL     1      13.220   2.391 198.836  1.00  0.00     0.036 C 
HETATM   11  C12 UNL     1      12.700   1.620 197.640  1.00  0.00     0.122 C 
HETATM   12  C13 UNL     1      13.707   0.631 197.054  1.00  0.00     0.013 C 
HETATM   13  C14 UNL     1      13.267  -0.764 197.588  1.00  0.00     0.012 C 
HETATM   14  C15 UNL     1      13.697   0.648 195.578  1.00  0.00     0.039 C 
HETATM   15  C16 UNL     1      14.961   0.908 194.814  1.00  0.00     0.125 C 
HETATM   16  C17 UNL     1      14.882   0.173 193.500  1.00  0.00     0.040 C 
HETATM   17  O5  UNL     1      15.118   2.339 194.430  1.00  0.00    -0.341 OA
ENDROOT
BRANCH   1  18
HETATM   18  O1  UNL     1      12.108   6.209 196.965  1.00  0.00    -0.355 OA
HETATM   19  C1  UNL     1      12.445   7.561 196.855  1.00  0.00     0.210 C 
ENDBRANCH   1  18
BRANCH   3  20
HETATM   20  O2  UNL     1      13.078   3.632 193.183  1.00  0.00    -0.358 OA
ATOM     21  H2  UNL     1      13.712   3.063 192.763  1.00  0.00     0.217 HD
ENDBRANCH   3  20
BRANCH   5  22
HETATM   22  O3  UNL     1      15.990   3.143 197.103  1.00  0.00    -0.357 OA
ATOM     23  H3  UNL     1      16.413   2.422 196.650  1.00  0.00     0.217 HD
ENDBRANCH   5  22
BRANCH  11  24
HETATM   24  O4  UNL     1      11.586   0.858 198.145  1.00  0.00    -0.395 OA
ATOM     25  H4  UNL     1      11.517   1.102 199.061  1.00  0.00     0.210 HD
ENDBRANCH  11  24
TORSDOF 4
ENDMDL
MODEL 2
REMARK VINA RESULT: -2.076015498      1.557      5.650
REMARK  4 active torsions:
REMARK  status: ('A' for Active; 'I' for Inactive)
REMARK    1  A    between atoms: O1_2  and  C2_3 
REMARK    2  A    between atoms: C4_5  and  O2_6 
REMARK    3  A    between atoms: C6_9  and  O3_10 
REMARK    4  A    between atoms: C12_17  and  O4_18 
ROOT
HETATM    1  C2  UNL     1      12.894   0.863 198.210  1.00  0.00     0.080 A 
HETATM    2  C3  UNL     1      11.920   1.449 198.965  1.00  0.00     0.076 A 
HETATM    3  C4  UNL     1      12.229   2.704 199.424  1.00  0.00     0.104 A 
HETATM    4  C5  UNL     1      13.430   3.334 199.158  1.00  0.00     0.136 A 
HETATM    5  C6  UNL     1      14.470   2.727 198.404  1.00  0.00     0.111 A 
HETATM    6  C7  UNL     1      14.135   1.486 197.927  1.00  0.00     0.012 A 
HETATM    7  C8  UNL     1      14.697   0.760 196.692  1.00  0.00     0.049 C 
HETATM    8  C9  UNL     1      14.025   1.408 195.468  1.00  0.00    -0.012 C 
HETATM    9  C10 UNL     1      14.639   0.694 194.276  1.00  0.00     0.010 C 
HETATM   10  C11 UNL     1      14.236   2.873 195.298  1.00  0.00     0.036 C 
HETATM   11  C12 UNL     1      13.093   3.777 195.713  1.00  0.00     0.122 C 
HETATM   12  C13 UNL     1      13.541   5.123 196.280  1.00  0.00     0.013 C 
HETATM   13  C14 UNL     1      13.344   6.142 195.119  1.00  0.00     0.012 C 
HETATM   14  C15 UNL     1      12.740   5.516 197.456  1.00  0.00     0.039 C 
HETATM   15  C16 UNL     1      13.411   5.830 198.760  1.00  0.00     0.125 C 
HETATM   16  C17 UNL     1      12.578   6.852 199.490  1.00  0.00     0.040 C 
HETATM   17  O5  UNL     1      13.455   4.659 199.682  1.00  0.00    -0.341 OA
ENDROOT
BRANCH   1  18
HETATM   18  O1  UNL     1      12.613  -0.426 197.707  1.00  0.00    -0.355 OA
HETATM   19  C1  UNL     1      13.358  -1.519 198.158  1.00  0.00     0.210 C 
ENDBRANCH   1  18
BRANCH   3  20
HETATM   20  O2  UNL     1      11.180   3.265 200.200  1.00  0.00    -0.358 OA
ATOM     21  H2  UNL     1      11.337   4.179 200.408  1.00  0.00     0.217 HD
ENDBRANCH   3  20
BRANCH   5  22
HETATM   22  O3  UNL     1      15.691   3.409 198.271  1.00  0.00    -0.357 OA
ATOM     23  H3  UNL     1      16.305   3.391 198.996  1.00  0.00     0.217 HD
ENDBRANCH   5  22
BRANCH  11  24
HETATM   24  O4  UNL     1      12.366   4.038 194.495  1.00  0.00    -0.395 OA
ATOM     25  H4  UNL     1      12.098   4.948 194.561  1.00  0.00     0.210 HD
ENDBRANCH  11  24
TORSDOF 4
ENDMDL
MODEL 3
REMARK VINA RESULT: -1.654641836      1.928      4.683
REMARK  4 active torsions:
REMARK  status: ('A' for Active; 'I' for Inactive)
REMARK    1  A    between atoms: O1_2  and  C2_3 
REMARK    2  A    between atoms: C4_5  and  O2_6 
REMARK    3  A    between atoms: C6_9  and  O3_10 
REMARK    4  A    between atoms: C12_17  and  O4_18 
ROOT
HETATM    1  C2  UNL     1      14.134   3.748 196.599  1.00  0.00     0.080 A 
HETATM    2  C3  UNL     1      14.359   4.115 197.893  1.00  0.00     0.076 A 
HETATM    3  C4  UNL     1      13.530   3.520 198.809  1.00  0.00     0.104 A 
HETATM    4  C5  UNL     1      12.537   2.624 198.463  1.00  0.00     0.136 A 
HETATM    5  C6  UNL     1      12.263   2.256 197.118  1.00  0.00     0.111 A 
HETATM    6  C7  UNL     1      13.119   2.836 196.217  1.00  0.00     0.012 A 
HETATM    7  C8  UNL     1      13.517   2.325 194.821  1.00  0.00     0.049 C 
HETATM    8  C9  UNL     1      14.533   1.191 195.051  1.00  0.00    -0.012 C 
HETATM    9  C10 UNL     1      14.863   0.689 193.656  1.00  0.00     0.010 C 
HETATM   10  C11 UNL     1      14.059   0.036 195.866  1.00  0.00     0.036 C 
HETATM   11  C12 UNL     1      14.516  -0.009 197.309  1.00  0.00     0.122 C 
HETATM   12  C13 UNL     1      13.493  -0.622 198.264  1.00  0.00     0.013 C 
HETATM   13  C14 UNL     1      13.994  -2.075 198.521  1.00  0.00     0.012 C 
HETATM   14  C15 UNL     1      13.407   0.128 199.532  1.00  0.00     0.039 C 
HETATM   15  C16 UNL     1      12.092   0.672 200.005  1.00  0.00     0.125 C 
HETATM   16  C17 UNL     1      12.100   0.694 201.512  1.00  0.00     0.040 C 
HETATM   17  O5  UNL     1      11.882   2.094 199.613  1.00  0.00    -0.341 OA
ENDROOT
BRANCH   1  18
HETATM   18  O1  UNL     1      14.974   4.329 195.623  1.00  0.00    -0.355 OA
HETATM   19  C1  UNL     1      14.548   5.471 194.940  1.00  0.00     0.210 C 
ENDBRANCH   1  18
BRANCH   3  20
HETATM   20  O2  UNL     1      13.811   3.935 200.138  1.00  0.00    -0.358 OA
ATOM     21  H2  UNL     1      13.085   3.769 200.727  1.00  0.00     0.217 HD
ENDBRANCH   3  20
BRANCH   5  22
HETATM   22  O3  UNL     1      11.169   1.414 196.859  1.00  0.00    -0.357 OA
ATOM     23  H3  UNL     1      10.319   1.807 196.699  1.00  0.00     0.217 HD
ENDBRANCH   5  22
BRANCH  11  24
HETATM   24  O4  UNL     1      15.676  -0.866 197.305  1.00  0.00    -0.395 OA
ATOM     25  H4  UNL     1      15.850  -1.046 198.222  1.00  0.00     0.210 HD
ENDBRANCH  11  24
TORSDOF 4
ENDMDL
MODEL 4
REMARK VINA RESULT: -1.563014311      1.616      5.657
REMARK  4 active torsions:
REMARK  status: ('A' for Active; 'I' for Inactive)
REMARK    1  A    between atoms: O1_2  and  C2_3 
REMARK    2  A    between atoms: C4_5  and  O2_6 
REMARK    3  A    between atoms: C6_9  and  O3_10 
REMARK    4  A    between atoms: C12_17  and  O4_18 
ROOT
HETATM    1  C2  UNL     1      13.440   0.408 196.594  1.00  0.00     0.080 A 
HETATM    2  C3  UNL     1      12.437   0.382 197.519  1.00  0.00     0.076 A 
HETATM    3  C4  UNL     1      12.566   1.300 198.529  1.00  0.00     0.104 A 
HETATM    4  C5  UNL     1      13.624   2.183 198.621  1.00  0.00     0.136 A 
HETATM    5  C6  UNL     1      14.696   2.202 197.689  1.00  0.00     0.111 A 
HETATM    6  C7  UNL     1      14.539   1.300 196.668  1.00  0.00     0.012 A 
HETATM    7  C8  UNL     1      15.127   1.360 195.248  1.00  0.00     0.049 C 
HETATM    8  C9  UNL     1      14.275   2.380 194.472  1.00  0.00    -0.012 C 
HETATM    9  C10 UNL     1      14.915   2.440 193.096  1.00  0.00     0.010 C 
HETATM   10  C11 UNL     1      14.229   3.762 195.029  1.00  0.00     0.036 C 
HETATM   11  C12 UNL     1      12.984   4.141 195.804  1.00  0.00     0.122 C 
HETATM   12  C13 UNL     1      13.241   5.111 196.956  1.00  0.00     0.013 C 
HETATM   13  C14 UNL     1      12.800   6.506 196.422  1.00  0.00     0.012 C 
HETATM   14  C15 UNL     1      12.469   4.749 198.161  1.00  0.00     0.039 C 
HETATM   15  C16 UNL     1      13.167   4.520 199.468  1.00  0.00     0.125 C 
HETATM   16  C17 UNL     1      12.229   4.907 200.583  1.00  0.00     0.040 C 
HETATM   17  O5  UNL     1      13.467   3.081 199.716  1.00  0.00    -0.341 OA
ENDROOT
BRANCH   1  18
HETATM   18  O1  UNL     1      13.341  -0.514 195.530  1.00  0.00    -0.355 OA
HETATM   19  C1  UNL     1      14.322  -1.498 195.377  1.00  0.00     0.210 C 
ENDBRANCH   1  18
BRANCH   3  20
HETATM   20  O2  UNL     1      11.494   1.229 199.459  1.00  0.00    -0.358 OA
ATOM     21  H2  UNL     1      11.735   1.574 200.311  1.00  0.00     0.217 HD
ENDBRANCH   3  20
BRANCH   5  22
HETATM   22  O3  UNL     1      15.776   3.071 197.922  1.00  0.00    -0.357 OA
ATOM     23  H3  UNL     1      16.509   2.757 198.439  1.00  0.00     0.217 HD
ENDBRANCH   5  22
BRANCH  11  24
HETATM   24  O4  UNL     1      12.142   4.816 194.847  1.00  0.00    -0.395 OA
ATOM     25  H4  UNL     1      11.722   5.512 195.339  1.00  0.00     0.210 HD
ENDBRANCH  11  24
TORSDOF 4
ENDMDL
MODEL 5
REMARK VINA RESULT: -1.251941668      2.046      5.390
REMARK  4 active torsions:
REMARK  status: ('A' for Active; 'I' for Inactive)
REMARK    1  A    between atoms: O1_2  and  C2_3 
REMARK    2  A    between atoms: C4_5  and  O2_6 
REMARK    3  A    between atoms: C6_9  and  O3_10 
REMARK    4  A    between atoms: C12_17  and  O4_18 
ROOT
HETATM    1  C2  UNL     1      11.856   2.257 200.752  1.00  0.00     0.080 A 
HETATM    2  C3  UNL     1      11.006   3.324 200.749  1.00  0.00     0.076 A 
HETATM    3  C4  UNL     1      11.564   4.499 200.314  1.00  0.00     0.104 A 
HETATM    4  C5  UNL     1      12.882   4.610 199.916  1.00  0.00     0.136 A 
HETATM    5  C6  UNL     1      13.793   3.520 199.946  1.00  0.00     0.111 A 
HETATM    6  C7  UNL     1      13.213   2.345 200.353  1.00  0.00     0.012 A 
HETATM    7  C8  UNL     1      13.649   0.907 200.025  1.00  0.00     0.049 C 
HETATM    8  C9  UNL     1      13.182   0.633 198.584  1.00  0.00    -0.012 C 
HETATM    9  C10 UNL     1      13.670  -0.774 198.289  1.00  0.00     0.010 C 
HETATM   10  C11 UNL     1      13.715   1.546 197.533  1.00  0.00     0.036 C 
HETATM   11  C12 UNL     1      12.781   2.633 197.042  1.00  0.00     0.122 C 
HETATM   12  C13 UNL     1      13.491   3.929 196.651  1.00  0.00     0.013 C 
HETATM   13  C14 UNL     1      13.565   3.901 195.096  1.00  0.00     0.012 C 
HETATM   14  C15 UNL     1      12.751   5.120 197.113  1.00  0.00     0.039 C 
HETATM   15  C16 UNL     1      13.424   6.142 197.980  1.00  0.00     0.125 C 
HETATM   16  C17 UNL     1      12.808   7.488 197.696  1.00  0.00     0.040 C 
HETATM   17  O5  UNL     1      13.177   5.918 199.432  1.00  0.00    -0.341 OA
ENDROOT
BRANCH   1  18
HETATM   18  O1  UNL     1      11.320   1.023 201.182  1.00  0.00    -0.355 OA
HETATM   19  C1  UNL     1      10.586   0.968 202.370  1.00  0.00     0.210 C 
ENDBRANCH   1  18
BRANCH   3  20
HETATM   20  O2  UNL     1      10.634   5.572 200.329  1.00  0.00    -0.358 OA
ATOM     21  H2  UNL     1       9.817   5.333 200.751  1.00  0.00     0.217 HD
ENDBRANCH   3  20
BRANCH   5  22
HETATM   22  O3  UNL     1      15.137   3.756 199.614  1.00  0.00    -0.357 OA
ATOM     23  H3  UNL     1      15.745   3.986 200.308  1.00  0.00     0.217 HD
ENDBRANCH   5  22
BRANCH  11  24
HETATM   24  O4  UNL     1      12.176   2.092 195.850  1.00  0.00    -0.395 OA
ATOM     25  H4  UNL     1      11.706   2.821 195.462  1.00  0.00     0.210 HD
ENDBRANCH  11  24
TORSDOF 4
ENDMDL
