MODEL 1
REMARK VINA RESULT: -8.758433551      0.000      0.000
REMARK  9 active torsions:
REMARK  status: ('A' for Active; 'I' for Inactive)
REMARK    1  A    between atoms: N1_2  and  C3_4 
REMARK    2  A    between atoms: C4_7  and  C5_8 
REMARK    3  A    between atoms: N4_16  and  C10_18 
REMARK    4  A    between atoms: C10_18  and  C11_19 
REMARK    5  A    between atoms: C13_24  and  N6_25 
REMARK    6  A    between atoms: C16_28  and  C17_29 
REMARK    7  A    between atoms: C17_29  and  C18_30 
REMARK    8  A    between atoms: C18_30  and  N7_31 
REMARK    9  A    between atoms: C21_34  and  O1_35 
ROOT
HETATM    1  C5  UNL     1      36.319 -22.267  24.304  1.00  0.00     0.056 A 
HETATM    2  C6  UNL     1      35.945 -23.622  24.424  1.00  0.00     0.051 A 
HETATM    3 CL1  UNL     1      36.898 -24.655  25.450  1.00  0.00    -0.083 Cl
HETATM    4  C7  UNL     1      34.855 -24.104  23.743  1.00  0.00     0.042 A 
HETATM    5  C8  UNL     1      34.128 -23.248  22.937  1.00  0.00     0.091 A 
HETATM    6  N3  UNL     1      34.484 -21.984  22.832  1.00  0.00    -0.352 N 
ATOM      7  H3  UNL     1      33.930 -21.373  22.233  1.00  0.00     0.166 HD
HETATM    8  C9  UNL     1      35.594 -21.434  23.508  1.00  0.00     0.115 A 
HETATM    9  N4  UNL     1      35.802 -20.242  23.342  1.00  0.00    -0.371 N 
ATOM     10  H4  UNL     1      35.097 -19.893  22.693  1.00  0.00     0.161 HD
ENDROOT
BRANCH   9  11
HETATM   11  C10 UNL     1      36.604 -19.194  23.682  1.00  0.00     0.171 C 
BRANCH  11  12
HETATM   12  C11 UNL     1      36.818 -18.306  22.452  1.00  0.00     0.045 A 
HETATM   13  S1  UNL     1      35.802 -18.172  21.086  1.00  0.00    -0.084 SA
HETATM   14  C12 UNL     1      36.731 -17.057  20.194  1.00  0.00     0.140 A 
HETATM   15  N5  UNL     1      37.759 -16.846  20.980  1.00  0.00    -0.345 N 
HETATM   16  C13 UNL     1      37.841 -17.465  22.143  1.00  0.00     0.118 A 
ATOM     17  H5  UNL     1      38.496 -16.203  20.692  1.00  0.00     0.167 HD
BRANCH  16  18
HETATM   18  N6  UNL     1      38.976 -17.169  23.000  1.00  0.00    -0.366 N 
HETATM   19  C14 UNL     1      39.546 -15.801  23.011  1.00  0.00     0.125 C 
HETATM   20  C15 UNL     1      39.208 -15.289  24.408  1.00  0.00     0.024 C 
HETATM   21  C16 UNL     1      39.952 -16.085  25.417  1.00  0.00    -0.010 C 
HETATM   22  C24 UNL     1      40.394 -17.434  24.994  1.00  0.00     0.024 C 
HETATM   23  C25 UNL     1      39.591 -18.076  23.909  1.00  0.00     0.125 C 
BRANCH  21  24
HETATM   24  C17 UNL     1      39.326 -16.122  26.785  1.00  0.00     0.024 C 
BRANCH  24  25
HETATM   25  C18 UNL     1      38.978 -14.788  27.310  1.00  0.00     0.117 C 
BRANCH  25  26
HETATM   26  N7  UNL     1      37.704 -14.733  27.984  1.00  0.00    -0.412 N 
HETATM   27  C19 UNL     1      36.675 -14.111  27.214  1.00  0.00     0.119 C 
HETATM   28  C20 UNL     1      35.489 -13.693  28.022  1.00  0.00     0.051 C 
HETATM   29  C21 UNL     1      35.246 -14.625  29.192  1.00  0.00     0.121 C 
HETATM   30  C22 UNL     1      35.819 -15.973  28.823  1.00  0.00     0.051 C 
HETATM   31  C23 UNL     1      37.337 -15.872  28.734  1.00  0.00     0.119 C 
BRANCH  29  32
HETATM   32  O1  UNL     1      33.861 -14.798  29.398  1.00  0.00    -0.395 OA
ATOM     33  H1  UNL     1      33.616 -15.703  29.241  1.00  0.00     0.210 HD
ENDBRANCH  29  32
ENDBRANCH  25  26
ENDBRANCH  24  25
ENDBRANCH  21  24
ENDBRANCH  16  18
ENDBRANCH  11  12
ENDBRANCH   9  11
BRANCH   1  34
HETATM   34  C4  UNL     1      37.487 -21.812  25.042  1.00  0.00     0.050 A 
HETATM   35  N2  UNL     1      38.758 -22.063  24.716  1.00  0.00    -0.340 N 
HETATM   36  C3  UNL     1      39.748 -21.546  25.460  1.00  0.00     0.131 A 
ATOM     37  H2  UNL     1      38.974 -22.645  23.907  1.00  0.00     0.167 HD
HETATM   38  C30 UNL     1      39.506 -20.744  26.578  1.00  0.00     0.090 A 
HETATM   39  C27 UNL     1      38.192 -20.466  26.940  1.00  0.00     0.037 A 
HETATM   40  N8  UNL     1      40.305 -20.128  27.462  1.00  0.00    -0.359 N 
HETATM   41  C26 UNL     1      37.201 -21.009  26.159  1.00  0.00     0.047 A 
HETATM   42  C28 UNL     1      38.223 -19.665  28.068  1.00  0.00     0.144 A 
HETATM   43  F1  UNL     1      37.150 -19.188  28.721  1.00  0.00    -0.204 F 
HETATM   44  C29 UNL     1      39.549 -19.462  28.381  1.00  0.00     0.131 A 
ATOM     45  H8  UNL     1      41.325 -20.154  27.449  1.00  0.00     0.165 HD
BRANCH  36  46
HETATM   46  N1  UNL     1      41.136 -21.776  25.164  1.00  0.00    -0.374 N 
HETATM   47  C1  UNL     1      41.884 -20.898  24.287  1.00  0.00     0.150 C 
HETATM   48  C2  UNL     1      41.840 -22.906  25.735  1.00  0.00     0.150 C 
ENDBRANCH  36  46
ENDBRANCH   1  34
TORSDOF 9
ENDMDL
MODEL 2
REMARK VINA RESULT: -8.662219520      3.141      7.054
REMARK  9 active torsions:
REMARK  status: ('A' for Active; 'I' for Inactive)
REMARK    1  A    between atoms: N1_2  and  C3_4 
REMARK    2  A    between atoms: C4_7  and  C5_8 
REMARK    3  A    between atoms: N4_16  and  C10_18 
REMARK    4  A    between atoms: C10_18  and  C11_19 
REMARK    5  A    between atoms: C13_24  and  N6_25 
REMARK    6  A    between atoms: C16_28  and  C17_29 
REMARK    7  A    between atoms: C17_29  and  C18_30 
REMARK    8  A    between atoms: C18_30  and  N7_31 
REMARK    9  A    between atoms: C21_34  and  O1_35 
ROOT
HETATM    1  C5  UNL     1      37.676 -16.505  26.870  1.00  0.00     0.056 A 
HETATM    2  C6  UNL     1      37.046 -16.020  28.036  1.00  0.00     0.051 A 
HETATM    3 CL1  UNL     1      36.788 -17.124  29.357  1.00  0.00    -0.083 Cl
HETATM    4  C7  UNL     1      36.648 -14.708  28.116  1.00  0.00     0.042 A 
HETATM    5  C8  UNL     1      36.872 -13.867  27.042  1.00  0.00     0.091 A 
HETATM    6  N3  UNL     1      37.462 -14.328  25.958  1.00  0.00    -0.352 N 
ATOM      7  H3  UNL     1      37.617 -13.687  25.181  1.00  0.00     0.166 HD
HETATM    8  C9  UNL     1      37.891 -15.666  25.821  1.00  0.00     0.115 A 
HETATM    9  N4  UNL     1      38.446 -15.959  24.772  1.00  0.00    -0.371 N 
ATOM     10  H4  UNL     1      38.455 -15.126  24.184  1.00  0.00     0.161 HD
ENDROOT
BRANCH   9  11
HETATM   11  C10 UNL     1      39.057 -16.960  24.079  1.00  0.00     0.171 C 
BRANCH  11  12
HETATM   12  C11 UNL     1      39.211 -16.534  22.615  1.00  0.00     0.045 A 
HETATM   13  S1  UNL     1      40.401 -15.499  21.961  1.00  0.00    -0.084 SA
HETATM   14  C12 UNL     1      39.872 -15.504  20.342  1.00  0.00     0.140 A 
HETATM   15  N5  UNL     1      38.823 -16.290  20.385  1.00  0.00    -0.345 N 
HETATM   16  C13 UNL     1      38.453 -16.838  21.528  1.00  0.00     0.118 A 
ATOM     17  H5  UNL     1      38.293 -16.480  19.534  1.00  0.00     0.167 HD
BRANCH  16  18
HETATM   18  N6  UNL     1      37.311 -17.736  21.521  1.00  0.00    -0.366 N 
HETATM   19  C14 UNL     1      36.863 -18.339  20.243  1.00  0.00     0.125 C 
HETATM   20  C15 UNL     1      37.183 -19.820  20.419  1.00  0.00     0.024 C 
HETATM   21  C16 UNL     1      36.329 -20.382  21.496  1.00  0.00    -0.010 C 
HETATM   22  C24 UNL     1      35.789 -19.415  22.480  1.00  0.00     0.024 C 
HETATM   23  C25 UNL     1      36.580 -18.161  22.666  1.00  0.00     0.125 C 
BRANCH  21  24
HETATM   24  C17 UNL     1      36.888 -21.600  22.180  1.00  0.00     0.024 C 
BRANCH  24  25
HETATM   25  C18 UNL     1      36.777 -22.831  21.375  1.00  0.00     0.117 C 
BRANCH  25  26
HETATM   26  N7  UNL     1      36.239 -23.960  22.094  1.00  0.00    -0.412 N 
HETATM   27  C19 UNL     1      35.190 -23.616  22.999  1.00  0.00     0.119 C 
HETATM   28  C20 UNL     1      34.902 -24.673  24.016  1.00  0.00     0.051 C 
HETATM   29  C21 UNL     1      35.147 -26.064  23.470  1.00  0.00     0.121 C 
HETATM   30  C22 UNL     1      34.967 -26.000  21.972  1.00  0.00     0.051 C 
HETATM   31  C23 UNL     1      36.081 -25.157  21.362  1.00  0.00     0.119 C 
BRANCH  29  32
HETATM   32  O1  UNL     1      34.181 -26.963  23.972  1.00  0.00    -0.395 OA
ATOM     33  H1  UNL     1      33.610 -27.257  23.271  1.00  0.00     0.210 HD
ENDBRANCH  29  32
ENDBRANCH  25  26
ENDBRANCH  24  25
ENDBRANCH  21  24
ENDBRANCH  16  18
ENDBRANCH  11  12
ENDBRANCH   9  11
BRANCH   1  34
HETATM   34  C4  UNL     1      38.069 -17.904  26.838  1.00  0.00     0.050 A 
HETATM   35  N2  UNL     1      39.225 -18.396  27.294  1.00  0.00    -0.340 N 
HETATM   36  C3  UNL     1      39.448 -19.718  27.246  1.00  0.00     0.131 A 
ATOM     37  H2  UNL     1      39.933 -17.770  27.677  1.00  0.00     0.167 HD
HETATM   38  C30 UNL     1      38.511 -20.619  26.731  1.00  0.00     0.090 A 
HETATM   39  C27 UNL     1      37.300 -20.134  26.249  1.00  0.00     0.037 A 
HETATM   40  N8  UNL     1      38.501 -21.951  26.574  1.00  0.00    -0.359 N 
HETATM   41  C26 UNL     1      37.102 -18.776  26.313  1.00  0.00     0.047 A 
HETATM   42  C28 UNL     1      36.561 -21.213  25.798  1.00  0.00     0.144 A 
HETATM   43  F1  UNL     1      35.332 -21.150  25.257  1.00  0.00    -0.204 F 
HETATM   44  C29 UNL     1      37.324 -22.340  26.008  1.00  0.00     0.131 A 
ATOM     45  H8  UNL     1      39.261 -22.579  26.839  1.00  0.00     0.165 HD
BRANCH  36  46
HETATM   46  N1  UNL     1      40.668 -20.314  27.721  1.00  0.00    -0.374 N 
HETATM   47  C1  UNL     1      40.810 -20.772  29.088  1.00  0.00     0.150 C 
HETATM   48  C2  UNL     1      41.808 -20.473  26.841  1.00  0.00     0.150 C 
ENDBRANCH  36  46
ENDBRANCH   1  34
TORSDOF 9
ENDMDL
MODEL 3
REMARK VINA RESULT: -8.586942832      3.477      5.488
REMARK  9 active torsions:
REMARK  status: ('A' for Active; 'I' for Inactive)
REMARK    1  A    between atoms: N1_2  and  C3_4 
REMARK    2  A    between atoms: C4_7  and  C5_8 
REMARK    3  A    between atoms: N4_16  and  C10_18 
REMARK    4  A    between atoms: C10_18  and  C11_19 
REMARK    5  A    between atoms: C13_24  and  N6_25 
REMARK    6  A    between atoms: C16_28  and  C17_29 
REMARK    7  A    between atoms: C17_29  and  C18_30 
REMARK    8  A    between atoms: C18_30  and  N7_31 
REMARK    9  A    between atoms: C21_34  and  O1_35 
ROOT
HETATM    1  C5  UNL     1      40.059 -24.980  27.787  1.00  0.00     0.056 A 
HETATM    2  C6  UNL     1      40.394 -25.882  28.819  1.00  0.00     0.051 A 
HETATM    3 CL1  UNL     1      40.479 -27.579  28.438  1.00  0.00    -0.083 Cl
HETATM    4  C7  UNL     1      40.642 -25.424  30.089  1.00  0.00     0.042 A 
HETATM    5  C8  UNL     1      40.561 -24.069  30.346  1.00  0.00     0.091 A 
HETATM    6  N3  UNL     1      40.249 -23.233  29.377  1.00  0.00    -0.352 N 
ATOM      7  H3  UNL     1      40.198 -22.238  29.592  1.00  0.00     0.166 HD
HETATM    8  C9  UNL     1      39.984 -23.647  28.054  1.00  0.00     0.115 A 
HETATM    9  N4  UNL     1      39.730 -22.769  27.244  1.00  0.00    -0.371 N 
ATOM     10  H4  UNL     1      39.743 -21.878  27.740  1.00  0.00     0.161 HD
ENDROOT
BRANCH   9  11
HETATM   11  C10 UNL     1      39.434 -22.509  25.939  1.00  0.00     0.171 C 
BRANCH  11  12
HETATM   12  C11 UNL     1      38.073 -21.810  25.862  1.00  0.00     0.045 A 
HETATM   13  S1  UNL     1      36.569 -22.518  25.472  1.00  0.00    -0.084 SA
HETATM   14  C12 UNL     1      35.604 -21.118  25.560  1.00  0.00     0.140 A 
HETATM   15  N5  UNL     1      36.473 -20.190  25.882  1.00  0.00    -0.345 N 
HETATM   16  C13 UNL     1      37.745 -20.503  26.047  1.00  0.00     0.118 A 
ATOM     17  H5  UNL     1      36.166 -19.226  26.007  1.00  0.00     0.167 HD
BRANCH  16  18
HETATM   18  N6  UNL     1      38.665 -19.452  26.444  1.00  0.00    -0.366 N 
HETATM   19  C14 UNL     1      39.687 -18.973  25.483  1.00  0.00     0.125 C 
HETATM   20  C15 UNL     1      39.240 -17.548  25.173  1.00  0.00     0.024 C 
HETATM   21  C16 UNL     1      39.363 -16.717  26.398  1.00  0.00    -0.010 C 
HETATM   22  C24 UNL     1      39.354 -17.444  27.689  1.00  0.00     0.024 C 
HETATM   23  C25 UNL     1      38.656 -18.765  27.692  1.00  0.00     0.125 C 
BRANCH  21  24
HETATM   24  C17 UNL     1      38.459 -15.515  26.445  1.00  0.00     0.024 C 
BRANCH  24  25
HETATM   25  C18 UNL     1      38.525 -14.778  27.721  1.00  0.00     0.117 C 
BRANCH  25  26
HETATM   26  N7  UNL     1      37.241 -14.546  28.335  1.00  0.00    -0.412 N 
HETATM   27  C19 UNL     1      36.294 -13.923  27.467  1.00  0.00     0.119 C 
HETATM   28  C20 UNL     1      35.125 -13.325  28.180  1.00  0.00     0.051 C 
HETATM   29  C21 UNL     1      34.766 -14.106  29.429  1.00  0.00     0.121 C 
HETATM   30  C22 UNL     1      35.229 -15.528  29.221  1.00  0.00     0.051 C 
HETATM   31  C23 UNL     1      36.753 -15.565  29.182  1.00  0.00     0.119 C 
BRANCH  29  32
HETATM   32  O1  UNL     1      33.365 -14.139  29.596  1.00  0.00    -0.395 OA
ATOM     33  H1  UNL     1      33.084 -15.016  29.834  1.00  0.00     0.210 HD
ENDBRANCH  29  32
ENDBRANCH  25  26
ENDBRANCH  24  25
ENDBRANCH  21  24
ENDBRANCH  16  18
ENDBRANCH  11  12
ENDBRANCH   9  11
BRANCH   1  34
HETATM   34  C4  UNL     1      39.800 -25.522  26.462  1.00  0.00     0.050 A 
HETATM   35  N2  UNL     1      40.719 -25.736  25.517  1.00  0.00    -0.340 N 
HETATM   36  C3  UNL     1      40.355 -26.284  24.349  1.00  0.00     0.131 A 
ATOM     37  H2  UNL     1      41.694 -25.483  25.684  1.00  0.00     0.167 HD
HETATM   38  C30 UNL     1      39.034 -26.647  24.070  1.00  0.00     0.090 A 
HETATM   39  C27 UNL     1      38.056 -26.435  25.036  1.00  0.00     0.037 A 
HETATM   40  N8  UNL     1      38.433 -27.194  23.003  1.00  0.00    -0.359 N 
HETATM   41  C26 UNL     1      38.461 -25.873  26.222  1.00  0.00     0.047 A 
HETATM   42  C28 UNL     1      36.849 -26.870  24.519  1.00  0.00     0.144 A 
HETATM   43  F1  UNL     1      35.664 -26.829  25.153  1.00  0.00    -0.204 F 
HETATM   44  C29 UNL     1      37.100 -27.342  23.250  1.00  0.00     0.131 A 
ATOM     45  H8  UNL     1      38.902 -27.459  22.137  1.00  0.00     0.165 HD
BRANCH  36  46
HETATM   46  N1  UNL     1      41.293 -26.543  23.290  1.00  0.00    -0.374 N 
HETATM   47  C1  UNL     1      41.536 -25.581  22.234  1.00  0.00     0.150 C 
HETATM   48  C2  UNL     1      42.032 -27.789  23.242  1.00  0.00     0.150 C 
ENDBRANCH  36  46
ENDBRANCH   1  34
TORSDOF 9
ENDMDL
MODEL 4
REMARK VINA RESULT: -8.580612274      1.444      2.222
REMARK  9 active torsions:
REMARK  status: ('A' for Active; 'I' for Inactive)
REMARK    1  A    between atoms: N1_2  and  C3_4 
REMARK    2  A    between atoms: C4_7  and  C5_8 
REMARK    3  A    between atoms: N4_16  and  C10_18 
REMARK    4  A    between atoms: C10_18  and  C11_19 
REMARK    5  A    between atoms: C13_24  and  N6_25 
REMARK    6  A    between atoms: C16_28  and  C17_29 
REMARK    7  A    between atoms: C17_29  and  C18_30 
REMARK    8  A    between atoms: C18_30  and  N7_31 
REMARK    9  A    between atoms: C21_34  and  O1_35 
ROOT
HETATM    1  C5  UNL     1      36.325 -22.432  24.061  1.00  0.00     0.056 A 
HETATM    2  C6  UNL     1      35.981 -23.801  24.063  1.00  0.00     0.051 A 
HETATM    3 CL1  UNL     1      37.053 -24.922  24.854  1.00  0.00    -0.083 Cl
HETATM    4  C7  UNL     1      34.829 -24.228  23.451  1.00  0.00     0.042 A 
HETATM    5  C8  UNL     1      34.008 -23.304  22.833  1.00  0.00     0.091 A 
HETATM    6  N3  UNL     1      34.336 -22.028  22.838  1.00  0.00    -0.352 N 
ATOM      7  H3  UNL     1      33.713 -21.366  22.376  1.00  0.00     0.166 HD
HETATM    8  C9  UNL     1      35.507 -21.532  23.450  1.00  0.00     0.115 A 
HETATM    9  N4  UNL     1      35.683 -20.324  23.403  1.00  0.00    -0.371 N 
ATOM     10  H4  UNL     1      34.907 -19.920  22.878  1.00  0.00     0.161 HD
ENDROOT
BRANCH   9  11
HETATM   11  C10 UNL     1      36.505 -19.303  23.774  1.00  0.00     0.171 C 
BRANCH  11  12
HETATM   12  C11 UNL     1      36.748 -18.390  22.567  1.00  0.00     0.045 A 
HETATM   13  S1  UNL     1      35.768 -18.232  21.178  1.00  0.00    -0.084 SA
HETATM   14  C12 UNL     1      36.716 -17.098  20.333  1.00  0.00     0.140 A 
HETATM   15  N5  UNL     1      37.723 -16.900  21.149  1.00  0.00    -0.345 N 
HETATM   16  C13 UNL     1      37.776 -17.541  22.302  1.00  0.00     0.118 A 
ATOM     17  H5  UNL     1      38.466 -16.249  20.894  1.00  0.00     0.167 HD
BRANCH  16  18
HETATM   18  N6  UNL     1      38.888 -17.259  23.194  1.00  0.00    -0.366 N 
HETATM   19  C14 UNL     1      39.507 -15.913  23.188  1.00  0.00     0.125 C 
HETATM   20  C15 UNL     1      39.134 -15.346  24.555  1.00  0.00     0.024 C 
HETATM   21  C16 UNL     1      39.809 -16.137  25.615  1.00  0.00    -0.010 C 
HETATM   22  C24 UNL     1      40.218 -17.513  25.249  1.00  0.00     0.024 C 
HETATM   23  C25 UNL     1      39.434 -18.159  24.153  1.00  0.00     0.125 C 
BRANCH  21  24
HETATM   24  C17 UNL     1      39.130 -16.110  26.958  1.00  0.00     0.024 C 
BRANCH  24  25
HETATM   25  C18 UNL     1      38.861 -14.747  27.455  1.00  0.00     0.117 C 
BRANCH  25  26
HETATM   26  N7  UNL     1      37.566 -14.589  28.070  1.00  0.00    -0.412 N 
HETATM   27  C19 UNL     1      36.600 -13.968  27.222  1.00  0.00     0.119 C 
HETATM   28  C20 UNL     1      35.406 -13.444  27.952  1.00  0.00     0.051 C 
HETATM   29  C21 UNL     1      35.072 -14.287  29.166  1.00  0.00     0.121 C 
HETATM   30  C22 UNL     1      35.589 -15.682  28.904  1.00  0.00     0.051 C 
HETATM   31  C23 UNL     1      37.113 -15.660  28.872  1.00  0.00     0.119 C 
BRANCH  29  32
HETATM   32  O1  UNL     1      33.672 -14.381  29.324  1.00  0.00    -0.395 OA
ATOM     33  H1  UNL     1      33.437 -15.236  29.664  1.00  0.00     0.210 HD
ENDBRANCH  29  32
ENDBRANCH  25  26
ENDBRANCH  24  25
ENDBRANCH  21  24
ENDBRANCH  16  18
ENDBRANCH  11  12
ENDBRANCH   9  11
BRANCH   1  34
HETATM   34  C4  UNL     1      37.561 -22.037  24.718  1.00  0.00     0.050 A 
HETATM   35  N2  UNL     1      37.679 -21.688  26.002  1.00  0.00    -0.340 N 
HETATM   36  C3  UNL     1      38.889 -21.386  26.499  1.00  0.00     0.131 A 
ATOM     37  H2  UNL     1      36.855 -21.651  26.602  1.00  0.00     0.167 HD
HETATM   38  C30 UNL     1      40.049 -21.421  25.720  1.00  0.00     0.090 A 
HETATM   39  C27 UNL     1      39.954 -21.780  24.380  1.00  0.00     0.037 A 
HETATM   40  N8  UNL     1      41.341 -21.165  25.977  1.00  0.00    -0.359 N 
HETATM   41  C26 UNL     1      38.703 -22.084  23.902  1.00  0.00     0.047 A 
HETATM   42  C28 UNL     1      41.226 -21.734  23.838  1.00  0.00     0.144 A 
HETATM   43  F1  UNL     1      41.545 -22.013  22.562  1.00  0.00    -0.204 F 
HETATM   44  C29 UNL     1      42.081 -21.349  24.847  1.00  0.00     0.131 A 
ATOM     45  H8  UNL     1      41.713 -20.876  26.882  1.00  0.00     0.165 HD
BRANCH  36  46
HETATM   46  N1  UNL     1      39.087 -21.005  27.871  1.00  0.00    -0.374 N 
HETATM   47  C1  UNL     1      38.664 -19.713  28.372  1.00  0.00     0.150 C 
HETATM   48  C2  UNL     1      39.728 -21.907  28.807  1.00  0.00     0.150 C 
ENDBRANCH  36  46
ENDBRANCH   1  34
TORSDOF 9
ENDMDL
MODEL 5
REMARK VINA RESULT: -8.499391783      2.256      3.103
REMARK  9 active torsions:
REMARK  status: ('A' for Active; 'I' for Inactive)
REMARK    1  A    between atoms: N1_2  and  C3_4 
REMARK    2  A    between atoms: C4_7  and  C5_8 
REMARK    3  A    between atoms: N4_16  and  C10_18 
REMARK    4  A    between atoms: C10_18  and  C11_19 
REMARK    5  A    between atoms: C13_24  and  N6_25 
REMARK    6  A    between atoms: C16_28  and  C17_29 
REMARK    7  A    between atoms: C17_29  and  C18_30 
REMARK    8  A    between atoms: C18_30  and  N7_31 
REMARK    9  A    between atoms: C21_34  and  O1_35 
ROOT
HETATM    1  C5  UNL     1      38.038 -24.308  25.432  1.00  0.00     0.056 A 
HETATM    2  C6  UNL     1      38.483 -25.639  25.288  1.00  0.00     0.051 A 
HETATM    3 CL1  UNL     1      40.146 -25.999  25.656  1.00  0.00    -0.083 Cl
HETATM    4  C7  UNL     1      37.619 -26.619  24.866  1.00  0.00     0.042 A 
HETATM    5  C8  UNL     1      36.308 -26.287  24.583  1.00  0.00     0.091 A 
HETATM    6  N3  UNL     1      35.900 -25.042  24.721  1.00  0.00    -0.352 N 
ATOM      7  H3  UNL     1      34.927 -24.824  24.508  1.00  0.00     0.166 HD
HETATM    8  C9  UNL     1      36.744 -23.995  25.151  1.00  0.00     0.115 A 
HETATM    9  N4  UNL     1      36.235 -22.890  25.259  1.00  0.00    -0.371 N 
ATOM     10  H4  UNL     1      35.259 -22.970  24.975  1.00  0.00     0.161 HD
ENDROOT
BRANCH   9  11
HETATM   11  C10 UNL     1      36.457 -21.592  25.610  1.00  0.00     0.171 C 
BRANCH  11  12
HETATM   12  C11 UNL     1      36.175 -20.691  24.403  1.00  0.00     0.045 A 
HETATM   13  S1  UNL     1      34.855 -20.791  23.325  1.00  0.00    -0.084 SA
HETATM   14  C12 UNL     1      35.285 -19.513  22.285  1.00  0.00     0.140 A 
HETATM   15  N5  UNL     1      36.404 -19.078  22.812  1.00  0.00    -0.345 N 
HETATM   16  C13 UNL     1      36.893 -19.653  23.895  1.00  0.00     0.118 A 
ATOM     17  H5  UNL     1      36.898 -18.295  22.384  1.00  0.00     0.167 HD
BRANCH  16  18
HETATM   18  N6  UNL     1      38.113 -19.112  24.469  1.00  0.00    -0.366 N 
HETATM   19  C14 UNL     1      39.200 -18.651  23.573  1.00  0.00     0.125 C 
HETATM   20  C15 UNL     1      39.219 -17.141  23.789  1.00  0.00     0.024 C 
HETATM   21  C16 UNL     1      39.642 -16.849  25.182  1.00  0.00    -0.010 C 
HETATM   22  C24 UNL     1      39.448 -17.936  26.169  1.00  0.00     0.024 C 
HETATM   23  C25 UNL     1      38.366 -18.918  25.857  1.00  0.00     0.125 C 
BRANCH  21  24
HETATM   24  C17 UNL     1      39.170 -15.528  25.727  1.00  0.00     0.024 C 
BRANCH  24  25
HETATM   25  C18 UNL     1      39.267 -15.429  27.195  1.00  0.00     0.117 C 
BRANCH  25  26
HETATM   26  N7  UNL     1      38.029 -15.074  27.845  1.00  0.00    -0.412 N 
HETATM   27  C19 UNL     1      37.104 -14.403  26.989  1.00  0.00     0.119 C 
HETATM   28  C20 UNL     1      36.014 -13.690  27.722  1.00  0.00     0.051 C 
HETATM   29  C21 UNL     1      35.640 -14.399  29.007  1.00  0.00     0.121 C 
HETATM   30  C22 UNL     1      35.979 -15.860  28.833  1.00  0.00     0.051 C 
HETATM   31  C23 UNL     1      37.492 -16.023  28.742  1.00  0.00     0.119 C 
BRANCH  29  32
HETATM   32  O1  UNL     1      34.248 -14.313  29.224  1.00  0.00    -0.395 OA
ATOM     33  H1  UNL     1      33.941 -15.080  29.695  1.00  0.00     0.210 HD
ENDBRANCH  29  32
ENDBRANCH  25  26
ENDBRANCH  24  25
ENDBRANCH  21  24
ENDBRANCH  16  18
ENDBRANCH  11  12
ENDBRANCH   9  11
BRANCH   1  34
HETATM   34  C4  UNL     1      38.999 -23.310  25.875  1.00  0.00     0.050 A 
HETATM   35  N2  UNL     1      39.210 -22.946  27.143  1.00  0.00    -0.340 N 
HETATM   36  C3  UNL     1      40.160 -22.041  27.424  1.00  0.00     0.131 A 
ATOM     37  H2  UNL     1      38.652 -23.353  27.893  1.00  0.00     0.167 HD
HETATM   38  C30 UNL     1      40.952 -21.453  26.434  1.00  0.00     0.090 A 
HETATM   39  C27 UNL     1      40.753 -21.813  25.105  1.00  0.00     0.037 A 
HETATM   40  N8  UNL     1      41.939 -20.544  26.459  1.00  0.00    -0.359 N 
HETATM   41  C26 UNL     1      39.773 -22.741  24.850  1.00  0.00     0.047 A 
HETATM   42  C28 UNL     1      41.648 -21.096  24.332  1.00  0.00     0.144 A 
HETATM   43  F1  UNL     1      41.762 -21.167  22.995  1.00  0.00    -0.204 F 
HETATM   44  C29 UNL     1      42.382 -20.309  25.192  1.00  0.00     0.131 A 
ATOM     45  H8  UNL     1      42.303 -20.097  27.301  1.00  0.00     0.165 HD
BRANCH  36  46
HETATM   46  N1  UNL     1      40.441 -21.607  28.765  1.00  0.00    -0.374 N 
HETATM   47  C1  UNL     1      40.102 -20.275  29.222  1.00  0.00     0.150 C 
HETATM   48  C2  UNL     1      41.084 -22.494  29.714  1.00  0.00     0.150 C 
ENDBRANCH  36  46
ENDBRANCH   1  34
TORSDOF 9
ENDMDL
