MODEL 1
REMARK VINA RESULT: -7.621438185      0.000      0.000
REMARK  13 active torsions:
REMARK  status: ('A' for Active; 'I' for Inactive)
REMARK    1  A    between atoms: C2_2  and  C3_3 
REMARK    2  A    between atoms: C3_3  and  C4_4 
REMARK    3  A    between atoms: C4_4  and  C5_5 
REMARK    4  A    between atoms: C5_5  and  C6_6 
REMARK    5  A    between atoms: C6_6  and  C7_7 
REMARK    6  A    between atoms: C7_7  and  C8_8 
REMARK    7  A    between atoms: C8_8  and  O2_10 
REMARK    8  A    between atoms: O2_10  and  C9_11 
REMARK    9  A    between atoms: C11_13  and  C12_14 
REMARK   10  A    between atoms: C12_14  and  O3_15 
REMARK   11  A    between atoms: C15_19  and  O4_20 
REMARK   12  A    between atoms: C20_28  and  C21_29 
REMARK   13  A    between atoms: C27_39  and  O7_41 
ROOT
HETATM    1  C9  UNL     1      38.726 -18.926  27.034  1.00  0.00     0.180 C 
HETATM    2  C10 UNL     1      39.552 -18.365  25.947  1.00  0.00     0.066 C 
HETATM    3  C11 UNL     1      38.867 -17.348  25.114  1.00  0.00    -0.052 C 
HETATM    4  C13 UNL     1      39.548 -16.827  24.097  1.00  0.00    -0.019 C 
HETATM    5  C14 UNL     1      40.954 -17.314  23.870  1.00  0.00     0.060 C 
HETATM    6  C15 UNL     1      40.739 -18.834  23.763  1.00  0.00     0.137 C 
HETATM    7  C16 UNL     1      40.222 -19.377  25.061  1.00  0.00     0.042 C 
HETATM    8  C17 UNL     1      41.444 -19.952  25.790  1.00  0.00     0.026 C 
HETATM    9  C18 UNL     1      39.334 -20.518  24.772  1.00  0.00     0.079 A 
HETATM   10  O5  UNL     1      39.426 -21.102  23.606  1.00  0.00    -0.305 OA
HETATM   11  C19 UNL     1      38.660 -22.143  23.249  1.00  0.00     0.132 A 
HETATM   12  S1  UNL     1      38.528 -23.109  21.849  1.00  0.00    -0.064 SA
HETATM   13  C20 UNL     1      37.284 -24.159  22.359  1.00  0.00     0.046 A 
HETATM   14  C22 UNL     1      37.007 -23.722  23.620  1.00  0.00    -0.027 A 
HETATM   15  C23 UNL     1      35.935 -24.412  24.448  1.00  0.00     0.050 C 
HETATM   16  C24 UNL     1      37.719 -22.674  24.088  1.00  0.00     0.063 A 
HETATM   17  C25 UNL     1      37.624 -22.044  25.341  1.00  0.00     0.197 A 
HETATM   18  O6  UNL     1      36.813 -22.404  26.229  1.00  0.00    -0.287 OA
HETATM   19  C26 UNL     1      38.430 -20.973  25.677  1.00  0.00     0.060 A 
HETATM   20  C27 UNL     1      38.343 -20.339  27.002  1.00  0.00     0.115 C 
HETATM   21  C28 UNL     1      39.133 -21.134  28.036  1.00  0.00     0.054 C 
ENDROOT
BRANCH   1  22
HETATM   22  O2  UNL     1      39.458 -18.734  28.266  1.00  0.00    -0.312 OA
BRANCH  22  23
HETATM   23  C8  UNL     1      38.881 -18.178  29.379  1.00  0.00     0.259 C 
HETATM   24  O1  UNL     1      39.496 -18.250  30.465  1.00  0.00    -0.265 OA
BRANCH  23  25
HETATM   25  C7  UNL     1      37.533 -17.505  29.249  1.00  0.00     0.111 C 
BRANCH  25  26
HETATM   26  C6  UNL     1      37.619 -16.095  29.739  1.00  0.00     0.010 C 
BRANCH  26  27
HETATM   27  C5  UNL     1      37.579 -15.121  28.587  1.00  0.00     0.000 C 
BRANCH  27  28
HETATM   28  C4  UNL     1      36.197 -14.892  28.136  1.00  0.00     0.000 C 
BRANCH  28  29
HETATM   29  C3  UNL     1      35.626 -13.552  28.419  1.00  0.00    -0.000 C 
BRANCH  29  30
HETATM   30  C2  UNL     1      34.624 -13.482  29.480  1.00  0.00    -0.005 C 
HETATM   31  C1  UNL     1      33.769 -14.656  29.761  1.00  0.00     0.005 C 
ENDBRANCH  29  30
ENDBRANCH  28  29
ENDBRANCH  27  28
ENDBRANCH  26  27
ENDBRANCH  25  26
ENDBRANCH  23  25
ENDBRANCH  22  23
ENDBRANCH   1  22
BRANCH  20  32
HETATM   32  O7  UNL     1      36.979 -20.466  27.378  1.00  0.00    -0.382 OA
ATOM     33  H7  UNL     1      36.475 -20.779  26.637  1.00  0.00     0.211 HD
ENDBRANCH  20  32
BRANCH   3  34
HETATM   34  C12 UNL     1      37.480 -16.854  25.319  1.00  0.00     0.198 C 
BRANCH  34  35
HETATM   35  O3  UNL     1      36.603 -17.424  24.411  1.00  0.00    -0.397 OA
ATOM     36  H3  UNL     1      35.942 -17.946  24.850  1.00  0.00     0.209 HD
ENDBRANCH  34  35
ENDBRANCH   3  34
BRANCH   6  37
HETATM   37  O4  UNL     1      39.776 -18.989  22.768  1.00  0.00    -0.394 OA
ATOM     38  H4  UNL     1      39.107 -18.347  22.973  1.00  0.00     0.210 HD
ENDBRANCH   6  37
BRANCH  13  39
HETATM   39  C21 UNL     1      36.642 -25.292  21.592  1.00  0.00     0.223 C 
HETATM   40 CL1  UNL     1      36.899 -26.824  22.422  1.00  0.00    -0.078 Cl
HETATM   41 CL2  UNL     1      37.502 -25.381  20.027  1.00  0.00    -0.078 Cl
HETATM   42 CL3  UNL     1      34.939 -24.883  21.349  1.00  0.00    -0.078 Cl
ENDBRANCH  13  39
TORSDOF 13
ENDMDL
MODEL 2
REMARK VINA RESULT: -7.335793486      5.490      6.753
REMARK  13 active torsions:
REMARK  status: ('A' for Active; 'I' for Inactive)
REMARK    1  A    between atoms: C2_2  and  C3_3 
REMARK    2  A    between atoms: C3_3  and  C4_4 
REMARK    3  A    between atoms: C4_4  and  C5_5 
REMARK    4  A    between atoms: C5_5  and  C6_6 
REMARK    5  A    between atoms: C6_6  and  C7_7 
REMARK    6  A    between atoms: C7_7  and  C8_8 
REMARK    7  A    between atoms: C8_8  and  O2_10 
REMARK    8  A    between atoms: O2_10  and  C9_11 
REMARK    9  A    between atoms: C11_13  and  C12_14 
REMARK   10  A    between atoms: C12_14  and  O3_15 
REMARK   11  A    between atoms: C15_19  and  O4_20 
REMARK   12  A    between atoms: C20_28  and  C21_29 
REMARK   13  A    between atoms: C27_39  and  O7_41 
ROOT
HETATM    1  C9  UNL     1      41.563 -21.264  28.849  1.00  0.00     0.180 C 
HETATM    2  C10 UNL     1      42.979 -20.918  28.615  1.00  0.00     0.066 C 
HETATM    3  C11 UNL     1      43.333 -20.693  27.193  1.00  0.00    -0.052 C 
HETATM    4  C13 UNL     1      44.602 -20.409  26.914  1.00  0.00    -0.019 C 
HETATM    5  C14 UNL     1      45.576 -20.344  28.060  1.00  0.00     0.060 C 
HETATM    6  C15 UNL     1      45.375 -21.724  28.712  1.00  0.00     0.137 C 
HETATM    7  C16 UNL     1      43.980 -21.845  29.245  1.00  0.00     0.042 C 
HETATM    8  C17 UNL     1      44.076 -21.537  30.746  1.00  0.00     0.026 C 
HETATM    9  C18 UNL     1      43.558 -23.254  29.136  1.00  0.00     0.079 A 
HETATM   10  O5  UNL     1      44.478 -24.174  28.998  1.00  0.00    -0.305 OA
HETATM   11  C19 UNL     1      44.193 -25.479  28.887  1.00  0.00     0.132 A 
HETATM   12  S1  UNL     1      45.125 -26.896  28.702  1.00  0.00    -0.064 SA
HETATM   13  C20 UNL     1      43.864 -28.046  28.657  1.00  0.00     0.046 A 
HETATM   14  C22 UNL     1      42.744 -27.282  28.791  1.00  0.00    -0.027 A 
HETATM   15  C23 UNL     1      41.372 -27.938  28.809  1.00  0.00     0.050 C 
HETATM   16  C24 UNL     1      42.908 -25.947  28.911  1.00  0.00     0.063 A 
HETATM   17  C25 UNL     1      41.923 -24.956  29.060  1.00  0.00     0.197 A 
HETATM   18  O6  UNL     1      40.694 -25.212  29.102  1.00  0.00    -0.287 OA
HETATM   19  C26 UNL     1      42.251 -23.619  29.173  1.00  0.00     0.060 A 
HETATM   20  C27 UNL     1      41.213 -22.592  29.358  1.00  0.00     0.115 C 
HETATM   21  C28 UNL     1      40.786 -22.511  30.820  1.00  0.00     0.054 C 
ENDROOT
BRANCH   1  22
HETATM   22  O2  UNL     1      41.046 -20.314  29.808  1.00  0.00    -0.312 OA
BRANCH  22  23
HETATM   23  C8  UNL     1      40.027 -19.449  29.500  1.00  0.00     0.259 C 
HETATM   24  O1  UNL     1      39.609 -18.683  30.396  1.00  0.00    -0.265 OA
BRANCH  23  25
HETATM   25  C7  UNL     1      39.454 -19.456  28.101  1.00  0.00     0.111 C 
BRANCH  25  26
HETATM   26  C6  UNL     1      39.608 -18.104  27.481  1.00  0.00     0.010 C 
BRANCH  26  27
HETATM   27  C5  UNL     1      38.283 -17.386  27.419  1.00  0.00     0.000 C 
BRANCH  27  28
HETATM   28  C4  UNL     1      38.366 -16.062  28.057  1.00  0.00     0.000 C 
BRANCH  28  29
HETATM   29  C3  UNL     1      37.421 -15.808  29.173  1.00  0.00    -0.000 C 
BRANCH  29  30
HETATM   30  C2  UNL     1      36.084 -15.352  28.802  1.00  0.00    -0.005 C 
HETATM   31  C1  UNL     1      35.884 -13.960  28.344  1.00  0.00     0.005 C 
ENDBRANCH  29  30
ENDBRANCH  28  29
ENDBRANCH  27  28
ENDBRANCH  26  27
ENDBRANCH  25  26
ENDBRANCH  23  25
ENDBRANCH  22  23
ENDBRANCH   1  22
BRANCH  20  32
HETATM   32  O7  UNL     1      40.082 -23.084  28.653  1.00  0.00    -0.382 OA
ATOM     33  H7  UNL     1      40.221 -23.998  28.434  1.00  0.00     0.211 HD
ENDBRANCH  20  32
BRANCH   3  34
HETATM   34  C12 UNL     1      42.388 -20.754  26.048  1.00  0.00     0.198 C 
BRANCH  34  35
HETATM   35  O3  UNL     1      42.241 -22.051  25.585  1.00  0.00    -0.397 OA
ATOM     36  H3  UNL     1      41.850 -22.067  24.720  1.00  0.00     0.209 HD
ENDBRANCH  34  35
ENDBRANCH   3  34
BRANCH   6  37
HETATM   37  O4  UNL     1      45.570 -22.638  27.680  1.00  0.00    -0.394 OA
ATOM     38  H4  UNL     1      46.014 -23.374  28.086  1.00  0.00     0.210 HD
ENDBRANCH   6  37
BRANCH  13  39
HETATM   39  C21 UNL     1      43.970 -29.545  28.498  1.00  0.00     0.223 C 
HETATM   40 CL1  UNL     1      43.343 -30.364  29.925  1.00  0.00    -0.078 Cl
HETATM   41 CL2  UNL     1      45.718 -29.911  28.395  1.00  0.00    -0.078 Cl
HETATM   42 CL3  UNL     1      43.149 -29.988  26.996  1.00  0.00    -0.078 Cl
ENDBRANCH  13  39
TORSDOF 13
ENDMDL
MODEL 3
REMARK VINA RESULT: -7.279677241      1.896      3.687
REMARK  13 active torsions:
REMARK  status: ('A' for Active; 'I' for Inactive)
REMARK    1  A    between atoms: C2_2  and  C3_3 
REMARK    2  A    between atoms: C3_3  and  C4_4 
REMARK    3  A    between atoms: C4_4  and  C5_5 
REMARK    4  A    between atoms: C5_5  and  C6_6 
REMARK    5  A    between atoms: C6_6  and  C7_7 
REMARK    6  A    between atoms: C7_7  and  C8_8 
REMARK    7  A    between atoms: C8_8  and  O2_10 
REMARK    8  A    between atoms: O2_10  and  C9_11 
REMARK    9  A    between atoms: C11_13  and  C12_14 
REMARK   10  A    between atoms: C12_14  and  O3_15 
REMARK   11  A    between atoms: C15_19  and  O4_20 
REMARK   12  A    between atoms: C20_28  and  C21_29 
REMARK   13  A    between atoms: C27_39  and  O7_41 
ROOT
HETATM    1  C9  UNL     1      39.369 -18.946  24.922  1.00  0.00     0.180 C 
HETATM    2  C10 UNL     1      39.825 -19.442  26.235  1.00  0.00     0.066 C 
HETATM    3  C11 UNL     1      41.225 -19.930  26.259  1.00  0.00    -0.052 C 
HETATM    4  C13 UNL     1      41.685 -20.421  27.407  1.00  0.00    -0.019 C 
HETATM    5  C14 UNL     1      40.749 -20.446  28.585  1.00  0.00     0.060 C 
HETATM    6  C15 UNL     1      39.552 -21.225  28.010  1.00  0.00     0.137 C 
HETATM    7  C16 UNL     1      38.926 -20.455  26.887  1.00  0.00     0.042 C 
HETATM    8  C17 UNL     1      37.716 -19.733  27.498  1.00  0.00     0.026 C 
HETATM    9  C18 UNL     1      38.386 -21.413  25.905  1.00  0.00     0.079 A 
HETATM   10  O5  UNL     1      38.175 -22.647  26.286  1.00  0.00    -0.305 OA
HETATM   11  C19 UNL     1      37.691 -23.590  25.467  1.00  0.00     0.132 A 
HETATM   12  S1  UNL     1      37.308 -25.244  25.638  1.00  0.00    -0.064 SA
HETATM   13  C20 UNL     1      36.766 -25.563  24.052  1.00  0.00     0.046 A 
HETATM   14  C22 UNL     1      36.899 -24.358  23.430  1.00  0.00    -0.027 A 
HETATM   15  C23 UNL     1      36.507 -24.205  21.969  1.00  0.00     0.050 C 
HETATM   16  C24 UNL     1      37.379 -23.328  24.160  1.00  0.00     0.063 A 
HETATM   17  C25 UNL     1      37.607 -22.002  23.755  1.00  0.00     0.197 A 
HETATM   18  O6  UNL     1      37.376 -21.592  22.591  1.00  0.00    -0.287 OA
HETATM   19  C26 UNL     1      38.107 -21.053  24.626  1.00  0.00     0.060 A 
HETATM   20  C27 UNL     1      38.313 -19.660  24.200  1.00  0.00     0.115 C 
HETATM   21  C28 UNL     1      37.005 -18.877  24.251  1.00  0.00     0.054 C 
ENDROOT
BRANCH   1  22
HETATM   22  O2  UNL     1      38.883 -17.599  25.122  1.00  0.00    -0.312 OA
BRANCH  22  23
HETATM   23  C8  UNL     1      39.710 -16.574  25.503  1.00  0.00     0.259 C 
HETATM   24  O1  UNL     1      40.633 -16.238  24.729  1.00  0.00    -0.265 OA
BRANCH  23  25
HETATM   25  C7  UNL     1      39.475 -15.895  26.834  1.00  0.00     0.111 C 
BRANCH  25  26
HETATM   26  C6  UNL     1      38.043 -16.048  27.236  1.00  0.00     0.010 C 
BRANCH  26  27
HETATM   27  C5  UNL     1      37.914 -16.148  28.737  1.00  0.00     0.000 C 
BRANCH  27  28
HETATM   28  C4  UNL     1      36.703 -15.458  29.211  1.00  0.00     0.000 C 
BRANCH  28  29
HETATM   29  C3  UNL     1      36.196 -14.355  28.357  1.00  0.00    -0.000 C 
BRANCH  29  30
HETATM   30  C2  UNL     1      34.960 -13.710  28.793  1.00  0.00    -0.005 C 
HETATM   31  C1  UNL     1      34.002 -14.454  29.639  1.00  0.00     0.005 C 
ENDBRANCH  29  30
ENDBRANCH  28  29
ENDBRANCH  27  28
ENDBRANCH  26  27
ENDBRANCH  25  26
ENDBRANCH  23  25
ENDBRANCH  22  23
ENDBRANCH   1  22
BRANCH  20  32
HETATM   32  O7  UNL     1      38.658 -19.746  22.825  1.00  0.00    -0.382 OA
ATOM     33  H7  UNL     1      38.445 -20.613  22.501  1.00  0.00     0.211 HD
ENDBRANCH  20  32
BRANCH   3  34
HETATM   34  C12 UNL     1      42.164 -19.915  25.108  1.00  0.00     0.198 C 
BRANCH  34  35
HETATM   35  O3  UNL     1      43.406 -20.415  25.465  1.00  0.00    -0.397 OA
ATOM     36  H3  UNL     1      43.815 -19.879  26.134  1.00  0.00     0.209 HD
ENDBRANCH  34  35
ENDBRANCH   3  34
BRANCH   6  37
HETATM   37  O4  UNL     1      40.098 -22.411  27.525  1.00  0.00    -0.394 OA
ATOM     38  H4  UNL     1      39.355 -22.991  27.407  1.00  0.00     0.210 HD
ENDBRANCH   6  37
BRANCH  13  39
HETATM   39  C21 UNL     1      36.268 -26.870  23.477  1.00  0.00     0.223 C 
HETATM   40 CL1  UNL     1      34.784 -26.617  22.562  1.00  0.00    -0.078 Cl
HETATM   41 CL2  UNL     1      35.862 -27.904  24.879  1.00  0.00    -0.078 Cl
HETATM   42 CL3  UNL     1      37.583 -27.581  22.534  1.00  0.00    -0.078 Cl
ENDBRANCH  13  39
TORSDOF 13
ENDMDL
MODEL 4
REMARK VINA RESULT: -7.202103153      5.680      6.959
REMARK  13 active torsions:
REMARK  status: ('A' for Active; 'I' for Inactive)
REMARK    1  A    between atoms: C2_2  and  C3_3 
REMARK    2  A    between atoms: C3_3  and  C4_4 
REMARK    3  A    between atoms: C4_4  and  C5_5 
REMARK    4  A    between atoms: C5_5  and  C6_6 
REMARK    5  A    between atoms: C6_6  and  C7_7 
REMARK    6  A    between atoms: C7_7  and  C8_8 
REMARK    7  A    between atoms: C8_8  and  O2_10 
REMARK    8  A    between atoms: O2_10  and  C9_11 
REMARK    9  A    between atoms: C11_13  and  C12_14 
REMARK   10  A    between atoms: C12_14  and  O3_15 
REMARK   11  A    between atoms: C15_19  and  O4_20 
REMARK   12  A    between atoms: C20_28  and  C21_29 
REMARK   13  A    between atoms: C27_39  and  O7_41 
ROOT
HETATM    1  C9  UNL     1      41.642 -21.457  28.453  1.00  0.00     0.180 C 
HETATM    2  C10 UNL     1      43.072 -21.097  28.510  1.00  0.00     0.066 C 
HETATM    3  C11 UNL     1      43.725 -20.949  27.188  1.00  0.00    -0.052 C 
HETATM    4  C13 UNL     1      45.023 -20.658  27.173  1.00  0.00    -0.019 C 
HETATM    5  C14 UNL     1      45.724 -20.506  28.497  1.00  0.00     0.060 C 
HETATM    6  C15 UNL     1      45.396 -21.848  29.174  1.00  0.00     0.137 C 
HETATM    7  C16 UNL     1      43.918 -21.966  29.398  1.00  0.00     0.042 C 
HETATM    8  C17 UNL     1      43.684 -21.568  30.862  1.00  0.00     0.026 C 
HETATM    9  C18 UNL     1      43.539 -23.387  29.288  1.00  0.00     0.079 A 
HETATM   10  O5  UNL     1      44.473 -24.295  29.409  1.00  0.00    -0.305 OA
HETATM   11  C19 UNL     1      44.228 -25.609  29.320  1.00  0.00     0.132 A 
HETATM   12  S1  UNL     1      45.186 -27.017  29.428  1.00  0.00    -0.064 SA
HETATM   13  C20 UNL     1      43.973 -28.191  29.183  1.00  0.00     0.046 A 
HETATM   14  C22 UNL     1      42.845 -27.443  29.024  1.00  0.00    -0.027 A 
HETATM   15  C23 UNL     1      41.507 -28.123  28.784  1.00  0.00     0.050 C 
HETATM   16  C24 UNL     1      42.971 -26.100  29.094  1.00  0.00     0.063 A 
HETATM   17  C25 UNL     1      41.971 -25.122  28.965  1.00  0.00     0.197 A 
HETATM   18  O6  UNL     1      40.764 -25.399  28.755  1.00  0.00    -0.287 OA
HETATM   19  C26 UNL     1      42.258 -23.774  29.063  1.00  0.00     0.060 A 
HETATM   20  C27 UNL     1      41.198 -22.759  28.956  1.00  0.00     0.115 C 
HETATM   21  C28 UNL     1      40.462 -22.600  30.283  1.00  0.00     0.054 C 
ENDROOT
BRANCH   1  22
HETATM   22  O2  UNL     1      40.923 -20.462  29.217  1.00  0.00    -0.312 OA
BRANCH  22  23
HETATM   23  C8  UNL     1      40.209 -19.457  28.616  1.00  0.00     0.259 C 
HETATM   24  O1  UNL     1      40.273 -19.346  27.373  1.00  0.00    -0.265 OA
BRANCH  23  25
HETATM   25  C7  UNL     1      39.378 -18.530  29.476  1.00  0.00     0.111 C 
BRANCH  25  26
HETATM   26  C6  UNL     1      38.706 -17.506  28.618  1.00  0.00     0.010 C 
BRANCH  26  27
HETATM   27  C5  UNL     1      37.393 -17.075  29.223  1.00  0.00     0.000 C 
BRANCH  27  28
HETATM   28  C4  UNL     1      37.286 -15.608  29.266  1.00  0.00     0.000 C 
BRANCH  28  29
HETATM   29  C3  UNL     1      36.336 -14.989  28.307  1.00  0.00    -0.000 C 
BRANCH  29  30
HETATM   30  C2  UNL     1      35.454 -13.954  28.841  1.00  0.00    -0.005 C 
HETATM   31  C1  UNL     1      34.188 -14.338  29.502  1.00  0.00     0.005 C 
ENDBRANCH  29  30
ENDBRANCH  28  29
ENDBRANCH  27  28
ENDBRANCH  26  27
ENDBRANCH  25  26
ENDBRANCH  23  25
ENDBRANCH  22  23
ENDBRANCH   1  22
BRANCH  20  32
HETATM   32  O7  UNL     1      40.251 -23.313  28.054  1.00  0.00    -0.382 OA
ATOM     33  H7  UNL     1      39.647 -22.636  27.775  1.00  0.00     0.211 HD
ENDBRANCH  20  32
BRANCH   3  34
HETATM   34  C12 UNL     1      43.053 -21.096  25.871  1.00  0.00     0.198 C 
BRANCH  34  35
HETATM   35  O3  UNL     1      42.420 -19.922  25.495  1.00  0.00    -0.397 OA
ATOM     36  H3  UNL     1      43.042 -19.211  25.396  1.00  0.00     0.209 HD
ENDBRANCH  34  35
ENDBRANCH   3  34
BRANCH   6  37
HETATM   37  O4  UNL     1      45.816 -22.818  28.267  1.00  0.00    -0.394 OA
ATOM     38  H4  UNL     1      46.508 -23.289  28.716  1.00  0.00     0.210 HD
ENDBRANCH   6  37
BRANCH  13  39
HETATM   39  C21 UNL     1      44.120 -29.696  29.143  1.00  0.00     0.223 C 
HETATM   40 CL1  UNL     1      43.250 -30.437  30.482  1.00  0.00    -0.078 Cl
HETATM   41 CL2  UNL     1      45.861 -30.029  29.385  1.00  0.00    -0.078 Cl
HETATM   42 CL3  UNL     1      43.593 -30.247  27.549  1.00  0.00    -0.078 Cl
ENDBRANCH  13  39
TORSDOF 13
ENDMDL
MODEL 5
REMARK VINA RESULT: -7.174620706      4.050      6.717
REMARK  13 active torsions:
REMARK  status: ('A' for Active; 'I' for Inactive)
REMARK    1  A    between atoms: C2_2  and  C3_3 
REMARK    2  A    between atoms: C3_3  and  C4_4 
REMARK    3  A    between atoms: C4_4  and  C5_5 
REMARK    4  A    between atoms: C5_5  and  C6_6 
REMARK    5  A    between atoms: C6_6  and  C7_7 
REMARK    6  A    between atoms: C7_7  and  C8_8 
REMARK    7  A    between atoms: C8_8  and  O2_10 
REMARK    8  A    between atoms: O2_10  and  C9_11 
REMARK    9  A    between atoms: C11_13  and  C12_14 
REMARK   10  A    between atoms: C12_14  and  O3_15 
REMARK   11  A    between atoms: C15_19  and  O4_20 
REMARK   12  A    between atoms: C20_28  and  C21_29 
REMARK   13  A    between atoms: C27_39  and  O7_41 
ROOT
HETATM    1  C9  UNL     1      42.587 -21.806  27.669  1.00  0.00     0.180 C 
HETATM    2  C10 UNL     1      41.601 -20.748  27.961  1.00  0.00     0.066 C 
HETATM    3  C11 UNL     1      41.002 -20.819  29.314  1.00  0.00    -0.052 C 
HETATM    4  C13 UNL     1      40.080 -19.911  29.627  1.00  0.00    -0.019 C 
HETATM    5  C14 UNL     1      39.719 -18.889  28.582  1.00  0.00     0.060 C 
HETATM    6  C15 UNL     1      39.330 -19.788  27.395  1.00  0.00     0.137 C 
HETATM    7  C16 UNL     1      40.516 -20.580  26.935  1.00  0.00     0.042 C 
HETATM    8  C17 UNL     1      41.081 -19.821  25.725  1.00  0.00     0.026 C 
HETATM    9  C18 UNL     1      40.043 -21.880  26.426  1.00  0.00     0.079 A 
HETATM   10  O5  UNL     1      38.785 -22.002  26.094  1.00  0.00    -0.305 OA
HETATM   11  C19 UNL     1      38.261 -23.144  25.627  1.00  0.00     0.132 A 
HETATM   12  S1  UNL     1      36.707 -23.627  25.115  1.00  0.00    -0.064 SA
HETATM   13  C20 UNL     1      37.047 -25.249  24.707  1.00  0.00     0.046 A 
HETATM   14  C22 UNL     1      38.377 -25.365  24.983  1.00  0.00    -0.027 A 
HETATM   15  C23 UNL     1      39.093 -26.685  24.744  1.00  0.00     0.050 C 
HETATM   16  C24 UNL     1      39.013 -24.274  25.461  1.00  0.00     0.063 A 
HETATM   17  C25 UNL     1      40.366 -24.139  25.819  1.00  0.00     0.197 A 
HETATM   18  O6  UNL     1      41.195 -25.078  25.729  1.00  0.00    -0.287 OA
HETATM   19  C26 UNL     1      40.874 -22.947  26.297  1.00  0.00     0.060 A 
HETATM   20  C27 UNL     1      42.298 -22.807  26.640  1.00  0.00     0.115 C 
HETATM   21  C28 UNL     1      43.134 -22.551  25.391  1.00  0.00     0.054 C 
ENDROOT
BRANCH   1  22
HETATM   22  O2  UNL     1      43.809 -21.149  27.261  1.00  0.00    -0.312 OA
BRANCH  22  23
HETATM   23  C8  UNL     1      44.961 -21.226  28.000  1.00  0.00     0.259 C 
HETATM   24  O1  UNL     1      45.617 -22.289  27.966  1.00  0.00    -0.265 OA
BRANCH  23  25
HETATM   25  C7  UNL     1      45.390 -20.029  28.820  1.00  0.00     0.111 C 
BRANCH  25  26
HETATM   26  C6  UNL     1      45.191 -20.312  30.275  1.00  0.00     0.010 C 
BRANCH  26  27
HETATM   27  C5  UNL     1      46.490 -20.719  30.926  1.00  0.00     0.000 C 
BRANCH  27  28
HETATM   28  C4  UNL     1      46.271 -21.766  31.937  1.00  0.00     0.000 C 
BRANCH  28  29
HETATM   29  C3  UNL     1      44.942 -22.428  31.922  1.00  0.00    -0.000 C 
BRANCH  29  30
HETATM   30  C2  UNL     1      44.918 -23.831  31.517  1.00  0.00    -0.005 C 
HETATM   31  C1  UNL     1      44.035 -24.260  30.411  1.00  0.00     0.005 C 
ENDBRANCH  29  30
ENDBRANCH  28  29
ENDBRANCH  27  28
ENDBRANCH  26  27
ENDBRANCH  25  26
ENDBRANCH  23  25
ENDBRANCH  22  23
ENDBRANCH   1  22
BRANCH  20  32
HETATM   32  O7  UNL     1      42.688 -24.091  27.109  1.00  0.00    -0.382 OA
ATOM     33  H7  UNL     1      41.927 -24.547  27.447  1.00  0.00     0.211 HD
ENDBRANCH  20  32
BRANCH   3  34
HETATM   34  C12 UNL     1      41.343 -21.819  30.359  1.00  0.00     0.198 C 
BRANCH  34  35
HETATM   35  O3  UNL     1      40.948 -21.390  31.616  1.00  0.00    -0.397 OA
ATOM     36  H3  UNL     1      41.674 -21.006  32.093  1.00  0.00     0.209 HD
ENDBRANCH  34  35
ENDBRANCH   3  34
BRANCH   6  37
HETATM   37  O4  UNL     1      38.355 -20.646  27.901  1.00  0.00    -0.394 OA
ATOM     38  H4  UNL     1      38.790 -21.486  27.985  1.00  0.00     0.210 HD
ENDBRANCH   6  37
BRANCH  13  39
HETATM   39  C21 UNL     1      36.099 -26.300  24.176  1.00  0.00     0.223 C 
HETATM   40 CL1  UNL     1      36.624 -26.863  22.592  1.00  0.00    -0.078 Cl
HETATM   41 CL2  UNL     1      34.524 -25.482  23.960  1.00  0.00    -0.078 Cl
HETATM   42 CL3  UNL     1      35.978 -27.580  25.390  1.00  0.00    -0.078 Cl
ENDBRANCH  13  39
TORSDOF 13
ENDMDL
