MODEL 1
REMARK VINA RESULT: -9.690918173      0.000      0.000
REMARK  14 active torsions:
REMARK  status: ('A' for Active; 'I' for Inactive)
REMARK    1  A    between atoms: C4_4  and  C5_5 
REMARK    2  A    between atoms: C6_6  and  C7_7 
REMARK    3  A    between atoms: C9_9  and  C10_10 
REMARK    4  A    between atoms: C11_11  and  C12_12 
REMARK    5  A    between atoms: C14_14  and  C15_15 
REMARK    6  A    between atoms: C18_19  and  C19_20 
REMARK    7  A    between atoms: C20_21  and  C21_22 
REMARK    8  A    between atoms: C21_22  and  O3_24 
REMARK    9  A    between atoms: O3_24  and  C22_25 
REMARK   10  A    between atoms: C23_27  and  C25_29 
REMARK   11  A    between atoms: C25_29  and  O5_30 
REMARK   12  A    between atoms: C26_32  and  O6_33 
REMARK   13  A    between atoms: C27_35  and  O7_36 
REMARK   14  A    between atoms: C28_38  and  O8_39 
ROOT
HETATM    1  C15 UNL     1      60.630  57.221 114.382  1.00  0.00     0.014 C 
HETATM    2  C16 UNL     1      59.519  56.525 114.362  1.00  0.00     0.024 C 
HETATM    3  C17 UNL     1      58.264  56.625 113.647  1.00  0.00     0.199 C 
HETATM    4  O1  UNL     1      57.769  57.251 112.685  1.00  0.00    -0.289 OA
HETATM    5  C18 UNL     1      57.707  55.597 114.576  1.00  0.00     0.175 A 
HETATM    6  O9  UNL     1      58.310  54.351 114.484  1.00  0.00    -0.351 OA
HETATM    7  C29 UNL     1      59.082  55.311 115.075  1.00  0.00     0.207 A 
ENDROOT
BRANCH   5   8
HETATM    8  C19 UNL     1      56.683  55.928 115.552  1.00  0.00     0.028 C 
HETATM    9  C20 UNL     1      55.411  56.029 115.380  1.00  0.00     0.082 C 
BRANCH   9  10
HETATM   10  C21 UNL     1      54.759  55.815 114.100  1.00  0.00     0.285 C 
HETATM   11  O2  UNL     1      54.296  54.723 113.734  1.00  0.00    -0.260 OA
BRANCH  10  12
HETATM   12  O3  UNL     1      54.621  56.872 113.192  1.00  0.00    -0.284 OA
BRANCH  12  13
HETATM   13  C22 UNL     1      53.346  57.526 112.966  1.00  0.00     0.302 C 
HETATM   14  O4  UNL     1      53.096  57.478 111.654  1.00  0.00    -0.343 OA
HETATM   15  C23 UNL     1      52.332  58.442 111.116  1.00  0.00     0.110 C 
HETATM   16  C24 UNL     1      50.859  58.381 111.379  1.00  0.00     0.051 C 
HETATM   17  C26 UNL     1      52.789  59.845 111.480  1.00  0.00     0.185 C 
HETATM   18  C27 UNL     1      52.858  60.019 112.973  1.00  0.00     0.183 C 
HETATM   19  C28 UNL     1      53.383  58.827 113.683  1.00  0.00     0.205 C 
BRANCH  15  20
HETATM   20  C25 UNL     1      52.469  58.330 109.575  1.00  0.00     0.204 C 
BRANCH  20  21
HETATM   21  O5  UNL     1      53.675  57.775 109.222  1.00  0.00    -0.398 OA
ATOM     22  H5  UNL     1      53.580  57.190 108.479  1.00  0.00     0.209 HD
ENDBRANCH  20  21
ENDBRANCH  15  20
BRANCH  17  23
HETATM   23  O6  UNL     1      54.051  60.038 110.919  1.00  0.00    -0.390 OA
ATOM     24  H6  UNL     1      54.144  60.965 110.730  1.00  0.00     0.210 HD
ENDBRANCH  17  23
BRANCH  18  25
HETATM   25  O7  UNL     1      53.499  61.216 113.284  1.00  0.00    -0.390 OA
ATOM     26  H7  UNL     1      53.643  61.274 114.221  1.00  0.00     0.210 HD
ENDBRANCH  18  25
BRANCH  19  27
HETATM   27  O8  UNL     1      54.722  59.144 114.044  1.00  0.00    -0.388 OA
ATOM     28  H8  UNL     1      54.763  60.025 114.396  1.00  0.00     0.210 HD
ENDBRANCH  19  27
ENDBRANCH  12  13
ENDBRANCH  10  12
ENDBRANCH   9  10
ENDBRANCH   5   8
BRANCH   1  29
HETATM   29  C14 UNL     1      60.783  58.388 113.546  1.00  0.00     0.007 C 
HETATM   30  C12 UNL     1      61.731  58.494 112.614  1.00  0.00    -0.062 C 
HETATM   31  C13 UNL     1      62.698  57.400 112.416  1.00  0.00     0.048 C 
BRANCH  30  32
HETATM   32  C11 UNL     1      61.792  59.717 111.821  1.00  0.00     0.007 C 
HETATM   33  C10 UNL     1      60.717  60.233 111.208  1.00  0.00     0.001 C 
BRANCH  33  34
HETATM   34  C9  UNL     1      60.872  61.438 110.451  1.00  0.00     0.007 C 
HETATM   35  C7  UNL     1      61.090  61.534 109.145  1.00  0.00    -0.062 C 
HETATM   36  C8  UNL     1      61.215  60.310 108.334  1.00  0.00     0.048 C 
BRANCH  35  37
HETATM   37  C6  UNL     1      61.210  62.848 108.597  1.00  0.00     0.007 C 
HETATM   38  C5  UNL     1      60.331  63.674 108.163  1.00  0.00     0.001 C 
BRANCH  38  39
HETATM   39  C4  UNL     1      58.903  63.545 108.085  1.00  0.00     0.002 C 
HETATM   40  C2  UNL     1      58.350  62.946 106.996  1.00  0.00    -0.088 C 
HETATM   41  C1  UNL     1      59.241  62.446 105.928  1.00  0.00     0.043 C 
HETATM   42  C3  UNL     1      56.887  62.782 106.854  1.00  0.00     0.043 C 
ENDBRANCH  38  39
ENDBRANCH  35  37
ENDBRANCH  33  34
ENDBRANCH  30  32
ENDBRANCH   1  29
TORSDOF 14
ENDMDL
MODEL 2
REMARK VINA RESULT: -9.329114373      1.486      1.767
REMARK  14 active torsions:
REMARK  status: ('A' for Active; 'I' for Inactive)
REMARK    1  A    between atoms: C4_4  and  C5_5 
REMARK    2  A    between atoms: C6_6  and  C7_7 
REMARK    3  A    between atoms: C9_9  and  C10_10 
REMARK    4  A    between atoms: C11_11  and  C12_12 
REMARK    5  A    between atoms: C14_14  and  C15_15 
REMARK    6  A    between atoms: C18_19  and  C19_20 
REMARK    7  A    between atoms: C20_21  and  C21_22 
REMARK    8  A    between atoms: C21_22  and  O3_24 
REMARK    9  A    between atoms: O3_24  and  C22_25 
REMARK   10  A    between atoms: C23_27  and  C25_29 
REMARK   11  A    between atoms: C25_29  and  O5_30 
REMARK   12  A    between atoms: C26_32  and  O6_33 
REMARK   13  A    between atoms: C27_35  and  O7_36 
REMARK   14  A    between atoms: C28_38  and  O8_39 
ROOT
HETATM    1  C15 UNL     1      59.717  57.496 113.822  1.00  0.00     0.014 C 
HETATM    2  C16 UNL     1      58.643  56.774 114.038  1.00  0.00     0.024 C 
HETATM    3  C17 UNL     1      57.238  56.911 113.714  1.00  0.00     0.199 C 
HETATM    4  O1  UNL     1      56.496  57.618 112.998  1.00  0.00    -0.289 OA
HETATM    5  C18 UNL     1      56.962  55.778 114.647  1.00  0.00     0.175 A 
HETATM    6  O9  UNL     1      57.513  54.566 114.260  1.00  0.00    -0.351 OA
HETATM    7  C29 UNL     1      58.421  55.483 114.712  1.00  0.00     0.207 A 
ENDROOT
BRANCH   5   8
HETATM    8  C19 UNL     1      56.251  55.980 115.898  1.00  0.00     0.028 C 
HETATM    9  C20 UNL     1      54.989  56.153 116.088  1.00  0.00     0.082 C 
BRANCH   9  10
HETATM   10  C21 UNL     1      54.016  56.176 115.010  1.00  0.00     0.285 C 
HETATM   11  O2  UNL     1      53.772  55.203 114.277  1.00  0.00    -0.260 OA
BRANCH  10  12
HETATM   12  O3  UNL     1      53.285  57.340 114.743  1.00  0.00    -0.284 OA
BRANCH  12  13
HETATM   13  C22 UNL     1      52.436  57.460 113.572  1.00  0.00     0.302 C 
HETATM   14  O4  UNL     1      53.140  58.090 112.626  1.00  0.00    -0.343 OA
HETATM   15  C23 UNL     1      52.473  58.807 111.709  1.00  0.00     0.110 C 
HETATM   16  C24 UNL     1      51.747  58.053 110.638  1.00  0.00     0.051 C 
HETATM   17  C26 UNL     1      51.478  59.783 112.315  1.00  0.00     0.185 C 
HETATM   18  C27 UNL     1      50.505  59.071 113.215  1.00  0.00     0.183 C 
HETATM   19  C28 UNL     1      51.128  57.998 114.028  1.00  0.00     0.205 C 
BRANCH  15  20
HETATM   20  C25 UNL     1      53.518  59.670 110.953  1.00  0.00     0.204 C 
BRANCH  20  21
HETATM   21  O5  UNL     1      54.716  59.701 111.624  1.00  0.00    -0.398 OA
ATOM     22  H5  UNL     1      55.261  58.959 111.390  1.00  0.00     0.209 HD
ENDBRANCH  20  21
ENDBRANCH  15  20
BRANCH  17  23
HETATM   23  O6  UNL     1      52.201  60.726 113.046  1.00  0.00    -0.390 OA
ATOM     24  H6  UNL     1      51.907  60.677 113.948  1.00  0.00     0.210 HD
ENDBRANCH  17  23
BRANCH  18  25
HETATM   25  O7  UNL     1      49.760  59.999 113.939  1.00  0.00    -0.390 OA
ATOM     26  H7  UNL     1      49.264  60.550 113.347  1.00  0.00     0.210 HD
ENDBRANCH  18  25
BRANCH  19  27
HETATM   27  O8  UNL     1      51.253  58.526 115.343  1.00  0.00    -0.388 OA
ATOM     28  H8  UNL     1      51.580  59.417 115.305  1.00  0.00     0.210 HD
ENDBRANCH  19  27
ENDBRANCH  12  13
ENDBRANCH  10  12
ENDBRANCH   9  10
ENDBRANCH   5   8
BRANCH   1  29
HETATM   29  C14 UNL     1      59.632  58.745 113.104  1.00  0.00     0.007 C 
HETATM   30  C12 UNL     1      60.612  59.202 112.323  1.00  0.00    -0.062 C 
HETATM   31  C13 UNL     1      61.862  58.435 112.182  1.00  0.00     0.048 C 
BRANCH  30  32
HETATM   32  C11 UNL     1      60.419  60.476 111.640  1.00  0.00     0.007 C 
HETATM   33  C10 UNL     1      61.003  60.761 110.468  1.00  0.00     0.001 C 
BRANCH  33  34
HETATM   34  C9  UNL     1      60.756  62.039 109.871  1.00  0.00     0.007 C 
HETATM   35  C7  UNL     1      60.820  62.338 108.579  1.00  0.00    -0.062 C 
HETATM   36  C8  UNL     1      61.198  61.297 107.606  1.00  0.00     0.048 C 
BRANCH  35  37
HETATM   37  C6  UNL     1      60.529  63.686 108.205  1.00  0.00     0.007 C 
HETATM   38  C5  UNL     1      59.425  64.272 107.920  1.00  0.00     0.001 C 
BRANCH  38  39
HETATM   39  C4  UNL     1      58.086  63.752 107.884  1.00  0.00     0.002 C 
HETATM   40  C2  UNL     1      57.213  64.236 106.962  1.00  0.00    -0.088 C 
HETATM   41  C1  UNL     1      57.671  65.283 106.025  1.00  0.00     0.043 C 
HETATM   42  C3  UNL     1      55.820  63.744 106.872  1.00  0.00     0.043 C 
ENDBRANCH  38  39
ENDBRANCH  35  37
ENDBRANCH  33  34
ENDBRANCH  30  32
ENDBRANCH   1  29
TORSDOF 14
ENDMDL
MODEL 3
REMARK VINA RESULT: -9.308639991      2.152      4.288
REMARK  14 active torsions:
REMARK  status: ('A' for Active; 'I' for Inactive)
REMARK    1  A    between atoms: C4_4  and  C5_5 
REMARK    2  A    between atoms: C6_6  and  C7_7 
REMARK    3  A    between atoms: C9_9  and  C10_10 
REMARK    4  A    between atoms: C11_11  and  C12_12 
REMARK    5  A    between atoms: C14_14  and  C15_15 
REMARK    6  A    between atoms: C18_19  and  C19_20 
REMARK    7  A    between atoms: C20_21  and  C21_22 
REMARK    8  A    between atoms: C21_22  and  O3_24 
REMARK    9  A    between atoms: O3_24  and  C22_25 
REMARK   10  A    between atoms: C23_27  and  C25_29 
REMARK   11  A    between atoms: C25_29  and  O5_30 
REMARK   12  A    between atoms: C26_32  and  O6_33 
REMARK   13  A    between atoms: C27_35  and  O7_36 
REMARK   14  A    between atoms: C28_38  and  O8_39 
ROOT
HETATM    1  C15 UNL     1      62.435  59.332 111.541  1.00  0.00     0.014 C 
HETATM    2  C16 UNL     1      62.296  58.258 112.280  1.00  0.00     0.024 C 
HETATM    3  C17 UNL     1      61.173  57.446 112.700  1.00  0.00     0.199 C 
HETATM    4  O1  UNL     1      59.959  57.300 112.438  1.00  0.00    -0.289 OA
HETATM    5  C18 UNL     1      62.086  56.769 113.669  1.00  0.00     0.175 A 
HETATM    6  O9  UNL     1      63.115  56.047 113.082  1.00  0.00    -0.351 OA
HETATM    7  C29 UNL     1      63.257  57.404 113.000  1.00  0.00     0.207 A 
ENDROOT
BRANCH   5   8
HETATM    8  C19 UNL     1      61.941  56.947 115.103  1.00  0.00     0.028 C 
HETATM    9  C20 UNL     1      60.933  56.660 115.852  1.00  0.00     0.082 C 
BRANCH   9  10
HETATM   10  C21 UNL     1      59.704  56.075 115.345  1.00  0.00     0.285 C 
HETATM   11  O2  UNL     1      59.490  54.853 115.293  1.00  0.00    -0.260 OA
BRANCH  10  12
HETATM   12  O3  UNL     1      58.671  56.897 114.878  1.00  0.00    -0.284 OA
BRANCH  12  13
HETATM   13  C22 UNL     1      57.283  56.476 114.910  1.00  0.00     0.302 C 
HETATM   14  O4  UNL     1      57.026  55.846 113.759  1.00  0.00    -0.343 OA
HETATM   15  C23 UNL     1      55.768  55.860 113.293  1.00  0.00     0.110 C 
HETATM   16  C24 UNL     1      54.770  54.977 113.976  1.00  0.00     0.051 C 
HETATM   17  C26 UNL     1      55.162  57.253 113.238  1.00  0.00     0.185 C 
HETATM   18  C27 UNL     1      55.217  57.917 114.588  1.00  0.00     0.183 C 
HETATM   19  C28 UNL     1      56.475  57.650 115.328  1.00  0.00     0.205 C 
BRANCH  15  20
HETATM   20  C25 UNL     1      55.815  55.352 111.828  1.00  0.00     0.204 C 
BRANCH  20  21
HETATM   21  O5  UNL     1      54.751  54.528 111.553  1.00  0.00    -0.398 OA
ATOM     22  H5  UNL     1      54.796  54.192 110.665  1.00  0.00     0.209 HD
ENDBRANCH  20  21
ENDBRANCH  15  20
BRANCH  17  23
HETATM   23  O6  UNL     1      55.892  57.996 112.311  1.00  0.00    -0.390 OA
ATOM     24  H6  UNL     1      55.460  58.836 112.212  1.00  0.00     0.210 HD
ENDBRANCH  17  23
BRANCH  18  25
HETATM   25  O7  UNL     1      54.880  59.264 114.469  1.00  0.00    -0.390 OA
ATOM     26  H7  UNL     1      55.649  59.804 114.609  1.00  0.00     0.210 HD
ENDBRANCH  18  25
BRANCH  19  27
HETATM   27  O8  UNL     1      57.251  58.837 115.220  1.00  0.00    -0.388 OA
ATOM     28  H8  UNL     1      56.741  59.522 114.804  1.00  0.00     0.210 HD
ENDBRANCH  19  27
ENDBRANCH  12  13
ENDBRANCH  10  12
ENDBRANCH   9  10
ENDBRANCH   5   8
BRANCH   1  29
HETATM   29  C14 UNL     1      61.287  59.964 110.937  1.00  0.00     0.007 C 
HETATM   30  C12 UNL     1      61.372  60.751 109.864  1.00  0.00    -0.062 C 
HETATM   31  C13 UNL     1      62.684  61.029 109.254  1.00  0.00     0.048 C 
BRANCH  30  32
HETATM   32  C11 UNL     1      60.145  61.336 109.333  1.00  0.00     0.007 C 
HETATM   33  C10 UNL     1      60.105  62.568 108.806  1.00  0.00     0.001 C 
BRANCH  33  34
HETATM   34  C9  UNL     1      58.855  63.060 108.309  1.00  0.00     0.007 C 
HETATM   35  C7  UNL     1      58.376  62.914 107.079  1.00  0.00    -0.062 C 
HETATM   36  C8  UNL     1      59.171  62.197 106.066  1.00  0.00     0.048 C 
BRANCH  35  37
HETATM   37  C6  UNL     1      57.097  63.488 106.804  1.00  0.00     0.007 C 
HETATM   38  C5  UNL     1      56.761  64.605 106.271  1.00  0.00     0.001 C 
BRANCH  38  39
HETATM   39  C4  UNL     1      57.581  65.669 105.764  1.00  0.00     0.002 C 
HETATM   40  C2  UNL     1      57.491  66.902 106.331  1.00  0.00    -0.088 C 
HETATM   41  C1  UNL     1      56.551  67.105 107.453  1.00  0.00     0.043 C 
HETATM   42  C3  UNL     1      58.307  68.041 105.855  1.00  0.00     0.043 C 
ENDBRANCH  38  39
ENDBRANCH  35  37
ENDBRANCH  33  34
ENDBRANCH  30  32
ENDBRANCH   1  29
TORSDOF 14
ENDMDL
MODEL 4
REMARK VINA RESULT: -9.298960296      1.853      3.238
REMARK  14 active torsions:
REMARK  status: ('A' for Active; 'I' for Inactive)
REMARK    1  A    between atoms: C4_4  and  C5_5 
REMARK    2  A    between atoms: C6_6  and  C7_7 
REMARK    3  A    between atoms: C9_9  and  C10_10 
REMARK    4  A    between atoms: C11_11  and  C12_12 
REMARK    5  A    between atoms: C14_14  and  C15_15 
REMARK    6  A    between atoms: C18_19  and  C19_20 
REMARK    7  A    between atoms: C20_21  and  C21_22 
REMARK    8  A    between atoms: C21_22  and  O3_24 
REMARK    9  A    between atoms: O3_24  and  C22_25 
REMARK   10  A    between atoms: C23_27  and  C25_29 
REMARK   11  A    between atoms: C25_29  and  O5_30 
REMARK   12  A    between atoms: C26_32  and  O6_33 
REMARK   13  A    between atoms: C27_35  and  O7_36 
REMARK   14  A    between atoms: C28_38  and  O8_39 
ROOT
HETATM    1  C15 UNL     1      63.167  58.586 112.403  1.00  0.00     0.014 C 
HETATM    2  C16 UNL     1      62.365  57.834 113.118  1.00  0.00     0.024 C 
HETATM    3  C17 UNL     1      60.958  57.498 113.059  1.00  0.00     0.199 C 
HETATM    4  O1  UNL     1      59.988  57.613 112.278  1.00  0.00    -0.289 OA
HETATM    5  C18 UNL     1      61.093  56.897 114.420  1.00  0.00     0.175 A 
HETATM    6  O9  UNL     1      61.933  55.795 114.482  1.00  0.00    -0.351 OA
HETATM    7  C29 UNL     1      62.577  56.989 114.307  1.00  0.00     0.207 A 
ENDROOT
BRANCH   5   8
HETATM    8  C19 UNL     1      60.460  57.496 115.582  1.00  0.00     0.028 C 
HETATM    9  C20 UNL     1      59.291  57.265 116.071  1.00  0.00     0.082 C 
BRANCH   9  10
HETATM   10  C21 UNL     1      58.362  56.307 115.497  1.00  0.00     0.285 C 
HETATM   11  O2  UNL     1      58.161  55.174 115.963  1.00  0.00    -0.260 OA
BRANCH  10  12
HETATM   12  O3  UNL     1      57.627  56.636 114.352  1.00  0.00    -0.284 OA
BRANCH  12  13
HETATM   13  C22 UNL     1      56.215  56.969 114.416  1.00  0.00     0.302 C 
HETATM   14  O4  UNL     1      55.553  56.057 113.696  1.00  0.00    -0.343 OA
HETATM   15  C23 UNL     1      54.389  56.415 113.134  1.00  0.00     0.110 C 
HETATM   16  C24 UNL     1      53.198  56.540 114.034  1.00  0.00     0.051 C 
HETATM   17  C26 UNL     1      54.476  57.706 112.336  1.00  0.00     0.185 C 
HETATM   18  C27 UNL     1      55.003  58.830 113.187  1.00  0.00     0.183 C 
HETATM   19  C28 UNL     1      56.088  58.416 114.109  1.00  0.00     0.205 C 
BRANCH  15  20
HETATM   20  C25 UNL     1      54.009  55.305 112.119  1.00  0.00     0.204 C 
BRANCH  20  21
HETATM   21  O5  UNL     1      55.126  54.655 111.652  1.00  0.00    -0.398 OA
ATOM     22  H5  UNL     1      54.935  53.746 111.451  1.00  0.00     0.209 HD
ENDBRANCH  20  21
ENDBRANCH  15  20
BRANCH  17  23
HETATM   23  O6  UNL     1      55.335  57.481 111.261  1.00  0.00    -0.390 OA
ATOM     24  H6  UNL     1      54.842  57.628 110.462  1.00  0.00     0.210 HD
ENDBRANCH  17  23
BRANCH  18  25
HETATM   25  O7  UNL     1      55.299  59.932 112.388  1.00  0.00    -0.390 OA
ATOM     26  H7  UNL     1      56.236  60.086 112.382  1.00  0.00     0.210 HD
ENDBRANCH  18  25
BRANCH  19  27
HETATM   27  O8  UNL     1      57.296  58.898 113.532  1.00  0.00    -0.388 OA
ATOM     28  H8  UNL     1      57.113  59.314 112.698  1.00  0.00     0.210 HD
ENDBRANCH  19  27
ENDBRANCH  12  13
ENDBRANCH  10  12
ENDBRANCH   9  10
ENDBRANCH   5   8
BRANCH   1  29
HETATM   29  C14 UNL     1      62.671  59.308 111.256  1.00  0.00     0.007 C 
HETATM   30  C12 UNL     1      63.471  59.882 110.357  1.00  0.00    -0.062 C 
HETATM   31  C13 UNL     1      64.934  59.816 110.522  1.00  0.00     0.048 C 
BRANCH  30  32
HETATM   32  C11 UNL     1      62.863  60.585 109.233  1.00  0.00     0.007 C 
HETATM   33  C10 UNL     1      61.621  60.317 108.803  1.00  0.00     0.001 C 
BRANCH  33  34
HETATM   34  C9  UNL     1      61.106  61.057 107.691  1.00  0.00     0.007 C 
HETATM   35  C7  UNL     1      60.201  62.027 107.734  1.00  0.00    -0.062 C 
HETATM   36  C8  UNL     1      59.610  62.419 109.026  1.00  0.00     0.048 C 
BRANCH  35  37
HETATM   37  C6  UNL     1      59.834  62.634 106.493  1.00  0.00     0.007 C 
HETATM   38  C5  UNL     1      58.701  63.022 106.035  1.00  0.00     0.001 C 
BRANCH  38  39
HETATM   39  C4  UNL     1      57.398  62.974 106.636  1.00  0.00     0.002 C 
HETATM   40  C2  UNL     1      56.630  64.097 106.644  1.00  0.00    -0.088 C 
HETATM   41  C1  UNL     1      57.165  65.330 106.030  1.00  0.00     0.043 C 
HETATM   42  C3  UNL     1      55.279  64.115 107.247  1.00  0.00     0.043 C 
ENDBRANCH  38  39
ENDBRANCH  35  37
ENDBRANCH  33  34
ENDBRANCH  30  32
ENDBRANCH   1  29
TORSDOF 14
ENDMDL
MODEL 5
REMARK VINA RESULT: -9.240115994      2.266      3.629
REMARK  14 active torsions:
REMARK  status: ('A' for Active; 'I' for Inactive)
REMARK    1  A    between atoms: C4_4  and  C5_5 
REMARK    2  A    between atoms: C6_6  and  C7_7 
REMARK    3  A    between atoms: C9_9  and  C10_10 
REMARK    4  A    between atoms: C11_11  and  C12_12 
REMARK    5  A    between atoms: C14_14  and  C15_15 
REMARK    6  A    between atoms: C18_19  and  C19_20 
REMARK    7  A    between atoms: C20_21  and  C21_22 
REMARK    8  A    between atoms: C21_22  and  O3_24 
REMARK    9  A    between atoms: O3_24  and  C22_25 
REMARK   10  A    between atoms: C23_27  and  C25_29 
REMARK   11  A    between atoms: C25_29  and  O5_30 
REMARK   12  A    between atoms: C26_32  and  O6_33 
REMARK   13  A    between atoms: C27_35  and  O7_36 
REMARK   14  A    between atoms: C28_38  and  O8_39 
ROOT
HETATM    1  C15 UNL     1      62.695  58.494 113.141  1.00  0.00     0.014 C 
HETATM    2  C16 UNL     1      61.828  57.736 113.767  1.00  0.00     0.024 C 
HETATM    3  C17 UNL     1      60.464  57.320 113.514  1.00  0.00     0.199 C 
HETATM    4  O1  UNL     1      59.624  57.341 112.588  1.00  0.00    -0.289 OA
HETATM    5  C18 UNL     1      60.414  56.797 114.912  1.00  0.00     0.175 A 
HETATM    6  O9  UNL     1      61.285  55.748 115.166  1.00  0.00    -0.351 OA
HETATM    7  C29 UNL     1      61.891  56.965 115.022  1.00  0.00     0.207 A 
ENDROOT
BRANCH   5   8
HETATM    8  C19 UNL     1      59.581  57.418 115.926  1.00  0.00     0.028 C 
HETATM    9  C20 UNL     1      58.295  57.441 116.009  1.00  0.00     0.082 C 
BRANCH   9  10
HETATM   10  C21 UNL     1      57.422  56.809 115.036  1.00  0.00     0.285 C 
HETATM   11  O2  UNL     1      57.096  55.611 115.075  1.00  0.00    -0.260 OA
BRANCH  10  12
HETATM   12  O3  UNL     1      56.892  57.552 113.974  1.00  0.00    -0.284 OA
BRANCH  12  13
HETATM   13  C22 UNL     1      55.495  57.458 113.595  1.00  0.00     0.302 C 
HETATM   14  O4  UNL     1      54.811  57.056 114.672  1.00  0.00    -0.343 OA
HETATM   15  C23 UNL     1      53.674  56.370 114.483  1.00  0.00     0.110 C 
HETATM   16  C24 UNL     1      52.471  57.139 114.031  1.00  0.00     0.051 C 
HETATM   17  C26 UNL     1      53.830  55.195 113.532  1.00  0.00     0.185 C 
HETATM   18  C27 UNL     1      54.383  55.645 112.206  1.00  0.00     0.183 C 
HETATM   19  C28 UNL     1      55.432  56.687 112.327  1.00  0.00     0.205 C 
BRANCH  15  20
HETATM   20  C25 UNL     1      53.270  55.765 115.853  1.00  0.00     0.204 C 
BRANCH  20  21
HETATM   21  O5  UNL     1      54.317  55.804 116.742  1.00  0.00    -0.398 OA
ATOM     22  H5  UNL     1      54.019  55.651 117.631  1.00  0.00     0.209 HD
ENDBRANCH  20  21
ENDBRANCH  15  20
BRANCH  17  23
HETATM   23  O6  UNL     1      54.701  54.282 114.126  1.00  0.00    -0.390 OA
ATOM     24  H6  UNL     1      54.509  54.265 115.056  1.00  0.00     0.210 HD
ENDBRANCH  17  23
BRANCH  18  25
HETATM   25  O7  UNL     1      54.740  54.538 111.439  1.00  0.00    -0.390 OA
ATOM     26  H7  UNL     1      55.060  54.821 110.591  1.00  0.00     0.210 HD
ENDBRANCH  18  25
BRANCH  19  27
HETATM   27  O8  UNL     1      56.670  56.024 112.100  1.00  0.00    -0.388 OA
ATOM     28  H8  UNL     1      56.518  55.196 111.658  1.00  0.00     0.210 HD
ENDBRANCH  19  27
ENDBRANCH  12  13
ENDBRANCH  10  12
ENDBRANCH   9  10
ENDBRANCH   5   8
BRANCH   1  29
HETATM   29  C14 UNL     1      62.351  59.128 111.891  1.00  0.00     0.007 C 
HETATM   30  C12 UNL     1      63.262  59.521 111.000  1.00  0.00    -0.062 C 
HETATM   31  C13 UNL     1      64.697  59.337 111.282  1.00  0.00     0.048 C 
BRANCH  30  32
HETATM   32  C11 UNL     1      62.802  60.149 109.766  1.00  0.00     0.007 C 
HETATM   33  C10 UNL     1      61.523  60.104 109.369  1.00  0.00     0.001 C 
BRANCH  33  34
HETATM   34  C9  UNL     1      61.163  60.750 108.143  1.00  0.00     0.007 C 
HETATM   35  C7  UNL     1      60.475  61.878 108.010  1.00  0.00    -0.062 C 
HETATM   36  C8  UNL     1      59.985  62.579 109.210  1.00  0.00     0.048 C 
BRANCH  35  37
HETATM   37  C6  UNL     1      60.233  62.343 106.681  1.00  0.00     0.007 C 
HETATM   38  C5  UNL     1      59.146  62.619 106.059  1.00  0.00     0.001 C 
BRANCH  38  39
HETATM   39  C4  UNL     1      57.783  62.550 106.507  1.00  0.00     0.002 C 
HETATM   40  C2  UNL     1      57.068  63.700 106.631  1.00  0.00    -0.088 C 
HETATM   41  C1  UNL     1      57.719  64.984 106.298  1.00  0.00     0.043 C 
HETATM   42  C3  UNL     1      55.661  63.698 107.088  1.00  0.00     0.043 C 
ENDBRANCH  38  39
ENDBRANCH  35  37
ENDBRANCH  33  34
ENDBRANCH  30  32
ENDBRANCH   1  29
TORSDOF 14
ENDMDL
