MODEL 1
REMARK VINA RESULT: -8.408876420      0.000      0.000
REMARK  14 active torsions:
REMARK  status: ('A' for Active; 'I' for Inactive)
REMARK    1  A    between atoms: C4_6  and  C5_7 
REMARK    2  A    between atoms: C5_7  and  C6_8 
REMARK    3  A    between atoms: C6_8  and  O3_9 
REMARK    4  A    between atoms: C6_8  and  C7_11 
REMARK    5  A    between atoms: C11_16  and  O5_17 
REMARK    6  A    between atoms: C13_19  and  O6_20 
REMARK    7  A    between atoms: C14_22  and  O7_23 
REMARK    8  A    between atoms: C15_25  and  C16_26 
REMARK    9  A    between atoms: C16_26  and  O8_27 
REMARK   10  A    between atoms: C17_29  and  C18_30 
REMARK   11  A    between atoms: C19_31  and  C21_33 
REMARK   12  A    between atoms: C23_35  and  C24_36 
REMARK   13  A    between atoms: C24_36  and  C25_37 
REMARK   14  A    between atoms: C25_37  and  C26_38 
ROOT
HETATM    1  C1  UNL     1      60.379  54.455 111.822  1.00  0.00     0.034 C 
HETATM    2  C2  UNL     1      59.938  55.568 112.362  1.00  0.00     0.076 C 
HETATM    3  C3  UNL     1      58.549  55.906 111.941  1.00  0.00     0.296 C 
HETATM    4  O1  UNL     1      58.059  55.341 110.958  1.00  0.00    -0.259 OA
HETATM    5  O2  UNL     1      57.677  56.849 112.566  1.00  0.00    -0.311 OA
HETATM    6  C4  UNL     1      57.974  57.377 113.919  1.00  0.00     0.141 C 
HETATM    7  C15 UNL     1      59.240  57.939 113.842  1.00  0.00     0.054 C 
HETATM    8  C17 UNL     1      60.645  57.820 113.620  1.00  0.00     0.092 C 
HETATM    9  C29 UNL     1      60.793  56.321 113.264  1.00  0.00     0.172 C 
HETATM   10  O9  UNL     1      61.708  55.730 113.788  1.00  0.00    -0.291 OA
ENDROOT
BRANCH   6  11
HETATM   11  C5  UNL     1      57.644  56.244 114.910  1.00  0.00     0.067 C 
BRANCH  11  12
HETATM   12  C6  UNL     1      56.386  56.644 115.616  1.00  0.00     0.152 C 
BRANCH  12  13
HETATM   13  O3  UNL     1      56.420  57.889 116.190  1.00  0.00    -0.393 OA
ATOM     14  H3  UNL     1      56.169  57.912 117.106  1.00  0.00     0.210 HD
ENDBRANCH  12  13
BRANCH  12  15
HETATM   15  C7  UNL     1      55.174  56.532 114.689  1.00  0.00     0.182 C 
HETATM   16  O4  UNL     1      54.798  57.842 114.399  1.00  0.00    -0.368 OA
HETATM   17  C8  UNL     1      53.588  57.917 113.736  1.00  0.00     0.083 C 
HETATM   18  C9  UNL     1      53.625  57.278 112.374  1.00  0.00     0.048 C 
HETATM   19  C10 UNL     1      53.263  59.399 113.573  1.00  0.00     0.048 C 
HETATM   20  C11 UNL     1      52.445  57.311 114.514  1.00  0.00     0.185 C 
HETATM   21  C13 UNL     1      52.771  55.831 114.710  1.00  0.00     0.181 C 
HETATM   22  C14 UNL     1      54.111  55.781 115.432  1.00  0.00     0.181 C 
BRANCH  20  23
HETATM   23  O5  UNL     1      51.277  57.484 113.797  1.00  0.00    -0.385 OA
HETATM   24  C12 UNL     1      50.281  58.026 114.628  1.00  0.00     0.202 C 
ENDBRANCH  20  23
BRANCH  21  25
HETATM   25  O6  UNL     1      51.835  55.180 115.481  1.00  0.00    -0.390 OA
ATOM     26  H6  UNL     1      50.965  55.209 115.102  1.00  0.00     0.210 HD
ENDBRANCH  21  25
BRANCH  22  27
HETATM   27  O7  UNL     1      53.982  56.230 116.745  1.00  0.00    -0.390 OA
ATOM     28  H7  UNL     1      53.515  55.605 117.287  1.00  0.00     0.210 HD
ENDBRANCH  22  27
ENDBRANCH  12  15
ENDBRANCH  11  12
ENDBRANCH   6  11
BRANCH   7  29
HETATM   29  C16 UNL     1      58.971  59.241 113.311  1.00  0.00     0.172 C 
BRANCH  29  30
HETATM   30  O8  UNL     1      57.579  59.633 113.235  1.00  0.00    -0.400 OA
ATOM     31  H8  UNL     1      56.938  58.931 113.262  1.00  0.00     0.209 HD
ENDBRANCH  29  30
ENDBRANCH   7  29
BRANCH   8  32
HETATM   32  C18 UNL     1      61.168  58.524 112.420  1.00  0.00    -0.007 C 
HETATM   33  C19 UNL     1      62.350  58.926 112.202  1.00  0.00    -0.059 C 
HETATM   34  C20 UNL     1      63.463  58.757 113.152  1.00  0.00     0.048 C 
BRANCH  33  35
HETATM   35  C21 UNL     1      62.651  59.600 110.926  1.00  0.00    -0.056 C 
HETATM   36  C22 UNL     1      64.052  59.691 110.504  1.00  0.00     0.049 C 
HETATM   37  C23 UNL     1      61.683  60.105 110.215  1.00  0.00     0.007 C 
BRANCH  37  38
HETATM   38  C24 UNL     1      61.721  60.801 108.947  1.00  0.00     0.001 C 
BRANCH  38  39
HETATM   39  C25 UNL     1      60.536  61.267 108.294  1.00  0.00     0.002 C 
BRANCH  39  40
HETATM   40  C26 UNL     1      60.023  62.443 108.172  1.00  0.00    -0.088 C 
HETATM   41  C27 UNL     1      60.767  63.703 108.310  1.00  0.00     0.043 C 
HETATM   42  C28 UNL     1      58.526  62.603 107.859  1.00  0.00     0.043 C 
ENDBRANCH  39  40
ENDBRANCH  38  39
ENDBRANCH  37  38
ENDBRANCH  33  35
ENDBRANCH   8  32
TORSDOF 14
ENDMDL
MODEL 2
REMARK VINA RESULT: -8.396914054      1.222      1.520
REMARK  14 active torsions:
REMARK  status: ('A' for Active; 'I' for Inactive)
REMARK    1  A    between atoms: C4_6  and  C5_7 
REMARK    2  A    between atoms: C5_7  and  C6_8 
REMARK    3  A    between atoms: C6_8  and  O3_9 
REMARK    4  A    between atoms: C6_8  and  C7_11 
REMARK    5  A    between atoms: C11_16  and  O5_17 
REMARK    6  A    between atoms: C13_19  and  O6_20 
REMARK    7  A    between atoms: C14_22  and  O7_23 
REMARK    8  A    between atoms: C15_25  and  C16_26 
REMARK    9  A    between atoms: C16_26  and  O8_27 
REMARK   10  A    between atoms: C17_29  and  C18_30 
REMARK   11  A    between atoms: C19_31  and  C21_33 
REMARK   12  A    between atoms: C23_35  and  C24_36 
REMARK   13  A    between atoms: C24_36  and  C25_37 
REMARK   14  A    between atoms: C25_37  and  C26_38 
ROOT
HETATM    1  C1  UNL     1      60.898  55.012 112.063  1.00  0.00     0.034 C 
HETATM    2  C2  UNL     1      60.564  56.200 112.511  1.00  0.00     0.076 C 
HETATM    3  C3  UNL     1      59.158  56.570 112.183  1.00  0.00     0.296 C 
HETATM    4  O1  UNL     1      58.549  55.931 111.321  1.00  0.00    -0.259 OA
HETATM    5  O2  UNL     1      58.397  57.624 112.774  1.00  0.00    -0.311 OA
HETATM    6  C4  UNL     1      58.850  58.279 114.025  1.00  0.00     0.141 C 
HETATM    7  C15 UNL     1      60.127  58.755 113.769  1.00  0.00     0.054 C 
HETATM    8  C17 UNL     1      61.497  58.532 113.434  1.00  0.00     0.092 C 
HETATM    9  C29 UNL     1      61.538  56.997 113.238  1.00  0.00     0.172 C 
HETATM   10  O9  UNL     1      62.471  56.414 113.740  1.00  0.00    -0.291 OA
ENDROOT
BRANCH   6  11
HETATM   11  C5  UNL     1      58.565  57.282 115.165  1.00  0.00     0.067 C 
BRANCH  11  12
HETATM   12  C6  UNL     1      57.187  57.585 115.667  1.00  0.00     0.152 C 
BRANCH  12  13
HETATM   13  O3  UNL     1      56.734  58.845 115.372  1.00  0.00    -0.393 OA
ATOM     14  H3  UNL     1      55.812  58.988 115.554  1.00  0.00     0.210 HD
ENDBRANCH  12  13
BRANCH  12  15
HETATM   15  C7  UNL     1      56.181  56.541 115.179  1.00  0.00     0.182 C 
HETATM   16  O4  UNL     1      55.123  57.264 114.631  1.00  0.00    -0.368 OA
HETATM   17  C8  UNL     1      54.032  56.471 114.330  1.00  0.00     0.083 C 
HETATM   18  C9  UNL     1      54.324  55.456 113.258  1.00  0.00     0.048 C 
HETATM   19  C10 UNL     1      52.930  57.403 113.834  1.00  0.00     0.048 C 
HETATM   20  C11 UNL     1      53.473  55.747 115.531  1.00  0.00     0.185 C 
HETATM   21  C13 UNL     1      54.577  54.831 116.056  1.00  0.00     0.181 C 
HETATM   22  C14 UNL     1      55.766  55.730 116.369  1.00  0.00     0.181 C 
BRANCH  20  23
HETATM   23  O5  UNL     1      52.360  55.030 115.141  1.00  0.00    -0.385 OA
HETATM   24  C12 UNL     1      51.275  55.334 115.982  1.00  0.00     0.202 C 
ENDBRANCH  20  23
BRANCH  21  25
HETATM   25  O6  UNL     1      54.215  54.170 117.207  1.00  0.00    -0.390 OA
ATOM     26  H6  UNL     1      53.694  54.710 117.790  1.00  0.00     0.210 HD
ENDBRANCH  21  25
BRANCH  22  27
HETATM   27  O7  UNL     1      55.501  56.534 117.475  1.00  0.00    -0.390 OA
ATOM     28  H7  UNL     1      54.853  57.201 117.279  1.00  0.00     0.210 HD
ENDBRANCH  22  27
ENDBRANCH  12  15
ENDBRANCH  11  12
ENDBRANCH   6  11
BRANCH   7  29
HETATM   29  C16 UNL     1      59.870  60.004 113.119  1.00  0.00     0.172 C 
BRANCH  29  30
HETATM   30  O8  UNL     1      58.529  60.536 113.251  1.00  0.00    -0.400 OA
ATOM     31  H8  UNL     1      57.819  59.904 113.241  1.00  0.00     0.209 HD
ENDBRANCH  29  30
ENDBRANCH   7  29
BRANCH   8  32
HETATM   32  C18 UNL     1      61.933  59.069 112.118  1.00  0.00    -0.007 C 
HETATM   33  C19 UNL     1      63.114  59.287 111.716  1.00  0.00    -0.059 C 
HETATM   34  C20 UNL     1      64.318  59.035 112.525  1.00  0.00     0.048 C 
BRANCH  33  35
HETATM   35  C21 UNL     1      63.318  59.821 110.356  1.00  0.00    -0.056 C 
HETATM   36  C22 UNL     1      64.689  59.906 109.843  1.00  0.00     0.049 C 
HETATM   37  C23 UNL     1      62.293  60.212 109.653  1.00  0.00     0.007 C 
BRANCH  37  38
HETATM   38  C24 UNL     1      62.234  60.760 108.315  1.00  0.00     0.001 C 
BRANCH  38  39
HETATM   39  C25 UNL     1      61.002  61.155 107.703  1.00  0.00     0.002 C 
BRANCH  39  40
HETATM   40  C26 UNL     1      60.446  62.306 107.545  1.00  0.00    -0.088 C 
HETATM   41  C27 UNL     1      60.801  63.521 108.293  1.00  0.00     0.043 C 
HETATM   42  C28 UNL     1      59.322  62.485 106.511  1.00  0.00     0.043 C 
ENDBRANCH  39  40
ENDBRANCH  38  39
ENDBRANCH  37  38
ENDBRANCH  33  35
ENDBRANCH   8  32
TORSDOF 14
ENDMDL
MODEL 3
REMARK VINA RESULT: -8.330598500      1.653      2.441
REMARK  14 active torsions:
REMARK  status: ('A' for Active; 'I' for Inactive)
REMARK    1  A    between atoms: C4_6  and  C5_7 
REMARK    2  A    between atoms: C5_7  and  C6_8 
REMARK    3  A    between atoms: C6_8  and  O3_9 
REMARK    4  A    between atoms: C6_8  and  C7_11 
REMARK    5  A    between atoms: C11_16  and  O5_17 
REMARK    6  A    between atoms: C13_19  and  O6_20 
REMARK    7  A    between atoms: C14_22  and  O7_23 
REMARK    8  A    between atoms: C15_25  and  C16_26 
REMARK    9  A    between atoms: C16_26  and  O8_27 
REMARK   10  A    between atoms: C17_29  and  C18_30 
REMARK   11  A    between atoms: C19_31  and  C21_33 
REMARK   12  A    between atoms: C23_35  and  C24_36 
REMARK   13  A    between atoms: C24_36  and  C25_37 
REMARK   14  A    between atoms: C25_37  and  C26_38 
ROOT
HETATM    1  C1  UNL     1      60.490  54.612 112.039  1.00  0.00     0.034 C 
HETATM    2  C2  UNL     1      60.209  55.805 112.512  1.00  0.00     0.076 C 
HETATM    3  C3  UNL     1      58.973  56.388 111.918  1.00  0.00     0.296 C 
HETATM    4  O1  UNL     1      58.505  55.896 110.887  1.00  0.00    -0.259 OA
HETATM    5  O2  UNL     1      58.231  57.500 112.422  1.00  0.00    -0.311 OA
HETATM    6  C4  UNL     1      58.460  58.005 113.798  1.00  0.00     0.141 C 
HETATM    7  C15 UNL     1      59.811  58.311 113.874  1.00  0.00     0.054 C 
HETATM    8  C17 UNL     1      61.183  57.919 113.830  1.00  0.00     0.092 C 
HETATM    9  C29 UNL     1      61.080  56.409 113.506  1.00  0.00     0.172 C 
HETATM   10  O9  UNL     1      61.793  55.671 114.145  1.00  0.00    -0.291 OA
ENDROOT
BRANCH   6  11
HETATM   11  C5  UNL     1      57.800  56.987 114.749  1.00  0.00     0.067 C 
BRANCH  11  12
HETATM   12  C6  UNL     1      56.595  57.661 115.330  1.00  0.00     0.152 C 
BRANCH  12  13
HETATM   13  O3  UNL     1      56.704  59.022 115.454  1.00  0.00    -0.393 OA
ATOM     14  H3  UNL     1      55.945  59.510 115.155  1.00  0.00     0.210 HD
ENDBRANCH  12  13
BRANCH  12  15
HETATM   15  C7  UNL     1      55.333  57.309 114.541  1.00  0.00     0.182 C 
HETATM   16  O4  UNL     1      55.719  56.329 113.628  1.00  0.00    -0.368 OA
HETATM   17  C8  UNL     1      54.738  56.049 112.696  1.00  0.00     0.083 C 
HETATM   18  C9  UNL     1      53.500  55.455 113.309  1.00  0.00     0.048 C 
HETATM   19  C10 UNL     1      55.332  55.041 111.717  1.00  0.00     0.048 C 
HETATM   20  C11 UNL     1      54.333  57.253 111.879  1.00  0.00     0.185 C 
HETATM   21  C13 UNL     1      53.763  58.284 112.852  1.00  0.00     0.181 C 
HETATM   22  C14 UNL     1      54.861  58.563 113.870  1.00  0.00     0.181 C 
BRANCH  20  23
HETATM   23  O5  UNL     1      53.395  56.862 110.945  1.00  0.00    -0.385 OA
HETATM   24  C12 UNL     1      53.732  57.381 109.682  1.00  0.00     0.202 C 
ENDBRANCH  20  23
BRANCH  21  25
HETATM   25  O6  UNL     1      53.430  59.467 112.235  1.00  0.00    -0.390 OA
ATOM     26  H6  UNL     1      52.815  59.984 112.742  1.00  0.00     0.210 HD
ENDBRANCH  21  25
BRANCH  22  27
HETATM   27  O7  UNL     1      55.913  59.263 113.284  1.00  0.00    -0.390 OA
ATOM     28  H7  UNL     1      56.699  58.732 113.222  1.00  0.00     0.210 HD
ENDBRANCH  22  27
ENDBRANCH  12  15
ENDBRANCH  11  12
ENDBRANCH   6  11
BRANCH   7  29
HETATM   29  C16 UNL     1      59.865  59.623 113.303  1.00  0.00     0.172 C 
BRANCH  29  30
HETATM   30  O8  UNL     1      58.620  60.363 113.265  1.00  0.00    -0.400 OA
ATOM     31  H8  UNL     1      57.972  60.137 113.922  1.00  0.00     0.209 HD
ENDBRANCH  29  30
ENDBRANCH   7  29
BRANCH   8  32
HETATM   32  C18 UNL     1      61.973  58.472 112.699  1.00  0.00    -0.007 C 
HETATM   33  C19 UNL     1      63.233  58.504 112.567  1.00  0.00    -0.059 C 
HETATM   34  C20 UNL     1      64.177  57.973 113.565  1.00  0.00     0.048 C 
BRANCH  33  35
HETATM   35  C21 UNL     1      63.808  59.098 111.346  1.00  0.00    -0.056 C 
HETATM   36  C22 UNL     1      65.213  58.819 111.035  1.00  0.00     0.049 C 
HETATM   37  C23 UNL     1      63.071  59.857 110.585  1.00  0.00     0.007 C 
BRANCH  37  38
HETATM   38  C24 UNL     1      63.399  60.543 109.354  1.00  0.00     0.001 C 
BRANCH  38  39
HETATM   39  C25 UNL     1      62.515  61.491 108.747  1.00  0.00     0.002 C 
BRANCH  39  40
HETATM   40  C26 UNL     1      61.663  61.385 107.786  1.00  0.00    -0.088 C 
HETATM   41  C27 UNL     1      61.924  60.723 106.500  1.00  0.00     0.043 C 
HETATM   42  C28 UNL     1      60.251  61.976 107.938  1.00  0.00     0.043 C 
ENDBRANCH  39  40
ENDBRANCH  38  39
ENDBRANCH  37  38
ENDBRANCH  33  35
ENDBRANCH   8  32
TORSDOF 14
ENDMDL
MODEL 4
REMARK VINA RESULT: -8.323216586      2.734      4.567
REMARK  14 active torsions:
REMARK  status: ('A' for Active; 'I' for Inactive)
REMARK    1  A    between atoms: C4_6  and  C5_7 
REMARK    2  A    between atoms: C5_7  and  C6_8 
REMARK    3  A    between atoms: C6_8  and  O3_9 
REMARK    4  A    between atoms: C6_8  and  C7_11 
REMARK    5  A    between atoms: C11_16  and  O5_17 
REMARK    6  A    between atoms: C13_19  and  O6_20 
REMARK    7  A    between atoms: C14_22  and  O7_23 
REMARK    8  A    between atoms: C15_25  and  C16_26 
REMARK    9  A    between atoms: C16_26  and  O8_27 
REMARK   10  A    between atoms: C17_29  and  C18_30 
REMARK   11  A    between atoms: C19_31  and  C21_33 
REMARK   12  A    between atoms: C23_35  and  C24_36 
REMARK   13  A    between atoms: C24_36  and  C25_37 
REMARK   14  A    between atoms: C25_37  and  C26_38 
ROOT
HETATM    1  C1  UNL     1      58.183  57.190 116.226  1.00  0.00     0.034 C 
HETATM    2  C2  UNL     1      58.123  56.804 114.972  1.00  0.00     0.076 C 
HETATM    3  C3  UNL     1      57.929  55.333 114.827  1.00  0.00     0.296 C 
HETATM    4  O1  UNL     1      58.131  54.596 115.796  1.00  0.00    -0.259 OA
HETATM    5  O2  UNL     1      57.518  54.644 113.645  1.00  0.00    -0.311 OA
HETATM    6  C4  UNL     1      56.934  55.381 112.499  1.00  0.00     0.141 C 
HETATM    7  C15 UNL     1      57.873  56.338 112.141  1.00  0.00     0.054 C 
HETATM    8  C17 UNL     1      58.651  57.496 112.442  1.00  0.00     0.092 C 
HETATM    9  C29 UNL     1      58.247  57.786 113.908  1.00  0.00     0.172 C 
HETATM   10  O9  UNL     1      58.014  58.940 114.185  1.00  0.00    -0.291 OA
ENDROOT
BRANCH   6  11
HETATM   11  C5  UNL     1      55.500  55.763 112.912  1.00  0.00     0.067 C 
BRANCH  11  12
HETATM   12  C6  UNL     1      54.953  56.628 111.818  1.00  0.00     0.152 C 
BRANCH  12  13
HETATM   13  O3  UNL     1      54.649  55.963 110.659  1.00  0.00    -0.393 OA
ATOM     14  H3  UNL     1      55.400  55.734 110.123  1.00  0.00     0.210 HD
ENDBRANCH  12  13
BRANCH  12  15
HETATM   15  C7  UNL     1      53.736  57.420 112.299  1.00  0.00     0.182 C 
HETATM   16  O4  UNL     1      53.161  57.961 111.150  1.00  0.00    -0.368 OA
HETATM   17  C8  UNL     1      52.166  58.878 111.432  1.00  0.00     0.083 C 
HETATM   18  C9  UNL     1      50.984  58.264 112.131  1.00  0.00     0.048 C 
HETATM   19  C10 UNL     1      51.702  59.452 110.096  1.00  0.00     0.048 C 
HETATM   20  C11 UNL     1      52.650  60.048 112.256  1.00  0.00     0.185 C 
HETATM   21  C13 UNL     1      53.146  59.484 113.586  1.00  0.00     0.181 C 
HETATM   22  C14 UNL     1      54.231  58.472 113.244  1.00  0.00     0.181 C 
BRANCH  20  23
HETATM   23  O5  UNL     1      51.603  60.930 112.435  1.00  0.00    -0.385 OA
HETATM   24  C12 UNL     1      52.065  62.252 112.312  1.00  0.00     0.202 C 
ENDBRANCH  20  23
BRANCH  21  25
HETATM   25  O6  UNL     1      53.691  60.450 114.400  1.00  0.00    -0.390 OA
ATOM     26  H6  UNL     1      54.641  60.458 114.373  1.00  0.00     0.210 HD
ENDBRANCH  21  25
BRANCH  22  27
HETATM   27  O7  UNL     1      55.368  59.112 112.754  1.00  0.00    -0.390 OA
ATOM     28  H7  UNL     1      55.589  59.880 113.269  1.00  0.00     0.210 HD
ENDBRANCH  22  27
ENDBRANCH  12  15
ENDBRANCH  11  12
ENDBRANCH   6  11
BRANCH   7  29
HETATM   29  C16 UNL     1      58.769  55.596 111.305  1.00  0.00     0.172 C 
BRANCH  29  30
HETATM   30  O8  UNL     1      58.233  54.404 110.681  1.00  0.00    -0.400 OA
ATOM     31  H8  UNL     1      57.693  54.535 109.910  1.00  0.00     0.209 HD
ENDBRANCH  29  30
ENDBRANCH   7  29
BRANCH   8  32
HETATM   32  C18 UNL     1      60.120  57.283 112.515  1.00  0.00    -0.007 C 
HETATM   33  C19 UNL     1      61.043  58.134 112.343  1.00  0.00    -0.059 C 
HETATM   34  C20 UNL     1      60.804  59.553 112.024  1.00  0.00     0.048 C 
BRANCH  33  35
HETATM   35  C21 UNL     1      62.447  57.701 112.471  1.00  0.00    -0.056 C 
HETATM   36  C22 UNL     1      62.712  56.285 112.741  1.00  0.00     0.049 C 
HETATM   37  C23 UNL     1      63.407  58.573 112.356  1.00  0.00     0.007 C 
BRANCH  37  38
HETATM   38  C24 UNL     1      64.842  58.397 112.437  1.00  0.00     0.001 C 
BRANCH  38  39
HETATM   39  C25 UNL     1      65.673  58.342 111.274  1.00  0.00     0.002 C 
BRANCH  39  40
HETATM   40  C26 UNL     1      66.688  59.044 110.904  1.00  0.00    -0.088 C 
HETATM   41  C27 UNL     1      66.611  60.290 110.127  1.00  0.00     0.043 C 
HETATM   42  C28 UNL     1      68.112  58.595 111.272  1.00  0.00     0.043 C 
ENDBRANCH  39  40
ENDBRANCH  38  39
ENDBRANCH  37  38
ENDBRANCH  33  35
ENDBRANCH   8  32
TORSDOF 14
ENDMDL
MODEL 5
REMARK VINA RESULT: -8.215139680      1.893      2.761
REMARK  14 active torsions:
REMARK  status: ('A' for Active; 'I' for Inactive)
REMARK    1  A    between atoms: C4_6  and  C5_7 
REMARK    2  A    between atoms: C5_7  and  C6_8 
REMARK    3  A    between atoms: C6_8  and  O3_9 
REMARK    4  A    between atoms: C6_8  and  C7_11 
REMARK    5  A    between atoms: C11_16  and  O5_17 
REMARK    6  A    between atoms: C13_19  and  O6_20 
REMARK    7  A    between atoms: C14_22  and  O7_23 
REMARK    8  A    between atoms: C15_25  and  C16_26 
REMARK    9  A    between atoms: C16_26  and  O8_27 
REMARK   10  A    between atoms: C17_29  and  C18_30 
REMARK   11  A    between atoms: C19_31  and  C21_33 
REMARK   12  A    between atoms: C23_35  and  C24_36 
REMARK   13  A    between atoms: C24_36  and  C25_37 
REMARK   14  A    between atoms: C25_37  and  C26_38 
ROOT
HETATM    1  C1  UNL     1      58.156  55.799 111.221  1.00  0.00     0.034 C 
HETATM    2  C2  UNL     1      58.689  56.060 112.393  1.00  0.00     0.076 C 
HETATM    3  C3  UNL     1      57.906  57.058 113.176  1.00  0.00     0.296 C 
HETATM    4  O1  UNL     1      57.056  57.747 112.603  1.00  0.00    -0.259 OA
HETATM    5  O2  UNL     1      58.027  57.324 114.574  1.00  0.00    -0.311 OA
HETATM    6  C4  UNL     1      58.756  56.390 115.465  1.00  0.00     0.141 C 
HETATM    7  C15 UNL     1      60.031  56.269 114.932  1.00  0.00     0.054 C 
HETATM    8  C17 UNL     1      60.910  55.886 113.874  1.00  0.00     0.092 C 
HETATM    9  C29 UNL     1      59.919  55.396 112.790  1.00  0.00     0.172 C 
HETATM   10  O9  UNL     1      60.202  54.365 112.227  1.00  0.00    -0.291 OA
ENDROOT
BRANCH   6  11
HETATM   11  C5  UNL     1      57.837  55.169 115.662  1.00  0.00     0.067 C 
BRANCH  11  12
HETATM   12  C6  UNL     1      56.682  55.632 116.496  1.00  0.00     0.152 C 
BRANCH  12  13
HETATM   13  O3  UNL     1      56.703  56.965 116.816  1.00  0.00    -0.393 OA
ATOM     14  H3  UNL     1      56.953  57.541 116.103  1.00  0.00     0.210 HD
ENDBRANCH  12  13
BRANCH  12  15
HETATM   15  C7  UNL     1      55.348  55.276 115.836  1.00  0.00     0.182 C 
HETATM   16  O4  UNL     1      55.015  56.373 115.043  1.00  0.00    -0.368 OA
HETATM   17  C8  UNL     1      53.731  56.298 114.538  1.00  0.00     0.083 C 
HETATM   18  C9  UNL     1      53.539  55.143 113.594  1.00  0.00     0.048 C 
HETATM   19  C10 UNL     1      53.476  57.598 113.780  1.00  0.00     0.048 C 
HETATM   20  C11 UNL     1      52.673  56.214 115.613  1.00  0.00     0.185 C 
HETATM   21  C13 UNL     1      52.934  54.930 116.399  1.00  0.00     0.181 C 
HETATM   22  C14 UNL     1      54.355  55.038 116.933  1.00  0.00     0.181 C 
BRANCH  20  23
HETATM   23  O5  UNL     1      51.429  56.199 115.012  1.00  0.00    -0.385 OA
HETATM   24  C12 UNL     1      50.566  57.086 115.679  1.00  0.00     0.202 C 
ENDBRANCH  20  23
BRANCH  21  25
HETATM   25  O6  UNL     1      52.077  54.779 117.465  1.00  0.00    -0.390 OA
ATOM     26  H6  UNL     1      51.549  53.992 117.401  1.00  0.00     0.210 HD
ENDBRANCH  21  25
BRANCH  22  27
HETATM   27  O7  UNL     1      54.439  56.013 117.925  1.00  0.00    -0.390 OA
ATOM     28  H7  UNL     1      54.753  56.841 117.580  1.00  0.00     0.210 HD
ENDBRANCH  22  27
ENDBRANCH  12  15
ENDBRANCH  11  12
ENDBRANCH   6  11
BRANCH   7  29
HETATM   29  C16 UNL     1      60.701  57.417 115.464  1.00  0.00     0.172 C 
BRANCH  29  30
HETATM   30  O8  UNL     1      60.239  57.897 116.751  1.00  0.00    -0.400 OA
ATOM     31  H8  UNL     1      59.435  57.513 117.083  1.00  0.00     0.209 HD
ENDBRANCH  29  30
ENDBRANCH   7  29
BRANCH   8  32
HETATM   32  C18 UNL     1      61.640  56.998 113.211  1.00  0.00    -0.007 C 
HETATM   33  C19 UNL     1      62.774  56.962 112.647  1.00  0.00    -0.059 C 
HETATM   34  C20 UNL     1      63.606  55.750 112.551  1.00  0.00     0.048 C 
BRANCH  33  35
HETATM   35  C21 UNL     1      63.309  58.195 112.041  1.00  0.00    -0.056 C 
HETATM   36  C22 UNL     1      62.364  59.256 111.680  1.00  0.00     0.049 C 
HETATM   37  C23 UNL     1      64.589  58.312 111.831  1.00  0.00     0.007 C 
BRANCH  37  38
HETATM   38  C24 UNL     1      65.346  59.406 111.262  1.00  0.00     0.001 C 
BRANCH  38  39
HETATM   39  C25 UNL     1      65.167  59.838 109.909  1.00  0.00     0.002 C 
BRANCH  39  40
HETATM   40  C26 UNL     1      64.800  60.965 109.403  1.00  0.00    -0.088 C 
HETATM   41  C27 UNL     1      65.650  62.160 109.307  1.00  0.00     0.043 C 
HETATM   42  C28 UNL     1      63.377  61.132 108.844  1.00  0.00     0.043 C 
ENDBRANCH  39  40
ENDBRANCH  38  39
ENDBRANCH  37  38
ENDBRANCH  33  35
ENDBRANCH   8  32
TORSDOF 14
ENDMDL
