MODEL 1
REMARK VINA RESULT: -7.652487239      0.000      0.000
REMARK  16 active torsions:
REMARK  status: ('A' for Active; 'I' for Inactive)
REMARK    1  A    between atoms: C2_2  and  O2_4 
REMARK    2  A    between atoms: O2_4  and  C3_5 
REMARK    3  A    between atoms: C3_5  and  C4_7 
REMARK    4  A    between atoms: C4_7  and  C5_8 
REMARK    5  A    between atoms: C5_8  and  O4_9 
REMARK    6  A    between atoms: C5_8  and  C6_11 
REMARK    7  A    between atoms: C6_11  and  C8_13 
REMARK    8  A    between atoms: C9_14  and  C10_15 
REMARK    9  A    between atoms: C10_15  and  O5_16 
REMARK   10  A    between atoms: C10_15  and  C11_18 
REMARK   11  A    between atoms: C11_18  and  C12_19 
REMARK   12  A    between atoms: C12_19  and  C13_20 
REMARK   13  A    between atoms: C17_24  and  O6_25 
REMARK   14  A    between atoms: O6_25  and  C18_26 
REMARK   15  A    between atoms: C21_30  and  O8_31 
REMARK   16  A    between atoms: C26_38  and  O10_39 
ROOT
HETATM    1  C13 UNL     1      58.715  56.287 114.212  1.00  0.00     0.014 C 
HETATM    2  C14 UNL     1      59.617  56.310 113.043  1.00  0.00    -0.016 C 
HETATM    3  C15 UNL     1      59.319  57.570 112.249  1.00  0.00     0.018 C 
HETATM    4  C16 UNL     1      59.446  55.163 112.070  1.00  0.00     0.018 C 
HETATM    5  C17 UNL     1      61.089  56.409 113.447  1.00  0.00     0.143 C 
HETATM    6  C20 UNL     1      61.188  57.294 114.625  1.00  0.00     0.073 C 
HETATM    7  C21 UNL     1      60.448  56.800 115.849  1.00  0.00     0.078 C 
HETATM    8  C22 UNL     1      61.450  56.249 116.825  1.00  0.00     0.024 C 
HETATM    9  C23 UNL     1      61.118  56.581 118.276  1.00  0.00     0.013 C 
HETATM   10  C24 UNL     1      61.817  54.822 116.667  1.00  0.00     0.093 C 
HETATM   11  C25 UNL     1      60.779  53.983 116.061  1.00  0.00     0.179 C 
HETATM   12  O9  UNL     1      61.084  52.883 115.657  1.00  0.00    -0.291 OA
HETATM   13  C26 UNL     1      59.405  54.556 115.989  1.00  0.00     0.100 C 
HETATM   14  C27 UNL     1      59.270  55.944 115.570  1.00  0.00     0.044 C 
HETATM   15  C28 UNL     1      58.130  56.497 116.496  1.00  0.00     0.026 C 
ENDROOT
BRANCH   1  16
HETATM   16  C12 UNL     1      57.348  55.768 113.967  1.00  0.00     0.009 C 
BRANCH  16  17
HETATM   17  C11 UNL     1      56.218  56.759 114.010  1.00  0.00     0.036 C 
BRANCH  17  18
HETATM   18  C10 UNL     1      55.810  57.190 112.609  1.00  0.00     0.140 C 
BRANCH  18  19
HETATM   19  C9  UNL     1      54.709  56.292 112.179  1.00  0.00     0.001 C 
HETATM   20  C8  UNL     1      54.291  56.185 110.938  1.00  0.00    -0.021 C 
BRANCH  20  21
HETATM   21  C6  UNL     1      54.830  56.928 109.770  1.00  0.00     0.033 C 
HETATM   22  C7  UNL     1      54.710  55.950 108.586  1.00  0.00     0.017 C 
BRANCH  21  23
HETATM   23  C5  UNL     1      53.839  58.029 109.440  1.00  0.00     0.134 C 
BRANCH  23  24
HETATM   24  C4  UNL     1      52.466  57.805 109.975  1.00  0.00     0.143 C 
BRANCH  24  25
HETATM   25  C3  UNL     1      52.059  58.992 110.745  1.00  0.00     0.268 C 
HETATM   26  O3  UNL     1      51.239  59.819 110.229  1.00  0.00    -0.265 OA
BRANCH  25  27
HETATM   27  O2  UNL     1      52.508  59.295 112.026  1.00  0.00    -0.245 OA
BRANCH  27  28
HETATM   28  C2  UNL     1      51.933  58.745 113.161  1.00  0.00     0.262 C 
HETATM   29  C1  UNL     1      50.474  58.535 113.320  1.00  0.00     0.126 C 
HETATM   30  O1  UNL     1      52.679  58.402 114.110  1.00  0.00    -0.265 OA
ENDBRANCH  27  28
ENDBRANCH  25  27
ENDBRANCH  24  25
ENDBRANCH  23  24
BRANCH  23  31
HETATM   31  O4  UNL     1      54.313  59.255 109.914  1.00  0.00    -0.394 OA
ATOM     32  H4  UNL     1      53.702  59.937 109.664  1.00  0.00     0.210 HD
ENDBRANCH  23  31
ENDBRANCH  21  23
ENDBRANCH  20  21
ENDBRANCH  18  19
BRANCH  18  33
HETATM   33  O5  UNL     1      55.322  58.489 112.643  1.00  0.00    -0.392 OA
ATOM     34  H5  UNL     1      55.953  59.054 112.213  1.00  0.00     0.210 HD
ENDBRANCH  18  33
ENDBRANCH  17  18
ENDBRANCH  16  17
ENDBRANCH   1  16
BRANCH   5  35
HETATM   35  O6  UNL     1      61.840  57.061 112.402  1.00  0.00    -0.315 OA
BRANCH  35  36
HETATM   36  C18 UNL     1      63.198  57.061 112.334  1.00  0.00     0.255 C 
HETATM   37  C19 UNL     1      63.936  55.775 112.414  1.00  0.00     0.126 C 
HETATM   38  O7  UNL     1      63.808  58.153 112.204  1.00  0.00    -0.266 OA
ENDBRANCH  35  36
ENDBRANCH   5  35
BRANCH   7  39
HETATM   39  O8  UNL     1      60.047  58.018 116.482  1.00  0.00    -0.388 OA
ATOM     40  H8  UNL     1      60.877  58.389 116.757  1.00  0.00     0.210 HD
ENDBRANCH   7  39
BRANCH  13  41
HETATM   41  O10 UNL     1      58.568  53.614 115.418  1.00  0.00    -0.360 OA
ATOM     42  H10 UNL     1      57.679  53.790 115.705  1.00  0.00     0.217 HD
ENDBRANCH  13  41
TORSDOF 16
ENDMDL
MODEL 2
REMARK VINA RESULT: -7.638064516      2.319      8.662
REMARK  16 active torsions:
REMARK  status: ('A' for Active; 'I' for Inactive)
REMARK    1  A    between atoms: C2_2  and  O2_4 
REMARK    2  A    between atoms: O2_4  and  C3_5 
REMARK    3  A    between atoms: C3_5  and  C4_7 
REMARK    4  A    between atoms: C4_7  and  C5_8 
REMARK    5  A    between atoms: C5_8  and  O4_9 
REMARK    6  A    between atoms: C5_8  and  C6_11 
REMARK    7  A    between atoms: C6_11  and  C8_13 
REMARK    8  A    between atoms: C9_14  and  C10_15 
REMARK    9  A    between atoms: C10_15  and  O5_16 
REMARK   10  A    between atoms: C10_15  and  C11_18 
REMARK   11  A    between atoms: C11_18  and  C12_19 
REMARK   12  A    between atoms: C12_19  and  C13_20 
REMARK   13  A    between atoms: C17_24  and  O6_25 
REMARK   14  A    between atoms: O6_25  and  C18_26 
REMARK   15  A    between atoms: C21_30  and  O8_31 
REMARK   16  A    between atoms: C26_38  and  O10_39 
ROOT
HETATM    1  C13 UNL     1      57.532  56.257 114.152  1.00  0.00     0.014 C 
HETATM    2  C14 UNL     1      57.856  56.158 112.715  1.00  0.00    -0.016 C 
HETATM    3  C15 UNL     1      58.769  54.958 112.525  1.00  0.00     0.018 C 
HETATM    4  C16 UNL     1      58.607  57.339 112.137  1.00  0.00     0.018 C 
HETATM    5  C17 UNL     1      56.620  55.882 111.859  1.00  0.00     0.143 C 
HETATM    6  C20 UNL     1      55.735  54.965 112.604  1.00  0.00     0.073 C 
HETATM    7  C21 UNL     1      55.222  55.513 113.919  1.00  0.00     0.078 C 
HETATM    8  C22 UNL     1      53.787  55.923 113.739  1.00  0.00     0.024 C 
HETATM    9  C23 UNL     1      52.916  55.598 114.950  1.00  0.00     0.013 C 
HETATM   10  C24 UNL     1      53.545  57.303 113.254  1.00  0.00     0.093 C 
HETATM   11  C25 UNL     1      54.594  58.268 113.596  1.00  0.00     0.179 C 
HETATM   12  O9  UNL     1      54.609  59.334 113.024  1.00  0.00    -0.291 OA
HETATM   13  C26 UNL     1      55.575  57.857 114.640  1.00  0.00     0.100 C 
HETATM   14  C27 UNL     1      56.108  56.504 114.575  1.00  0.00     0.044 C 
HETATM   15  C28 UNL     1      56.173  56.064 116.081  1.00  0.00     0.026 C 
ENDROOT
BRANCH   1  16
HETATM   16  C12 UNL     1      58.542  56.935 115.000  1.00  0.00     0.009 C 
BRANCH  16  17
HETATM   17  C11 UNL     1      59.727  56.121 115.442  1.00  0.00     0.036 C 
BRANCH  17  18
HETATM   18  C10 UNL     1      60.912  57.013 115.780  1.00  0.00     0.140 C 
BRANCH  18  19
HETATM   19  C9  UNL     1      61.206  57.825 114.572  1.00  0.00     0.001 C 
HETATM   20  C8  UNL     1      62.092  57.490 113.661  1.00  0.00    -0.021 C 
BRANCH  20  21
HETATM   21  C6  UNL     1      62.940  56.270 113.677  1.00  0.00     0.033 C 
HETATM   22  C7  UNL     1      62.467  55.440 112.468  1.00  0.00     0.017 C 
BRANCH  21  23
HETATM   23  C5  UNL     1      64.348  56.695 113.303  1.00  0.00     0.134 C 
BRANCH  23  24
HETATM   24  C4  UNL     1      64.526  57.044 111.864  1.00  0.00     0.143 C 
BRANCH  24  25
HETATM   25  C3  UNL     1      65.567  58.079 111.753  1.00  0.00     0.268 C 
HETATM   26  O3  UNL     1      66.792  57.744 111.849  1.00  0.00    -0.265 OA
BRANCH  25  27
HETATM   27  O2  UNL     1      65.316  59.431 111.548  1.00  0.00    -0.245 OA
BRANCH  27  28
HETATM   28  C2  UNL     1      65.293  59.996 110.282  1.00  0.00     0.262 C 
HETATM   29  C1  UNL     1      66.506  60.203 109.455  1.00  0.00     0.126 C 
HETATM   30  O1  UNL     1      64.190  60.352 109.800  1.00  0.00    -0.265 OA
ENDBRANCH  27  28
ENDBRANCH  25  27
ENDBRANCH  24  25
ENDBRANCH  23  24
BRANCH  23  31
HETATM   31  O4  UNL     1      64.740  57.787 114.083  1.00  0.00    -0.394 OA
ATOM     32  H4  UNL     1      65.343  57.485 114.751  1.00  0.00     0.210 HD
ENDBRANCH  23  31
ENDBRANCH  21  23
ENDBRANCH  20  21
ENDBRANCH  18  19
BRANCH  18  33
HETATM   33  O5  UNL     1      60.567  57.878 116.811  1.00  0.00    -0.392 OA
ATOM     34  H5  UNL     1      60.034  57.399 117.434  1.00  0.00     0.210 HD
ENDBRANCH  18  33
ENDBRANCH  17  18
ENDBRANCH  16  17
ENDBRANCH   1  16
BRANCH   5  35
HETATM   35  O6  UNL     1      57.003  55.173 110.662  1.00  0.00    -0.315 OA
BRANCH  35  36
HETATM   36  C18 UNL     1      56.527  55.469 109.423  1.00  0.00     0.255 C 
HETATM   37  C19 UNL     1      55.100  55.841 109.255  1.00  0.00     0.126 C 
HETATM   38  O7  UNL     1      57.307  55.425 108.437  1.00  0.00    -0.266 OA
ENDBRANCH  35  36
ENDBRANCH   5  35
BRANCH   7  39
HETATM   39  O8  UNL     1      55.103  54.334 114.720  1.00  0.00    -0.388 OA
ATOM     40  H8  UNL     1      54.259  53.989 114.453  1.00  0.00     0.210 HD
ENDBRANCH   7  39
BRANCH  13  41
HETATM   41  O10 UNL     1      56.459  58.902 114.844  1.00  0.00    -0.360 OA
ATOM     42  H10 UNL     1      56.949  59.041 114.041  1.00  0.00     0.217 HD
ENDBRANCH  13  41
TORSDOF 16
ENDMDL
MODEL 3
REMARK VINA RESULT: -7.461947874      2.383      8.929
REMARK  16 active torsions:
REMARK  status: ('A' for Active; 'I' for Inactive)
REMARK    1  A    between atoms: C2_2  and  O2_4 
REMARK    2  A    between atoms: O2_4  and  C3_5 
REMARK    3  A    between atoms: C3_5  and  C4_7 
REMARK    4  A    between atoms: C4_7  and  C5_8 
REMARK    5  A    between atoms: C5_8  and  O4_9 
REMARK    6  A    between atoms: C5_8  and  C6_11 
REMARK    7  A    between atoms: C6_11  and  C8_13 
REMARK    8  A    between atoms: C9_14  and  C10_15 
REMARK    9  A    between atoms: C10_15  and  O5_16 
REMARK   10  A    between atoms: C10_15  and  C11_18 
REMARK   11  A    between atoms: C11_18  and  C12_19 
REMARK   12  A    between atoms: C12_19  and  C13_20 
REMARK   13  A    between atoms: C17_24  and  O6_25 
REMARK   14  A    between atoms: O6_25  and  C18_26 
REMARK   15  A    between atoms: C21_30  and  O8_31 
REMARK   16  A    between atoms: C26_38  and  O10_39 
ROOT
HETATM    1  C13 UNL     1      57.489  56.290 114.213  1.00  0.00     0.014 C 
HETATM    2  C14 UNL     1      57.859  56.279 112.784  1.00  0.00    -0.016 C 
HETATM    3  C15 UNL     1      58.802  55.110 112.556  1.00  0.00     0.018 C 
HETATM    4  C16 UNL     1      58.601  57.505 112.297  1.00  0.00     0.018 C 
HETATM    5  C17 UNL     1      56.655  56.028 111.874  1.00  0.00     0.143 C 
HETATM    6  C20 UNL     1      55.767  55.053 112.538  1.00  0.00     0.073 C 
HETATM    7  C21 UNL     1      55.203  55.516 113.865  1.00  0.00     0.078 C 
HETATM    8  C22 UNL     1      53.766  55.908 113.664  1.00  0.00     0.024 C 
HETATM    9  C23 UNL     1      52.866  55.498 114.825  1.00  0.00     0.013 C 
HETATM   10  C24 UNL     1      53.510  57.307 113.249  1.00  0.00     0.093 C 
HETATM   11  C25 UNL     1      54.527  58.271 113.677  1.00  0.00     0.179 C 
HETATM   12  O9  UNL     1      54.538  59.369 113.166  1.00  0.00    -0.291 OA
HETATM   13  C26 UNL     1      55.484  57.822 114.727  1.00  0.00     0.100 C 
HETATM   14  C27 UNL     1      56.047  56.485 114.604  1.00  0.00     0.044 C 
HETATM   15  C28 UNL     1      56.076  55.962 116.084  1.00  0.00     0.026 C 
ENDROOT
BRANCH   1  16
HETATM   16  C12 UNL     1      58.458  56.938 115.129  1.00  0.00     0.009 C 
BRANCH  16  17
HETATM   17  C11 UNL     1      59.660  56.133 115.540  1.00  0.00     0.036 C 
BRANCH  17  18
HETATM   18  C10 UNL     1      60.840  57.035 115.871  1.00  0.00     0.140 C 
BRANCH  18  19
HETATM   19  C9  UNL     1      61.030  57.945 114.713  1.00  0.00     0.001 C 
HETATM   20  C8  UNL     1      61.936  57.764 113.779  1.00  0.00    -0.021 C 
BRANCH  20  21
HETATM   21  C6  UNL     1      62.911  56.644 113.715  1.00  0.00     0.033 C 
HETATM   22  C7  UNL     1      62.408  55.742 112.572  1.00  0.00     0.017 C 
BRANCH  21  23
HETATM   23  C5  UNL     1      64.216  57.212 113.189  1.00  0.00     0.134 C 
BRANCH  23  24
HETATM   24  C4  UNL     1      64.054  58.326 112.211  1.00  0.00     0.143 C 
BRANCH  24  25
HETATM   25  C3  UNL     1      65.361  58.607 111.593  1.00  0.00     0.268 C 
HETATM   26  O3  UNL     1      65.635  59.795 111.226  1.00  0.00    -0.265 OA
BRANCH  25  27
HETATM   27  O2  UNL     1      66.350  57.655 111.371  1.00  0.00    -0.245 OA
BRANCH  27  28
HETATM   28  C2  UNL     1      67.585  57.710 111.998  1.00  0.00     0.262 C 
HETATM   29  C1  UNL     1      68.778  58.358 111.402  1.00  0.00     0.126 C 
HETATM   30  O1  UNL     1      67.711  57.187 113.132  1.00  0.00    -0.265 OA
ENDBRANCH  27  28
ENDBRANCH  25  27
ENDBRANCH  24  25
ENDBRANCH  23  24
BRANCH  23  31
HETATM   31  O4  UNL     1      65.006  57.658 114.252  1.00  0.00    -0.394 OA
ATOM     32  H4  UNL     1      65.156  56.933 114.847  1.00  0.00     0.210 HD
ENDBRANCH  23  31
ENDBRANCH  21  23
ENDBRANCH  20  21
ENDBRANCH  18  19
BRANCH  18  33
HETATM   33  O5  UNL     1      60.540  57.807 116.985  1.00  0.00    -0.392 OA
ATOM     34  H5  UNL     1      59.729  57.485 117.360  1.00  0.00     0.210 HD
ENDBRANCH  18  33
ENDBRANCH  17  18
ENDBRANCH  16  17
ENDBRANCH   1  16
BRANCH   5  35
HETATM   35  O6  UNL     1      57.089  55.395 110.653  1.00  0.00    -0.315 OA
BRANCH  35  36
HETATM   36  C18 UNL     1      56.465  55.556 109.455  1.00  0.00     0.255 C 
HETATM   37  C19 UNL     1      55.063  56.043 109.418  1.00  0.00     0.126 C 
HETATM   38  O7  UNL     1      57.088  55.291 108.395  1.00  0.00    -0.266 OA
ENDBRANCH  35  36
ENDBRANCH   5  35
BRANCH   7  39
HETATM   39  O8  UNL     1      55.084  54.292 114.595  1.00  0.00    -0.388 OA
ATOM     40  H8  UNL     1      55.779  54.367 115.237  1.00  0.00     0.210 HD
ENDBRANCH   7  39
BRANCH  13  41
HETATM   41  O10 UNL     1      56.339  58.870 115.017  1.00  0.00    -0.360 OA
ATOM     42  H10 UNL     1      57.234  58.558 114.936  1.00  0.00     0.217 HD
ENDBRANCH  13  41
TORSDOF 16
ENDMDL
MODEL 4
REMARK VINA RESULT: -7.413484533      3.781      6.922
REMARK  16 active torsions:
REMARK  status: ('A' for Active; 'I' for Inactive)
REMARK    1  A    between atoms: C2_2  and  O2_4 
REMARK    2  A    between atoms: O2_4  and  C3_5 
REMARK    3  A    between atoms: C3_5  and  C4_7 
REMARK    4  A    between atoms: C4_7  and  C5_8 
REMARK    5  A    between atoms: C5_8  and  O4_9 
REMARK    6  A    between atoms: C5_8  and  C6_11 
REMARK    7  A    between atoms: C6_11  and  C8_13 
REMARK    8  A    between atoms: C9_14  and  C10_15 
REMARK    9  A    between atoms: C10_15  and  O5_16 
REMARK   10  A    between atoms: C10_15  and  C11_18 
REMARK   11  A    between atoms: C11_18  and  C12_19 
REMARK   12  A    between atoms: C12_19  and  C13_20 
REMARK   13  A    between atoms: C17_24  and  O6_25 
REMARK   14  A    between atoms: O6_25  and  C18_26 
REMARK   15  A    between atoms: C21_30  and  O8_31 
REMARK   16  A    between atoms: C26_38  and  O10_39 
ROOT
HETATM    1  C13 UNL     1      60.109  56.873 114.314  1.00  0.00     0.014 C 
HETATM    2  C14 UNL     1      58.682  56.987 113.954  1.00  0.00    -0.016 C 
HETATM    3  C15 UNL     1      58.585  57.016 112.438  1.00  0.00     0.018 C 
HETATM    4  C16 UNL     1      57.991  58.245 114.433  1.00  0.00     0.018 C 
HETATM    5  C17 UNL     1      57.872  55.769 114.401  1.00  0.00     0.143 C 
HETATM    6  C20 UNL     1      58.708  54.565 114.224  1.00  0.00     0.073 C 
HETATM    7  C21 UNL     1      59.977  54.552 115.049  1.00  0.00     0.078 C 
HETATM    8  C22 UNL     1      59.784  53.616 116.210  1.00  0.00     0.024 C 
HETATM    9  C23 UNL     1      61.031  52.798 116.533  1.00  0.00     0.013 C 
HETATM   10  C24 UNL     1      59.182  54.191 117.436  1.00  0.00     0.093 C 
HETATM   11  C25 UNL     1      59.422  55.625 117.624  1.00  0.00     0.179 C 
HETATM   12  O9  UNL     1      58.757  56.221 118.441  1.00  0.00    -0.291 OA
HETATM   13  C26 UNL     1      60.483  56.248 116.784  1.00  0.00     0.100 C 
HETATM   14  C27 UNL     1      60.530  55.889 115.374  1.00  0.00     0.044 C 
HETATM   15  C28 UNL     1      62.068  55.782 115.075  1.00  0.00     0.026 C 
ENDROOT
BRANCH   1  16
HETATM   16  C12 UNL     1      60.879  58.141 114.324  1.00  0.00     0.009 C 
BRANCH  16  17
HETATM   17  C11 UNL     1      61.743  58.430 113.128  1.00  0.00     0.036 C 
BRANCH  17  18
HETATM   18  C10 UNL     1      61.463  59.817 112.570  1.00  0.00     0.140 C 
BRANCH  18  19
HETATM   19  C9  UNL     1      60.834  59.632 111.237  1.00  0.00     0.001 C 
HETATM   20  C8  UNL     1      61.373  60.035 110.109  1.00  0.00    -0.021 C 
BRANCH  20  21
HETATM   21  C6  UNL     1      62.676  60.735 109.967  1.00  0.00     0.033 C 
HETATM   22  C7  UNL     1      63.734  59.698 110.390  1.00  0.00     0.017 C 
BRANCH  21  23
HETATM   23  C5  UNL     1      62.924  60.929 108.482  1.00  0.00     0.134 C 
BRANCH  23  24
HETATM   24  C4  UNL     1      61.825  60.435 107.604  1.00  0.00     0.143 C 
BRANCH  24  25
HETATM   25  C3  UNL     1      61.400  61.531 106.717  1.00  0.00     0.268 C 
HETATM   26  O3  UNL     1      61.740  61.508 105.490  1.00  0.00    -0.265 OA
BRANCH  25  27
HETATM   27  O2  UNL     1      60.636  62.621 107.119  1.00  0.00    -0.245 OA
BRANCH  27  28
HETATM   28  C2  UNL     1      59.315  62.493 107.517  1.00  0.00     0.262 C 
HETATM   29  C1  UNL     1      58.170  62.509 106.574  1.00  0.00     0.126 C 
HETATM   30  O1  UNL     1      59.062  62.353 108.738  1.00  0.00    -0.265 OA
ENDBRANCH  27  28
ENDBRANCH  25  27
ENDBRANCH  24  25
ENDBRANCH  23  24
BRANCH  23  31
HETATM   31  O4  UNL     1      63.146  62.281 108.208  1.00  0.00    -0.394 OA
ATOM     32  H4  UNL     1      64.016  62.514 108.508  1.00  0.00     0.210 HD
ENDBRANCH  23  31
ENDBRANCH  21  23
ENDBRANCH  20  21
ENDBRANCH  18  19
BRANCH  18  33
HETATM   33  O5  UNL     1      60.557  60.477 113.389  1.00  0.00    -0.392 OA
ATOM     34  H5  UNL     1      60.386  59.927 114.145  1.00  0.00     0.210 HD
ENDBRANCH  18  33
ENDBRANCH  17  18
ENDBRANCH  16  17
ENDBRANCH   1  16
BRANCH   5  35
HETATM   35  O6  UNL     1      56.737  55.590 113.528  1.00  0.00    -0.315 OA
BRANCH  35  36
HETATM   36  C18 UNL     1      55.457  55.460 113.969  1.00  0.00     0.255 C 
HETATM   37  C19 UNL     1      54.551  56.636 113.948  1.00  0.00     0.126 C 
HETATM   38  O7  UNL     1      55.061  54.342 114.388  1.00  0.00    -0.266 OA
ENDBRANCH  35  36
ENDBRANCH   5  35
BRANCH   7  39
HETATM   39  O8  UNL     1      60.881  53.821 114.217  1.00  0.00    -0.388 OA
ATOM     40  H8  UNL     1      61.405  54.510 113.827  1.00  0.00     0.210 HD
ENDBRANCH   7  39
BRANCH  13  41
HETATM   41  O10 UNL     1      60.580  57.586 117.124  1.00  0.00    -0.360 OA
ATOM     42  H10 UNL     1      60.020  58.085 116.540  1.00  0.00     0.217 HD
ENDBRANCH  13  41
TORSDOF 16
ENDMDL
MODEL 5
REMARK VINA RESULT: -7.398961423      1.292      1.720
REMARK  16 active torsions:
REMARK  status: ('A' for Active; 'I' for Inactive)
REMARK    1  A    between atoms: C2_2  and  O2_4 
REMARK    2  A    between atoms: O2_4  and  C3_5 
REMARK    3  A    between atoms: C3_5  and  C4_7 
REMARK    4  A    between atoms: C4_7  and  C5_8 
REMARK    5  A    between atoms: C5_8  and  O4_9 
REMARK    6  A    between atoms: C5_8  and  C6_11 
REMARK    7  A    between atoms: C6_11  and  C8_13 
REMARK    8  A    between atoms: C9_14  and  C10_15 
REMARK    9  A    between atoms: C10_15  and  O5_16 
REMARK   10  A    between atoms: C10_15  and  C11_18 
REMARK   11  A    between atoms: C11_18  and  C12_19 
REMARK   12  A    between atoms: C12_19  and  C13_20 
REMARK   13  A    between atoms: C17_24  and  O6_25 
REMARK   14  A    between atoms: O6_25  and  C18_26 
REMARK   15  A    between atoms: C21_30  and  O8_31 
REMARK   16  A    between atoms: C26_38  and  O10_39 
ROOT
HETATM    1  C13 UNL     1      58.501  56.031 114.333  1.00  0.00     0.014 C 
HETATM    2  C14 UNL     1      59.348  56.110 113.126  1.00  0.00    -0.016 C 
HETATM    3  C15 UNL     1      58.915  57.331 112.333  1.00  0.00     0.018 C 
HETATM    4  C16 UNL     1      59.230  54.940 112.174  1.00  0.00     0.018 C 
HETATM    5  C17 UNL     1      60.823  56.333 113.465  1.00  0.00     0.143 C 
HETATM    6  C20 UNL     1      60.899  57.240 114.628  1.00  0.00     0.073 C 
HETATM    7  C21 UNL     1      60.254  56.704 115.888  1.00  0.00     0.078 C 
HETATM    8  C22 UNL     1      61.339  56.250 116.825  1.00  0.00     0.024 C 
HETATM    9  C23 UNL     1      61.042  56.575 118.286  1.00  0.00     0.013 C 
HETATM   10  C24 UNL     1      61.813  54.855 116.667  1.00  0.00     0.093 C 
HETATM   11  C25 UNL     1      60.822  53.927 116.115  1.00  0.00     0.179 C 
HETATM   12  O9  UNL     1      61.198  52.850 115.710  1.00  0.00    -0.291 OA
HETATM   13  C26 UNL     1      59.404  54.386 116.096  1.00  0.00     0.100 C 
HETATM   14  C27 UNL     1      59.139  55.753 115.669  1.00  0.00     0.044 C 
HETATM   15  C28 UNL     1      57.998  56.224 116.638  1.00  0.00     0.026 C 
ENDROOT
BRANCH   1  16
HETATM   16  C12 UNL     1      57.172  55.399 114.153  1.00  0.00     0.009 C 
BRANCH  16  17
HETATM   17  C11 UNL     1      55.964  56.281 114.312  1.00  0.00     0.036 C 
BRANCH  17  18
HETATM   18  C10 UNL     1      55.239  56.466 112.987  1.00  0.00     0.140 C 
BRANCH  18  19
HETATM   19  C9  UNL     1      55.217  55.143 112.314  1.00  0.00     0.001 C 
HETATM   20  C8  UNL     1      55.484  54.965 111.039  1.00  0.00    -0.021 C 
BRANCH  20  21
HETATM   21  C6  UNL     1      55.842  56.028 110.066  1.00  0.00     0.033 C 
HETATM   22  C7  UNL     1      57.027  55.453 109.266  1.00  0.00     0.017 C 
BRANCH  21  23
HETATM   23  C5  UNL     1      54.717  56.109 109.051  1.00  0.00     0.134 C 
BRANCH  23  24
HETATM   24  C4  UNL     1      54.252  57.494 108.755  1.00  0.00     0.143 C 
BRANCH  24  25
HETATM   25  C3  UNL     1      53.692  58.079 109.985  1.00  0.00     0.268 C 
HETATM   26  O3  UNL     1      52.729  57.489 110.574  1.00  0.00    -0.265 OA
BRANCH  25  27
HETATM   27  O2  UNL     1      54.140  59.256 110.574  1.00  0.00    -0.245 OA
BRANCH  27  28
HETATM   28  C2  UNL     1      53.338  60.018 111.409  1.00  0.00     0.262 C 
HETATM   29  C1  UNL     1      53.648  60.269 112.837  1.00  0.00     0.126 C 
HETATM   30  O1  UNL     1      52.291  60.528 110.941  1.00  0.00    -0.265 OA
ENDBRANCH  27  28
ENDBRANCH  25  27
ENDBRANCH  24  25
ENDBRANCH  23  24
BRANCH  23  31
HETATM   31  O4  UNL     1      55.108  55.500 107.856  1.00  0.00    -0.394 OA
ATOM     32  H4  UNL     1      54.653  54.671 107.772  1.00  0.00     0.210 HD
ENDBRANCH  23  31
ENDBRANCH  21  23
ENDBRANCH  20  21
ENDBRANCH  18  19
BRANCH  18  33
HETATM   33  O5  UNL     1      53.927  56.855 113.223  1.00  0.00    -0.392 OA
ATOM     34  H5  UNL     1      53.364  56.374 112.628  1.00  0.00     0.210 HD
ENDBRANCH  18  33
ENDBRANCH  17  18
ENDBRANCH  16  17
ENDBRANCH   1  16
BRANCH   5  35
HETATM   35  O6  UNL     1      61.473  57.029 112.381  1.00  0.00    -0.315 OA
BRANCH  35  36
HETATM   36  C18 UNL     1      62.815  57.238 112.315  1.00  0.00     0.255 C 
HETATM   37  C19 UNL     1      63.333  58.615 112.111  1.00  0.00     0.126 C 
HETATM   38  O7  UNL     1      63.597  56.260 112.428  1.00  0.00    -0.266 OA
ENDBRANCH  35  36
ENDBRANCH   5  35
BRANCH   7  39
HETATM   39  O8  UNL     1      59.783  57.895 116.525  1.00  0.00    -0.388 OA
ATOM     40  H8  UNL     1      59.988  58.566 115.885  1.00  0.00     0.210 HD
ENDBRANCH   7  39
BRANCH  13  41
HETATM   41  O10 UNL     1      58.623  53.372 115.572  1.00  0.00    -0.360 OA
ATOM     42  H10 UNL     1      58.603  53.467 114.627  1.00  0.00     0.217 HD
ENDBRANCH  13  41
TORSDOF 16
ENDMDL
