MODEL 1
REMARK VINA RESULT: -7.449048222      0.000      0.000
REMARK  13 active torsions:
REMARK  status: ('A' for Active; 'I' for Inactive)
REMARK    1  A    between atoms: C2_2  and  C3_3 
REMARK    2  A    between atoms: C4_5  and  C5_6 
REMARK    3  A    between atoms: C5_6  and  C6_7 
REMARK    4  A    between atoms: C6_7  and  C7_8 
REMARK    5  A    between atoms: C7_8  and  C8_9 
REMARK    6  A    between atoms: C8_9  and  C9_10 
REMARK    7  A    between atoms: C9_10  and  C10_11 
REMARK    8  A    between atoms: C10_11  and  O2_12 
REMARK    9  A    between atoms: C14_19  and  O5_20 
REMARK   10  A    between atoms: C16_23  and  C17_24 
REMARK   11  A    between atoms: C17_24  and  C18_25 
REMARK   12  A    between atoms: C25_34  and  O8_35 
REMARK   13  A    between atoms: C27_38  and  O9_39 
ROOT
HETATM    1  C3  UNL     1      58.401  54.867 113.092  1.00  0.00     0.129 C 
HETATM    2  O1  UNL     1      59.065  54.508 114.231  1.00  0.00    -0.379 OA
HETATM    3  C4  UNL     1      58.357  54.881 115.343  1.00  0.00     0.136 C 
HETATM    4  C11 UNL     1      57.640  56.120 114.905  1.00  0.00     0.123 C 
HETATM    5  C12 UNL     1      56.578  56.486 115.814  1.00  0.00     0.266 C 
HETATM    6  O3  UNL     1      56.427  55.805 116.888  1.00  0.00    -0.265 OA
HETATM    7  O4  UNL     1      55.684  57.517 115.650  1.00  0.00    -0.319 OA
HETATM    8  C13 UNL     1      55.801  58.613 114.823  1.00  0.00     0.210 C 
HETATM    9  C14 UNL     1      55.078  58.521 113.501  1.00  0.00     0.148 C 
HETATM   10  C15 UNL     1      54.360  57.213 113.308  1.00  0.00     0.039 C 
HETATM   11  C16 UNL     1      52.861  57.364 113.087  1.00  0.00     0.093 C 
HETATM   12  C21 UNL     1      52.568  58.176 111.912  1.00  0.00     0.263 C 
HETATM   13  O6  UNL     1      51.790  59.139 112.005  1.00  0.00    -0.265 OA
HETATM   14  O7  UNL     1      53.050  58.044 110.604  1.00  0.00    -0.316 OA
HETATM   15  C22 UNL     1      54.211  57.760 109.896  1.00  0.00     0.130 C 
HETATM   16  C23 UNL     1      53.949  58.123 108.426  1.00  0.00     0.040 C 
HETATM   17  C24 UNL     1      54.646  56.334 109.912  1.00  0.00     0.064 C 
HETATM   18  C25 UNL     1      54.364  55.668 111.272  1.00  0.00     0.127 C 
HETATM   19  C26 UNL     1      55.081  56.313 112.388  1.00  0.00     0.051 C 
HETATM   20  C27 UNL     1      55.944  55.324 113.201  1.00  0.00     0.132 C 
HETATM   21  C28 UNL     1      57.299  55.854 113.503  1.00  0.00     0.060 C 
ENDROOT
BRANCH   3  22
HETATM   22  C5  UNL     1      59.368  55.206 116.433  1.00  0.00     0.033 C 
BRANCH  22  23
HETATM   23  C6  UNL     1      60.677  55.676 115.794  1.00  0.00     0.002 C 
BRANCH  23  24
HETATM   24  C7  UNL     1      60.686  57.186 115.679  1.00  0.00     0.000 C 
BRANCH  24  25
HETATM   25  C8  UNL     1      61.119  57.697 114.353  1.00  0.00     0.002 C 
BRANCH  25  26
HETATM   26  C9  UNL     1      60.583  59.002 113.908  1.00  0.00     0.026 C 
BRANCH  26  27
HETATM   27  C10 UNL     1      59.238  58.991 113.255  1.00  0.00     0.164 C 
BRANCH  27  28
HETATM   28  O2  UNL     1      58.682  60.255 113.282  1.00  0.00    -0.401 OA
ATOM     29  H2  UNL     1      59.151  60.832 112.690  1.00  0.00     0.209 HD
ENDBRANCH  27  28
ENDBRANCH  26  27
ENDBRANCH  25  26
ENDBRANCH  24  25
ENDBRANCH  23  24
ENDBRANCH  22  23
ENDBRANCH   3  22
BRANCH   1  30
HETATM   30  C2  UNL     1      59.391  55.499 112.143  1.00  0.00     0.028 C 
HETATM   31  C1  UNL     1      60.646  54.691 112.173  1.00  0.00     0.007 C 
ENDBRANCH   1  30
BRANCH  20  32
HETATM   32  O9  UNL     1      55.236  54.898 114.340  1.00  0.00    -0.395 OA
ATOM     33  H9  UNL     1      55.329  55.540 115.035  1.00  0.00     0.210 HD
ENDBRANCH  20  32
BRANCH   9  34
HETATM   34  O5  UNL     1      54.329  59.649 113.224  1.00  0.00    -0.393 OA
ATOM     35  H5  UNL     1      54.515  60.011 112.365  1.00  0.00     0.210 HD
ENDBRANCH   9  34
BRANCH  18  36
HETATM   36  O8  UNL     1      54.811  54.337 111.071  1.00  0.00    -0.395 OA
ATOM     37  H8  UNL     1      54.308  54.057 110.315  1.00  0.00     0.210 HD
ENDBRANCH  18  36
BRANCH  11  38
HETATM   38  C17 UNL     1      52.237  57.802 114.380  1.00  0.00     0.019 C 
BRANCH  38  39
HETATM   39  C18 UNL     1      51.166  56.959 114.945  1.00  0.00    -0.022 C 
HETATM   40  C19 UNL     1      50.249  57.914 115.746  1.00  0.00     0.009 C 
HETATM   41  C20 UNL     1      51.647  55.941 115.954  1.00  0.00     0.009 C 
ENDBRANCH  38  39
ENDBRANCH  11  38
TORSDOF 13
ENDMDL
MODEL 2
REMARK VINA RESULT: -7.357342814      3.644      7.123
REMARK  13 active torsions:
REMARK  status: ('A' for Active; 'I' for Inactive)
REMARK    1  A    between atoms: C2_2  and  C3_3 
REMARK    2  A    between atoms: C4_5  and  C5_6 
REMARK    3  A    between atoms: C5_6  and  C6_7 
REMARK    4  A    between atoms: C6_7  and  C7_8 
REMARK    5  A    between atoms: C7_8  and  C8_9 
REMARK    6  A    between atoms: C8_9  and  C9_10 
REMARK    7  A    between atoms: C9_10  and  C10_11 
REMARK    8  A    between atoms: C10_11  and  O2_12 
REMARK    9  A    between atoms: C14_19  and  O5_20 
REMARK   10  A    between atoms: C16_23  and  C17_24 
REMARK   11  A    between atoms: C17_24  and  C18_25 
REMARK   12  A    between atoms: C25_34  and  O8_35 
REMARK   13  A    between atoms: C27_38  and  O9_39 
ROOT
HETATM    1  C3  UNL     1      62.557  58.479 113.404  1.00  0.00     0.129 C 
HETATM    2  O1  UNL     1      62.274  59.657 112.772  1.00  0.00    -0.379 OA
HETATM    3  C4  UNL     1      60.923  59.884 112.752  1.00  0.00     0.136 C 
HETATM    4  C11 UNL     1      60.335  58.510 112.700  1.00  0.00     0.123 C 
HETATM    5  C12 UNL     1      58.924  58.508 113.013  1.00  0.00     0.266 C 
HETATM    6  O3  UNL     1      58.336  59.629 113.201  1.00  0.00    -0.265 OA
HETATM    7  O4  UNL     1      58.117  57.401 113.134  1.00  0.00    -0.319 OA
HETATM    8  C13 UNL     1      58.349  56.131 112.654  1.00  0.00     0.210 C 
HETATM    9  C14 UNL     1      58.902  55.141 113.651  1.00  0.00     0.148 C 
HETATM   10  C15 UNL     1      59.128  55.736 115.014  1.00  0.00     0.039 C 
HETATM   11  C16 UNL     1      58.349  55.039 116.122  1.00  0.00     0.093 C 
HETATM   12  C21 UNL     1      58.698  53.628 116.222  1.00  0.00     0.263 C 
HETATM   13  O6  UNL     1      57.803  52.767 116.218  1.00  0.00    -0.265 OA
HETATM   14  O7  UNL     1      59.963  53.036 116.330  1.00  0.00    -0.316 OA
HETATM   15  C22 UNL     1      61.257  53.136 115.835  1.00  0.00     0.130 C 
HETATM   16  C23 UNL     1      62.008  51.867 116.262  1.00  0.00     0.040 C 
HETATM   17  C24 UNL     1      62.053  54.293 116.335  1.00  0.00     0.064 C 
HETATM   18  C25 UNL     1      61.178  55.546 116.527  1.00  0.00     0.127 C 
HETATM   19  C26 UNL     1      60.553  56.009 115.274  1.00  0.00     0.051 C 
HETATM   20  C27 UNL     1      60.864  57.488 114.957  1.00  0.00     0.132 C 
HETATM   21  C28 UNL     1      61.236  57.707 113.535  1.00  0.00     0.060 C 
ENDROOT
BRANCH   3  22
HETATM   22  C5  UNL     1      60.614  60.647 111.472  1.00  0.00     0.033 C 
BRANCH  22  23
HETATM   23  C6  UNL     1      61.470  60.099 110.328  1.00  0.00     0.002 C 
BRANCH  23  24
HETATM   24  C7  UNL     1      61.898  61.228 109.413  1.00  0.00     0.000 C 
BRANCH  24  25
HETATM   25  C8  UNL     1      62.718  60.798 108.252  1.00  0.00     0.002 C 
BRANCH  25  26
HETATM   26  C9  UNL     1      62.009  60.394 107.018  1.00  0.00     0.026 C 
BRANCH  26  27
HETATM   27  C10 UNL     1      61.237  61.459 106.306  1.00  0.00     0.164 C 
BRANCH  27  28
HETATM   28  O2  UNL     1      61.809  61.723 105.077  1.00  0.00    -0.401 OA
ATOM     29  H2  UNL     1      61.168  62.112 104.493  1.00  0.00     0.209 HD
ENDBRANCH  27  28
ENDBRANCH  26  27
ENDBRANCH  25  26
ENDBRANCH  24  25
ENDBRANCH  23  24
ENDBRANCH  22  23
ENDBRANCH   3  22
BRANCH   1  30
HETATM   30  C2  UNL     1      63.567  57.723 112.575  1.00  0.00     0.028 C 
HETATM   31  C1  UNL     1      64.459  58.716 111.908  1.00  0.00     0.007 C 
ENDBRANCH   1  30
BRANCH  20  32
HETATM   32  O9  UNL     1      59.804  58.302 115.396  1.00  0.00    -0.395 OA
ATOM     33  H9  UNL     1      59.984  58.621 116.273  1.00  0.00     0.210 HD
ENDBRANCH  20  32
BRANCH   9  34
HETATM   34  O5  UNL     1      58.223  53.938 113.640  1.00  0.00    -0.393 OA
ATOM     35  H5  UNL     1      58.744  53.220 113.982  1.00  0.00     0.210 HD
ENDBRANCH   9  34
BRANCH  18  36
HETATM   36  O8  UNL     1      62.100  56.501 117.028  1.00  0.00    -0.395 OA
ATOM     37  H8  UNL     1      62.656  55.980 117.596  1.00  0.00     0.210 HD
ENDBRANCH  18  36
BRANCH  11  38
HETATM   38  C17 UNL     1      56.893  55.362 115.947  1.00  0.00     0.019 C 
BRANCH  38  39
HETATM   39  C18 UNL     1      56.215  56.086 117.039  1.00  0.00    -0.022 C 
HETATM   40  C19 UNL     1      57.173  56.027 118.252  1.00  0.00     0.009 C 
HETATM   41  C20 UNL     1      54.938  55.431 117.516  1.00  0.00     0.009 C 
ENDBRANCH  38  39
ENDBRANCH  11  38
TORSDOF 13
ENDMDL
MODEL 3
REMARK VINA RESULT: -7.323657611      1.165      1.873
REMARK  13 active torsions:
REMARK  status: ('A' for Active; 'I' for Inactive)
REMARK    1  A    between atoms: C2_2  and  C3_3 
REMARK    2  A    between atoms: C4_5  and  C5_6 
REMARK    3  A    between atoms: C5_6  and  C6_7 
REMARK    4  A    between atoms: C6_7  and  C7_8 
REMARK    5  A    between atoms: C7_8  and  C8_9 
REMARK    6  A    between atoms: C8_9  and  C9_10 
REMARK    7  A    between atoms: C9_10  and  C10_11 
REMARK    8  A    between atoms: C10_11  and  O2_12 
REMARK    9  A    between atoms: C14_19  and  O5_20 
REMARK   10  A    between atoms: C16_23  and  C17_24 
REMARK   11  A    between atoms: C17_24  and  C18_25 
REMARK   12  A    between atoms: C25_34  and  O8_35 
REMARK   13  A    between atoms: C27_38  and  O9_39 
ROOT
HETATM    1  C3  UNL     1      58.426  54.809 113.135  1.00  0.00     0.129 C 
HETATM    2  O1  UNL     1      59.075  54.413 114.270  1.00  0.00    -0.379 OA
HETATM    3  C4  UNL     1      58.348  54.745 115.384  1.00  0.00     0.136 C 
HETATM    4  C11 UNL     1      57.632  55.995 114.978  1.00  0.00     0.123 C 
HETATM    5  C12 UNL     1      56.555  56.325 115.882  1.00  0.00     0.266 C 
HETATM    6  O3  UNL     1      56.392  55.607 116.930  1.00  0.00    -0.265 OA
HETATM    7  O4  UNL     1      55.658  57.357 115.740  1.00  0.00    -0.319 OA
HETATM    8  C13 UNL     1      55.782  58.481 114.953  1.00  0.00     0.210 C 
HETATM    9  C14 UNL     1      55.079  58.431 113.618  1.00  0.00     0.148 C 
HETATM   10  C15 UNL     1      54.371  57.127 113.370  1.00  0.00     0.039 C 
HETATM   11  C16 UNL     1      52.874  57.279 113.131  1.00  0.00     0.093 C 
HETATM   12  C21 UNL     1      52.595  58.129 111.981  1.00  0.00     0.263 C 
HETATM   13  O6  UNL     1      51.810  59.085 112.095  1.00  0.00    -0.265 OA
HETATM   14  O7  UNL     1      53.096  58.044 110.676  1.00  0.00    -0.316 OA
HETATM   15  C22 UNL     1      54.269  57.790 109.976  1.00  0.00     0.130 C 
HETATM   16  C23 UNL     1      54.027  58.202 108.516  1.00  0.00     0.040 C 
HETATM   17  C24 UNL     1      54.711  56.366 109.950  1.00  0.00     0.064 C 
HETATM   18  C25 UNL     1      54.412  55.653 111.283  1.00  0.00     0.127 C 
HETATM   19  C26 UNL     1      55.110  56.263 112.431  1.00  0.00     0.051 C 
HETATM   20  C27 UNL     1      55.965  55.250 113.222  1.00  0.00     0.132 C 
HETATM   21  C28 UNL     1      57.313  55.776 113.562  1.00  0.00     0.060 C 
ENDROOT
BRANCH   3  22
HETATM   22  C5  UNL     1      59.342  55.037 116.499  1.00  0.00     0.033 C 
BRANCH  22  23
HETATM   23  C6  UNL     1      60.035  56.375 116.231  1.00  0.00     0.002 C 
BRANCH  23  24
HETATM   24  C7  UNL     1      61.530  56.169 116.106  1.00  0.00     0.000 C 
BRANCH  24  25
HETATM   25  C8  UNL     1      62.048  56.269 114.717  1.00  0.00     0.002 C 
BRANCH  25  26
HETATM   26  C9  UNL     1      62.663  55.063 114.121  1.00  0.00     0.026 C 
BRANCH  26  27
HETATM   27  C10 UNL     1      62.529  53.788 114.892  1.00  0.00     0.164 C 
BRANCH  27  28
HETATM   28  O2  UNL     1      61.527  53.006 114.352  1.00  0.00    -0.401 OA
ATOM     29  H2  UNL     1      61.888  52.413 113.704  1.00  0.00     0.209 HD
ENDBRANCH  27  28
ENDBRANCH  26  27
ENDBRANCH  25  26
ENDBRANCH  24  25
ENDBRANCH  23  24
ENDBRANCH  22  23
ENDBRANCH   3  22
BRANCH   1  30
HETATM   30  C2  UNL     1      59.427  55.477 112.222  1.00  0.00     0.028 C 
HETATM   31  C1  UNL     1      60.118  54.415 111.433  1.00  0.00     0.007 C 
ENDBRANCH   1  30
BRANCH  20  32
HETATM   32  O9  UNL     1      55.242  54.783 114.335  1.00  0.00    -0.395 OA
ATOM     33  H9  UNL     1      55.476  55.288 115.106  1.00  0.00     0.210 HD
ENDBRANCH  20  32
BRANCH   9  34
HETATM   34  O5  UNL     1      54.328  59.564 113.369  1.00  0.00    -0.393 OA
ATOM     35  H5  UNL     1      53.738  59.778 114.083  1.00  0.00     0.210 HD
ENDBRANCH   9  34
BRANCH  18  36
HETATM   36  O8  UNL     1      54.869  54.331 111.043  1.00  0.00    -0.395 OA
ATOM     37  H8  UNL     1      55.454  54.174 111.774  1.00  0.00     0.210 HD
ENDBRANCH  18  36
BRANCH  11  38
HETATM   38  C17 UNL     1      52.229  57.669 114.429  1.00  0.00     0.019 C 
BRANCH  38  39
HETATM   39  C18 UNL     1      51.234  56.746 115.006  1.00  0.00    -0.022 C 
HETATM   40  C19 UNL     1      50.233  57.629 115.788  1.00  0.00     0.009 C 
HETATM   41  C20 UNL     1      51.798  55.791 116.034  1.00  0.00     0.009 C 
ENDBRANCH  38  39
ENDBRANCH  11  38
TORSDOF 13
ENDMDL
MODEL 4
REMARK VINA RESULT: -7.229383908      3.545      7.216
REMARK  13 active torsions:
REMARK  status: ('A' for Active; 'I' for Inactive)
REMARK    1  A    between atoms: C2_2  and  C3_3 
REMARK    2  A    between atoms: C4_5  and  C5_6 
REMARK    3  A    between atoms: C5_6  and  C6_7 
REMARK    4  A    between atoms: C6_7  and  C7_8 
REMARK    5  A    between atoms: C7_8  and  C8_9 
REMARK    6  A    between atoms: C8_9  and  C9_10 
REMARK    7  A    between atoms: C9_10  and  C10_11 
REMARK    8  A    between atoms: C10_11  and  O2_12 
REMARK    9  A    between atoms: C14_19  and  O5_20 
REMARK   10  A    between atoms: C16_23  and  C17_24 
REMARK   11  A    between atoms: C17_24  and  C18_25 
REMARK   12  A    between atoms: C25_34  and  O8_35 
REMARK   13  A    between atoms: C27_38  and  O9_39 
ROOT
HETATM    1  C3  UNL     1      63.454  57.797 113.559  1.00  0.00     0.129 C 
HETATM    2  O1  UNL     1      63.530  58.831 112.669  1.00  0.00    -0.379 OA
HETATM    3  C4  UNL     1      62.278  59.233 112.286  1.00  0.00     0.136 C 
HETATM    4  C11 UNL     1      61.468  57.977 112.352  1.00  0.00     0.123 C 
HETATM    5  C12 UNL     1      60.048  58.240 112.313  1.00  0.00     0.266 C 
HETATM    6  O3  UNL     1      59.651  59.446 112.143  1.00  0.00    -0.265 OA
HETATM    7  O4  UNL     1      59.042  57.311 112.442  1.00  0.00    -0.319 OA
HETATM    8  C13 UNL     1      59.128  55.946 112.276  1.00  0.00     0.210 C 
HETATM    9  C14 UNL     1      59.272  55.137 113.542  1.00  0.00     0.148 C 
HETATM   10  C15 UNL     1      59.320  55.984 114.785  1.00  0.00     0.039 C 
HETATM   11  C16 UNL     1      58.216  55.667 115.785  1.00  0.00     0.093 C 
HETATM   12  C21 UNL     1      58.270  54.279 116.226  1.00  0.00     0.263 C 
HETATM   13  O6  UNL     1      57.250  53.572 116.168  1.00  0.00    -0.265 OA
HETATM   14  O7  UNL     1      59.353  53.557 116.741  1.00  0.00    -0.316 OA
HETATM   15  C22 UNL     1      60.717  53.364 116.559  1.00  0.00     0.130 C 
HETATM   16  C23 UNL     1      61.117  52.130 117.383  1.00  0.00     0.040 C 
HETATM   17  C24 UNL     1      61.594  54.481 117.011  1.00  0.00     0.064 C 
HETATM   18  C25 UNL     1      60.946  55.854 116.752  1.00  0.00     0.127 C 
HETATM   19  C26 UNL     1      60.688  56.108 115.322  1.00  0.00     0.051 C 
HETATM   20  C27 UNL     1      61.326  57.421 114.819  1.00  0.00     0.132 C 
HETATM   21  C28 UNL     1      62.015  57.263 113.512  1.00  0.00     0.060 C 
ENDROOT
BRANCH   3  22
HETATM   22  C5  UNL     1      62.383  59.726 110.850  1.00  0.00     0.033 C 
BRANCH  22  23
HETATM   23  C6  UNL     1      63.854  59.959 110.494  1.00  0.00     0.002 C 
BRANCH  23  24
HETATM   24  C7  UNL     1      63.958  60.698 109.176  1.00  0.00     0.000 C 
BRANCH  24  25
HETATM   25  C8  UNL     1      62.653  61.129 108.611  1.00  0.00     0.002 C 
BRANCH  25  26
HETATM   26  C9  UNL     1      62.262  60.593 107.289  1.00  0.00     0.026 C 
BRANCH  26  27
HETATM   27  C10 UNL     1      61.277  61.397 106.501  1.00  0.00     0.164 C 
BRANCH  27  28
HETATM   28  O2  UNL     1      61.643  61.429 105.170  1.00  0.00    -0.401 OA
ATOM     29  H2  UNL     1      60.897  61.665 104.631  1.00  0.00     0.209 HD
ENDBRANCH  27  28
ENDBRANCH  26  27
ENDBRANCH  25  26
ENDBRANCH  24  25
ENDBRANCH  23  24
ENDBRANCH  22  23
ENDBRANCH   3  22
BRANCH   1  30
HETATM   30  C2  UNL     1      64.454  56.742 113.151  1.00  0.00     0.028 C 
HETATM   31  C1  UNL     1      65.590  57.420 112.459  1.00  0.00     0.007 C 
ENDBRANCH   1  30
BRANCH  20  32
HETATM   32  O9  UNL     1      60.367  58.452 114.833  1.00  0.00    -0.395 OA
ATOM     33  H9  UNL     1      60.508  59.032 114.093  1.00  0.00     0.210 HD
ENDBRANCH  20  32
BRANCH   9  34
HETATM   34  O5  UNL     1      58.399  54.067 113.594  1.00  0.00    -0.393 OA
ATOM     35  H5  UNL     1      58.804  53.250 113.327  1.00  0.00     0.210 HD
ENDBRANCH   9  34
BRANCH  18  36
HETATM   36  O8  UNL     1      61.907  56.759 117.272  1.00  0.00    -0.395 OA
ATOM     37  H8  UNL     1      62.318  57.105 116.489  1.00  0.00     0.210 HD
ENDBRANCH  18  36
BRANCH  11  38
HETATM   38  C17 UNL     1      56.912  56.141 115.210  1.00  0.00     0.019 C 
BRANCH  38  39
HETATM   39  C18 UNL     1      56.859  57.512 114.668  1.00  0.00    -0.022 C 
HETATM   40  C19 UNL     1      56.622  58.443 115.882  1.00  0.00     0.009 C 
HETATM   41  C20 UNL     1      55.689  57.767 113.745  1.00  0.00     0.009 C 
ENDBRANCH  38  39
ENDBRANCH  11  38
TORSDOF 13
ENDMDL
MODEL 5
REMARK VINA RESULT: -7.120733632      3.693      7.145
REMARK  13 active torsions:
REMARK  status: ('A' for Active; 'I' for Inactive)
REMARK    1  A    between atoms: C2_2  and  C3_3 
REMARK    2  A    between atoms: C4_5  and  C5_6 
REMARK    3  A    between atoms: C5_6  and  C6_7 
REMARK    4  A    between atoms: C6_7  and  C7_8 
REMARK    5  A    between atoms: C7_8  and  C8_9 
REMARK    6  A    between atoms: C8_9  and  C9_10 
REMARK    7  A    between atoms: C9_10  and  C10_11 
REMARK    8  A    between atoms: C10_11  and  O2_12 
REMARK    9  A    between atoms: C14_19  and  O5_20 
REMARK   10  A    between atoms: C16_23  and  C17_24 
REMARK   11  A    between atoms: C17_24  and  C18_25 
REMARK   12  A    between atoms: C25_34  and  O8_35 
REMARK   13  A    between atoms: C27_38  and  O9_39 
ROOT
HETATM    1  C3  UNL     1      62.807  58.302 113.530  1.00  0.00     0.129 C 
HETATM    2  O1  UNL     1      62.608  59.463 112.839  1.00  0.00    -0.379 OA
HETATM    3  C4  UNL     1      61.270  59.734 112.721  1.00  0.00     0.136 C 
HETATM    4  C11 UNL     1      60.639  58.378 112.678  1.00  0.00     0.123 C 
HETATM    5  C12 UNL     1      59.211  58.433 112.895  1.00  0.00     0.266 C 
HETATM    6  O3  UNL     1      58.651  59.579 113.004  1.00  0.00    -0.265 OA
HETATM    7  O4  UNL     1      58.360  57.359 113.000  1.00  0.00    -0.319 OA
HETATM    8  C13 UNL     1      58.579  56.064 112.581  1.00  0.00     0.210 C 
HETATM    9  C14 UNL     1      59.030  55.095 113.647  1.00  0.00     0.148 C 
HETATM   10  C15 UNL     1      59.186  55.732 115.001  1.00  0.00     0.039 C 
HETATM   11  C16 UNL     1      58.312  55.103 116.078  1.00  0.00     0.093 C 
HETATM   12  C21 UNL     1      58.605  53.685 116.250  1.00  0.00     0.263 C 
HETATM   13  O6  UNL     1      57.682  52.855 116.215  1.00  0.00    -0.265 OA
HETATM   14  O7  UNL     1      59.838  53.057 116.463  1.00  0.00    -0.316 OA
HETATM   15  C22 UNL     1      61.165  53.097 116.052  1.00  0.00     0.130 C 
HETATM   16  C23 UNL     1      61.842  51.821 116.573  1.00  0.00     0.040 C 
HETATM   17  C24 UNL     1      61.966  54.245 116.564  1.00  0.00     0.064 C 
HETATM   18  C25 UNL     1      61.125  55.532 116.653  1.00  0.00     0.127 C 
HETATM   19  C26 UNL     1      60.600  55.969 115.345  1.00  0.00     0.051 C 
HETATM   20  C27 UNL     1      60.982  57.424 114.999  1.00  0.00     0.132 C 
HETATM   21  C28 UNL     1      61.455  57.578 113.598  1.00  0.00     0.060 C 
ENDROOT
BRANCH   3  22
HETATM   22  C5  UNL     1      61.072  60.458 111.398  1.00  0.00     0.033 C 
BRANCH  22  23
HETATM   23  C6  UNL     1      62.093  59.950 110.377  1.00  0.00     0.002 C 
BRANCH  23  24
HETATM   24  C7  UNL     1      62.039  60.797 109.123  1.00  0.00     0.000 C 
BRANCH  24  25
HETATM   25  C8  UNL     1      63.342  61.392 108.728  1.00  0.00     0.002 C 
BRANCH  25  26
HETATM   26  C9  UNL     1      64.553  60.941 109.448  1.00  0.00     0.026 C 
BRANCH  26  27
HETATM   27  C10 UNL     1      65.710  61.888 109.478  1.00  0.00     0.164 C 
BRANCH  27  28
HETATM   28  O2  UNL     1      66.854  61.231 109.887  1.00  0.00    -0.401 OA
ATOM     29  H2  UNL     1      67.554  61.371 109.259  1.00  0.00     0.209 HD
ENDBRANCH  27  28
ENDBRANCH  26  27
ENDBRANCH  25  26
ENDBRANCH  24  25
ENDBRANCH  23  24
ENDBRANCH  22  23
ENDBRANCH   3  22
BRANCH   1  30
HETATM   30  C2  UNL     1      63.843  57.483 112.797  1.00  0.00     0.028 C 
HETATM   31  C1  UNL     1      64.865  58.416 112.239  1.00  0.00     0.007 C 
ENDBRANCH   1  30
BRANCH  20  32
HETATM   32  O9  UNL     1      59.924  58.288 115.338  1.00  0.00    -0.395 OA
ATOM     33  H9  UNL     1      60.198  58.875 116.033  1.00  0.00     0.210 HD
ENDBRANCH  20  32
BRANCH   9  34
HETATM   34  O5  UNL     1      58.312  53.914 113.632  1.00  0.00    -0.393 OA
ATOM     35  H5  UNL     1      57.927  53.709 114.477  1.00  0.00     0.210 HD
ENDBRANCH   9  34
BRANCH  18  36
HETATM   36  O8  UNL     1      62.044  56.475 117.182  1.00  0.00    -0.395 OA
ATOM     37  H8  UNL     1      61.785  57.284 116.758  1.00  0.00     0.210 HD
ENDBRANCH  18  36
BRANCH  11  38
HETATM   38  C17 UNL     1      56.884  55.465 115.794  1.00  0.00     0.019 C 
BRANCH  38  39
HETATM   39  C18 UNL     1      56.128  56.157 116.855  1.00  0.00    -0.022 C 
HETATM   40  C19 UNL     1      57.047  56.165 118.100  1.00  0.00     0.009 C 
HETATM   41  C20 UNL     1      54.876  55.432 117.297  1.00  0.00     0.009 C 
ENDBRANCH  38  39
ENDBRANCH  11  38
TORSDOF 13
ENDMDL
