MODEL 1
REMARK VINA RESULT: -5.514619053      0.000      0.000
REMARK  3 active torsions:
REMARK  status: ('A' for Active; 'I' for Inactive)
REMARK    1  A    between atoms: C2_2  and  C3_3 
REMARK    2  A    between atoms: C3_3  and  C4_4 
REMARK    3  A    between atoms: C5_5  and  O1_6 
ROOT
HETATM    1  C4  UNL     1       5.361 -12.258  -5.042  1.00  0.00     0.038 C 
HETATM    2  C5  UNL     1       6.572 -12.116  -5.887  1.00  0.00     0.156 C 
HETATM    3  C6  UNL     1       6.987 -10.763  -6.299  1.00  0.00     0.191 A 
HETATM    4  O2  UNL     1       8.391 -10.483  -5.816  1.00  0.00    -0.362 OA
HETATM    5  C7  UNL     1       7.320  -9.765  -5.353  1.00  0.00     0.215 A 
HETATM    6  S1  UNL     1       6.557 -10.122  -3.758  1.00  0.00    -0.125 SA
HETATM    7  C8  UNL     1       5.148 -11.246  -3.981  1.00  0.00     0.010 C 
HETATM    8  C9  UNL     1       3.942 -10.371  -4.258  1.00  0.00     0.027 C 
HETATM    9  C10 UNL     1       4.923 -11.871  -2.599  1.00  0.00     0.027 C 
ENDROOT
BRANCH   1  10
HETATM   10  C3  UNL     1       5.346 -13.684  -4.496  1.00  0.00     0.035 C 
BRANCH  10  11
HETATM   11  C2  UNL     1       4.313 -14.526  -5.139  1.00  0.00    -0.036 C 
HETATM   12  C1  UNL     1       3.236 -13.962  -5.634  1.00  0.00     0.007 C 
ENDBRANCH  10  11
ENDBRANCH   1  10
BRANCH   2  13
HETATM   13  O1  UNL     1       6.307 -12.836  -7.084  1.00  0.00    -0.392 OA
ATOM     14  H1  UNL     1       6.086 -12.186  -7.740  1.00  0.00     0.210 HD
ENDBRANCH   2  13
TORSDOF 3
ENDMDL
MODEL 2
REMARK VINA RESULT: -5.053384333      4.901      6.538
REMARK  3 active torsions:
REMARK  status: ('A' for Active; 'I' for Inactive)
REMARK    1  A    between atoms: C2_2  and  C3_3 
REMARK    2  A    between atoms: C3_3  and  C4_4 
REMARK    3  A    between atoms: C5_5  and  O1_6 
ROOT
HETATM    1  C4  UNL     1       3.285 -16.143  -5.637  1.00  0.00     0.038 C 
HETATM    2  C5  UNL     1       2.540 -14.876  -5.847  1.00  0.00     0.156 C 
HETATM    3  C6  UNL     1       1.446 -14.860  -6.837  1.00  0.00     0.191 A 
HETATM    4  O2  UNL     1       0.152 -14.459  -6.170  1.00  0.00    -0.362 OA
HETATM    5  C7  UNL     1       0.318 -15.705  -6.714  1.00  0.00     0.215 A 
HETATM    6  S1  UNL     1       0.708 -17.142  -5.695  1.00  0.00    -0.125 SA
HETATM    7  C8  UNL     1       2.505 -17.402  -5.649  1.00  0.00     0.010 C 
HETATM    8  C9  UNL     1       2.842 -18.273  -6.841  1.00  0.00     0.027 C 
HETATM    9  C10 UNL     1       2.744 -18.261  -4.402  1.00  0.00     0.027 C 
ENDROOT
BRANCH   1  10
HETATM   10  C3  UNL     1       4.111 -15.982  -4.363  1.00  0.00     0.035 C 
BRANCH  10  11
HETATM   11  C2  UNL     1       5.562 -15.893  -4.637  1.00  0.00    -0.036 C 
HETATM   12  C1  UNL     1       6.353 -16.868  -4.253  1.00  0.00     0.007 C 
ENDBRANCH  10  11
ENDBRANCH   1  10
BRANCH   2  13
HETATM   13  O1  UNL     1       3.496 -13.923  -6.292  1.00  0.00    -0.392 OA
ATOM     14  H1  UNL     1       3.174 -13.075  -6.012  1.00  0.00     0.210 HD
ENDBRANCH   2  13
TORSDOF 3
ENDMDL
MODEL 3
REMARK VINA RESULT: -4.857423043      2.489      3.505
REMARK  3 active torsions:
REMARK  status: ('A' for Active; 'I' for Inactive)
REMARK    1  A    between atoms: C2_2  and  C3_3 
REMARK    2  A    between atoms: C3_3  and  C4_4 
REMARK    3  A    between atoms: C5_5  and  O1_6 
ROOT
HETATM    1  C4  UNL     1       4.877 -10.699  -4.595  1.00  0.00     0.038 C 
HETATM    2  C5  UNL     1       3.850  -9.908  -5.317  1.00  0.00     0.156 C 
HETATM    3  C6  UNL     1       2.809  -9.222  -4.529  1.00  0.00     0.191 A 
HETATM    4  O2  UNL     1       2.848  -7.737  -4.802  1.00  0.00    -0.362 OA
HETATM    5  C7  UNL     1       3.131  -8.242  -3.561  1.00  0.00     0.215 A 
HETATM    6  S1  UNL     1       4.829  -8.452  -2.985  1.00  0.00    -0.125 SA
HETATM    7  C8  UNL     1       5.394 -10.145  -3.322  1.00  0.00     0.010 C 
HETATM    8  C9  UNL     1       4.984 -10.979  -2.126  1.00  0.00     0.027 C 
HETATM    9  C10 UNL     1       6.924 -10.060  -3.289  1.00  0.00     0.027 C 
ENDROOT
BRANCH   1  10
HETATM   10  C3  UNL     1       5.993 -11.016  -5.587  1.00  0.00     0.035 C 
BRANCH  10  11
HETATM   11  C2  UNL     1       6.104 -12.464  -5.871  1.00  0.00    -0.036 C 
HETATM   12  C1  UNL     1       5.453 -13.321  -5.120  1.00  0.00     0.007 C 
ENDBRANCH  10  11
ENDBRANCH   1  10
BRANCH   2  13
HETATM   13  O1  UNL     1       3.171 -10.821  -6.168  1.00  0.00    -0.392 OA
ATOM     14  H1  UNL     1       3.636 -10.809  -6.996  1.00  0.00     0.210 HD
ENDBRANCH   2  13
TORSDOF 3
ENDMDL
MODEL 4
REMARK VINA RESULT: -4.796118103      3.427      5.040
REMARK  3 active torsions:
REMARK  status: ('A' for Active; 'I' for Inactive)
REMARK    1  A    between atoms: C2_2  and  C3_3 
REMARK    2  A    between atoms: C3_3  and  C4_4 
REMARK    3  A    between atoms: C5_5  and  O1_6 
ROOT
HETATM    1  C4  UNL     1       4.065 -16.520  -4.632  1.00  0.00     0.038 C 
HETATM    2  C5  UNL     1       3.664 -15.399  -5.519  1.00  0.00     0.156 C 
HETATM    3  C6  UNL     1       4.142 -14.042  -5.195  1.00  0.00     0.191 A 
HETATM    4  O2  UNL     1       4.937 -13.485  -6.352  1.00  0.00    -0.362 OA
HETATM    5  C7  UNL     1       5.521 -13.732  -5.138  1.00  0.00     0.215 A 
HETATM    6  S1  UNL     1       6.496 -15.220  -4.838  1.00  0.00    -0.125 SA
HETATM    7  C8  UNL     1       5.449 -16.511  -4.105  1.00  0.00     0.010 C 
HETATM    8  C9  UNL     1       5.490 -16.295  -2.606  1.00  0.00     0.027 C 
HETATM    9  C10 UNL     1       6.197 -17.821  -4.376  1.00  0.00     0.027 C 
ENDROOT
BRANCH   1  10
HETATM   10  C3  UNL     1       3.727 -17.821  -5.357  1.00  0.00     0.035 C 
BRANCH  10  11
HETATM   11  C2  UNL     1       2.604 -18.547  -4.723  1.00  0.00    -0.036 C 
HETATM   12  C1  UNL     1       1.778 -19.239  -5.471  1.00  0.00     0.007 C 
ENDBRANCH  10  11
ENDBRANCH   1  10
BRANCH   2  13
HETATM   13  O1  UNL     1       2.245 -15.345  -5.473  1.00  0.00    -0.392 OA
ATOM     14  H1  UNL     1       2.008 -14.442  -5.644  1.00  0.00     0.210 HD
ENDBRANCH   2  13
TORSDOF 3
ENDMDL
MODEL 5
REMARK VINA RESULT: -4.782635040      3.002      3.885
REMARK  3 active torsions:
REMARK  status: ('A' for Active; 'I' for Inactive)
REMARK    1  A    between atoms: C2_2  and  C3_3 
REMARK    2  A    between atoms: C3_3  and  C4_4 
REMARK    3  A    between atoms: C5_5  and  O1_6 
ROOT
HETATM    1  C4  UNL     1       4.506 -10.025  -4.230  1.00  0.00     0.038 C 
HETATM    2  C5  UNL     1       3.343  -9.263  -4.750  1.00  0.00     0.156 C 
HETATM    3  C6  UNL     1       2.970  -8.004  -4.079  1.00  0.00     0.191 A 
HETATM    4  O2  UNL     1       3.014  -6.861  -5.064  1.00  0.00    -0.362 OA
HETATM    5  C7  UNL     1       3.865  -6.913  -3.992  1.00  0.00     0.215 A 
HETATM    6  S1  UNL     1       5.571  -7.475  -4.159  1.00  0.00    -0.125 SA
HETATM    7  C8  UNL     1       5.681  -9.247  -3.776  1.00  0.00     0.010 C 
HETATM    8  C9  UNL     1       5.893  -9.349  -2.279  1.00  0.00     0.027 C 
HETATM    9  C10 UNL     1       6.988  -9.708  -4.431  1.00  0.00     0.027 C 
ENDROOT
BRANCH   1  10
HETATM   10  C3  UNL     1       4.871 -11.076  -5.275  1.00  0.00     0.035 C 
BRANCH  10  11
HETATM   11  C2  UNL     1       4.725 -12.457  -4.765  1.00  0.00    -0.036 C 
HETATM   12  C1  UNL     1       3.849 -13.261  -5.320  1.00  0.00     0.007 C 
ENDBRANCH  10  11
ENDBRANCH   1  10
BRANCH   2  13
HETATM   13  O1  UNL     1       2.220 -10.127  -4.636  1.00  0.00    -0.392 OA
ATOM     14  H1  UNL     1       1.552  -9.770  -5.209  1.00  0.00     0.210 HD
ENDBRANCH   2  13
TORSDOF 3
ENDMDL
