MODEL 1
REMARK VINA RESULT: -6.151785310      0.000      0.000
REMARK  6 active torsions:
REMARK  status: ('A' for Active; 'I' for Inactive)
REMARK    1  A    between atoms: O1_2  and  C2_3 
REMARK    2  A    between atoms: C3_4  and  O2_5 
REMARK    3  A    between atoms: C6_9  and  C7_10 
REMARK    4  A    between atoms: C8_11  and  C9_12 
REMARK    5  A    between atoms: C9_12  and  C12_15 
REMARK    6  A    between atoms: C12_15  and  O3_16 
ROOT
HETATM    1  C2  UNL     1       3.997 -12.419  -5.621  1.00  0.00     0.165 C 
HETATM    2  C3  UNL     1       3.689 -11.003  -5.264  1.00  0.00     0.148 C 
HETATM    3  C4  UNL     1       4.531 -10.623  -4.078  1.00  0.00     0.036 C 
HETATM    4  C5  UNL     1       4.976 -11.968  -3.542  1.00  0.00     0.022 C 
HETATM    5  C6  UNL     1       5.264 -12.707  -4.845  1.00  0.00     0.096 C 
ENDROOT
BRANCH   5   6
HETATM    6  C7  UNL     1       5.458 -14.110  -4.565  1.00  0.00    -0.098 C 
HETATM    7  C8  UNL     1       5.611 -15.270  -4.315  1.00  0.00    -0.095 C 
BRANCH   7   8
HETATM    8  C9  UNL     1       5.780 -16.690  -3.988  1.00  0.00     0.037 C 
HETATM    9  C10 UNL     1       7.048 -17.261  -4.563  1.00  0.00     0.031 C 
HETATM   10  C11 UNL     1       4.602 -17.435  -4.542  1.00  0.00     0.031 C 
BRANCH   8  11
HETATM   11  C12 UNL     1       5.793 -16.834  -2.485  1.00  0.00     0.185 C 
BRANCH  11  12
HETATM   12  O3  UNL     1       5.378 -18.117  -2.127  1.00  0.00    -0.399 OA
ATOM     13  H3  UNL     1       5.998 -18.498  -1.516  1.00  0.00     0.209 HD
ENDBRANCH  11  12
ENDBRANCH   8  11
ENDBRANCH   7   8
ENDBRANCH   5   6
BRANCH   1  14
HETATM   14  O1  UNL     1       2.975 -13.246  -5.180  1.00  0.00    -0.387 OA
HETATM   15  C1  UNL     1       2.255 -13.655  -6.300  1.00  0.00     0.202 C 
ENDBRANCH   1  14
BRANCH   2  16
HETATM   16  O2  UNL     1       3.948 -10.207  -6.378  1.00  0.00    -0.393 OA
ATOM     17  H2  UNL     1       4.533  -9.507  -6.112  1.00  0.00     0.210 HD
ENDBRANCH   2  16
TORSDOF 6
ENDMDL
MODEL 2
REMARK VINA RESULT: -5.888697919      1.386      2.070
REMARK  6 active torsions:
REMARK  status: ('A' for Active; 'I' for Inactive)
REMARK    1  A    between atoms: O1_2  and  C2_3 
REMARK    2  A    between atoms: C3_4  and  O2_5 
REMARK    3  A    between atoms: C6_9  and  C7_10 
REMARK    4  A    between atoms: C8_11  and  C9_12 
REMARK    5  A    between atoms: C9_12  and  C12_15 
REMARK    6  A    between atoms: C12_15  and  O3_16 
ROOT
HETATM    1  C2  UNL     1       4.692 -11.935  -4.193  1.00  0.00     0.165 C 
HETATM    2  C3  UNL     1       5.102 -10.603  -4.727  1.00  0.00     0.148 C 
HETATM    3  C4  UNL     1       6.019 -10.827  -5.898  1.00  0.00     0.036 C 
HETATM    4  C5  UNL     1       6.433 -12.274  -5.723  1.00  0.00     0.022 C 
HETATM    5  C6  UNL     1       5.109 -12.893  -5.288  1.00  0.00     0.096 C 
ENDROOT
BRANCH   5   6
HETATM    6  C7  UNL     1       5.343 -14.237  -4.814  1.00  0.00    -0.098 C 
HETATM    7  C8  UNL     1       5.535 -15.358  -4.441  1.00  0.00    -0.095 C 
BRANCH   7   8
HETATM    8  C9  UNL     1       5.773 -16.739  -4.009  1.00  0.00     0.037 C 
HETATM    9  C10 UNL     1       7.053 -17.299  -4.568  1.00  0.00     0.031 C 
HETATM   10  C11 UNL     1       4.618 -17.574  -4.477  1.00  0.00     0.031 C 
BRANCH   8  11
HETATM   11  C12 UNL     1       5.823 -16.764  -2.501  1.00  0.00     0.185 C 
BRANCH  11  12
HETATM   12  O3  UNL     1       5.445 -18.024  -2.034  1.00  0.00    -0.399 OA
ATOM     13  H3  UNL     1       6.212 -18.577  -1.943  1.00  0.00     0.209 HD
ENDBRANCH  11  12
ENDBRANCH   8  11
ENDBRANCH   7   8
ENDBRANCH   5   6
BRANCH   1  14
HETATM   14  O1  UNL     1       5.398 -12.211  -3.031  1.00  0.00    -0.387 OA
HETATM   15  C1  UNL     1       5.336 -11.076  -2.225  1.00  0.00     0.202 C 
ENDBRANCH   1  14
BRANCH   2  16
HETATM   16  O2  UNL     1       3.951  -9.902  -5.079  1.00  0.00    -0.393 OA
ATOM     17  H2  UNL     1       4.162  -9.333  -5.809  1.00  0.00     0.210 HD
ENDBRANCH   2  16
TORSDOF 6
ENDMDL
MODEL 3
REMARK VINA RESULT: -5.844024429      1.433      1.932
REMARK  6 active torsions:
REMARK  status: ('A' for Active; 'I' for Inactive)
REMARK    1  A    between atoms: O1_2  and  C2_3 
REMARK    2  A    between atoms: C3_4  and  O2_5 
REMARK    3  A    between atoms: C6_9  and  C7_10 
REMARK    4  A    between atoms: C8_11  and  C9_12 
REMARK    5  A    between atoms: C9_12  and  C12_15 
REMARK    6  A    between atoms: C12_15  and  O3_16 
ROOT
HETATM    1  C2  UNL     1       5.911 -11.964  -5.580  1.00  0.00     0.165 C 
HETATM    2  C3  UNL     1       5.129 -10.755  -5.977  1.00  0.00     0.148 C 
HETATM    3  C4  UNL     1       3.747 -10.878  -5.397  1.00  0.00     0.036 C 
HETATM    4  C5  UNL     1       3.663 -12.350  -5.048  1.00  0.00     0.022 C 
HETATM    5  C6  UNL     1       5.064 -12.586  -4.492  1.00  0.00     0.096 C 
ENDROOT
BRANCH   5   6
HETATM    6  C7  UNL     1       5.282 -14.004  -4.336  1.00  0.00    -0.098 C 
HETATM    7  C8  UNL     1       5.468 -15.177  -4.187  1.00  0.00    -0.095 C 
BRANCH   7   8
HETATM    8  C9  UNL     1       5.693 -16.611  -3.978  1.00  0.00     0.037 C 
HETATM    9  C10 UNL     1       6.965 -17.090  -4.625  1.00  0.00     0.031 C 
HETATM   10  C11 UNL     1       4.528 -17.352  -4.564  1.00  0.00     0.031 C 
BRANCH   8  11
HETATM   11  C12 UNL     1       5.749 -16.873  -2.492  1.00  0.00     0.185 C 
BRANCH  11  12
HETATM   12  O3  UNL     1       5.391 -18.195  -2.229  1.00  0.00    -0.399 OA
ATOM     13  H3  UNL     1       4.446 -18.267  -2.163  1.00  0.00     0.209 HD
ENDBRANCH  11  12
ENDBRANCH   8  11
ENDBRANCH   7   8
ENDBRANCH   5   6
BRANCH   1  14
HETATM   14  O1  UNL     1       6.008 -12.832  -6.657  1.00  0.00    -0.387 OA
HETATM   15  C1  UNL     1       7.144 -12.477  -7.380  1.00  0.00     0.202 C 
ENDBRANCH   1  14
BRANCH   2  16
HETATM   16  O2  UNL     1       5.804  -9.629  -5.511  1.00  0.00    -0.393 OA
ATOM     17  H2  UNL     1       5.309  -8.860  -5.769  1.00  0.00     0.210 HD
ENDBRANCH   2  16
TORSDOF 6
ENDMDL
MODEL 4
REMARK VINA RESULT: -5.800405888      1.490      5.696
REMARK  6 active torsions:
REMARK  status: ('A' for Active; 'I' for Inactive)
REMARK    1  A    between atoms: O1_2  and  C2_3 
REMARK    2  A    between atoms: C3_4  and  O2_5 
REMARK    3  A    between atoms: C6_9  and  C7_10 
REMARK    4  A    between atoms: C8_11  and  C9_12 
REMARK    5  A    between atoms: C9_12  and  C12_15 
REMARK    6  A    between atoms: C12_15  and  O3_16 
ROOT
HETATM    1  C2  UNL     1       4.808 -16.573  -3.866  1.00  0.00     0.165 C 
HETATM    2  C3  UNL     1       5.591 -17.829  -4.062  1.00  0.00     0.148 C 
HETATM    3  C4  UNL     1       6.992 -17.452  -4.459  1.00  0.00     0.036 C 
HETATM    4  C5  UNL     1       6.838 -16.006  -4.886  1.00  0.00     0.022 C 
HETATM    5  C6  UNL     1       5.873 -15.500  -3.819  1.00  0.00     0.096 C 
ENDROOT
BRANCH   5   6
HETATM    6  C7  UNL     1       5.388 -14.193  -4.195  1.00  0.00    -0.098 C 
HETATM    7  C8  UNL     1       4.995 -13.102  -4.492  1.00  0.00    -0.095 C 
BRANCH   7   8
HETATM    8  C9  UNL     1       4.533 -11.754  -4.839  1.00  0.00     0.037 C 
HETATM    9  C10 UNL     1       4.229 -10.924  -3.621  1.00  0.00     0.031 C 
HETATM   10  C11 UNL     1       3.293 -11.892  -5.670  1.00  0.00     0.031 C 
BRANCH   8  11
HETATM   11  C12 UNL     1       5.606 -11.079  -5.658  1.00  0.00     0.185 C 
BRANCH  11  12
HETATM   12  O3  UNL     1       5.986 -11.906  -6.716  1.00  0.00    -0.399 OA
ATOM     13  H3  UNL     1       6.918 -11.813  -6.879  1.00  0.00     0.209 HD
ENDBRANCH  11  12
ENDBRANCH   8  11
ENDBRANCH   7   8
ENDBRANCH   5   6
BRANCH   1  14
HETATM   14  O1  UNL     1       3.977 -16.365  -4.957  1.00  0.00    -0.387 OA
HETATM   15  C1  UNL     1       3.203 -17.512  -5.117  1.00  0.00     0.202 C 
ENDBRANCH   1  14
BRANCH   2  16
HETATM   16  O2  UNL     1       5.552 -18.555  -2.874  1.00  0.00    -0.393 OA
ATOM     17  H2  UNL     1       6.094 -19.328  -2.982  1.00  0.00     0.210 HD
ENDBRANCH   2  16
TORSDOF 6
ENDMDL
MODEL 5
REMARK VINA RESULT: -5.770928913      1.315      5.781
REMARK  6 active torsions:
REMARK  status: ('A' for Active; 'I' for Inactive)
REMARK    1  A    between atoms: O1_2  and  C2_3 
REMARK    2  A    between atoms: C3_4  and  O2_5 
REMARK    3  A    between atoms: C6_9  and  C7_10 
REMARK    4  A    between atoms: C8_11  and  C9_12 
REMARK    5  A    between atoms: C9_12  and  C12_15 
REMARK    6  A    between atoms: C12_15  and  O3_16 
ROOT
HETATM    1  C2  UNL     1       4.707 -16.452  -3.951  1.00  0.00     0.165 C 
HETATM    2  C3  UNL     1       5.442 -17.738  -4.139  1.00  0.00     0.148 C 
HETATM    3  C4  UNL     1       6.872 -17.417  -4.476  1.00  0.00     0.036 C 
HETATM    4  C5  UNL     1       6.799 -15.959  -4.883  1.00  0.00     0.022 C 
HETATM    5  C6  UNL     1       5.816 -15.429  -3.844  1.00  0.00     0.096 C 
ENDROOT
BRANCH   5   6
HETATM    6  C7  UNL     1       5.403 -14.096  -4.215  1.00  0.00    -0.098 C 
HETATM    7  C8  UNL     1       5.064 -12.985  -4.504  1.00  0.00    -0.095 C 
BRANCH   7   8
HETATM    8  C9  UNL     1       4.660 -11.615  -4.835  1.00  0.00     0.037 C 
HETATM    9  C10 UNL     1       5.709 -10.888  -5.634  1.00  0.00     0.031 C 
HETATM   10  C11 UNL     1       4.418 -10.881  -3.549  1.00  0.00     0.031 C 
BRANCH   8  11
HETATM   11  C12 UNL     1       3.373 -11.674  -5.621  1.00  0.00     0.185 C 
BRANCH  11  12
HETATM   12  O3  UNL     1       3.192 -10.484  -6.327  1.00  0.00    -0.399 OA
ATOM     13  H3  UNL     1       2.284 -10.210  -6.271  1.00  0.00     0.209 HD
ENDBRANCH  11  12
ENDBRANCH   8  11
ENDBRANCH   7   8
ENDBRANCH   5   6
BRANCH   1  14
HETATM   14  O1  UNL     1       3.929 -16.191  -5.069  1.00  0.00    -0.387 OA
HETATM   15  C1  UNL     1       3.095 -17.288  -5.265  1.00  0.00     0.202 C 
ENDBRANCH   1  14
BRANCH   2  16
HETATM   16  O2  UNL     1       5.325 -18.482  -2.967  1.00  0.00    -0.393 OA
ATOM     17  H2  UNL     1       5.663 -19.353  -3.134  1.00  0.00     0.210 HD
ENDBRANCH   2  16
TORSDOF 6
ENDMDL
