MODEL 1
REMARK VINA RESULT: -5.817779777      0.000      0.000
REMARK  4 active torsions:
REMARK  status: ('A' for Active; 'I' for Inactive)
REMARK    1  A    between atoms: N1_2  and  C2_3 
REMARK    2  A    between atoms: N1_2  and  C3_8 
REMARK    3  A    between atoms: C2_3  and  O1_4 
REMARK    4  A    between atoms: O1_4  and  N2_5 
ROOT
HETATM    1  C3  UNL     1       4.899 -12.888  -5.039  1.00  0.00     0.030 C 
HETATM    2  C4  UNL     1       3.534 -12.250  -5.286  1.00  0.00     0.035 C 
HETATM    3  C5  UNL     1       3.590 -10.774  -5.050  1.00  0.00    -0.012 C 
HETATM    4  C6  UNL     1       3.841 -10.501  -3.575  1.00  0.00     0.009 C 
HETATM    5  C7  UNL     1       5.144 -11.164  -3.219  1.00  0.00    -0.012 C 
HETATM    6  C8  UNL     1       6.328 -10.591  -3.971  1.00  0.00     0.009 C 
HETATM    7  C9  UNL     1       6.052 -10.731  -5.437  1.00  0.00    -0.012 C 
HETATM    8  C10 UNL     1       4.717 -10.079  -5.799  1.00  0.00     0.009 C 
HETATM    9  C11 UNL     1       5.915 -12.165  -5.885  1.00  0.00     0.035 C 
HETATM   10  C12 UNL     1       5.137 -12.645  -3.535  1.00  0.00     0.035 C 
ENDROOT
BRANCH   1  11
HETATM   11  N1  UNL     1       4.918 -14.276  -5.218  1.00  0.00    -0.386 N 
HETATM   12  C1  UNL     1       3.641 -14.908  -5.434  1.00  0.00     0.146 C 
BRANCH  11  13
HETATM   13  C2  UNL     1       5.702 -15.097  -4.362  1.00  0.00     0.321 C 
BRANCH  13  14
HETATM   14  O1  UNL     1       6.650 -15.735  -5.158  1.00  0.00    -0.268 OA
BRANCH  14  15
HETATM   15  N2  UNL     1       6.825 -17.026  -4.919  1.00  0.00    -0.309 N 
ATOM     16  H22 UNL     1       6.113 -17.712  -5.172  1.00  0.00     0.184 HD
ATOM     17  H21 UNL     1       7.707 -17.278  -4.473  1.00  0.00     0.184 HD
ENDBRANCH  14  15
ENDBRANCH  13  14
ENDBRANCH  11  13
ENDBRANCH   1  11
TORSDOF 4
ENDMDL
MODEL 2
REMARK VINA RESULT: -5.795837284      0.206      1.921
REMARK  4 active torsions:
REMARK  status: ('A' for Active; 'I' for Inactive)
REMARK    1  A    between atoms: N1_2  and  C2_3 
REMARK    2  A    between atoms: N1_2  and  C3_8 
REMARK    3  A    between atoms: C2_3  and  O1_4 
REMARK    4  A    between atoms: O1_4  and  N2_5 
ROOT
HETATM    1  C3  UNL     1       4.907 -12.778  -4.930  1.00  0.00     0.030 C 
HETATM    2  C4  UNL     1       5.911 -12.022  -5.797  1.00  0.00     0.035 C 
HETATM    3  C5  UNL     1       5.929 -10.569  -5.441  1.00  0.00    -0.012 C 
HETATM    4  C6  UNL     1       4.598  -9.935  -5.815  1.00  0.00     0.009 C 
HETATM    5  C7  UNL     1       3.529 -10.674  -5.057  1.00  0.00    -0.012 C 
HETATM    6  C8  UNL     1       3.664 -10.539  -3.554  1.00  0.00     0.009 C 
HETATM    7  C9  UNL     1       5.021 -11.041  -3.168  1.00  0.00    -0.012 C 
HETATM    8  C10 UNL     1       6.111 -10.309  -3.954  1.00  0.00     0.009 C 
HETATM    9  C11 UNL     1       5.231 -12.500  -3.486  1.00  0.00     0.035 C 
HETATM   10  C12 UNL     1       3.553 -12.161  -5.337  1.00  0.00     0.035 C 
ENDROOT
BRANCH   1  11
HETATM   11  N1  UNL     1       4.818 -14.144  -5.224  1.00  0.00    -0.386 N 
HETATM   12  C1  UNL     1       3.504 -14.642  -5.542  1.00  0.00     0.146 C 
BRANCH  11  13
HETATM   13  C2  UNL     1       5.490 -15.096  -4.411  1.00  0.00     0.321 C 
BRANCH  13  14
HETATM   14  O1  UNL     1       6.561 -15.588  -5.152  1.00  0.00    -0.268 OA
BRANCH  14  15
HETATM   15  N2  UNL     1       6.936 -16.827  -4.868  1.00  0.00    -0.309 N 
ATOM     16  H22 UNL     1       7.165 -17.105  -3.914  1.00  0.00     0.184 HD
ATOM     17  H21 UNL     1       6.975 -17.469  -5.659  1.00  0.00     0.184 HD
ENDBRANCH  14  15
ENDBRANCH  13  14
ENDBRANCH  11  13
ENDBRANCH   1  11
TORSDOF 4
ENDMDL
MODEL 3
REMARK VINA RESULT: -5.636235847      0.149      1.890
REMARK  4 active torsions:
REMARK  status: ('A' for Active; 'I' for Inactive)
REMARK    1  A    between atoms: N1_2  and  C2_3 
REMARK    2  A    between atoms: N1_2  and  C3_8 
REMARK    3  A    between atoms: C2_3  and  O1_4 
REMARK    4  A    between atoms: O1_4  and  N2_5 
ROOT
HETATM    1  C3  UNL     1       4.845 -12.846  -4.848  1.00  0.00     0.030 C 
HETATM    2  C4  UNL     1       5.171 -12.544  -3.388  1.00  0.00     0.035 C 
HETATM    3  C5  UNL     1       5.137 -11.070  -3.133  1.00  0.00    -0.012 C 
HETATM    4  C6  UNL     1       6.270 -10.394  -3.890  1.00  0.00     0.009 C 
HETATM    5  C7  UNL     1       6.072 -10.705  -5.349  1.00  0.00    -0.012 C 
HETATM    6  C8  UNL     1       4.782 -10.140  -5.908  1.00  0.00     0.009 C 
HETATM    7  C9  UNL     1       3.650 -10.691  -5.098  1.00  0.00    -0.012 C 
HETATM    8  C10 UNL     1       3.858 -10.398  -3.611  1.00  0.00     0.009 C 
HETATM    9  C11 UNL     1       3.531 -12.192  -5.181  1.00  0.00     0.035 C 
HETATM   10  C12 UNL     1       6.015 -12.194  -5.614  1.00  0.00     0.035 C 
ENDROOT
BRANCH   1  11
HETATM   11  N1  UNL     1       4.882 -14.209  -5.168  1.00  0.00    -0.386 N 
HETATM   12  C1  UNL     1       3.625 -14.812  -5.531  1.00  0.00     0.146 C 
BRANCH  11  13
HETATM   13  C2  UNL     1       5.612 -15.115  -4.351  1.00  0.00     0.321 C 
BRANCH  13  14
HETATM   14  O1  UNL     1       6.588 -15.699  -5.155  1.00  0.00    -0.268 OA
BRANCH  14  15
HETATM   15  N2  UNL     1       6.824 -16.984  -4.929  1.00  0.00    -0.309 N 
ATOM     16  H22 UNL     1       6.225 -17.531  -4.311  1.00  0.00     0.184 HD
ATOM     17  H21 UNL     1       7.632 -17.375  -5.412  1.00  0.00     0.184 HD
ENDBRANCH  14  15
ENDBRANCH  13  14
ENDBRANCH  11  13
ENDBRANCH   1  11
TORSDOF 4
ENDMDL
MODEL 4
REMARK VINA RESULT: -5.429333264      1.887      2.124
REMARK  4 active torsions:
REMARK  status: ('A' for Active; 'I' for Inactive)
REMARK    1  A    between atoms: N1_2  and  C2_3 
REMARK    2  A    between atoms: N1_2  and  C3_8 
REMARK    3  A    between atoms: C2_3  and  O1_4 
REMARK    4  A    between atoms: O1_4  and  N2_5 
ROOT
HETATM    1  C3  UNL     1       5.030 -11.558  -5.155  1.00  0.00     0.030 C 
HETATM    2  C4  UNL     1       3.578 -11.135  -5.365  1.00  0.00     0.035 C 
HETATM    3  C5  UNL     1       3.272  -9.893  -4.590  1.00  0.00    -0.012 C 
HETATM    4  C6  UNL     1       3.336 -10.192  -3.100  1.00  0.00     0.009 C 
HETATM    5  C7  UNL     1       4.725 -10.692  -2.810  1.00  0.00    -0.012 C 
HETATM    6  C8  UNL     1       5.799  -9.661  -3.090  1.00  0.00     0.009 C 
HETATM    7  C9  UNL     1       5.680  -9.251  -4.525  1.00  0.00    -0.012 C 
HETATM    8  C10 UNL     1       4.262  -8.764  -4.831  1.00  0.00     0.009 C 
HETATM    9  C11 UNL     1       5.914 -10.385  -5.492  1.00  0.00     0.035 C 
HETATM   10  C12 UNL     1       5.085 -11.898  -3.652  1.00  0.00     0.035 C 
ENDROOT
BRANCH   1  11
HETATM   11  N1  UNL     1       5.384 -12.730  -5.834  1.00  0.00    -0.386 N 
HETATM   12  C1  UNL     1       4.881 -13.962  -5.282  1.00  0.00     0.146 C 
BRANCH  11  13
HETATM   13  C2  UNL     1       6.724 -12.929  -6.266  1.00  0.00     0.321 C 
BRANCH  13  14
HETATM   14  O1  UNL     1       6.716 -12.896  -7.658  1.00  0.00    -0.268 OA
BRANCH  14  15
HETATM   15  N2  UNL     1       7.376 -13.875  -8.259  1.00  0.00    -0.309 N 
ATOM     16  H22 UNL     1       7.810 -14.627  -7.724  1.00  0.00     0.184 HD
ATOM     17  H21 UNL     1       7.416 -13.822  -9.277  1.00  0.00     0.184 HD
ENDBRANCH  14  15
ENDBRANCH  13  14
ENDBRANCH  11  13
ENDBRANCH   1  11
TORSDOF 4
ENDMDL
MODEL 5
REMARK VINA RESULT: -5.390655631      1.560      2.570
REMARK  4 active torsions:
REMARK  status: ('A' for Active; 'I' for Inactive)
REMARK    1  A    between atoms: N1_2  and  C2_3 
REMARK    2  A    between atoms: N1_2  and  C3_8 
REMARK    3  A    between atoms: C2_3  and  O1_4 
REMARK    4  A    between atoms: O1_4  and  N2_5 
ROOT
HETATM    1  C3  UNL     1       5.002 -12.162  -5.055  1.00  0.00     0.030 C 
HETATM    2  C4  UNL     1       5.186 -12.210  -3.540  1.00  0.00     0.035 C 
HETATM    3  C5  UNL     1       4.856 -10.887  -2.925  1.00  0.00    -0.012 C 
HETATM    4  C6  UNL     1       5.876  -9.849  -3.368  1.00  0.00     0.009 C 
HETATM    5  C7  UNL     1       5.818  -9.787  -4.870  1.00  0.00    -0.012 C 
HETATM    6  C8  UNL     1       4.475  -9.324  -5.395  1.00  0.00     0.009 C 
HETATM    7  C9  UNL     1       3.429 -10.257  -4.870  1.00  0.00    -0.012 C 
HETATM    8  C10 UNL     1       3.499 -10.342  -3.344  1.00  0.00     0.009 C 
HETATM    9  C11 UNL     1       3.605 -11.679  -5.342  1.00  0.00     0.035 C 
HETATM   10  C12 UNL     1       6.062 -11.139  -5.508  1.00  0.00     0.035 C 
ENDROOT
BRANCH   1  11
HETATM   11  N1  UNL     1       5.316 -13.363  -5.703  1.00  0.00    -0.386 N 
HETATM   12  C1  UNL     1       4.935 -14.573  -5.021  1.00  0.00     0.146 C 
BRANCH  11  13
HETATM   13  C2  UNL     1       6.599 -13.544  -6.288  1.00  0.00     0.321 C 
BRANCH  13  14
HETATM   14  O1  UNL     1       6.398 -13.895  -7.620  1.00  0.00    -0.268 OA
BRANCH  14  15
HETATM   15  N2  UNL     1       7.479 -13.880  -8.387  1.00  0.00    -0.309 N 
ATOM     16  H22 UNL     1       8.279 -13.289  -8.163  1.00  0.00     0.184 HD
ATOM     17  H21 UNL     1       7.451 -14.494  -9.202  1.00  0.00     0.184 HD
ENDBRANCH  14  15
ENDBRANCH  13  14
ENDBRANCH  11  13
ENDBRANCH   1  11
TORSDOF 4
ENDMDL
