MODEL 1
REMARK VINA RESULT: -5.162431329      0.000      0.000
REMARK  4 active torsions:
REMARK  status: ('A' for Active; 'I' for Inactive)
REMARK    1  A    between atoms: C2_2  and  C4_4 
REMARK    2  A    between atoms: C4_4  and  N1_5 
REMARK    3  A    between atoms: N2_10  and  C6_11 
REMARK    4  A    between atoms: C11_16  and  O1_17 
ROOT
HETATM    1  C4  UNL     1       4.419 -10.580  -3.968  1.00  0.00     0.179 C 
HETATM    2  C5  UNL     1       5.121 -11.916  -4.071  1.00  0.00     0.314 C 
HETATM    3  N2  UNL     1       4.810 -12.376  -5.397  1.00  0.00     0.098 N 
HETATM    4  C10 UNL     1       3.398 -12.049  -5.488  1.00  0.00     0.307 C 
HETATM    5  C11 UNL     1       3.436 -10.568  -5.133  1.00  0.00     0.184 C 
ENDROOT
BRANCH   1   6
HETATM    6  C2  UNL     1       5.388  -9.428  -4.056  1.00  0.00     0.018 C 
HETATM    7  C1  UNL     1       6.735  -9.921  -3.574  1.00  0.00     0.012 C 
HETATM    8  C3  UNL     1       4.978  -8.255  -3.222  1.00  0.00     0.012 C 
ENDBRANCH   1   6
BRANCH   1   9
HETATM    9  N1  UNL     1       3.652 -10.462  -2.761  1.00  0.00    -0.066 N 
ATOM     10  H13 UNL     1       3.557 -11.353  -2.275  1.00  0.00     0.275 HD
ATOM     11  H12 UNL     1       4.154  -9.953  -2.032  1.00  0.00     0.275 HD
ATOM     12  H11 UNL     1       2.749 -10.039  -2.977  1.00  0.00     0.275 HD
ENDBRANCH   1   9
BRANCH   5  13
HETATM   13  O1  UNL     1       3.964  -9.917  -6.246  1.00  0.00    -0.391 OA
ATOM     14  H1  UNL     1       4.157 -10.525  -6.950  1.00  0.00     0.210 HD
ENDBRANCH   5  13
BRANCH   3  15
HETATM   15  C6  UNL     1       4.950 -13.794  -5.570  1.00  0.00     0.223 C 
HETATM   16  C7  UNL     1       3.672 -14.596  -5.463  1.00  0.00     0.036 C 
HETATM   17  C8  UNL     1       4.503 -15.670  -4.766  1.00  0.00     0.004 C 
HETATM   18  C9  UNL     1       5.438 -14.535  -4.342  1.00  0.00     0.036 C 
ENDBRANCH   3  15
TORSDOF 4
ENDMDL
MODEL 2
REMARK VINA RESULT: -5.093233701      2.928      4.544
REMARK  4 active torsions:
REMARK  status: ('A' for Active; 'I' for Inactive)
REMARK    1  A    between atoms: C2_2  and  C4_4 
REMARK    2  A    between atoms: C4_4  and  N1_5 
REMARK    3  A    between atoms: N2_10  and  C6_11 
REMARK    4  A    between atoms: C11_16  and  O1_17 
ROOT
HETATM    1  C4  UNL     1       5.266 -14.344  -5.279  1.00  0.00     0.179 C 
HETATM    2  C5  UNL     1       4.116 -15.120  -5.879  1.00  0.00     0.314 C 
HETATM    3  N2  UNL     1       3.946 -16.241  -4.994  1.00  0.00     0.098 N 
HETATM    4  C10 UNL     1       5.325 -16.634  -4.766  1.00  0.00     0.307 C 
HETATM    5  C11 UNL     1       5.914 -15.311  -4.294  1.00  0.00     0.184 C 
ENDROOT
BRANCH   1   6
HETATM    6  C2  UNL     1       4.798 -13.089  -4.587  1.00  0.00     0.018 C 
HETATM    7  C1  UNL     1       3.544 -12.616  -5.290  1.00  0.00     0.012 C 
HETATM    8  C3  UNL     1       5.812 -11.989  -4.622  1.00  0.00     0.012 C 
ENDBRANCH   1   6
BRANCH   1   9
HETATM    9  N1  UNL     1       6.259 -14.002  -6.257  1.00  0.00    -0.066 N 
ATOM     10  H13 UNL     1       6.335 -14.704  -6.992  1.00  0.00     0.275 HD
ATOM     11  H12 UNL     1       5.974 -13.214  -6.838  1.00  0.00     0.275 HD
ATOM     12  H11 UNL     1       7.150 -13.835  -5.788  1.00  0.00     0.275 HD
ENDBRANCH   1   9
BRANCH   5  13
HETATM   13  O1  UNL     1       5.442 -15.118  -2.997  1.00  0.00    -0.391 OA
ATOM     14  H1  UNL     1       4.684 -15.662  -2.815  1.00  0.00     0.210 HD
ENDBRANCH   5  13
BRANCH   3  15
HETATM   15  C6  UNL     1       3.259 -17.353  -5.586  1.00  0.00     0.223 C 
HETATM   16  C7  UNL     1       1.818 -17.102  -5.973  1.00  0.00     0.036 C 
HETATM   17  C8  UNL     1       1.535 -18.533  -5.523  1.00  0.00     0.004 C 
HETATM   18  C9  UNL     1       2.744 -18.377  -4.596  1.00  0.00     0.036 C 
ENDBRANCH   3  15
TORSDOF 4
ENDMDL
MODEL 3
REMARK VINA RESULT: -5.004233460      1.638      2.019
REMARK  4 active torsions:
REMARK  status: ('A' for Active; 'I' for Inactive)
REMARK    1  A    between atoms: C2_2  and  C4_4 
REMARK    2  A    between atoms: C4_4  and  N1_5 
REMARK    3  A    between atoms: N2_10  and  C6_11 
REMARK    4  A    between atoms: C11_16  and  O1_17 
ROOT
HETATM    1  C4  UNL     1       4.716 -10.323  -4.987  1.00  0.00     0.179 C 
HETATM    2  C5  UNL     1       4.234 -11.755  -4.917  1.00  0.00     0.314 C 
HETATM    3  N2  UNL     1       5.442 -12.536  -4.944  1.00  0.00     0.098 N 
HETATM    4  C10 UNL     1       6.200 -11.851  -5.976  1.00  0.00     0.307 C 
HETATM    5  C11 UNL     1       6.168 -10.425  -5.440  1.00  0.00     0.184 C 
ENDROOT
BRANCH   1   6
HETATM    6  C2  UNL     1       4.604  -9.626  -3.656  1.00  0.00     0.018 C 
HETATM    7  C1  UNL     1       3.421 -10.220  -2.923  1.00  0.00     0.012 C 
HETATM    8  C3  UNL     1       4.398  -8.149  -3.785  1.00  0.00     0.012 C 
ENDBRANCH   1   6
BRANCH   1   9
HETATM    9  N1  UNL     1       4.012  -9.563  -5.980  1.00  0.00    -0.066 N 
ATOM     10  H13 UNL     1       3.691  -8.663  -5.622  1.00  0.00     0.275 HD
ATOM     11  H12 UNL     1       4.632  -9.214  -6.712  1.00  0.00     0.275 HD
ATOM     12  H11 UNL     1       3.248 -10.125  -6.355  1.00  0.00     0.275 HD
ENDBRANCH   1   9
BRANCH   5  13
HETATM   13  O1  UNL     1       7.048 -10.399  -4.359  1.00  0.00    -0.391 OA
ATOM     14  H1  UNL     1       7.784 -10.984  -4.491  1.00  0.00     0.210 HD
ENDBRANCH   5  13
BRANCH   3  15
HETATM   15  C6  UNL     1       5.249 -13.895  -5.361  1.00  0.00     0.223 C 
HETATM   16  C7  UNL     1       3.814 -14.373  -5.392  1.00  0.00     0.036 C 
HETATM   17  C8  UNL     1       4.340 -15.718  -4.895  1.00  0.00     0.004 C 
HETATM   18  C9  UNL     1       5.501 -14.929  -4.283  1.00  0.00     0.036 C 
ENDBRANCH   3  15
TORSDOF 4
ENDMDL
MODEL 4
REMARK VINA RESULT: -4.993404772      2.203      2.648
REMARK  4 active torsions:
REMARK  status: ('A' for Active; 'I' for Inactive)
REMARK    1  A    between atoms: C2_2  and  C4_4 
REMARK    2  A    between atoms: C4_4  and  N1_5 
REMARK    3  A    between atoms: N2_10  and  C6_11 
REMARK    4  A    between atoms: C11_16  and  O1_17 
ROOT
HETATM    1  C4  UNL     1       6.066  -9.530  -5.465  1.00  0.00     0.179 C 
HETATM    2  C5  UNL     1       5.219 -10.480  -4.649  1.00  0.00     0.314 C 
HETATM    3  N2  UNL     1       5.911 -11.738  -4.741  1.00  0.00     0.098 N 
HETATM    4  C10 UNL     1       6.259 -11.767  -6.150  1.00  0.00     0.307 C 
HETATM    5  C11 UNL     1       6.982 -10.433  -6.283  1.00  0.00     0.184 C 
ENDROOT
BRANCH   1   6
HETATM    6  C2  UNL     1       6.857  -8.590  -4.592  1.00  0.00     0.018 C 
HETATM    7  C1  UNL     1       6.213  -8.580  -3.223  1.00  0.00     0.012 C 
HETATM    8  C3  UNL     1       6.889  -7.189  -5.119  1.00  0.00     0.012 C 
ENDBRANCH   1   6
BRANCH   1   9
HETATM    9  N1  UNL     1       5.281  -8.766  -6.393  1.00  0.00    -0.066 N 
ATOM     10  H13 UNL     1       4.280  -8.878  -6.237  1.00  0.00     0.275 HD
ATOM     11  H12 UNL     1       5.343  -7.763  -6.218  1.00  0.00     0.275 HD
ATOM     12  H11 UNL     1       5.555  -9.010  -7.345  1.00  0.00     0.275 HD
ENDBRANCH   1   9
BRANCH   5  13
HETATM   13  O1  UNL     1       8.221 -10.602  -5.666  1.00  0.00    -0.391 OA
ATOM     14  H1  UNL     1       8.159 -11.160  -4.900  1.00  0.00     0.210 HD
ENDBRANCH   5  13
BRANCH   3  15
HETATM   15  C6  UNL     1       5.086 -12.879  -4.463  1.00  0.00     0.223 C 
HETATM   16  C7  UNL     1       5.526 -14.177  -5.103  1.00  0.00     0.036 C 
HETATM   17  C8  UNL     1       4.044 -14.485  -5.301  1.00  0.00     0.004 C 
HETATM   18  C9  UNL     1       3.829 -12.969  -5.303  1.00  0.00     0.036 C 
ENDBRANCH   3  15
TORSDOF 4
ENDMDL
MODEL 5
REMARK VINA RESULT: -4.923718718      1.856      2.354
REMARK  4 active torsions:
REMARK  status: ('A' for Active; 'I' for Inactive)
REMARK    1  A    between atoms: C2_2  and  C4_4 
REMARK    2  A    between atoms: C4_4  and  N1_5 
REMARK    3  A    between atoms: N2_10  and  C6_11 
REMARK    4  A    between atoms: C11_16  and  O1_17 
ROOT
HETATM    1  C4  UNL     1       3.600  -9.206  -3.887  1.00  0.00     0.179 C 
HETATM    2  C5  UNL     1       3.445 -10.691  -4.125  1.00  0.00     0.314 C 
HETATM    3  N2  UNL     1       4.724 -11.101  -4.641  1.00  0.00     0.098 N 
HETATM    4  C10 UNL     1       5.011 -10.026  -5.574  1.00  0.00     0.307 C 
HETATM    5  C11 UNL     1       4.856  -8.818  -4.659  1.00  0.00     0.184 C 
ENDROOT
BRANCH   1   6
HETATM    6  C2  UNL     1       3.736  -8.883  -2.420  1.00  0.00     0.018 C 
HETATM    7  C1  UNL     1       2.976  -9.937  -1.644  1.00  0.00     0.012 C 
HETATM    8  C3  UNL     1       3.189  -7.536  -2.065  1.00  0.00     0.012 C 
ENDBRANCH   1   6
BRANCH   1   9
HETATM    9  N1  UNL     1       2.510  -8.452  -4.437  1.00  0.00    -0.066 N 
ATOM     10  H13 UNL     1       2.309  -7.612  -3.896  1.00  0.00     0.275 HD
ATOM     11  H12 UNL     1       2.759  -8.000  -5.318  1.00  0.00     0.275 HD
ATOM     12  H11 UNL     1       1.695  -9.058  -4.530  1.00  0.00     0.275 HD
ENDBRANCH   1   9
BRANCH   5  13
HETATM   13  O1  UNL     1       5.983  -8.808  -3.838  1.00  0.00    -0.391 OA
ATOM     14  H1  UNL     1       6.146  -7.944  -3.478  1.00  0.00     0.210 HD
ENDBRANCH   5  13
BRANCH   3  15
HETATM   15  C6  UNL     1       4.688 -12.332  -5.378  1.00  0.00     0.223 C 
HETATM   16  C7  UNL     1       3.321 -12.959  -5.540  1.00  0.00     0.036 C 
HETATM   17  C8  UNL     1       4.014 -14.310  -5.378  1.00  0.00     0.004 C 
HETATM   18  C9  UNL     1       5.082 -13.557  -4.580  1.00  0.00     0.036 C 
ENDBRANCH   3  15
TORSDOF 4
ENDMDL
