MODEL 1
REMARK VINA RESULT: -6.480231891      0.000      0.000
REMARK  2 active torsions:
REMARK  status: ('A' for Active; 'I' for Inactive)
REMARK    1  A    between atoms: C2_2  and  N1_4 
REMARK    2  A    between atoms: C6_7  and  C7_8 
ROOT
HETATM    1  C7  UNL     1       2.436 -16.057  -5.825  1.00  0.00     0.217 C 
HETATM    2  C8  UNL     1       2.575 -17.540  -5.967  1.00  0.00     0.265 C 
HETATM    3  N2  UNL     1       1.276 -18.117  -6.198  1.00  0.00    -0.072 N 
ATOM      4  H21 UNL     1       1.159 -18.980  -5.666  1.00  0.00     0.277 HD
ATOM      5  H22 UNL     1       1.207 -18.495  -7.143  1.00  0.00     0.277 HD
HETATM    6  C9  UNL     1       0.196 -17.195  -5.931  1.00  0.00     0.259 C 
HETATM    7  C10 UNL     1       0.300 -15.929  -6.743  1.00  0.00     0.260 C 
HETATM    8  N3  UNL     1       1.706 -15.554  -6.950  1.00  0.00    -0.067 N 
ATOM      9  H31 UNL     1       2.079 -15.870  -7.845  1.00  0.00     0.277 HD
ATOM     10  H32 UNL     1       1.838 -14.554  -7.101  1.00  0.00     0.277 HD
ENDROOT
BRANCH   1  11
HETATM   11  C6  UNL     1       3.735 -15.330  -5.670  1.00  0.00     0.048 C 
HETATM   12  C5  UNL     1       4.615 -15.863  -4.595  1.00  0.00     0.038 C 
HETATM   13  C4  UNL     1       5.596 -14.693  -4.423  1.00  0.00     0.273 C 
HETATM   14  N1  UNL     1       4.909 -13.529  -4.852  1.00  0.00     0.092 N 
HETATM   15  C11 UNL     1       3.590 -13.891  -5.322  1.00  0.00     0.279 C 
BRANCH  14  16
HETATM   16  C2  UNL     1       5.593 -12.740  -5.837  1.00  0.00     0.215 C 
HETATM   17  C1  UNL     1       6.704 -13.439  -6.534  1.00  0.00     0.042 C 
HETATM   18  C3  UNL     1       6.130 -11.476  -5.212  1.00  0.00     0.042 C 
ENDBRANCH  14  16
ENDBRANCH   1  11
TORSDOF 2
ENDMDL
MODEL 2
REMARK VINA RESULT: -5.874788459      1.882      2.945
REMARK  2 active torsions:
REMARK  status: ('A' for Active; 'I' for Inactive)
REMARK    1  A    between atoms: C2_2  and  N1_4 
REMARK    2  A    between atoms: C6_7  and  C7_8 
ROOT
HETATM    1  C7  UNL     1       2.318 -16.430  -6.086  1.00  0.00     0.217 C 
HETATM    2  C8  UNL     1       2.065 -14.955  -6.084  1.00  0.00     0.265 C 
HETATM    3  N2  UNL     1       0.755 -14.698  -6.625  1.00  0.00    -0.072 N 
ATOM      4  H21 UNL     1       0.770 -13.890  -7.247  1.00  0.00     0.277 HD
ATOM      5  H22 UNL     1       0.127 -14.342  -5.905  1.00  0.00     0.277 HD
HETATM    6  C9  UNL     1       0.185 -15.849  -7.286  1.00  0.00     0.259 C 
HETATM    7  C10 UNL     1       0.094 -17.052  -6.381  1.00  0.00     0.260 C 
HETATM    8  N3  UNL     1       1.220 -17.084  -5.439  1.00  0.00    -0.067 N 
ATOM      9  H31 UNL     1       0.995 -16.685  -4.527  1.00  0.00     0.277 HD
ATOM     10  H32 UNL     1       1.447 -18.025  -5.115  1.00  0.00     0.277 HD
ENDROOT
BRANCH   1  11
HETATM   11  C6  UNL     1       3.616 -16.832  -5.461  1.00  0.00     0.048 C 
HETATM   12  C5  UNL     1       3.543 -18.056  -4.619  1.00  0.00     0.038 C 
HETATM   13  C4  UNL     1       4.854 -17.938  -3.827  1.00  0.00     0.273 C 
HETATM   14  N1  UNL     1       5.178 -16.558  -3.793  1.00  0.00     0.092 N 
HETATM   15  C11 UNL     1       4.192 -15.812  -4.543  1.00  0.00     0.279 C 
BRANCH  14  16
HETATM   16  C2  UNL     1       6.501 -16.227  -4.237  1.00  0.00     0.215 C 
HETATM   17  C1  UNL     1       6.560 -15.193  -5.303  1.00  0.00     0.042 C 
HETATM   18  C3  UNL     1       7.215 -17.465  -4.721  1.00  0.00     0.042 C 
ENDBRANCH  14  16
ENDBRANCH   1  11
TORSDOF 2
ENDMDL
MODEL 3
REMARK VINA RESULT: -5.706002779      1.145      1.660
REMARK  2 active torsions:
REMARK  status: ('A' for Active; 'I' for Inactive)
REMARK    1  A    between atoms: C2_2  and  N1_4 
REMARK    2  A    between atoms: C6_7  and  C7_8 
ROOT
HETATM    1  C7  UNL     1       2.461 -15.132  -6.310  1.00  0.00     0.217 C 
HETATM    2  C8  UNL     1       1.236 -14.275  -6.236  1.00  0.00     0.265 C 
HETATM    3  N2  UNL     1       0.078 -15.076  -6.541  1.00  0.00    -0.072 N 
ATOM      4  H21 UNL     1      -0.571 -14.566  -7.140  1.00  0.00     0.277 HD
ATOM      5  H22 UNL     1      -0.512 -15.191  -5.717  1.00  0.00     0.277 HD
HETATM    6  C9  UNL     1       0.417 -16.357  -7.117  1.00  0.00     0.259 C 
HETATM    7  C10 UNL     1       1.332 -17.166  -6.232  1.00  0.00     0.260 C 
HETATM    8  N3  UNL     1       2.257 -16.294  -5.498  1.00  0.00    -0.067 N 
ATOM      9  H31 UNL     1       1.939 -16.073  -4.553  1.00  0.00     0.277 HD
ATOM     10  H32 UNL     1       3.127 -16.759  -5.235  1.00  0.00     0.277 HD
ENDROOT
BRANCH   1  11
HETATM   11  C6  UNL     1       3.725 -14.431  -5.924  1.00  0.00     0.048 C 
HETATM   12  C5  UNL     1       4.500 -15.105  -4.849  1.00  0.00     0.038 C 
HETATM   13  C4  UNL     1       5.439 -13.969  -4.417  1.00  0.00     0.273 C 
HETATM   14  N1  UNL     1       4.780 -12.758  -4.750  1.00  0.00     0.092 N 
HETATM   15  C11 UNL     1       3.522 -13.055  -5.398  1.00  0.00     0.279 C 
BRANCH  14  16
HETATM   16  C2  UNL     1       5.547 -11.839  -5.541  1.00  0.00     0.215 C 
HETATM   17  C1  UNL     1       6.667 -12.454  -6.300  1.00  0.00     0.042 C 
HETATM   18  C3  UNL     1       6.097 -10.735  -4.672  1.00  0.00     0.042 C 
ENDBRANCH  14  16
ENDBRANCH   1  11
TORSDOF 2
ENDMDL
MODEL 4
REMARK VINA RESULT: -5.648134385      2.423      3.606
REMARK  2 active torsions:
REMARK  status: ('A' for Active; 'I' for Inactive)
REMARK    1  A    between atoms: C2_2  and  N1_4 
REMARK    2  A    between atoms: C6_7  and  C7_8 
ROOT
HETATM    1  C7  UNL     1       5.219 -15.609  -4.347  1.00  0.00     0.217 C 
HETATM    2  C8  UNL     1       6.578 -16.054  -4.791  1.00  0.00     0.265 C 
HETATM    3  N2  UNL     1       6.696 -17.477  -4.602  1.00  0.00    -0.072 N 
ATOM      4  H21 UNL     1       7.613 -17.720  -4.227  1.00  0.00     0.277 HD
ATOM      5  H22 UNL     1       6.750 -17.960  -5.499  1.00  0.00     0.277 HD
HETATM    6  C9  UNL     1       5.640 -18.024  -3.782  1.00  0.00     0.259 C 
HETATM    7  C10 UNL     1       4.267 -17.734  -4.334  1.00  0.00     0.260 C 
HETATM    8  N3  UNL     1       4.236 -16.423  -4.997  1.00  0.00    -0.067 N 
ATOM      9  H31 UNL     1       4.364 -16.479  -6.008  1.00  0.00     0.277 HD
ATOM     10  H32 UNL     1       3.307 -16.000  -5.009  1.00  0.00     0.277 HD
ENDROOT
BRANCH   1  11
HETATM   11  C6  UNL     1       4.942 -14.158  -4.579  1.00  0.00     0.048 C 
HETATM   12  C5  UNL     1       3.627 -13.875  -5.215  1.00  0.00     0.038 C 
HETATM   13  C4  UNL     1       3.841 -12.428  -5.684  1.00  0.00     0.273 C 
HETATM   14  N1  UNL     1       5.239 -12.265  -5.854  1.00  0.00     0.092 N 
HETATM   15  C11 UNL     1       5.916 -13.488  -5.482  1.00  0.00     0.279 C 
BRANCH  14  16
HETATM   16  C2  UNL     1       5.815 -11.144  -5.167  1.00  0.00     0.215 C 
HETATM   17  C1  UNL     1       5.036  -9.883  -5.269  1.00  0.00     0.042 C 
HETATM   18  C3  UNL     1       7.216 -10.891  -5.667  1.00  0.00     0.042 C 
ENDBRANCH  14  16
ENDBRANCH   1  11
TORSDOF 2
ENDMDL
MODEL 5
REMARK VINA RESULT: -5.575717223      2.620      5.948
REMARK  2 active torsions:
REMARK  status: ('A' for Active; 'I' for Inactive)
REMARK    1  A    between atoms: C2_2  and  N1_4 
REMARK    2  A    between atoms: C6_7  and  C7_8 
ROOT
HETATM    1  C7  UNL     1       4.540 -10.409  -4.631  1.00  0.00     0.217 C 
HETATM    2  C8  UNL     1       3.047 -10.316  -4.569  1.00  0.00     0.265 C 
HETATM    3  N2  UNL     1       2.660  -8.930  -4.523  1.00  0.00    -0.072 N 
ATOM      4  H21 UNL     1       1.901  -8.785  -3.858  1.00  0.00     0.277 HD
ATOM      5  H22 UNL     1       2.182  -8.657  -5.382  1.00  0.00     0.277 HD
HETATM    6  C9  UNL     1       3.768  -8.046  -4.245  1.00  0.00     0.259 C 
HETATM    7  C10 UNL     1       4.890  -8.190  -5.243  1.00  0.00     0.260 C 
HETATM    8  N3  UNL     1       5.006  -9.580  -5.702  1.00  0.00    -0.067 N 
ATOM      9  H31 UNL     1       4.525  -9.754  -6.585  1.00  0.00     0.277 HD
ATOM     10  H32 UNL     1       5.946  -9.822  -6.018  1.00  0.00     0.277 HD
ENDROOT
BRANCH   1  11
HETATM   11  C6  UNL     1       5.064 -11.803  -4.774  1.00  0.00     0.048 C 
HETATM   12  C5  UNL     1       6.174 -11.947  -5.753  1.00  0.00     0.038 C 
HETATM   13  C4  UNL     1       6.173 -13.468  -5.966  1.00  0.00     0.273 C 
HETATM   14  N1  UNL     1       4.858 -13.912  -5.671  1.00  0.00     0.092 N 
HETATM   15  C11 UNL     1       4.053 -12.788  -5.245  1.00  0.00     0.279 C 
BRANCH  14  16
HETATM   16  C2  UNL     1       4.770 -14.980  -4.717  1.00  0.00     0.215 C 
HETATM   17  C1  UNL     1       6.041 -15.715  -4.485  1.00  0.00     0.042 C 
HETATM   18  C3  UNL     1       3.709 -15.967  -5.137  1.00  0.00     0.042 C 
ENDBRANCH  14  16
ENDBRANCH   1  11
TORSDOF 2
ENDMDL
