MODEL 1
REMARK VINA RESULT: -7.346547980      0.000      0.000
REMARK  6 active torsions:
REMARK  status: ('A' for Active; 'I' for Inactive)
REMARK    1  A    between atoms: N1_2  and  C2_3 
REMARK    2  A    between atoms: C2_3  and  C3_4 
REMARK    3  A    between atoms: C4_5  and  C5_6 
REMARK    4  A    between atoms: C4_5  and  C6_9 
REMARK       I    between atoms: C6_9  and  N2_11 
REMARK    5  A    between atoms: N2_11  and  C7_13 
REMARK    6  A    between atoms: C13_19  and  C14_20 
ROOT
HETATM    1  C6  UNL     1       3.734  17.476  49.980  1.00  0.00     0.258 C 
HETATM    2  O3  UNL     1       4.723  16.992  49.301  1.00  0.00    -0.267 OA
HETATM    3  N2  UNL     1       4.033  18.534  50.814  1.00  0.00    -0.351 N 
ATOM      4  H2  UNL     1       3.288  18.952  51.370  1.00  0.00     0.163 HD
ENDROOT
BRANCH   1   5
HETATM    5  C4  UNL     1       2.446  16.805  49.740  1.00  0.00     0.106 C 
HETATM    6  C3  UNL     1       1.859  17.073  48.582  1.00  0.00     0.025 C 
BRANCH   6   7
HETATM    7  C2  UNL     1       0.605  16.591  48.036  1.00  0.00     0.265 C 
BRANCH   7   8
HETATM    8  N1  UNL     1       0.334  17.144  46.699  1.00  0.00    -0.068 N 
HETATM    9  C1  UNL     1      -0.033  16.095  45.768  1.00  0.00     0.272 C 
HETATM   10  C15 UNL     1      -0.790  18.082  46.738  1.00  0.00     0.237 C 
HETATM   11  C16 UNL     1      -0.291  19.442  47.171  1.00  0.00     0.028 C 
HETATM   12  C17 UNL     1       0.404  20.076  45.984  1.00  0.00     0.003 C 
HETATM   13  C18 UNL     1       1.189  18.960  45.302  1.00  0.00     0.028 C 
HETATM   14  C19 UNL     1       1.508  17.859  46.288  1.00  0.00     0.237 C 
ENDBRANCH   7   8
ENDBRANCH   6   7
BRANCH   5  15
HETATM   15  C5  UNL     1       1.883  15.910  50.736  1.00  0.00     0.214 C 
HETATM   16  O1  UNL     1       2.320  14.753  51.001  1.00  0.00    -0.644 OA
HETATM   17  O2  UNL     1       0.770  16.259  51.521  1.00  0.00    -0.644 OA
ENDBRANCH   5  15
ENDBRANCH   1   5
BRANCH   3  18
HETATM   18  C7  UNL     1       5.404  19.078  50.923  1.00  0.00     0.097 C 
HETATM   19  C8  UNL     1       5.993  18.579  52.193  1.00  0.00     0.026 C 
HETATM   20  C9  UNL     1       7.472  18.294  51.902  1.00  0.00     0.002 C 
HETATM   21  C10 UNL     1       8.144  19.638  51.734  1.00  0.00     0.000 C 
HETATM   22  C11 UNL     1       7.850  20.154  50.365  1.00  0.00     0.001 C 
HETATM   23  C12 UNL     1       6.710  21.110  50.264  1.00  0.00     0.015 C 
HETATM   24  C13 UNL     1       5.389  20.554  50.740  1.00  0.00     0.097 C 
BRANCH  24  25
HETATM   25  C14 UNL     1       4.862  21.323  51.893  1.00  0.00     0.237 C 
HETATM   26  N3  UNL     1       3.570  21.174  52.451  1.00  0.00    -0.062 NA
HETATM   27  O4  UNL     1       5.614  22.179  52.427  1.00  0.00    -0.276 OA
ENDBRANCH  24  25
ENDBRANCH   3  18
TORSDOF 6
ENDMDL
MODEL 2
REMARK VINA RESULT: -7.231770862      1.091      1.217
REMARK  6 active torsions:
REMARK  status: ('A' for Active; 'I' for Inactive)
REMARK    1  A    between atoms: N1_2  and  C2_3 
REMARK    2  A    between atoms: C2_3  and  C3_4 
REMARK    3  A    between atoms: C4_5  and  C5_6 
REMARK    4  A    between atoms: C4_5  and  C6_9 
REMARK       I    between atoms: C6_9  and  N2_11 
REMARK    5  A    between atoms: N2_11  and  C7_13 
REMARK    6  A    between atoms: C13_19  and  C14_20 
ROOT
HETATM    1  C6  UNL     1       4.299  18.162  49.741  1.00  0.00     0.258 C 
HETATM    2  O3  UNL     1       5.182  17.410  49.170  1.00  0.00    -0.267 OA
HETATM    3  N2  UNL     1       4.782  19.294  50.366  1.00  0.00    -0.351 N 
ATOM      4  H2  UNL     1       4.126  19.922  50.831  1.00  0.00     0.163 HD
ENDROOT
BRANCH   1   5
HETATM    5  C4  UNL     1       2.916  17.674  49.623  1.00  0.00     0.106 C 
HETATM    6  C3  UNL     1       2.562  17.214  48.431  1.00  0.00     0.025 C 
BRANCH   6   7
HETATM    7  C2  UNL     1       1.299  16.667  47.977  1.00  0.00     0.265 C 
BRANCH   7   8
HETATM    8  N1  UNL     1       0.908  17.195  46.660  1.00  0.00    -0.068 N 
HETATM    9  C1  UNL     1       0.712  16.120  45.707  1.00  0.00     0.272 C 
HETATM   10  C15 UNL     1      -0.361  17.920  46.740  1.00  0.00     0.237 C 
HETATM   11  C16 UNL     1      -0.100  19.336  47.201  1.00  0.00     0.028 C 
HETATM   12  C17 UNL     1       0.450  20.110  46.021  1.00  0.00     0.003 C 
HETATM   13  C18 UNL     1       1.404  19.165  45.298  1.00  0.00     0.028 C 
HETATM   14  C19 UNL     1       1.931  18.115  46.249  1.00  0.00     0.237 C 
ENDBRANCH   7   8
ENDBRANCH   6   7
BRANCH   5  15
HETATM   15  C5  UNL     1       2.020  17.710  50.766  1.00  0.00     0.214 C 
HETATM   16  O1  UNL     1       1.285  16.750  51.142  1.00  0.00    -0.644 OA
HETATM   17  O2  UNL     1       1.885  18.845  51.583  1.00  0.00    -0.644 OA
ENDBRANCH   5  15
ENDBRANCH   1   5
BRANCH   3  18
HETATM   18  C7  UNL     1       6.223  19.623  50.380  1.00  0.00     0.097 C 
HETATM   19  C8  UNL     1       6.867  18.811  51.445  1.00  0.00     0.026 C 
HETATM   20  C9  UNL     1       8.243  18.398  50.905  1.00  0.00     0.002 C 
HETATM   21  C10 UNL     1       9.091  19.650  50.890  1.00  0.00     0.000 C 
HETATM   22  C11 UNL     1       8.729  20.460  49.690  1.00  0.00     0.001 C 
HETATM   23  C12 UNL     1       7.746  21.557  49.921  1.00  0.00     0.015 C 
HETATM   24  C13 UNL     1       6.416  21.095  50.468  1.00  0.00     0.097 C 
BRANCH  24  25
HETATM   25  C14 UNL     1       6.146  21.683  51.802  1.00  0.00     0.237 C 
HETATM   26  N3  UNL     1       4.864  21.828  52.386  1.00  0.00    -0.062 NA
HETATM   27  O4  UNL     1       7.125  22.088  52.480  1.00  0.00    -0.276 OA
ENDBRANCH  24  25
ENDBRANCH   3  18
TORSDOF 6
ENDMDL
MODEL 3
REMARK VINA RESULT: -7.190241869      2.457      7.404
REMARK  6 active torsions:
REMARK  status: ('A' for Active; 'I' for Inactive)
REMARK    1  A    between atoms: N1_2  and  C2_3 
REMARK    2  A    between atoms: C2_3  and  C3_4 
REMARK    3  A    between atoms: C4_5  and  C5_6 
REMARK    4  A    between atoms: C4_5  and  C6_9 
REMARK       I    between atoms: C6_9  and  N2_11 
REMARK    5  A    between atoms: N2_11  and  C7_13 
REMARK    6  A    between atoms: C13_19  and  C14_20 
ROOT
HETATM    1  C6  UNL     1       2.314  19.232  49.647  1.00  0.00     0.258 C 
HETATM    2  O3  UNL     1       1.739  18.216  50.203  1.00  0.00    -0.267 OA
HETATM    3  N2  UNL     1       2.337  19.232  48.267  1.00  0.00    -0.351 N 
ATOM      4  H2  UNL     1       2.779  20.011  47.779  1.00  0.00     0.163 HD
ENDROOT
BRANCH   1   5
HETATM    5  C4  UNL     1       2.850  20.221  50.594  1.00  0.00     0.106 C 
HETATM    6  C3  UNL     1       4.123  20.554  50.429  1.00  0.00     0.025 C 
BRANCH   6   7
HETATM    7  C2  UNL     1       4.951  21.482  51.174  1.00  0.00     0.265 C 
BRANCH   7   8
HETATM    8  N1  UNL     1       6.369  21.086  51.169  1.00  0.00    -0.068 N 
HETATM    9  C1  UNL     1       7.196  22.128  50.592  1.00  0.00     0.272 C 
HETATM   10  C15 UNL     1       6.858  20.870  52.531  1.00  0.00     0.237 C 
HETATM   11  C16 UNL     1       6.497  19.469  52.975  1.00  0.00     0.028 C 
HETATM   12  C17 UNL     1       7.461  18.512  52.306  1.00  0.00     0.003 C 
HETATM   13  C18 UNL     1       7.655  19.026  50.883  1.00  0.00     0.028 C 
HETATM   14  C19 UNL     1       6.463  19.848  50.449  1.00  0.00     0.237 C 
ENDBRANCH   7   8
ENDBRANCH   6   7
BRANCH   5  15
HETATM   15  C5  UNL     1       2.005  20.779  51.636  1.00  0.00     0.214 C 
HETATM   16  O1  UNL     1       1.043  21.578  51.439  1.00  0.00    -0.644 OA
HETATM   17  O2  UNL     1       2.182  20.473  52.996  1.00  0.00    -0.644 OA
ENDBRANCH   5  15
ENDBRANCH   1   5
BRANCH   3  18
HETATM   18  C7  UNL     1       1.738  18.136  47.476  1.00  0.00     0.097 C 
HETATM   19  C8  UNL     1       2.743  17.695  46.473  1.00  0.00     0.026 C 
HETATM   20  C9  UNL     1       2.608  16.171  46.363  1.00  0.00     0.002 C 
HETATM   21  C10 UNL     1       1.299  15.906  45.653  1.00  0.00     0.000 C 
HETATM   22  C11 UNL     1       0.183  16.056  46.633  1.00  0.00     0.001 C 
HETATM   23  C12 UNL     1      -0.499  17.382  46.642  1.00  0.00     0.015 C 
HETATM   24  C13 UNL     1       0.413  18.548  46.941  1.00  0.00     0.097 C 
BRANCH  24  25
HETATM   25  C14 UNL     1       0.465  19.501  45.807  1.00  0.00     0.237 C 
HETATM   26  N3  UNL     1       0.201  19.175  44.454  1.00  0.00    -0.062 NA
HETATM   27  O4  UNL     1       0.765  20.698  46.052  1.00  0.00    -0.276 OA
ENDBRANCH  24  25
ENDBRANCH   3  18
TORSDOF 6
ENDMDL
MODEL 4
REMARK VINA RESULT: -7.175207563      2.038      3.132
REMARK  6 active torsions:
REMARK  status: ('A' for Active; 'I' for Inactive)
REMARK    1  A    between atoms: N1_2  and  C2_3 
REMARK    2  A    between atoms: C2_3  and  C3_4 
REMARK    3  A    between atoms: C4_5  and  C5_6 
REMARK    4  A    between atoms: C4_5  and  C6_9 
REMARK       I    between atoms: C6_9  and  N2_11 
REMARK    5  A    between atoms: N2_11  and  C7_13 
REMARK    6  A    between atoms: C13_19  and  C14_20 
ROOT
HETATM    1  C6  UNL     1       4.029  18.356  49.202  1.00  0.00     0.258 C 
HETATM    2  O3  UNL     1       3.366  17.943  50.233  1.00  0.00    -0.267 OA
HETATM    3  N2  UNL     1       5.039  19.260  49.457  1.00  0.00    -0.351 N 
ATOM      4  H2  UNL     1       5.593  19.617  48.678  1.00  0.00     0.163 HD
ENDROOT
BRANCH   1   5
HETATM    5  C4  UNL     1       3.584  17.781  47.923  1.00  0.00     0.106 C 
HETATM    6  C3  UNL     1       2.881  18.585  47.138  1.00  0.00     0.025 C 
BRANCH   6   7
HETATM    7  C2  UNL     1       2.299  18.344  45.832  1.00  0.00     0.265 C 
BRANCH   7   8
HETATM    8  N1  UNL     1       0.913  18.832  45.745  1.00  0.00    -0.068 N 
HETATM    9  C1  UNL     1       0.775  19.812  44.686  1.00  0.00     0.272 C 
HETATM   10  C15 UNL     1      -0.009  17.739  45.427  1.00  0.00     0.237 C 
HETATM   11  C16 UNL     1      -0.375  17.009  46.700  1.00  0.00     0.028 C 
HETATM   12  C17 UNL     1      -1.385  17.858  47.443  1.00  0.00     0.003 C 
HETATM   13  C18 UNL     1      -0.923  19.303  47.289  1.00  0.00     0.028 C 
HETATM   14  C19 UNL     1       0.565  19.360  47.033  1.00  0.00     0.237 C 
ENDBRANCH   7   8
ENDBRANCH   6   7
BRANCH   5  15
HETATM   15  C5  UNL     1       3.915  16.410  47.575  1.00  0.00     0.214 C 
HETATM   16  O1  UNL     1       4.862  16.064  46.811  1.00  0.00    -0.644 OA
HETATM   17  O2  UNL     1       3.192  15.311  48.072  1.00  0.00    -0.644 OA
ENDBRANCH   5  15
ENDBRANCH   1   5
BRANCH   3  18
HETATM   18  C7  UNL     1       5.343  19.727  50.827  1.00  0.00     0.097 C 
HETATM   19  C8  UNL     1       4.680  21.044  51.017  1.00  0.00     0.026 C 
HETATM   20  C9  UNL     1       4.172  21.068  52.465  1.00  0.00     0.002 C 
HETATM   21  C10 UNL     1       5.394  21.186  53.347  1.00  0.00     0.000 C 
HETATM   22  C11 UNL     1       6.031  19.841  53.466  1.00  0.00     0.001 C 
HETATM   23  C12 UNL     1       7.166  19.577  52.536  1.00  0.00     0.015 C 
HETATM   24  C13 UNL     1       6.809  19.688  51.073  1.00  0.00     0.097 C 
BRANCH  24  25
HETATM   25  C14 UNL     1       7.585  20.759  50.405  1.00  0.00     0.237 C 
HETATM   26  N3  UNL     1       8.030  21.952  51.025  1.00  0.00    -0.062 NA
HETATM   27  O4  UNL     1       7.879  20.609  49.191  1.00  0.00    -0.276 OA
ENDBRANCH  24  25
ENDBRANCH   3  18
TORSDOF 6
ENDMDL
MODEL 5
REMARK VINA RESULT: -7.158082947      2.152      3.155
REMARK  6 active torsions:
REMARK  status: ('A' for Active; 'I' for Inactive)
REMARK    1  A    between atoms: N1_2  and  C2_3 
REMARK    2  A    between atoms: C2_3  and  C3_4 
REMARK    3  A    between atoms: C4_5  and  C5_6 
REMARK    4  A    between atoms: C4_5  and  C6_9 
REMARK       I    between atoms: C6_9  and  N2_11 
REMARK    5  A    between atoms: N2_11  and  C7_13 
REMARK    6  A    between atoms: C13_19  and  C14_20 
ROOT
HETATM    1  C6  UNL     1       4.137  18.671  50.648  1.00  0.00     0.258 C 
HETATM    2  O3  UNL     1       4.227  17.518  50.069  1.00  0.00    -0.267 OA
HETATM    3  N2  UNL     1       5.186  19.016  51.475  1.00  0.00    -0.351 N 
ATOM      4  H2  UNL     1       5.164  19.916  51.955  1.00  0.00     0.163 HD
ENDROOT
BRANCH   1   5
HETATM    5  C4  UNL     1       2.915  19.423  50.318  1.00  0.00     0.106 C 
HETATM    6  C3  UNL     1       2.176  18.928  49.336  1.00  0.00     0.025 C 
BRANCH   6   7
HETATM    7  C2  UNL     1       0.933  19.410  48.767  1.00  0.00     0.265 C 
BRANCH   7   8
HETATM    8  N1  UNL     1       0.549  18.662  47.559  1.00  0.00    -0.068 N 
HETATM    9  C1  UNL     1      -0.113  17.420  47.906  1.00  0.00     0.272 C 
HETATM   10  C15 UNL     1      -0.397  19.428  46.746  1.00  0.00     0.237 C 
HETATM   11  C16 UNL     1       0.367  20.397  45.871  1.00  0.00     0.028 C 
HETATM   12  C17 UNL     1       0.962  19.609  44.722  1.00  0.00     0.003 C 
HETATM   13  C18 UNL     1       1.452  18.293  45.316  1.00  0.00     0.028 C 
HETATM   14  C19 UNL     1       1.743  18.452  46.791  1.00  0.00     0.237 C 
ENDBRANCH   7   8
ENDBRANCH   6   7
BRANCH   5  15
HETATM   15  C5  UNL     1       2.574  20.632  51.048  1.00  0.00     0.214 C 
HETATM   16  O1  UNL     1       1.517  20.796  51.725  1.00  0.00    -0.644 OA
HETATM   17  O2  UNL     1       3.410  21.762  51.070  1.00  0.00    -0.644 OA
ENDBRANCH   5  15
ENDBRANCH   1   5
BRANCH   3  18
HETATM   18  C7  UNL     1       6.342  18.118  51.685  1.00  0.00     0.097 C 
HETATM   19  C8  UNL     1       6.663  18.118  53.136  1.00  0.00     0.026 C 
HETATM   20  C9  UNL     1       7.076  16.684  53.490  1.00  0.00     0.002 C 
HETATM   21  C10 UNL     1       8.430  16.458  52.855  1.00  0.00     0.000 C 
HETATM   22  C11 UNL     1       8.238  16.174  51.403  1.00  0.00     0.001 C 
HETATM   23  C12 UNL     1       8.398  17.339  50.487  1.00  0.00     0.015 C 
HETATM   24  C13 UNL     1       7.453  18.484  50.766  1.00  0.00     0.097 C 
BRANCH  24  25
HETATM   25  C14 UNL     1       8.190  19.716  51.133  1.00  0.00     0.237 C 
HETATM   26  N3  UNL     1       7.660  21.028  51.088  1.00  0.00    -0.062 NA
HETATM   27  O4  UNL     1       9.382  19.601  51.518  1.00  0.00    -0.276 OA
ENDBRANCH  24  25
ENDBRANCH   3  18
TORSDOF 6
ENDMDL
