MODEL 1
REMARK VINA RESULT: -6.655013194      0.000      0.000
REMARK  5 active torsions:
REMARK  status: ('A' for Active; 'I' for Inactive)
REMARK    1  A    between atoms: N1_2  and  C2_3 
REMARK    2  A    between atoms: C2_3  and  C3_4 
REMARK    3  A    between atoms: C7_13  and  C8_14 
REMARK    4  A    between atoms: C8_14  and  C9_15 
REMARK    5  A    between atoms: C9_15  and  N3_16 
REMARK       I    between atoms: N3_16  and  C10_18 
ROOT
HETATM    1  C3  UNL     1       6.303  18.533  50.883  1.00  0.00     0.056 C 
HETATM    2 BR1  UNL     1       5.833  16.762  50.257  1.00  0.00    -0.083 Br
HETATM    3  C4  UNL     1       6.227  18.508  52.376  1.00  0.00     0.081 C 
HETATM    4  C5  UNL     1       7.274  17.468  52.691  1.00  0.00     0.022 C 
HETATM    5  N2  UNL     1       7.337  16.749  53.754  1.00  0.00    -0.401 N 
ATOM      6  H21 UNL     1       8.045  16.047  53.967  1.00  0.00     0.156 HD
ATOM      7  H22 UNL     1       6.690  16.774  54.542  1.00  0.00     0.156 HD
HETATM    8  C6  UNL     1       8.196  17.434  51.567  1.00  0.00     0.037 C 
HETATM    9  S1  UNL     1       9.392  16.397  51.246  1.00  0.00    -0.082 SA
HETATM   10  C7  UNL     1       7.819  18.609  50.689  1.00  0.00     0.054 C 
ENDROOT
BRANCH  10  11
HETATM   11  C8  UNL     1       8.429  19.863  51.244  1.00  0.00     0.031 C 
BRANCH  11  12
HETATM   12  C9  UNL     1       9.227  20.592  50.152  1.00  0.00     0.123 C 
BRANCH  12  13
HETATM   13  N3  UNL     1       8.873  21.994  50.094  1.00  0.00    -0.365 N 
HETATM   14  C10 UNL     1       9.249  22.804  48.987  1.00  0.00     0.181 C 
HETATM   15  N4  UNL     1      10.228  22.411  48.255  1.00  0.00    -0.374 N 
HETATM   16  N5  UNL     1       8.550  24.009  48.716  1.00  0.00    -0.064 NA
ATOM     17  H42 UNL     1      10.729  21.545  48.449  1.00  0.00     0.158 HD
ATOM     18  H41 UNL     1      10.497  22.992  47.461  1.00  0.00     0.158 HD
ATOM     19  H3  UNL     1       8.345  22.409  50.861  1.00  0.00     0.162 HD
ENDBRANCH  12  13
ENDBRANCH  11  12
ENDBRANCH  10  11
BRANCH   1  20
HETATM   20  C2  UNL     1       5.653  19.630  50.177  1.00  0.00     0.259 C 
BRANCH  20  21
HETATM   21  N1  UNL     1       4.278  19.878  50.353  1.00  0.00    -0.069 N 
HETATM   22  C1  UNL     1       3.943  21.275  50.545  1.00  0.00     0.272 C 
HETATM   23  C11 UNL     1       3.591  19.474  49.110  1.00  0.00     0.237 C 
HETATM   24  C12 UNL     1       2.125  19.438  49.477  1.00  0.00     0.029 C 
HETATM   25  C13 UNL     1       2.112  19.528  50.988  1.00  0.00     0.029 C 
HETATM   26  C14 UNL     1       3.559  19.094  51.302  1.00  0.00     0.237 C 
ENDBRANCH  20  21
ENDBRANCH   1  20
TORSDOF 5
ENDMDL
MODEL 2
REMARK VINA RESULT: -6.617130075      3.766      5.388
REMARK  5 active torsions:
REMARK  status: ('A' for Active; 'I' for Inactive)
REMARK    1  A    between atoms: N1_2  and  C2_3 
REMARK    2  A    between atoms: C2_3  and  C3_4 
REMARK    3  A    between atoms: C7_13  and  C8_14 
REMARK    4  A    between atoms: C8_14  and  C9_15 
REMARK    5  A    between atoms: C9_15  and  N3_16 
REMARK       I    between atoms: N3_16  and  C10_18 
ROOT
HETATM    1  C3  UNL     1       2.206  18.397  48.722  1.00  0.00     0.056 C 
HETATM    2 BR1  UNL     1       3.507  18.066  47.327  1.00  0.00    -0.083 Br
HETATM    3  C4  UNL     1       1.918  17.085  49.378  1.00  0.00     0.081 C 
HETATM    4  C5  UNL     1       3.286  16.733  49.910  1.00  0.00     0.022 C 
HETATM    5  N2  UNL     1       3.717  15.552  50.178  1.00  0.00    -0.401 N 
ATOM      6  H21 UNL     1       4.641  15.314  50.539  1.00  0.00     0.156 HD
ATOM      7  H22 UNL     1       3.201  14.679  50.072  1.00  0.00     0.156 HD
HETATM    8  C6  UNL     1       4.021  17.978  50.062  1.00  0.00     0.037 C 
HETATM    9  S1  UNL     1       5.581  18.219  50.402  1.00  0.00    -0.082 SA
HETATM   10  C7  UNL     1       3.012  19.083  49.829  1.00  0.00     0.054 C 
ENDROOT
BRANCH  10  11
HETATM   11  C8  UNL     1       2.222  19.312  51.085  1.00  0.00     0.031 C 
BRANCH  11  12
HETATM   12  C9  UNL     1       2.443  20.743  51.596  1.00  0.00     0.123 C 
BRANCH  12  13
HETATM   13  N3  UNL     1       3.573  20.807  52.499  1.00  0.00    -0.365 N 
HETATM   14  C10 UNL     1       4.730  21.569  52.179  1.00  0.00     0.181 C 
HETATM   15  N4  UNL     1       4.943  21.858  50.946  1.00  0.00    -0.374 N 
HETATM   16  N5  UNL     1       5.613  21.989  53.208  1.00  0.00    -0.064 NA
ATOM     17  H42 UNL     1       4.308  21.556  50.207  1.00  0.00     0.158 HD
ATOM     18  H41 UNL     1       5.773  22.405  50.717  1.00  0.00     0.158 HD
ATOM     19  H3  UNL     1       3.538  20.296  53.381  1.00  0.00     0.162 HD
ENDBRANCH  12  13
ENDBRANCH  11  12
ENDBRANCH  10  11
BRANCH   1  20
HETATM   20  C2  UNL     1       1.081  19.236  48.331  1.00  0.00     0.259 C 
BRANCH  20  21
HETATM   21  N1  UNL     1       0.467  19.065  47.075  1.00  0.00    -0.069 N 
HETATM   22  C1  UNL     1      -0.958  19.330  47.066  1.00  0.00     0.272 C 
HETATM   23  C11 UNL     1       1.059  20.056  46.153  1.00  0.00     0.237 C 
HETATM   24  C12 UNL     1       0.624  19.606  44.776  1.00  0.00     0.029 C 
HETATM   25  C13 UNL     1       0.070  18.214  44.992  1.00  0.00     0.029 C 
HETATM   26  C14 UNL     1       0.720  17.866  46.348  1.00  0.00     0.237 C 
ENDBRANCH  20  21
ENDBRANCH   1  20
TORSDOF 5
ENDMDL
MODEL 3
REMARK VINA RESULT: -6.548656321      0.819      1.329
REMARK  5 active torsions:
REMARK  status: ('A' for Active; 'I' for Inactive)
REMARK    1  A    between atoms: N1_2  and  C2_3 
REMARK    2  A    between atoms: C2_3  and  C3_4 
REMARK    3  A    between atoms: C7_13  and  C8_14 
REMARK    4  A    between atoms: C8_14  and  C9_15 
REMARK    5  A    between atoms: C9_15  and  N3_16 
REMARK       I    between atoms: N3_16  and  C10_18 
ROOT
HETATM    1  C3  UNL     1       5.908  18.841  50.842  1.00  0.00     0.056 C 
HETATM    2 BR1  UNL     1       5.434  17.025  50.370  1.00  0.00    -0.083 Br
HETATM    3  C4  UNL     1       5.945  18.915  52.334  1.00  0.00     0.081 C 
HETATM    4  C5  UNL     1       7.037  17.917  52.636  1.00  0.00     0.022 C 
HETATM    5  N2  UNL     1       7.195  17.271  53.735  1.00  0.00    -0.401 N 
ATOM      6  H21 UNL     1       7.933  16.597  53.939  1.00  0.00     0.156 HD
ATOM      7  H22 UNL     1       6.609  17.337  54.567  1.00  0.00     0.156 HD
HETATM    8  C6  UNL     1       7.872  17.824  51.450  1.00  0.00     0.037 C 
HETATM    9  S1  UNL     1       9.064  16.790  51.107  1.00  0.00    -0.082 SA
HETATM   10  C7  UNL     1       7.404  18.931  50.528  1.00  0.00     0.054 C 
ENDROOT
BRANCH  10  11
HETATM   11  C8  UNL     1       8.024  20.231  50.952  1.00  0.00     0.031 C 
BRANCH  11  12
HETATM   12  C9  UNL     1       9.348  20.454  50.205  1.00  0.00     0.123 C 
BRANCH  12  13
HETATM   13  N3  UNL     1       9.420  21.793  49.660  1.00  0.00    -0.365 N 
HETATM   14  C10 UNL     1      10.021  22.042  48.395  1.00  0.00     0.181 C 
HETATM   15  N4  UNL     1      10.845  21.172  47.935  1.00  0.00    -0.374 N 
HETATM   16  N5  UNL     1       9.707  23.226  47.678  1.00  0.00    -0.064 NA
ATOM     17  H42 UNL     1      11.071  20.321  48.450  1.00  0.00     0.158 HD
ATOM     18  H41 UNL     1      11.277  21.351  47.028  1.00  0.00     0.158 HD
ATOM     19  H3  UNL     1       9.033  22.572  50.192  1.00  0.00     0.162 HD
ENDBRANCH  12  13
ENDBRANCH  11  12
ENDBRANCH  10  11
BRANCH   1  20
HETATM   20  C2  UNL     1       5.183  19.877  50.117  1.00  0.00     0.259 C 
BRANCH  20  21
HETATM   21  N1  UNL     1       3.838  20.156  50.427  1.00  0.00    -0.069 N 
HETATM   22  C1  UNL     1       2.895  19.771  49.396  1.00  0.00     0.272 C 
HETATM   23  C11 UNL     1       3.478  19.351  51.612  1.00  0.00     0.237 C 
HETATM   24  C12 UNL     1       2.170  19.938  52.091  1.00  0.00     0.029 C 
HETATM   25  C13 UNL     1       2.035  21.235  51.323  1.00  0.00     0.029 C 
HETATM   26  C14 UNL     1       3.501  21.458  50.899  1.00  0.00     0.237 C 
ENDBRANCH  20  21
ENDBRANCH   1  20
TORSDOF 5
ENDMDL
MODEL 4
REMARK VINA RESULT: -6.361862694      2.371      4.924
REMARK  5 active torsions:
REMARK  status: ('A' for Active; 'I' for Inactive)
REMARK    1  A    between atoms: N1_2  and  C2_3 
REMARK    2  A    between atoms: C2_3  and  C3_4 
REMARK    3  A    between atoms: C7_13  and  C8_14 
REMARK    4  A    between atoms: C8_14  and  C9_15 
REMARK    5  A    between atoms: C9_15  and  N3_16 
REMARK       I    between atoms: N3_16  and  C10_18 
ROOT
HETATM    1  C3  UNL     1       7.635  18.527  51.570  1.00  0.00     0.056 C 
HETATM    2 BR1  UNL     1       6.571  18.655  53.183  1.00  0.00    -0.083 Br
HETATM    3  C4  UNL     1       6.764  17.927  50.514  1.00  0.00     0.081 C 
HETATM    4  C5  UNL     1       5.674  18.966  50.427  1.00  0.00     0.022 C 
HETATM    5  N2  UNL     1       4.473  18.777  50.010  1.00  0.00    -0.401 N 
ATOM      6  H21 UNL     1       3.736  19.480  49.950  1.00  0.00     0.156 HD
ATOM      7  H22 UNL     1       4.079  17.898  49.675  1.00  0.00     0.156 HD
HETATM    8  C6  UNL     1       6.236  20.219  50.904  1.00  0.00     0.037 C 
HETATM    9  S1  UNL     1       5.503  21.622  51.225  1.00  0.00    -0.082 SA
HETATM   10  C7  UNL     1       7.721  19.969  51.064  1.00  0.00     0.054 C 
ENDROOT
BRANCH  10  11
HETATM   11  C8  UNL     1       8.395  20.092  49.728  1.00  0.00     0.031 C 
BRANCH  11  12
HETATM   12  C9  UNL     1       9.590  21.052  49.824  1.00  0.00     0.123 C 
BRANCH  12  13
HETATM   13  N3  UNL     1       9.169  22.427  49.661  1.00  0.00    -0.365 N 
HETATM   14  C10 UNL     1       9.500  23.166  48.492  1.00  0.00     0.181 C 
HETATM   15  N4  UNL     1      10.494  22.766  47.784  1.00  0.00    -0.374 N 
HETATM   16  N5  UNL     1       8.743  24.312  48.135  1.00  0.00    -0.064 NA
ATOM     17  H42 UNL     1      11.037  21.942  48.041  1.00  0.00     0.158 HD
ATOM     18  H41 UNL     1      10.732  23.296  46.945  1.00  0.00     0.158 HD
ATOM     19  H3  UNL     1       8.625  22.875  50.398  1.00  0.00     0.162 HD
ENDBRANCH  12  13
ENDBRANCH  11  12
ENDBRANCH  10  11
BRANCH   1  20
HETATM   20  C2  UNL     1       8.973  17.981  51.755  1.00  0.00     0.259 C 
BRANCH  20  21
HETATM   21  N1  UNL     1       9.149  16.669  52.235  1.00  0.00    -0.069 N 
HETATM   22  C1  UNL     1       9.576  15.717  51.230  1.00  0.00     0.272 C 
HETATM   23  C11 UNL     1      10.236  16.703  53.234  1.00  0.00     0.237 C 
HETATM   24  C12 UNL     1      10.144  15.373  53.946  1.00  0.00     0.029 C 
HETATM   25  C13 UNL     1       8.814  14.800  53.505  1.00  0.00     0.029 C 
HETATM   26  C14 UNL     1       8.110  16.083  53.016  1.00  0.00     0.237 C 
ENDBRANCH  20  21
ENDBRANCH   1  20
TORSDOF 5
ENDMDL
MODEL 5
REMARK VINA RESULT: -6.038189765      2.446      4.659
REMARK  5 active torsions:
REMARK  status: ('A' for Active; 'I' for Inactive)
REMARK    1  A    between atoms: N1_2  and  C2_3 
REMARK    2  A    between atoms: C2_3  and  C3_4 
REMARK    3  A    between atoms: C7_13  and  C8_14 
REMARK    4  A    between atoms: C8_14  and  C9_15 
REMARK    5  A    between atoms: C9_15  and  N3_16 
REMARK       I    between atoms: N3_16  and  C10_18 
ROOT
HETATM    1  C3  UNL     1       6.986  19.055  51.106  1.00  0.00     0.056 C 
HETATM    2 BR1  UNL     1       6.454  19.113  52.966  1.00  0.00    -0.083 Br
HETATM    3  C4  UNL     1       5.852  19.611  50.305  1.00  0.00     0.081 C 
HETATM    4  C5  UNL     1       5.779  21.013  50.861  1.00  0.00     0.022 C 
HETATM    5  N2  UNL     1       4.749  21.781  50.854  1.00  0.00    -0.401 N 
ATOM      6  H21 UNL     1       4.699  22.728  51.228  1.00  0.00     0.156 HD
ATOM      7  H22 UNL     1       3.829  21.560  50.473  1.00  0.00     0.156 HD
HETATM    8  C6  UNL     1       7.089  21.328  51.403  1.00  0.00     0.037 C 
HETATM    9  S1  UNL     1       7.561  22.591  52.292  1.00  0.00    -0.082 SA
HETATM   10  C7  UNL     1       7.998  20.196  50.970  1.00  0.00     0.054 C 
ENDROOT
BRANCH  10  11
HETATM   11  C8  UNL     1       8.447  20.428  49.557  1.00  0.00     0.031 C 
BRANCH  11  12
HETATM   12  C9  UNL     1       9.821  21.115  49.544  1.00  0.00     0.123 C 
BRANCH  12  13
HETATM   13  N3  UNL     1       9.695  22.533  49.282  1.00  0.00    -0.365 N 
HETATM   14  C10 UNL     1       9.830  23.053  47.965  1.00  0.00     0.181 C 
HETATM   15  N4  UNL     1      10.456  22.346  47.096  1.00  0.00    -0.374 N 
HETATM   16  N5  UNL     1       9.282  24.322  47.642  1.00  0.00    -0.064 NA
ATOM     17  H42 UNL     1      10.849  21.434  47.329  1.00  0.00     0.158 HD
ATOM     18  H41 UNL     1      10.553  22.720  46.152  1.00  0.00     0.158 HD
ATOM     19  H3  UNL     1       9.505  23.170  50.055  1.00  0.00     0.162 HD
ENDBRANCH  12  13
ENDBRANCH  11  12
ENDBRANCH  10  11
BRANCH   1  20
HETATM   20  C2  UNL     1       7.586  17.800  50.673  1.00  0.00     0.259 C 
BRANCH  20  21
HETATM   21  N1  UNL     1       8.120  16.902  51.618  1.00  0.00    -0.069 N 
HETATM   22  C1  UNL     1       7.125  16.214  52.416  1.00  0.00     0.272 C 
HETATM   23  C11 UNL     1       8.829  15.843  50.872  1.00  0.00     0.237 C 
HETATM   24  C12 UNL     1       9.651  15.123  51.918  1.00  0.00     0.029 C 
HETATM   25  C13 UNL     1       9.584  16.022  53.134  1.00  0.00     0.029 C 
HETATM   26  C14 UNL     1       9.168  17.352  52.472  1.00  0.00     0.237 C 
ENDBRANCH  20  21
ENDBRANCH   1  20
TORSDOF 5
ENDMDL
