MODEL 1
REMARK VINA RESULT: -6.925113260      0.000      0.000
REMARK  6 active torsions:
REMARK  status: ('A' for Active; 'I' for Inactive)
REMARK    1  A    between atoms: C9_12  and  C10_13 
REMARK    2  A    between atoms: C10_13  and  N2_14 
REMARK    3  A    between atoms: N2_14  and  C11_15 
REMARK    4  A    between atoms: N2_14  and  C13_17 
REMARK    5  A    between atoms: C13_17  and  C14_18 
REMARK    6  A    between atoms: C14_18  and  O1_19 
ROOT
HETATM    1  C1  UNL     1       5.349  21.675  54.259  1.00  0.00     0.043 C 
HETATM    2  C2  UNL     1       5.336  20.755  53.317  1.00  0.00     0.024 A 
HETATM    3  C3  UNL     1       6.438  19.837  53.130  1.00  0.00     0.029 A 
HETATM    4  C4  UNL     1       6.389  18.926  52.177  1.00  0.00     0.017 A 
HETATM    5  C5  UNL     1       5.238  18.803  51.281  1.00  0.00     0.009 A 
HETATM    6  C6  UNL     1       5.273  17.829  50.309  1.00  0.00     0.032 A 
HETATM    7  C7  UNL     1       4.184  17.739  49.475  1.00  0.00     0.028 A 
HETATM    8  C8  UNL     1       3.959  16.864  48.401  1.00  0.00     0.093 A 
HETATM    9 BR1  UNL     1       5.167  15.500  47.800  1.00  0.00    -0.030 Br
HETATM   10  N1  UNL     1       2.763  17.200  47.920  1.00  0.00    -0.347 N 
ATOM     11  H1  UNL     1       2.317  16.741  47.127  1.00  0.00     0.167 HD
HETATM   12  C9  UNL     1       2.216  18.219  48.606  1.00  0.00     0.076 A 
HETATM   13  C15 UNL     1       3.121  18.602  49.638  1.00  0.00     0.077 A 
HETATM   14  N3  UNL     1       3.105  19.550  50.598  1.00  0.00    -0.334 N 
HETATM   15  C16 UNL     1       1.996  20.439  50.776  1.00  0.00     0.158 C 
HETATM   16  C17 UNL     1       4.172  19.676  51.449  1.00  0.00     0.118 A 
HETATM   17  N4  UNL     1       4.178  20.673  52.459  1.00  0.00    -0.342 N 
ATOM     18  H4  UNL     1       3.391  21.311  52.575  1.00  0.00     0.167 HD
ENDROOT
BRANCH  12  19
HETATM   19  C10 UNL     1       0.960  18.917  48.416  1.00  0.00     0.121 C 
BRANCH  19  20
HETATM   20  N2  UNL     1       0.399  19.008  47.082  1.00  0.00    -0.366 N 
BRANCH  20  21
HETATM   21  C11 UNL     1       1.082  19.964  46.298  1.00  0.00     0.123 C 
HETATM   22  C12 UNL     1       0.692  19.660  44.833  1.00  0.00     0.027 C 
ENDBRANCH  20  21
BRANCH  20  23
HETATM   23  C13 UNL     1      -0.966  18.801  46.971  1.00  0.00     0.089 C 
BRANCH  23  24
HETATM   24  C14 UNL     1      -1.857  19.631  47.852  1.00  0.00     0.208 C 
BRANCH  24  25
HETATM   25  O1  UNL     1      -2.797  20.412  47.240  1.00  0.00    -0.396 OA
ATOM     26  H1  UNL     1      -3.048  21.218  47.677  1.00  0.00     0.209 HD
ENDBRANCH  24  25
ENDBRANCH  23  24
ENDBRANCH  20  23
ENDBRANCH  19  20
ENDBRANCH  12  19
TORSDOF 6
ENDMDL
MODEL 2
REMARK VINA RESULT: -6.680787328      5.292      7.348
REMARK  6 active torsions:
REMARK  status: ('A' for Active; 'I' for Inactive)
REMARK    1  A    between atoms: C9_12  and  C10_13 
REMARK    2  A    between atoms: C10_13  and  N2_14 
REMARK    3  A    between atoms: N2_14  and  C11_15 
REMARK    4  A    between atoms: N2_14  and  C13_17 
REMARK    5  A    between atoms: C13_17  and  C14_18 
REMARK    6  A    between atoms: C14_18  and  O1_19 
ROOT
HETATM    1  C1  UNL     1       9.589  25.155  47.157  1.00  0.00     0.043 C 
HETATM    2  C2  UNL     1       9.531  23.971  47.729  1.00  0.00     0.024 A 
HETATM    3  C3  UNL     1      10.220  22.822  47.183  1.00  0.00     0.029 A 
HETATM    4  C4  UNL     1      10.140  21.652  47.786  1.00  0.00     0.017 A 
HETATM    5  C5  UNL     1       9.366  21.463  49.014  1.00  0.00     0.009 A 
HETATM    6  C6  UNL     1       9.331  20.206  49.572  1.00  0.00     0.032 A 
HETATM    7  C7  UNL     1       8.590  20.053  50.721  1.00  0.00     0.028 A 
HETATM    8  C8  UNL     1       8.367  18.896  51.485  1.00  0.00     0.093 A 
HETATM    9 BR1  UNL     1       9.079  17.155  51.109  1.00  0.00    -0.030 Br
HETATM   10  N1  UNL     1       7.572  19.283  52.481  1.00  0.00    -0.347 N 
ATOM     11  H1  UNL     1       7.230  18.662  53.213  1.00  0.00     0.167 HD
HETATM   12  C9  UNL     1       7.277  20.593  52.406  1.00  0.00     0.076 A 
HETATM   13  C15 UNL     1       7.927  21.135  51.260  1.00  0.00     0.077 A 
HETATM   14  N3  UNL     1       7.975  22.361  50.698  1.00  0.00    -0.334 N 
HETATM   15  C16 UNL     1       7.298  23.488  51.265  1.00  0.00     0.158 C 
HETATM   16  C17 UNL     1       8.700  22.556  49.551  1.00  0.00     0.118 A 
HETATM   17  N4  UNL     1       8.755  23.836  48.939  1.00  0.00    -0.342 N 
ATOM     18  H4  UNL     1       8.261  24.633  49.340  1.00  0.00     0.167 HD
ENDROOT
BRANCH  12  19
HETATM   19  C10 UNL     1       6.436  21.420  53.249  1.00  0.00     0.121 C 
BRANCH  19  20
HETATM   20  N2  UNL     1       5.032  21.085  53.389  1.00  0.00    -0.366 N 
BRANCH  20  21
HETATM   21  C11 UNL     1       4.378  21.068  52.138  1.00  0.00     0.123 C 
HETATM   22  C12 UNL     1       2.901  20.729  52.442  1.00  0.00     0.027 C 
ENDBRANCH  20  21
BRANCH  20  23
HETATM   23  C13 UNL     1       4.406  21.524  54.544  1.00  0.00     0.089 C 
BRANCH  23  24
HETATM   24  C14 UNL     1       5.222  22.360  55.489  1.00  0.00     0.208 C 
BRANCH  24  25
HETATM   25  O1  UNL     1       4.560  22.993  56.504  1.00  0.00    -0.396 OA
ATOM     26  H1  UNL     1       5.015  23.087  57.332  1.00  0.00     0.209 HD
ENDBRANCH  24  25
ENDBRANCH  23  24
ENDBRANCH  20  23
ENDBRANCH  19  20
ENDBRANCH  12  19
TORSDOF 6
ENDMDL
MODEL 3
REMARK VINA RESULT: -6.672053471      5.434      7.270
REMARK  6 active torsions:
REMARK  status: ('A' for Active; 'I' for Inactive)
REMARK    1  A    between atoms: C9_12  and  C10_13 
REMARK    2  A    between atoms: C10_13  and  N2_14 
REMARK    3  A    between atoms: N2_14  and  C11_15 
REMARK    4  A    between atoms: N2_14  and  C13_17 
REMARK    5  A    between atoms: C13_17  and  C14_18 
REMARK    6  A    between atoms: C14_18  and  O1_19 
ROOT
HETATM    1  C1  UNL     1      10.365  22.198  47.525  1.00  0.00     0.043 C 
HETATM    2  C2  UNL     1       9.628  22.166  48.616  1.00  0.00     0.024 A 
HETATM    3  C3  UNL     1       9.182  23.374  49.275  1.00  0.00     0.029 A 
HETATM    4  C4  UNL     1       8.444  23.302  50.365  1.00  0.00     0.017 A 
HETATM    5  C5  UNL     1       8.047  22.019  50.949  1.00  0.00     0.009 A 
HETATM    6  C6  UNL     1       7.282  22.037  52.093  1.00  0.00     0.032 A 
HETATM    7  C7  UNL     1       6.929  20.819  52.627  1.00  0.00     0.028 A 
HETATM    8  C8  UNL     1       6.178  20.541  53.780  1.00  0.00     0.093 A 
HETATM    9 BR1  UNL     1       5.410  21.848  54.955  1.00  0.00    -0.030 Br
HETATM   10  N1  UNL     1       6.139  19.212  53.859  1.00  0.00    -0.347 N 
ATOM     11  H1  UNL     1       5.661  18.697  54.598  1.00  0.00     0.167 HD
HETATM   12  C9  UNL     1       6.806  18.630  52.846  1.00  0.00     0.076 A 
HETATM   13  C15 UNL     1       7.341  19.655  52.014  1.00  0.00     0.077 A 
HETATM   14  N3  UNL     1       8.091  19.659  50.892  1.00  0.00    -0.334 N 
HETATM   15  C16 UNL     1       8.508  18.451  50.247  1.00  0.00     0.158 C 
HETATM   16  C17 UNL     1       8.466  20.852  50.329  1.00  0.00     0.118 A 
HETATM   17  N4  UNL     1       9.263  20.877  49.154  1.00  0.00    -0.342 N 
ATOM     18  H4  UNL     1       9.567  20.013  48.704  1.00  0.00     0.167 HD
ENDROOT
BRANCH  12  19
HETATM   19  C10 UNL     1       7.043  17.230  52.554  1.00  0.00     0.121 C 
BRANCH  19  20
HETATM   20  N2  UNL     1       5.942  16.412  52.084  1.00  0.00    -0.366 N 
BRANCH  20  21
HETATM   21  C11 UNL     1       6.061  15.078  52.531  1.00  0.00     0.123 C 
HETATM   22  C12 UNL     1       6.209  15.163  54.068  1.00  0.00     0.027 C 
ENDBRANCH  20  21
BRANCH  20  23
HETATM   23  C13 UNL     1       5.426  16.730  50.839  1.00  0.00     0.089 C 
BRANCH  23  24
HETATM   24  C14 UNL     1       5.658  15.742  49.730  1.00  0.00     0.208 C 
BRANCH  24  25
HETATM   25  O1  UNL     1       6.595  16.061  48.788  1.00  0.00    -0.396 OA
ATOM     26  H1  UNL     1       6.284  16.294  47.921  1.00  0.00     0.209 HD
ENDBRANCH  24  25
ENDBRANCH  23  24
ENDBRANCH  20  23
ENDBRANCH  19  20
ENDBRANCH  12  19
TORSDOF 6
ENDMDL
MODEL 4
REMARK VINA RESULT: -6.628558376      5.270      7.325
REMARK  6 active torsions:
REMARK  status: ('A' for Active; 'I' for Inactive)
REMARK    1  A    between atoms: C9_12  and  C10_13 
REMARK    2  A    between atoms: C10_13  and  N2_14 
REMARK    3  A    between atoms: N2_14  and  C11_15 
REMARK    4  A    between atoms: N2_14  and  C13_17 
REMARK    5  A    between atoms: C13_17  and  C14_18 
REMARK    6  A    between atoms: C14_18  and  O1_19 
ROOT
HETATM    1  C1  UNL     1       8.195  14.132  51.497  1.00  0.00     0.043 C 
HETATM    2  C2  UNL     1       7.371  15.159  51.470  1.00  0.00     0.024 A 
HETATM    3  C3  UNL     1       5.935  14.988  51.424  1.00  0.00     0.029 A 
HETATM    4  C4  UNL     1       5.142  16.040  51.401  1.00  0.00     0.017 A 
HETATM    5  C5  UNL     1       5.666  17.407  51.422  1.00  0.00     0.009 A 
HETATM    6  C6  UNL     1       4.766  18.448  51.387  1.00  0.00     0.032 A 
HETATM    7  C7  UNL     1       5.283  19.722  51.398  1.00  0.00     0.028 A 
HETATM    8  C8  UNL     1       4.610  20.953  51.355  1.00  0.00     0.093 A 
HETATM    9 BR1  UNL     1       2.707  21.183  51.272  1.00  0.00    -0.030 Br
HETATM   10  N1  UNL     1       5.569  21.877  51.376  1.00  0.00    -0.347 N 
ATOM     11  H1  UNL     1       5.396  22.882  51.353  1.00  0.00     0.167 HD
HETATM   12  C9  UNL     1       6.795  21.325  51.429  1.00  0.00     0.076 A 
HETATM   13  C15 UNL     1       6.649  19.909  51.445  1.00  0.00     0.077 A 
HETATM   14  N3  UNL     1       7.515  18.874  51.480  1.00  0.00    -0.334 N 
HETATM   15  C16 UNL     1       8.933  19.067  51.541  1.00  0.00     0.158 C 
HETATM   16  C17 UNL     1       7.041  17.588  51.466  1.00  0.00     0.118 A 
HETATM   17  N4  UNL     1       7.937  16.487  51.492  1.00  0.00    -0.342 N 
ATOM     18  H4  UNL     1       8.946  16.629  51.525  1.00  0.00     0.167 HD
ENDROOT
BRANCH  12  19
HETATM   19  C10 UNL     1       8.107  21.942  51.439  1.00  0.00     0.121 C 
BRANCH  19  20
HETATM   20  N2  UNL     1       8.638  22.489  50.205  1.00  0.00    -0.366 N 
BRANCH  20  21
HETATM   21  C11 UNL     1       8.137  23.786  49.958  1.00  0.00     0.123 C 
HETATM   22  C12 UNL     1       8.697  24.195  48.576  1.00  0.00     0.027 C 
ENDBRANCH  20  21
BRANCH  20  23
HETATM   23  C13 UNL     1       8.884  21.585  49.185  1.00  0.00     0.089 C 
BRANCH  23  24
HETATM   24  C14 UNL     1      10.314  21.180  48.962  1.00  0.00     0.208 C 
BRANCH  24  25
HETATM   25  O1  UNL     1      10.782  21.204  47.678  1.00  0.00    -0.396 OA
ATOM     26  H1  UNL     1      10.299  20.709  47.026  1.00  0.00     0.209 HD
ENDBRANCH  24  25
ENDBRANCH  23  24
ENDBRANCH  20  23
ENDBRANCH  19  20
ENDBRANCH  12  19
TORSDOF 6
ENDMDL
MODEL 5
REMARK VINA RESULT: -6.608529725      2.431      3.791
REMARK  6 active torsions:
REMARK  status: ('A' for Active; 'I' for Inactive)
REMARK    1  A    between atoms: C9_12  and  C10_13 
REMARK    2  A    between atoms: C10_13  and  N2_14 
REMARK    3  A    between atoms: N2_14  and  C11_15 
REMARK    4  A    between atoms: N2_14  and  C13_17 
REMARK    5  A    between atoms: C13_17  and  C14_18 
REMARK    6  A    between atoms: C14_18  and  O1_19 
ROOT
HETATM    1  C1  UNL     1       7.871  14.266  49.880  1.00  0.00     0.043 C 
HETATM    2  C2  UNL     1       7.037  15.230  50.211  1.00  0.00     0.024 A 
HETATM    3  C3  UNL     1       7.239  16.047  51.388  1.00  0.00     0.029 A 
HETATM    4  C4  UNL     1       6.384  17.005  51.686  1.00  0.00     0.017 A 
HETATM    5  C5  UNL     1       5.211  17.284  50.855  1.00  0.00     0.009 A 
HETATM    6  C6  UNL     1       4.366  18.298  51.244  1.00  0.00     0.032 A 
HETATM    7  C7  UNL     1       3.268  18.535  50.452  1.00  0.00     0.028 A 
HETATM    8  C8  UNL     1       2.244  19.481  50.614  1.00  0.00     0.093 A 
HETATM    9 BR1  UNL     1       2.115  20.752  52.047  1.00  0.00    -0.030 Br
HETATM   10  N1  UNL     1       1.420  19.286  49.586  1.00  0.00    -0.347 N 
ATOM     11  H1  UNL     1       0.570  19.826  49.424  1.00  0.00     0.167 HD
HETATM   12  C9  UNL     1       1.844  18.291  48.788  1.00  0.00     0.076 A 
HETATM   13  C15 UNL     1       3.057  17.770  49.324  1.00  0.00     0.077 A 
HETATM   14  N3  UNL     1       3.898  16.780  48.958  1.00  0.00    -0.334 N 
HETATM   15  C16 UNL     1       3.687  15.994  47.780  1.00  0.00     0.158 C 
HETATM   16  C17 UNL     1       5.004  16.510  49.722  1.00  0.00     0.118 A 
HETATM   17  N4  UNL     1       5.895  15.466  49.360  1.00  0.00    -0.342 N 
ATOM     18  H4  UNL     1       5.735  14.902  48.525  1.00  0.00     0.167 HD
ENDROOT
BRANCH  12  19
HETATM   19  C10 UNL     1       1.254  17.727  47.590  1.00  0.00     0.121 C 
BRANCH  19  20
HETATM   20  N2  UNL     1       0.341  18.536  46.805  1.00  0.00    -0.366 N 
BRANCH  20  21
HETATM   21  C11 UNL     1       0.959  19.725  46.358  1.00  0.00     0.123 C 
HETATM   22  C12 UNL     1       0.717  19.774  44.832  1.00  0.00     0.027 C 
ENDBRANCH  20  21
BRANCH  20  23
HETATM   23  C13 UNL     1      -0.994  18.490  47.171  1.00  0.00     0.089 C 
BRANCH  23  24
HETATM   24  C14 UNL     1      -1.583  19.738  47.766  1.00  0.00     0.208 C 
BRANCH  24  25
HETATM   25  O1  UNL     1      -2.728  20.226  47.200  1.00  0.00    -0.396 OA
ATOM     26  H1  UNL     1      -2.772  21.162  47.039  1.00  0.00     0.209 HD
ENDBRANCH  24  25
ENDBRANCH  23  24
ENDBRANCH  20  23
ENDBRANCH  19  20
ENDBRANCH  12  19
TORSDOF 6
ENDMDL
