MODEL 1
REMARK VINA RESULT: -6.361328086      0.000      0.000
REMARK  4 active torsions:
REMARK  status: ('A' for Active; 'I' for Inactive)
REMARK    1  A    between atoms: C3_3  and  O1_4 
REMARK    2  A    between atoms: O1_4  and  C4_5 
REMARK    3  A    between atoms: C9_12  and  O3_13 
REMARK    4  A    between atoms: C10_15  and  O4_16 
ROOT
HETATM    1  C1  UNL     1     -11.968 -43.353 -77.633  1.00  0.00     0.099 C 
HETATM    2  C2  UNL     1     -10.875 -43.886 -77.785  1.00  0.00    -0.162 C 
HETATM    3  C3  UNL     1      -9.580 -44.544 -77.963  1.00  0.00     0.247 C 
ENDROOT
BRANCH   3   4
HETATM    4  O1  UNL     1      -8.600 -43.566 -77.847  1.00  0.00    -0.369 OA
BRANCH   4   5
HETATM    5  C4  UNL     1      -8.674 -42.600 -78.817  1.00  0.00     0.196 C 
HETATM    6  C5  UNL     1      -7.555 -42.680 -79.827  1.00  0.00     0.259 C 
HETATM    7  C6  UNL     1      -7.968 -42.047 -81.103  1.00  0.00     0.094 C 
HETATM    8  O2  UNL     1      -6.390 -42.093 -79.419  1.00  0.00    -0.361 OA
HETATM    9  N1  UNL     1      -8.298 -41.546 -82.090  1.00  0.00    -0.194 NA
HETATM   10  C7  UNL     1      -6.373 -41.650 -78.121  1.00  0.00     0.150 C 
HETATM   11  C8  UNL     1      -4.991 -41.028 -77.880  1.00  0.00     0.042 C 
HETATM   12  C9  UNL     1      -7.441 -40.605 -77.942  1.00  0.00     0.178 C 
HETATM   13  C10 UNL     1      -8.785 -41.250 -78.182  1.00  0.00     0.181 C 
BRANCH  12  14
HETATM   14  O3  UNL     1      -7.377 -40.020 -76.665  1.00  0.00    -0.390 OA
ATOM     15  H3  UNL     1      -6.850 -40.542 -76.071  1.00  0.00     0.210 HD
ENDBRANCH  12  14
BRANCH  13  16
HETATM   16  O4  UNL     1      -9.573 -40.372 -78.934  1.00  0.00    -0.390 OA
ATOM     17  H4  UNL     1      -9.182 -39.509 -79.009  1.00  0.00     0.210 HD
ENDBRANCH  13  16
ENDBRANCH   4   5
ENDBRANCH   3   4
TORSDOF 4
ENDMDL
MODEL 2
REMARK VINA RESULT: -6.324782909      1.733      2.976
REMARK  4 active torsions:
REMARK  status: ('A' for Active; 'I' for Inactive)
REMARK    1  A    between atoms: C3_3  and  O1_4 
REMARK    2  A    between atoms: O1_4  and  C4_5 
REMARK    3  A    between atoms: C9_12  and  O3_13 
REMARK    4  A    between atoms: C10_15  and  O4_16 
ROOT
HETATM    1  C1  UNL     1     -11.276 -43.914 -77.744  1.00  0.00     0.099 C 
HETATM    2  C2  UNL     1     -10.094 -44.008 -78.053  1.00  0.00    -0.162 C 
HETATM    3  C3  UNL     1      -8.686 -44.141 -78.433  1.00  0.00     0.247 C 
ENDROOT
BRANCH   3   4
HETATM    4  O1  UNL     1      -7.964 -43.239 -77.661  1.00  0.00    -0.369 OA
BRANCH   4   5
HETATM    5  C4  UNL     1      -7.290 -42.302 -78.402  1.00  0.00     0.196 C 
HETATM    6  C5  UNL     1      -6.732 -41.172 -77.571  1.00  0.00     0.259 C 
HETATM    7  C6  UNL     1      -5.584 -40.540 -78.268  1.00  0.00     0.094 C 
HETATM    8  O2  UNL     1      -7.639 -40.194 -77.275  1.00  0.00    -0.361 OA
HETATM    9  N1  UNL     1      -4.697 -40.052 -78.822  1.00  0.00    -0.194 NA
HETATM   10  C7  UNL     1      -8.932 -40.452 -77.653  1.00  0.00     0.150 C 
HETATM   11  C8  UNL     1      -9.771 -39.236 -77.234  1.00  0.00     0.042 C 
HETATM   12  C9  UNL     1      -8.987 -40.619 -79.147  1.00  0.00     0.178 C 
HETATM   13  C10 UNL     1      -8.157 -41.823 -79.523  1.00  0.00     0.181 C 
BRANCH  12  14
HETATM   14  O3  UNL     1     -10.310 -40.750 -79.601  1.00  0.00    -0.390 OA
ATOM     15  H3  UNL     1     -10.379 -40.558 -80.529  1.00  0.00     0.210 HD
ENDBRANCH  12  14
BRANCH  13  16
HETATM   16  O4  UNL     1      -7.418 -41.515 -80.672  1.00  0.00    -0.390 OA
ATOM     17  H4  UNL     1      -6.559 -41.166 -80.465  1.00  0.00     0.210 HD
ENDBRANCH  13  16
ENDBRANCH   4   5
ENDBRANCH   3   4
TORSDOF 4
ENDMDL
MODEL 3
REMARK VINA RESULT: -6.297476783      2.692      3.966
REMARK  4 active torsions:
REMARK  status: ('A' for Active; 'I' for Inactive)
REMARK    1  A    between atoms: C3_3  and  O1_4 
REMARK    2  A    between atoms: O1_4  and  C4_5 
REMARK    3  A    between atoms: C9_12  and  O3_13 
REMARK    4  A    between atoms: C10_15  and  O4_16 
ROOT
HETATM    1  C1  UNL     1     -10.937 -39.456 -74.452  1.00  0.00     0.099 C 
HETATM    2  C2  UNL     1     -10.425 -39.319 -75.556  1.00  0.00    -0.162 C 
HETATM    3  C3  UNL     1      -9.825 -39.134 -76.879  1.00  0.00     0.247 C 
ENDROOT
BRANCH   3   4
HETATM    4  O1  UNL     1      -9.181 -40.321 -77.208  1.00  0.00    -0.369 OA
BRANCH   4   5
HETATM    5  C4  UNL     1     -10.012 -41.256 -77.770  1.00  0.00     0.196 C 
HETATM    6  C5  UNL     1      -9.303 -42.533 -78.153  1.00  0.00     0.259 C 
HETATM    7  C6  UNL     1     -10.265 -43.661 -78.199  1.00  0.00     0.094 C 
HETATM    8  O2  UNL     1      -8.658 -42.476 -79.356  1.00  0.00    -0.361 OA
HETATM    9  N1  UNL     1     -11.024 -44.530 -78.238  1.00  0.00    -0.194 NA
HETATM   10  C7  UNL     1      -8.635 -41.243 -79.957  1.00  0.00     0.150 C 
HETATM   11  C8  UNL     1      -7.875 -41.407 -81.281  1.00  0.00     0.042 C 
HETATM   12  C9  UNL     1     -10.047 -40.802 -80.232  1.00  0.00     0.178 C 
HETATM   13  C10 UNL     1     -10.763 -40.647 -78.911  1.00  0.00     0.181 C 
BRANCH  12  14
HETATM   14  O3  UNL     1     -10.076 -39.606 -80.970  1.00  0.00    -0.390 OA
ATOM     15  H3  UNL     1     -10.897 -39.144 -80.848  1.00  0.00     0.210 HD
ENDBRANCH  12  14
BRANCH  13  16
HETATM   16  O4  UNL     1     -12.054 -41.174 -79.039  1.00  0.00    -0.390 OA
ATOM     17  H4  UNL     1     -12.701 -40.502 -79.220  1.00  0.00     0.210 HD
ENDBRANCH  13  16
ENDBRANCH   4   5
ENDBRANCH   3   4
TORSDOF 4
ENDMDL
MODEL 4
REMARK VINA RESULT: -6.206484750      2.675      4.591
REMARK  4 active torsions:
REMARK  status: ('A' for Active; 'I' for Inactive)
REMARK    1  A    between atoms: C3_3  and  O1_4 
REMARK    2  A    between atoms: O1_4  and  C4_5 
REMARK    3  A    between atoms: C9_12  and  O3_13 
REMARK    4  A    between atoms: C10_15  and  O4_16 
ROOT
HETATM    1  C1  UNL     1      -8.366 -41.195 -82.094  1.00  0.00     0.099 C 
HETATM    2  C2  UNL     1      -9.351 -40.673 -81.586  1.00  0.00    -0.162 C 
HETATM    3  C3  UNL     1     -10.538 -40.048 -81.000  1.00  0.00     0.247 C 
ENDROOT
BRANCH   3   4
HETATM    4  O1  UNL     1     -10.219 -39.699 -79.694  1.00  0.00    -0.369 OA
BRANCH   4   5
HETATM    5  C4  UNL     1     -10.070 -40.777 -78.861  1.00  0.00     0.196 C 
HETATM    6  C5  UNL     1     -11.287 -41.048 -78.009  1.00  0.00     0.259 C 
HETATM    7  C6  UNL     1     -11.314 -42.471 -77.589  1.00  0.00     0.094 C 
HETATM    8  O2  UNL     1     -11.368 -40.272 -76.887  1.00  0.00    -0.361 OA
HETATM    9  N1  UNL     1     -11.322 -43.578 -77.262  1.00  0.00    -0.194 NA
HETATM   10  C7  UNL     1     -10.421 -39.286 -76.780  1.00  0.00     0.150 C 
HETATM   11  C8  UNL     1     -10.691 -38.549 -75.460  1.00  0.00     0.042 C 
HETATM   12  C9  UNL     1      -9.055 -39.915 -76.741  1.00  0.00     0.178 C 
HETATM   13  C10 UNL     1      -8.820 -40.625 -78.053  1.00  0.00     0.181 C 
BRANCH  12  14
HETATM   14  O3  UNL     1      -8.056 -38.957 -76.495  1.00  0.00    -0.390 OA
ATOM     15  H3  UNL     1      -7.318 -39.337 -76.033  1.00  0.00     0.210 HD
ENDBRANCH  12  14
BRANCH  13  16
HETATM   16  O4  UNL     1      -8.204 -41.855 -77.790  1.00  0.00    -0.390 OA
ATOM     17  H4  UNL     1      -7.308 -41.885 -78.106  1.00  0.00     0.210 HD
ENDBRANCH  13  16
ENDBRANCH   4   5
ENDBRANCH   3   4
TORSDOF 4
ENDMDL
MODEL 5
REMARK VINA RESULT: -6.180798382      1.867      4.004
REMARK  4 active torsions:
REMARK  status: ('A' for Active; 'I' for Inactive)
REMARK    1  A    between atoms: C3_3  and  O1_4 
REMARK    2  A    between atoms: O1_4  and  C4_5 
REMARK    3  A    between atoms: C9_12  and  O3_13 
REMARK    4  A    between atoms: C10_15  and  O4_16 
ROOT
HETATM    1  C1  UNL     1     -11.018 -39.357 -75.006  1.00  0.00     0.099 C 
HETATM    2  C2  UNL     1     -10.199 -39.412 -75.916  1.00  0.00    -0.162 C 
HETATM    3  C3  UNL     1      -9.230 -39.457 -77.012  1.00  0.00     0.247 C 
ENDROOT
BRANCH   3   4
HETATM    4  O1  UNL     1      -8.687 -40.736 -77.030  1.00  0.00    -0.369 OA
BRANCH   4   5
HETATM    5  C4  UNL     1      -8.464 -41.218 -78.294  1.00  0.00     0.196 C 
HETATM    6  C5  UNL     1      -9.582 -40.904 -79.260  1.00  0.00     0.259 C 
HETATM    7  C6  UNL     1      -9.076 -40.915 -80.653  1.00  0.00     0.094 C 
HETATM    8  O2  UNL     1     -10.642 -41.764 -79.186  1.00  0.00    -0.361 OA
HETATM    9  N1  UNL     1      -8.672 -40.933 -81.735  1.00  0.00    -0.194 NA
HETATM   10  C7  UNL     1     -10.591 -42.681 -78.167  1.00  0.00     0.150 C 
HETATM   11  C8  UNL     1     -11.861 -43.537 -78.274  1.00  0.00     0.042 C 
HETATM   12  C9  UNL     1      -9.375 -43.549 -78.345  1.00  0.00     0.178 C 
HETATM   13  C10 UNL     1      -8.147 -42.678 -78.231  1.00  0.00     0.181 C 
BRANCH  12  14
HETATM   14  O3  UNL     1      -9.348 -44.594 -77.405  1.00  0.00    -0.390 OA
ATOM     15  H3  UNL     1      -9.641 -45.412 -77.788  1.00  0.00     0.210 HD
ENDBRANCH  12  14
BRANCH  13  16
HETATM   16  O4  UNL     1      -7.232 -43.066 -79.217  1.00  0.00    -0.390 OA
ATOM     17  H4  UNL     1      -7.219 -44.008 -79.347  1.00  0.00     0.210 HD
ENDBRANCH  13  16
ENDBRANCH   4   5
ENDBRANCH   3   4
TORSDOF 4
ENDMDL
