MODEL 1
REMARK VINA RESULT: -6.607457544      0.000      0.000
REMARK  4 active torsions:
REMARK  status: ('A' for Active; 'I' for Inactive)
REMARK    1  A    between atoms: C4_5  and  C5_6 
REMARK    2  A    between atoms: C5_6  and  O2_7 
REMARK    3  A    between atoms: C6_10  and  N1_11 
REMARK    4  A    between atoms: C10_17  and  O4_18 
ROOT
HETATM    1  C1  UNL     1      -8.315 -44.402 -81.149  1.00  0.00     0.015 C 
HETATM    2  C2  UNL     1      -8.034 -43.412 -80.546  1.00  0.00    -0.082 C 
HETATM    3  C3  UNL     1      -7.716 -42.203 -79.812  1.00  0.00     0.235 C 
HETATM    4  O1  UNL     1      -6.509 -42.329 -79.087  1.00  0.00    -0.339 OA
HETATM    5  C4  UNL     1      -6.259 -41.109 -78.477  1.00  0.00     0.287 C 
HETATM    6  O3  UNL     1      -7.201 -40.837 -77.473  1.00  0.00    -0.330 OA
HETATM    7  C6  UNL     1      -8.422 -40.651 -78.111  1.00  0.00     0.278 C 
HETATM    8  C10 UNL     1      -8.794 -41.964 -78.763  1.00  0.00     0.209 C 
ENDROOT
BRANCH   8   9
HETATM    9  O4  UNL     1     -10.057 -41.938 -79.322  1.00  0.00    -0.388 OA
ATOM     10  H4  UNL     1     -10.324 -42.796 -79.631  1.00  0.00     0.210 HD
ENDBRANCH   8   9
BRANCH   5  11
HETATM   11  C5  UNL     1      -4.852 -41.115 -77.887  1.00  0.00     0.224 C 
BRANCH  11  12
HETATM   12  O2  UNL     1      -3.988 -40.397 -78.696  1.00  0.00    -0.396 OA
ATOM     13  H2  UNL     1      -3.256 -40.068 -78.188  1.00  0.00     0.209 HD
ENDBRANCH  11  12
ENDBRANCH   5  11
BRANCH   7  14
HETATM   14  N1  UNL     1      -9.419 -40.149 -77.227  1.00  0.00    -0.272 N 
HETATM   15  C7  UNL     1      -9.398 -38.917 -76.690  1.00  0.00     0.114 A 
HETATM   16  C8  UNL     1     -10.532 -38.808 -75.889  1.00  0.00     0.037 A 
HETATM   17  C9  UNL     1     -11.204 -40.005 -75.978  1.00  0.00     0.108 A 
HETATM   18  N2  UNL     1     -10.484 -40.790 -76.806  1.00  0.00    -0.308 N 
ATOM     19  H2  UNL     1     -10.731 -41.744 -77.066  1.00  0.00     0.186 HD
ENDBRANCH   7  14
TORSDOF 4
ENDMDL
MODEL 2
REMARK VINA RESULT: -6.586197339      2.697      4.429
REMARK  4 active torsions:
REMARK  status: ('A' for Active; 'I' for Inactive)
REMARK    1  A    between atoms: C4_5  and  C5_6 
REMARK    2  A    between atoms: C5_6  and  O2_7 
REMARK    3  A    between atoms: C6_10  and  N1_11 
REMARK    4  A    between atoms: C10_17  and  O4_18 
ROOT
HETATM    1  C1  UNL     1      -5.873 -41.358 -77.726  1.00  0.00     0.015 C 
HETATM    2  C2  UNL     1      -6.915 -40.780 -77.699  1.00  0.00    -0.082 C 
HETATM    3  C3  UNL     1      -8.189 -40.088 -77.688  1.00  0.00     0.235 C 
HETATM    4  O1  UNL     1      -8.615 -39.792 -76.373  1.00  0.00    -0.339 OA
HETATM    5  C4  UNL     1      -9.800 -39.078 -76.470  1.00  0.00     0.287 C 
HETATM    6  O3  UNL     1     -10.841 -39.877 -76.966  1.00  0.00    -0.330 OA
HETATM    7  C6  UNL     1     -10.520 -40.179 -78.285  1.00  0.00     0.278 C 
HETATM    8  C10 UNL     1      -9.257 -41.009 -78.262  1.00  0.00     0.209 C 
ENDROOT
BRANCH   8   9
HETATM    9  O4  UNL     1      -8.910 -41.479 -79.514  1.00  0.00    -0.388 OA
ATOM     10  H4  UNL     1      -9.524 -42.133 -79.828  1.00  0.00     0.210 HD
ENDBRANCH   8   9
BRANCH   5  11
HETATM   11  C5  UNL     1     -10.173 -38.524 -75.098  1.00  0.00     0.224 C 
BRANCH  11  12
HETATM   12  O2  UNL     1     -10.207 -39.542 -74.161  1.00  0.00    -0.396 OA
ATOM     13  H2  UNL     1     -10.421 -39.195 -73.303  1.00  0.00     0.209 HD
ENDBRANCH  11  12
ENDBRANCH   5  11
BRANCH   7  14
HETATM   14  N1  UNL     1     -11.602 -40.800 -78.972  1.00  0.00    -0.272 N 
HETATM   15  C7  UNL     1     -12.660 -41.359 -78.361  1.00  0.00     0.114 A 
HETATM   16  C8  UNL     1     -13.488 -41.854 -79.366  1.00  0.00     0.037 A 
HETATM   17  C9  UNL     1     -12.881 -41.566 -80.566  1.00  0.00     0.108 A 
HETATM   18  N2  UNL     1     -11.732 -40.923 -80.272  1.00  0.00    -0.308 N 
ATOM     19  H2  UNL     1     -11.062 -40.582 -80.961  1.00  0.00     0.186 HD
ENDBRANCH   7  14
TORSDOF 4
ENDMDL
MODEL 3
REMARK VINA RESULT: -6.507256799      2.481      4.327
REMARK  4 active torsions:
REMARK  status: ('A' for Active; 'I' for Inactive)
REMARK    1  A    between atoms: C4_5  and  C5_6 
REMARK    2  A    between atoms: C5_6  and  O2_7 
REMARK    3  A    between atoms: C6_10  and  N1_11 
REMARK    4  A    between atoms: C10_17  and  O4_18 
ROOT
HETATM    1  C1  UNL     1      -5.227 -41.234 -77.729  1.00  0.00     0.015 C 
HETATM    2  C2  UNL     1      -6.363 -40.874 -77.742  1.00  0.00    -0.082 C 
HETATM    3  C3  UNL     1      -7.750 -40.452 -77.775  1.00  0.00     0.235 C 
HETATM    4  O1  UNL     1      -8.167 -39.915 -76.536  1.00  0.00    -0.339 OA
HETATM    5  C4  UNL     1      -9.476 -39.484 -76.688  1.00  0.00     0.287 C 
HETATM    6  O3  UNL     1     -10.353 -40.564 -76.873  1.00  0.00    -0.330 OA
HETATM    7  C6  UNL     1     -10.038 -41.128 -78.104  1.00  0.00     0.278 C 
HETATM    8  C10 UNL     1      -8.632 -41.673 -78.003  1.00  0.00     0.209 C 
ENDROOT
BRANCH   8   9
HETATM    9  O4  UNL     1      -8.255 -42.375 -79.132  1.00  0.00    -0.388 OA
ATOM     10  H4  UNL     1      -8.291 -43.314 -78.992  1.00  0.00     0.210 HD
ENDBRANCH   8   9
BRANCH   5  11
HETATM   11  C5  UNL     1      -9.890 -38.677 -75.461  1.00  0.00     0.224 C 
BRANCH  11  12
HETATM   12  O2  UNL     1     -10.021 -39.507 -74.361  1.00  0.00    -0.396 OA
ATOM     13  H2  UNL     1     -10.664 -39.154 -73.756  1.00  0.00     0.209 HD
ENDBRANCH  11  12
ENDBRANCH   5  11
BRANCH   7  14
HETATM   14  N1  UNL     1     -11.000 -42.096 -78.512  1.00  0.00    -0.272 N 
HETATM   15  C7  UNL     1     -11.851 -42.711 -77.675  1.00  0.00     0.114 A 
HETATM   16  C8  UNL     1     -12.621 -43.576 -78.449  1.00  0.00     0.037 A 
HETATM   17  C9  UNL     1     -12.191 -43.444 -79.748  1.00  0.00     0.108 A 
HETATM   18  N2  UNL     1     -11.201 -42.529 -79.735  1.00  0.00    -0.308 N 
ATOM     19  H2  UNL     1     -10.682 -42.218 -80.556  1.00  0.00     0.186 HD
ENDBRANCH   7  14
TORSDOF 4
ENDMDL
MODEL 4
REMARK VINA RESULT: -6.465785147      2.693      4.397
REMARK  4 active torsions:
REMARK  status: ('A' for Active; 'I' for Inactive)
REMARK    1  A    between atoms: C4_5  and  C5_6 
REMARK    2  A    between atoms: C5_6  and  O2_7 
REMARK    3  A    between atoms: C6_10  and  N1_11 
REMARK    4  A    between atoms: C10_17  and  O4_18 
ROOT
HETATM    1  C1  UNL     1      -5.912 -41.303 -77.997  1.00  0.00     0.015 C 
HETATM    2  C2  UNL     1      -7.024 -40.888 -77.890  1.00  0.00    -0.082 C 
HETATM    3  C3  UNL     1      -8.385 -40.399 -77.778  1.00  0.00     0.235 C 
HETATM    4  O1  UNL     1      -8.659 -39.900 -76.485  1.00  0.00    -0.339 OA
HETATM    5  C4  UNL     1      -9.953 -39.400 -76.497  1.00  0.00     0.287 C 
HETATM    6  O3  UNL     1     -10.898 -40.426 -76.644  1.00  0.00    -0.330 OA
HETATM    7  C6  UNL     1     -10.725 -40.947 -77.922  1.00  0.00     0.278 C 
HETATM    8  C10 UNL     1      -9.346 -41.564 -77.974  1.00  0.00     0.209 C 
ENDROOT
BRANCH   8   9
HETATM    9  O4  UNL     1      -9.109 -42.231 -79.161  1.00  0.00    -0.388 OA
ATOM     10  H4  UNL     1      -8.594 -41.707 -79.763  1.00  0.00     0.210 HD
ENDBRANCH   8   9
BRANCH   5  11
HETATM   11  C5  UNL     1     -10.212 -38.631 -75.205  1.00  0.00     0.224 C 
BRANCH  11  12
HETATM   12  O2  UNL     1     -10.186 -39.490 -74.120  1.00  0.00    -0.396 OA
ATOM     13  H2  UNL     1     -10.991 -39.992 -74.077  1.00  0.00     0.209 HD
ENDBRANCH  11  12
ENDBRANCH   5  11
BRANCH   7  14
HETATM   14  N1  UNL     1     -11.769 -41.848 -78.279  1.00  0.00    -0.272 N 
HETATM   15  C7  UNL     1     -12.894 -41.481 -78.917  1.00  0.00     0.114 A 
HETATM   16  C8  UNL     1     -13.656 -42.636 -79.083  1.00  0.00     0.037 A 
HETATM   17  C9  UNL     1     -12.943 -43.671 -78.526  1.00  0.00     0.108 A 
HETATM   18  N2  UNL     1     -11.800 -43.139 -78.048  1.00  0.00    -0.308 N 
ATOM     19  H2  UNL     1     -11.065 -43.664 -77.576  1.00  0.00     0.186 HD
ENDBRANCH   7  14
TORSDOF 4
ENDMDL
MODEL 5
REMARK VINA RESULT: -6.388287904      1.881      3.565
REMARK  4 active torsions:
REMARK  status: ('A' for Active; 'I' for Inactive)
REMARK    1  A    between atoms: C4_5  and  C5_6 
REMARK    2  A    between atoms: C5_6  and  O2_7 
REMARK    3  A    between atoms: C6_10  and  N1_11 
REMARK    4  A    between atoms: C10_17  and  O4_18 
ROOT
HETATM    1  C1  UNL     1      -4.871 -40.765 -79.050  1.00  0.00     0.015 C 
HETATM    2  C2  UNL     1      -6.041 -40.984 -78.985  1.00  0.00    -0.082 C 
HETATM    3  C3  UNL     1      -7.464 -41.244 -78.881  1.00  0.00     0.235 C 
HETATM    4  O1  UNL     1      -8.135 -40.992 -80.100  1.00  0.00    -0.339 OA
HETATM    5  C4  UNL     1      -9.468 -41.331 -79.919  1.00  0.00     0.287 C 
HETATM    6  O3  UNL     1     -10.102 -40.456 -79.024  1.00  0.00    -0.330 OA
HETATM    7  C6  UNL     1      -9.526 -40.674 -77.778  1.00  0.00     0.278 C 
HETATM    8  C10 UNL     1      -8.072 -40.274 -77.877  1.00  0.00     0.209 C 
ENDROOT
BRANCH   8   9
HETATM    9  O4  UNL     1      -7.424 -40.326 -76.657  1.00  0.00    -0.388 OA
ATOM     10  H4  UNL     1      -6.879 -39.561 -76.514  1.00  0.00     0.210 HD
ENDBRANCH   8   9
BRANCH   5  11
HETATM   11  C5  UNL     1     -10.183 -41.312 -81.267  1.00  0.00     0.224 C 
BRANCH  11  12
HETATM   12  O2  UNL     1     -10.541 -40.018 -81.603  1.00  0.00    -0.396 OA
ATOM     13  H2  UNL     1     -11.352 -40.017 -82.098  1.00  0.00     0.209 HD
ENDBRANCH  11  12
ENDBRANCH   5  11
BRANCH   7  14
HETATM   14  N1  UNL     1     -10.233 -40.007 -76.736  1.00  0.00    -0.272 N 
HETATM   15  C7  UNL     1     -11.333 -40.497 -76.139  1.00  0.00     0.114 A 
HETATM   16  C8  UNL     1     -11.723 -39.560 -75.185  1.00  0.00     0.037 A 
HETATM   17  C9  UNL     1     -10.823 -38.522 -75.250  1.00  0.00     0.108 A 
HETATM   18  N2  UNL     1      -9.934 -38.842 -76.212  1.00  0.00    -0.308 N 
ATOM     19  H2  UNL     1      -9.144 -38.262 -76.491  1.00  0.00     0.186 HD
ENDBRANCH   7  14
TORSDOF 4
ENDMDL
