MODEL 1
REMARK VINA RESULT: -6.138856061      0.000      0.000
REMARK  4 active torsions:
REMARK  status: ('A' for Active; 'I' for Inactive)
REMARK    1  A    between atoms: S1_2  and  C2_3 
REMARK    2  A    between atoms: C6_9  and  O3_10 
REMARK    3  A    between atoms: C6_9  and  C7_12 
REMARK    4  A    between atoms: C7_12  and  O4_13 
ROOT
HETATM    1  C2  UNL     1      -9.236 -42.590 -78.548  1.00  0.00     0.213 C 
HETATM    2  C3  UNL     1      -8.810 -43.952 -78.081  1.00  0.00     0.092 C 
HETATM    3  O1  UNL     1      -8.111 -41.945 -79.048  1.00  0.00    -0.336 OA
HETATM    4  C4  UNL     1      -8.126 -40.648 -78.587  1.00  0.00     0.184 C 
HETATM    5  C5  UNL     1      -7.378 -40.461 -77.285  1.00  0.00     0.206 C 
HETATM    6  O2  UNL     1      -8.076 -39.524 -76.554  1.00  0.00    -0.348 OA
HETATM    7  C6  UNL     1      -9.374 -39.472 -77.016  1.00  0.00     0.213 C 
HETATM    8  C8  UNL     1      -9.553 -40.528 -78.060  1.00  0.00     0.221 C 
HETATM    9  O5  UNL     1      -9.711 -41.790 -77.495  1.00  0.00    -0.333 OA
ENDROOT
BRANCH   7  10
HETATM   10  O3  UNL     1      -9.617 -38.229 -77.618  1.00  0.00    -0.362 OA
ATOM     11  H3  UNL     1      -9.403 -37.528 -77.013  1.00  0.00     0.213 HD
ENDBRANCH   7  10
BRANCH   7  12
HETATM   12  C7  UNL     1     -10.403 -39.624 -75.914  1.00  0.00     0.235 C 
BRANCH  12  13
HETATM   13  O4  UNL     1      -9.786 -39.307 -74.707  1.00  0.00    -0.395 OA
ATOM     14  H4  UNL     1     -10.187 -38.513 -74.375  1.00  0.00     0.209 HD
ENDBRANCH  12  13
ENDBRANCH   7  12
BRANCH   1  15
HETATM   15  S1  UNL     1     -10.586 -42.655 -79.757  1.00  0.00    -0.107 SA
HETATM   16  C1  UNL     1      -9.946 -42.378 -81.414  1.00  0.00     0.095 C 
ENDBRANCH   1  15
TORSDOF 4
ENDMDL
MODEL 2
REMARK VINA RESULT: -5.950794414      1.474      1.489
REMARK  4 active torsions:
REMARK  status: ('A' for Active; 'I' for Inactive)
REMARK    1  A    between atoms: S1_2  and  C2_3 
REMARK    2  A    between atoms: C6_9  and  O3_10 
REMARK    3  A    between atoms: C6_9  and  C7_12 
REMARK    4  A    between atoms: C7_12  and  O4_13 
ROOT
HETATM    1  C2  UNL     1     -10.973 -42.095 -78.191  1.00  0.00     0.213 C 
HETATM    2  C3  UNL     1     -10.995 -43.546 -77.806  1.00  0.00     0.092 C 
HETATM    3  O1  UNL     1      -9.870 -41.894 -79.014  1.00  0.00    -0.336 OA
HETATM    4  C4  UNL     1      -9.256 -40.726 -78.622  1.00  0.00     0.184 C 
HETATM    5  C5  UNL     1      -8.167 -40.932 -77.590  1.00  0.00     0.206 C 
HETATM    6  O2  UNL     1      -8.219 -39.854 -76.733  1.00  0.00    -0.348 OA
HETATM    7  C6  UNL     1      -9.469 -39.278 -76.815  1.00  0.00     0.213 C 
HETATM    8  C8  UNL     1     -10.321 -40.108 -77.721  1.00  0.00     0.221 C 
HETATM    9  O5  UNL     1     -10.793 -41.251 -77.083  1.00  0.00    -0.333 OA
ENDROOT
BRANCH   7  10
HETATM   10  O3  UNL     1      -9.369 -37.997 -77.376  1.00  0.00    -0.362 OA
ATOM     11  H3  UNL     1      -9.725 -38.001 -78.258  1.00  0.00     0.213 HD
ENDBRANCH   7  10
BRANCH   7  12
HETATM   12  C7  UNL     1     -10.132 -39.103 -75.463  1.00  0.00     0.235 C 
BRANCH  12  13
HETATM   13  O4  UNL     1      -9.356 -38.220 -74.719  1.00  0.00    -0.395 OA
ATOM     14  H4  UNL     1      -9.836 -38.006 -73.927  1.00  0.00     0.209 HD
ENDBRANCH  12  13
ENDBRANCH   7  12
BRANCH   1  15
HETATM   15  S1  UNL     1     -12.518 -41.552 -78.969  1.00  0.00    -0.107 SA
HETATM   16  C1  UNL     1     -12.300 -41.417 -80.749  1.00  0.00     0.095 C 
ENDBRANCH   1  15
TORSDOF 4
ENDMDL
MODEL 3
REMARK VINA RESULT: -5.610695931      1.824      2.640
REMARK  4 active torsions:
REMARK  status: ('A' for Active; 'I' for Inactive)
REMARK    1  A    between atoms: S1_2  and  C2_3 
REMARK    2  A    between atoms: C6_9  and  O3_10 
REMARK    3  A    between atoms: C6_9  and  C7_12 
REMARK    4  A    between atoms: C7_12  and  O4_13 
ROOT
HETATM    1  C2  UNL     1      -7.992 -41.712 -79.212  1.00  0.00     0.213 C 
HETATM    2  C3  UNL     1      -6.843 -41.293 -80.083  1.00  0.00     0.092 C 
HETATM    3  O1  UNL     1      -9.119 -41.813 -80.020  1.00  0.00    -0.336 OA
HETATM    4  C4  UNL     1     -10.176 -41.240 -79.348  1.00  0.00     0.184 C 
HETATM    5  C5  UNL     1     -10.361 -39.769 -79.656  1.00  0.00     0.206 C 
HETATM    6  O2  UNL     1     -10.769 -39.164 -78.487  1.00  0.00    -0.348 OA
HETATM    7  C6  UNL     1     -10.402 -39.957 -77.421  1.00  0.00     0.213 C 
HETATM    8  C8  UNL     1      -9.608 -41.116 -77.937  1.00  0.00     0.221 C 
HETATM    9  O5  UNL     1      -8.298 -40.753 -78.232  1.00  0.00    -0.333 OA
ENDROOT
BRANCH   7  10
HETATM   10  O3  UNL     1     -11.544 -40.469 -76.790  1.00  0.00    -0.362 OA
ATOM     11  H3  UNL     1     -11.354 -40.656 -75.877  1.00  0.00     0.213 HD
ENDBRANCH   7  10
BRANCH   7  12
HETATM   12  C7  UNL     1      -9.626 -39.203 -76.359  1.00  0.00     0.235 C 
BRANCH  12  13
HETATM   13  O4  UNL     1      -8.951 -38.160 -76.985  1.00  0.00    -0.395 OA
ATOM     14  H4  UNL     1      -8.550 -37.626 -76.309  1.00  0.00     0.209 HD
ENDBRANCH  12  13
ENDBRANCH   7  12
BRANCH   1  15
HETATM   15  S1  UNL     1      -7.659 -43.246 -78.304  1.00  0.00    -0.107 SA
HETATM   16  C1  UNL     1      -8.458 -44.634 -79.120  1.00  0.00     0.095 C 
ENDBRANCH   1  15
TORSDOF 4
ENDMDL
MODEL 4
REMARK VINA RESULT: -5.561839792      2.113      3.283
REMARK  4 active torsions:
REMARK  status: ('A' for Active; 'I' for Inactive)
REMARK    1  A    between atoms: S1_2  and  C2_3 
REMARK    2  A    between atoms: C6_9  and  O3_10 
REMARK    3  A    between atoms: C6_9  and  C7_12 
REMARK    4  A    between atoms: C7_12  and  O4_13 
ROOT
HETATM    1  C2  UNL     1     -10.435 -40.975 -79.381  1.00  0.00     0.213 C 
HETATM    2  C3  UNL     1     -11.672 -40.787 -78.551  1.00  0.00     0.092 C 
HETATM    3  O1  UNL     1     -10.325 -42.330 -79.671  1.00  0.00    -0.336 OA
HETATM    4  C4  UNL     1      -9.007 -42.693 -79.504  1.00  0.00     0.184 C 
HETATM    5  C5  UNL     1      -8.692 -43.195 -78.110  1.00  0.00     0.206 C 
HETATM    6  O2  UNL     1      -7.422 -42.753 -77.805  1.00  0.00    -0.348 OA
HETATM    7  C6  UNL     1      -7.118 -41.674 -78.607  1.00  0.00     0.213 C 
HETATM    8  C8  UNL     1      -8.323 -41.331 -79.425  1.00  0.00     0.221 C 
HETATM    9  O5  UNL     1      -9.266 -40.627 -78.684  1.00  0.00    -0.333 OA
ENDROOT
BRANCH   7  10
HETATM   10  O3  UNL     1      -6.083 -42.012 -79.490  1.00  0.00    -0.362 OA
ATOM     11  H3  UNL     1      -5.487 -41.278 -79.586  1.00  0.00     0.213 HD
ENDBRANCH   7  10
BRANCH   7  12
HETATM   12  C7  UNL     1      -6.638 -40.468 -77.824  1.00  0.00     0.235 C 
BRANCH  12  13
HETATM   13  O4  UNL     1      -7.454 -40.335 -76.704  1.00  0.00    -0.395 OA
ATOM     14  H4  UNL     1      -7.217 -41.020 -76.089  1.00  0.00     0.209 HD
ENDBRANCH  12  13
ENDBRANCH   7  12
BRANCH   1  15
HETATM   15  S1  UNL     1     -10.433 -39.949 -80.876  1.00  0.00    -0.107 SA
HETATM   16  C1  UNL     1     -11.684 -40.531 -82.028  1.00  0.00     0.095 C 
ENDBRANCH   1  15
TORSDOF 4
ENDMDL
MODEL 5
REMARK VINA RESULT: -5.545947799      1.993      3.099
REMARK  4 active torsions:
REMARK  status: ('A' for Active; 'I' for Inactive)
REMARK    1  A    between atoms: S1_2  and  C2_3 
REMARK    2  A    between atoms: C6_9  and  O3_10 
REMARK    3  A    between atoms: C6_9  and  C7_12 
REMARK    4  A    between atoms: C7_12  and  O4_13 
ROOT
HETATM    1  C2  UNL     1      -7.932 -41.787 -79.237  1.00  0.00     0.213 C 
HETATM    2  C3  UNL     1      -7.577 -41.905 -80.691  1.00  0.00     0.092 C 
HETATM    3  O1  UNL     1      -8.830 -42.806 -78.939  1.00  0.00    -0.336 OA
HETATM    4  C4  UNL     1      -9.829 -42.274 -78.154  1.00  0.00     0.184 C 
HETATM    5  C5  UNL     1     -11.014 -41.767 -78.948  1.00  0.00     0.206 C 
HETATM    6  O2  UNL     1     -11.473 -40.638 -78.304  1.00  0.00    -0.348 OA
HETATM    7  C6  UNL     1     -10.460 -40.127 -77.520  1.00  0.00     0.213 C 
HETATM    8  C8  UNL     1      -9.221 -40.933 -77.754  1.00  0.00     0.221 C 
HETATM    9  O5  UNL     1      -8.595 -40.583 -78.946  1.00  0.00    -0.333 OA
ENDROOT
BRANCH   7  10
HETATM   10  O3  UNL     1     -10.798 -40.246 -76.165  1.00  0.00    -0.362 OA
ATOM     11  H3  UNL     1     -10.488 -39.485 -75.686  1.00  0.00     0.213 HD
ENDBRANCH   7  10
BRANCH   7  12
HETATM   12  C7  UNL     1     -10.200 -38.655 -77.771  1.00  0.00     0.235 C 
BRANCH  12  13
HETATM   13  O4  UNL     1      -9.080 -38.288 -77.030  1.00  0.00    -0.395 OA
ATOM     14  H4  UNL     1      -8.323 -38.710 -77.419  1.00  0.00     0.209 HD
ENDBRANCH  12  13
ENDBRANCH   7  12
BRANCH   1  15
HETATM   15  S1  UNL     1      -6.477 -41.815 -78.156  1.00  0.00    -0.107 SA
HETATM   16  C1  UNL     1      -5.317 -40.531 -78.647  1.00  0.00     0.095 C 
ENDBRANCH   1  15
TORSDOF 4
ENDMDL
