MODEL 1
REMARK VINA RESULT: -6.710528704      0.000      0.000
REMARK  4 active torsions:
REMARK  status: ('A' for Active; 'I' for Inactive)
REMARK    1  A    between atoms: C2_3  and  C3_4 
REMARK    2  A    between atoms: C4_5  and  O1_6 
REMARK    3  A    between atoms: C6_10  and  N2_11 
REMARK    4  A    between atoms: C10_17  and  O3_18 
ROOT
HETATM    1  N1  UNL     1      -8.301 -44.589 -81.545  1.00  0.00    -0.197 NA
HETATM    2  C1  UNL     1      -8.224 -43.486 -81.236  1.00  0.00     0.059 C 
HETATM    3  C2  UNL     1      -8.121 -42.093 -80.872  1.00  0.00     0.133 C 
ENDROOT
BRANCH   3   4
HETATM    4  C3  UNL     1      -7.934 -41.922 -79.368  1.00  0.00     0.062 C 
HETATM    5  C4  UNL     1      -6.578 -41.253 -79.197  1.00  0.00     0.149 C 
HETATM    6  C5  UNL     1      -6.312 -40.823 -77.798  1.00  0.00     0.202 C 
HETATM    7  O2  UNL     1      -7.485 -40.874 -77.057  1.00  0.00    -0.360 OA
HETATM    8  C6  UNL     1      -8.443 -40.141 -77.779  1.00  0.00     0.272 C 
HETATM    9  C10 UNL     1      -9.043 -41.051 -78.789  1.00  0.00     0.176 C 
BRANCH   5  10
HETATM   10  O1  UNL     1      -5.609 -42.162 -79.596  1.00  0.00    -0.393 OA
ATOM     11  H1  UNL     1      -5.517 -42.090 -80.539  1.00  0.00     0.210 HD
ENDBRANCH   5  10
BRANCH   8  12
HETATM   12  N2  UNL     1      -9.400 -39.645 -76.801  1.00  0.00    -0.272 N 
HETATM   13  C7  UNL     1     -10.603 -40.209 -76.499  1.00  0.00     0.114 A 
HETATM   14  C8  UNL     1     -11.213 -39.451 -75.531  1.00  0.00     0.037 A 
HETATM   15  C9  UNL     1     -10.347 -38.421 -75.260  1.00  0.00     0.108 A 
HETATM   16  N3  UNL     1      -9.288 -38.578 -76.035  1.00  0.00    -0.308 N 
ATOM     17  H3  UNL     1      -8.483 -37.951 -76.041  1.00  0.00     0.186 HD
ENDBRANCH   8  12
BRANCH   9  18
HETATM   18  O3  UNL     1      -9.689 -40.368 -79.817  1.00  0.00    -0.391 OA
ATOM     19  H3  UNL     1     -10.620 -40.317 -79.632  1.00  0.00     0.210 HD
ENDBRANCH   9  18
ENDBRANCH   3   4
TORSDOF 4
ENDMDL
MODEL 2
REMARK VINA RESULT: -6.277081557      2.763      5.240
REMARK  4 active torsions:
REMARK  status: ('A' for Active; 'I' for Inactive)
REMARK    1  A    between atoms: C2_3  and  C3_4 
REMARK    2  A    between atoms: C4_5  and  O1_6 
REMARK    3  A    between atoms: C6_10  and  N2_11 
REMARK    4  A    between atoms: C10_17  and  O3_18 
ROOT
HETATM    1  N1  UNL     1      -3.403 -41.085 -77.666  1.00  0.00    -0.197 NA
HETATM    2  C1  UNL     1      -4.434 -40.717 -78.014  1.00  0.00     0.059 C 
HETATM    3  C2  UNL     1      -5.722 -40.232 -78.449  1.00  0.00     0.133 C 
ENDROOT
BRANCH   3   4
HETATM    4  C3  UNL     1      -6.819 -41.263 -78.203  1.00  0.00     0.062 C 
HETATM    5  C4  UNL     1      -8.048 -40.463 -77.796  1.00  0.00     0.149 C 
HETATM    6  C5  UNL     1      -9.280 -41.293 -77.709  1.00  0.00     0.202 C 
HETATM    7  O2  UNL     1      -9.061 -42.528 -78.305  1.00  0.00    -0.360 OA
HETATM    8  C6  UNL     1      -8.558 -42.265 -79.591  1.00  0.00     0.272 C 
HETATM    9  C10 UNL     1      -7.090 -42.065 -79.470  1.00  0.00     0.176 C 
BRANCH   5  10
HETATM   10  O1  UNL     1      -7.785 -39.891 -76.560  1.00  0.00    -0.393 OA
ATOM     11  H1  UNL     1      -7.261 -39.113 -76.709  1.00  0.00     0.210 HD
ENDBRANCH   5  10
BRANCH   8  12
HETATM   12  N2  UNL     1      -8.924 -43.409 -80.414  1.00  0.00    -0.272 N 
HETATM   13  C7  UNL     1     -10.191 -43.803 -80.721  1.00  0.00     0.114 A 
HETATM   14  C8  UNL     1     -10.122 -44.920 -81.516  1.00  0.00     0.037 A 
HETATM   15  C9  UNL     1      -8.785 -45.185 -81.677  1.00  0.00     0.108 A 
HETATM   16  N3  UNL     1      -8.114 -44.263 -81.007  1.00  0.00    -0.308 N 
ATOM     17  H3  UNL     1      -7.096 -44.219 -80.956  1.00  0.00     0.186 HD
ENDBRANCH   8  12
BRANCH   9  18
HETATM   18  O3  UNL     1      -6.542 -41.406 -80.570  1.00  0.00    -0.391 OA
ATOM     19  H3  UNL     1      -6.194 -40.565 -80.298  1.00  0.00     0.210 HD
ENDBRANCH   9  18
ENDBRANCH   3   4
TORSDOF 4
ENDMDL
MODEL 3
REMARK VINA RESULT: -6.093845613      2.064      2.922
REMARK  4 active torsions:
REMARK  status: ('A' for Active; 'I' for Inactive)
REMARK    1  A    between atoms: C2_3  and  C3_4 
REMARK    2  A    between atoms: C4_5  and  O1_6 
REMARK    3  A    between atoms: C6_10  and  N2_11 
REMARK    4  A    between atoms: C10_17  and  O3_18 
ROOT
HETATM    1  N1  UNL     1      -4.349 -40.117 -78.509  1.00  0.00    -0.197 NA
HETATM    2  C1  UNL     1      -5.193 -40.798 -78.887  1.00  0.00     0.059 C 
HETATM    3  C2  UNL     1      -6.238 -41.667 -79.374  1.00  0.00     0.133 C 
ENDROOT
BRANCH   3   4
HETATM    4  C3  UNL     1      -7.596 -40.975 -79.350  1.00  0.00     0.062 C 
HETATM    5  C4  UNL     1      -8.596 -42.017 -79.830  1.00  0.00     0.149 C 
HETATM    6  C5  UNL     1     -10.009 -41.580 -79.681  1.00  0.00     0.202 C 
HETATM    7  O2  UNL     1     -10.074 -40.454 -78.872  1.00  0.00    -0.360 OA
HETATM    8  C6  UNL     1      -9.377 -40.771 -77.693  1.00  0.00     0.272 C 
HETATM    9  C10 UNL     1      -7.933 -40.512 -77.938  1.00  0.00     0.176 C 
BRANCH   5  10
HETATM   10  O1  UNL     1      -8.327 -42.272 -81.167  1.00  0.00    -0.393 OA
ATOM     11  H1  UNL     1      -7.417 -42.047 -81.325  1.00  0.00     0.210 HD
ENDBRANCH   5  10
BRANCH   8  12
HETATM   12  N2  UNL     1      -9.947 -39.939 -76.644  1.00  0.00    -0.272 N 
HETATM   13  C7  UNL     1     -11.130 -40.155 -76.005  1.00  0.00     0.114 A 
HETATM   14  C8  UNL     1     -11.320 -39.154 -75.084  1.00  0.00     0.037 A 
HETATM   15  C9  UNL     1     -10.224 -38.335 -75.188  1.00  0.00     0.108 A 
HETATM   16  N3  UNL     1      -9.438 -38.840 -76.124  1.00  0.00    -0.308 N 
ATOM     17  H3  UNL     1      -8.549 -38.429 -76.409  1.00  0.00     0.186 HD
ENDBRANCH   8  12
BRANCH   9  18
HETATM   18  O3  UNL     1      -7.105 -41.157 -77.022  1.00  0.00    -0.391 OA
ATOM     19  H3  UNL     1      -6.576 -41.806 -77.470  1.00  0.00     0.210 HD
ENDBRANCH   9  18
ENDBRANCH   3   4
TORSDOF 4
ENDMDL
MODEL 4
REMARK VINA RESULT: -6.009983042      1.842      5.374
REMARK  4 active torsions:
REMARK  status: ('A' for Active; 'I' for Inactive)
REMARK    1  A    between atoms: C2_3  and  C3_4 
REMARK    2  A    between atoms: C4_5  and  O1_6 
REMARK    3  A    between atoms: C6_10  and  N2_11 
REMARK    4  A    between atoms: C10_17  and  O3_18 
ROOT
HETATM    1  N1  UNL     1     -10.203 -39.422 -74.425  1.00  0.00    -0.197 NA
HETATM    2  C1  UNL     1     -10.527 -39.475 -75.526  1.00  0.00     0.059 C 
HETATM    3  C2  UNL     1     -10.958 -39.546 -76.902  1.00  0.00     0.133 C 
ENDROOT
BRANCH   3   4
HETATM    4  C3  UNL     1      -9.800 -39.892 -77.832  1.00  0.00     0.062 C 
HETATM    5  C4  UNL     1      -8.536 -39.648 -77.020  1.00  0.00     0.149 C 
HETATM    6  C5  UNL     1      -7.304 -40.126 -77.703  1.00  0.00     0.202 C 
HETATM    7  O2  UNL     1      -7.643 -40.939 -78.777  1.00  0.00    -0.360 OA
HETATM    8  C6  UNL     1      -8.515 -41.920 -78.272  1.00  0.00     0.272 C 
HETATM    9  C10 UNL     1      -9.887 -41.348 -78.272  1.00  0.00     0.176 C 
BRANCH   5  10
HETATM   10  O1  UNL     1      -8.441 -38.283 -76.793  1.00  0.00    -0.393 OA
ATOM     11  H1  UNL     1      -7.520 -38.049 -76.828  1.00  0.00     0.210 HD
ENDBRANCH   5  10
BRANCH   8  12
HETATM   12  N2  UNL     1      -8.368 -43.081 -79.138  1.00  0.00    -0.272 N 
HETATM   13  C7  UNL     1      -7.387 -43.271 -80.063  1.00  0.00     0.114 A 
HETATM   14  C8  UNL     1      -7.591 -44.483 -80.675  1.00  0.00     0.037 A 
HETATM   15  C9  UNL     1      -8.716 -45.013 -80.094  1.00  0.00     0.108 A 
HETATM   16  N3  UNL     1      -9.141 -44.148 -79.189  1.00  0.00    -0.308 N 
ATOM     17  H3  UNL     1      -9.964 -44.288 -78.604  1.00  0.00     0.186 HD
ENDBRANCH   8  12
BRANCH   9  18
HETATM   18  O3  UNL     1     -10.762 -42.040 -77.436  1.00  0.00    -0.391 OA
ATOM     19  H3  UNL     1     -11.448 -42.444 -77.954  1.00  0.00     0.210 HD
ENDBRANCH   9  18
ENDBRANCH   3   4
TORSDOF 4
ENDMDL
MODEL 5
REMARK VINA RESULT: -5.963779225      1.093      1.130
REMARK  4 active torsions:
REMARK  status: ('A' for Active; 'I' for Inactive)
REMARK    1  A    between atoms: C2_3  and  C3_4 
REMARK    2  A    between atoms: C4_5  and  O1_6 
REMARK    3  A    between atoms: C6_10  and  N2_11 
REMARK    4  A    between atoms: C10_17  and  O3_18 
ROOT
HETATM    1  N1  UNL     1     -10.469 -44.970 -81.046  1.00  0.00    -0.197 NA
HETATM    2  C1  UNL     1     -10.073 -43.899 -80.917  1.00  0.00     0.059 C 
HETATM    3  C2  UNL     1      -9.573 -42.552 -80.779  1.00  0.00     0.133 C 
ENDROOT
BRANCH   3   4
HETATM    4  C3  UNL     1      -9.036 -42.297 -79.375  1.00  0.00     0.062 C 
HETATM    5  C4  UNL     1      -7.632 -41.744 -79.568  1.00  0.00     0.149 C 
HETATM    6  C5  UNL     1      -7.023 -41.246 -78.306  1.00  0.00     0.202 C 
HETATM    7  O2  UNL     1      -7.996 -41.140 -77.321  1.00  0.00    -0.360 OA
HETATM    8  C6  UNL     1      -9.037 -40.373 -77.873  1.00  0.00     0.272 C 
HETATM    9  C10 UNL     1      -9.917 -41.292 -78.642  1.00  0.00     0.176 C 
BRANCH   5  10
HETATM   10  O1  UNL     1      -6.848 -42.762 -80.091  1.00  0.00    -0.393 OA
ATOM     11  H1  UNL     1      -6.499 -43.260 -79.361  1.00  0.00     0.210 HD
ENDBRANCH   5  10
BRANCH   8  12
HETATM   12  N2  UNL     1      -9.707 -39.728 -76.753  1.00  0.00    -0.272 N 
HETATM   13  C7  UNL     1     -10.867 -40.138 -76.169  1.00  0.00     0.114 A 
HETATM   14  C8  UNL     1     -11.175 -39.271 -75.150  1.00  0.00     0.037 A 
HETATM   15  C9  UNL     1     -10.173 -38.334 -75.138  1.00  0.00     0.108 A 
HETATM   16  N3  UNL     1      -9.327 -38.645 -76.105  1.00  0.00    -0.308 N 
ATOM     17  H3  UNL     1      -8.484 -38.113 -76.323  1.00  0.00     0.186 HD
ENDBRANCH   8  12
BRANCH   9  18
HETATM   18  O3  UNL     1     -10.729 -40.625 -79.557  1.00  0.00    -0.391 OA
ATOM     19  H3  UNL     1     -11.448 -41.189 -79.817  1.00  0.00     0.210 HD
ENDBRANCH   9  18
ENDBRANCH   3   4
TORSDOF 4
ENDMDL
