MODEL 1
REMARK VINA RESULT: -7.251610870      0.000      0.000
REMARK  12 active torsions:
REMARK  status: ('A' for Active; 'I' for Inactive)
REMARK    1  A    between atoms: O1_2  and  C2_3 
REMARK    2  A    between atoms: C2_3  and  C3_5 
REMARK       I    between atoms: C3_5  and  N1_7 
REMARK    3  A    between atoms: N1_7  and  C4_9 
REMARK    4  A    between atoms: C4_9  and  C5_10 
REMARK    5  A    between atoms: C4_9  and  C19_33 
REMARK       I    between atoms: C5_10  and  N2_12 
REMARK    6  A    between atoms: N2_12  and  C6_14 
REMARK    7  A    between atoms: C6_14  and  C7_15 
REMARK    8  A    between atoms: C6_14  and  C16_30 
REMARK       I    between atoms: C7_15  and  N3_17 
REMARK    9  A    between atoms: N3_17  and  C8_19 
REMARK   10  A    between atoms: C8_19  and  C9_20 
REMARK   11  A    between atoms: C8_19  and  C13_25 
REMARK   12  A    between atoms: C13_25  and  O7_28 
ROOT
HETATM    1  C5  UNL     1      -2.426  19.640   8.719  1.00  0.00     0.241 C 
HETATM    2  O4  UNL     1      -1.995  18.568   9.296  1.00  0.00    -0.271 OA
HETATM    3  N2  UNL     1      -1.757  20.820   9.048  1.00  0.00    -0.346 N 
ATOM      4  H2  UNL     1      -2.037  21.710   8.634  1.00  0.00     0.163 HD
ENDROOT
BRANCH   3   5
HETATM    5  C6  UNL     1      -0.640  20.753  10.005  1.00  0.00     0.180 C 
BRANCH   5   6
HETATM    6  C7  UNL     1      -0.637  21.972  10.812  1.00  0.00     0.241 C 
HETATM    7  O5  UNL     1      -1.313  22.966  10.388  1.00  0.00    -0.271 OA
HETATM    8  N3  UNL     1       0.078  22.118  12.063  1.00  0.00    -0.349 N 
ATOM      9  H3  UNL     1       0.625  21.332  12.415  1.00  0.00     0.163 HD
BRANCH   8  10
HETATM   10  C8  UNL     1       0.039  23.336  12.820  1.00  0.00     0.146 C 
BRANCH  10  11
HETATM   11  C9  UNL     1       1.277  24.143  12.726  1.00  0.00     0.147 C 
HETATM   12  C10 UNL     1       2.546  23.392  12.515  1.00  0.00     0.036 C 
HETATM   13  C11 UNL     1       3.407  24.393  11.784  1.00  0.00     0.029 C 
HETATM   14  C12 UNL     1       2.345  25.129  10.989  1.00  0.00     0.168 C 
HETATM   15  O6  UNL     1       1.140  24.981  11.616  1.00  0.00    -0.384 OA
ENDBRANCH  10  11
BRANCH  10  16
HETATM   16  C13 UNL     1      -0.488  23.065  14.206  1.00  0.00     0.073 C 
HETATM   17  C14 UNL     1      -1.897  23.512  14.423  1.00  0.00     0.047 C 
HETATM   18  C15 UNL     1      -0.297  21.673  14.684  1.00  0.00     0.047 C 
BRANCH  16  19
HETATM   19  O7  UNL     1       0.311  23.875  15.066  1.00  0.00    -0.388 OA
ATOM     20  H7  UNL     1       1.146  23.957  14.619  1.00  0.00     0.210 HD
ENDBRANCH  16  19
ENDBRANCH  10  16
ENDBRANCH   8  10
ENDBRANCH   5   6
BRANCH   5  21
HETATM   21  C16 UNL     1       0.601  20.602   9.124  1.00  0.00     0.009 C 
HETATM   22  C17 UNL     1       1.370  19.361   9.405  1.00  0.00     0.012 C 
HETATM   23  C18 UNL     1       1.499  21.814   9.243  1.00  0.00     0.012 C 
ENDBRANCH   5  21
ENDBRANCH   3   5
BRANCH   1  24
HETATM   24  C4  UNL     1      -3.553  19.448   7.795  1.00  0.00     0.181 C 
BRANCH  24  25
HETATM   25  N1  UNL     1      -3.329  18.305   7.021  1.00  0.00    -0.339 N 
HETATM   26  C3  UNL     1      -3.997  17.430   6.169  1.00  0.00     0.317 C 
HETATM   27  O3  UNL     1      -5.198  17.430   5.834  1.00  0.00    -0.262 OA
ATOM     28  H1  UNL     1      -2.354  18.018   7.110  1.00  0.00     0.163 HD
BRANCH  26  29
HETATM   29  C2  UNL     1      -3.219  16.319   5.533  1.00  0.00     0.351 C 
HETATM   30  O2  UNL     1      -2.711  15.467   6.272  1.00  0.00    -0.254 OA
BRANCH  29  31
HETATM   31  O1  UNL     1      -3.095  16.280   4.177  1.00  0.00    -0.319 OA
HETATM   32  C1  UNL     1      -4.083  15.518   3.457  1.00  0.00     0.213 C 
ENDBRANCH  29  31
ENDBRANCH  26  29
ENDBRANCH  24  25
BRANCH  24  33
HETATM   33  C19 UNL     1      -4.900  19.604   8.490  1.00  0.00     0.018 C 
HETATM   34  C20 UNL     1      -6.023  20.082   7.652  1.00  0.00     0.007 C 
HETATM   35  C21 UNL     1      -6.777  21.275   8.265  1.00  0.00     0.000 C 
HETATM   36  C22 UNL     1      -5.775  22.291   8.776  1.00  0.00     0.000 C 
HETATM   37  C23 UNL     1      -4.975  21.711   9.916  1.00  0.00     0.000 C 
HETATM   38  C24 UNL     1      -4.840  20.226   9.836  1.00  0.00     0.007 C 
ENDBRANCH  24  33
ENDBRANCH   1  24
TORSDOF 12
ENDMDL
MODEL 2
REMARK VINA RESULT: -6.857368348      1.656      2.938
REMARK  12 active torsions:
REMARK  status: ('A' for Active; 'I' for Inactive)
REMARK    1  A    between atoms: O1_2  and  C2_3 
REMARK    2  A    between atoms: C2_3  and  C3_5 
REMARK       I    between atoms: C3_5  and  N1_7 
REMARK    3  A    between atoms: N1_7  and  C4_9 
REMARK    4  A    between atoms: C4_9  and  C5_10 
REMARK    5  A    between atoms: C4_9  and  C19_33 
REMARK       I    between atoms: C5_10  and  N2_12 
REMARK    6  A    between atoms: N2_12  and  C6_14 
REMARK    7  A    between atoms: C6_14  and  C7_15 
REMARK    8  A    between atoms: C6_14  and  C16_30 
REMARK       I    between atoms: C7_15  and  N3_17 
REMARK    9  A    between atoms: N3_17  and  C8_19 
REMARK   10  A    between atoms: C8_19  and  C9_20 
REMARK   11  A    between atoms: C8_19  and  C13_25 
REMARK   12  A    between atoms: C13_25  and  O7_28 
ROOT
HETATM    1  C5  UNL     1      -2.409  19.620   8.708  1.00  0.00     0.241 C 
HETATM    2  O4  UNL     1      -1.992  18.555   9.308  1.00  0.00    -0.271 OA
HETATM    3  N2  UNL     1      -1.727  20.798   9.014  1.00  0.00    -0.346 N 
ATOM      4  H2  UNL     1      -1.994  21.683   8.581  1.00  0.00     0.163 HD
ENDROOT
BRANCH   3   5
HETATM    5  C6  UNL     1      -0.612  20.737   9.974  1.00  0.00     0.180 C 
BRANCH   5   6
HETATM    6  C7  UNL     1      -0.677  21.908  10.848  1.00  0.00     0.241 C 
HETATM    7  O5  UNL     1      -0.365  21.750  12.073  1.00  0.00    -0.271 OA
HETATM    8  N3  UNL     1      -1.067  23.231  10.408  1.00  0.00    -0.349 N 
ATOM      9  H3  UNL     1      -1.322  23.374   9.431  1.00  0.00     0.163 HD
BRANCH   8  10
HETATM   10  C8  UNL     1      -1.105  24.348  11.309  1.00  0.00     0.146 C 
BRANCH  10  11
HETATM   11  C9  UNL     1      -2.366  25.123  11.253  1.00  0.00     0.147 C 
HETATM   12  C10 UNL     1      -3.177  24.984  10.012  1.00  0.00     0.036 C 
HETATM   13  C11 UNL     1      -4.581  25.242  10.503  1.00  0.00     0.029 C 
HETATM   14  C12 UNL     1      -4.486  24.662  11.902  1.00  0.00     0.168 C 
HETATM   15  O6  UNL     1      -3.178  24.664  12.294  1.00  0.00    -0.384 OA
ENDBRANCH  10  11
BRANCH  10  16
HETATM   16  C13 UNL     1       0.177  25.135  11.208  1.00  0.00     0.073 C 
HETATM   17  C14 UNL     1       0.767  25.169   9.836  1.00  0.00     0.047 C 
HETATM   18  C15 UNL     1       0.120  26.497  11.792  1.00  0.00     0.047 C 
BRANCH  16  19
HETATM   19  O7  UNL     1       1.111  24.415  12.012  1.00  0.00    -0.388 OA
ATOM     20  H7  UNL     1       0.686  24.321  12.856  1.00  0.00     0.210 HD
ENDBRANCH  16  19
ENDBRANCH  10  16
ENDBRANCH   8  10
ENDBRANCH   5   6
BRANCH   5  21
HETATM   21  C16 UNL     1       0.640  20.702   9.095  1.00  0.00     0.009 C 
HETATM   22  C17 UNL     1       1.184  19.331   8.908  1.00  0.00     0.012 C 
HETATM   23  C18 UNL     1       1.710  21.622   9.642  1.00  0.00     0.012 C 
ENDBRANCH   5  21
ENDBRANCH   3   5
BRANCH   1  24
HETATM   24  C4  UNL     1      -3.537  19.422   7.786  1.00  0.00     0.181 C 
BRANCH  24  25
HETATM   25  N1  UNL     1      -3.308  18.282   7.010  1.00  0.00    -0.339 N 
HETATM   26  C3  UNL     1      -3.973  17.401   6.162  1.00  0.00     0.317 C 
HETATM   27  O3  UNL     1      -5.177  17.391   5.835  1.00  0.00    -0.262 OA
ATOM     28  H1  UNL     1      -2.330  18.004   7.093  1.00  0.00     0.163 HD
BRANCH  26  29
HETATM   29  C2  UNL     1      -3.190  16.297   5.521  1.00  0.00     0.351 C 
HETATM   30  O2  UNL     1      -2.668  15.451   6.256  1.00  0.00    -0.254 OA
BRANCH  29  31
HETATM   31  O1  UNL     1      -3.076  16.258   4.164  1.00  0.00    -0.319 OA
HETATM   32  C1  UNL     1      -4.088  15.523   3.449  1.00  0.00     0.213 C 
ENDBRANCH  29  31
ENDBRANCH  26  29
ENDBRANCH  24  25
BRANCH  24  33
HETATM   33  C19 UNL     1      -4.883  19.570   8.484  1.00  0.00     0.018 C 
HETATM   34  C20 UNL     1      -6.011  20.039   7.648  1.00  0.00     0.007 C 
HETATM   35  C21 UNL     1      -6.772  21.227   8.261  1.00  0.00     0.000 C 
HETATM   36  C22 UNL     1      -5.777  22.251   8.768  1.00  0.00     0.000 C 
HETATM   37  C23 UNL     1      -4.969  21.678   9.907  1.00  0.00     0.000 C 
HETATM   38  C24 UNL     1      -4.825  20.195   9.829  1.00  0.00     0.007 C 
ENDBRANCH  24  33
ENDBRANCH   1  24
TORSDOF 12
ENDMDL
MODEL 3
REMARK VINA RESULT: -6.713536468      2.916      5.056
REMARK  12 active torsions:
REMARK  status: ('A' for Active; 'I' for Inactive)
REMARK    1  A    between atoms: O1_2  and  C2_3 
REMARK    2  A    between atoms: C2_3  and  C3_5 
REMARK       I    between atoms: C3_5  and  N1_7 
REMARK    3  A    between atoms: N1_7  and  C4_9 
REMARK    4  A    between atoms: C4_9  and  C5_10 
REMARK    5  A    between atoms: C4_9  and  C19_33 
REMARK       I    between atoms: C5_10  and  N2_12 
REMARK    6  A    between atoms: N2_12  and  C6_14 
REMARK    7  A    between atoms: C6_14  and  C7_15 
REMARK    8  A    between atoms: C6_14  and  C16_30 
REMARK       I    between atoms: C7_15  and  N3_17 
REMARK    9  A    between atoms: N3_17  and  C8_19 
REMARK   10  A    between atoms: C8_19  and  C9_20 
REMARK   11  A    between atoms: C8_19  and  C13_25 
REMARK   12  A    between atoms: C13_25  and  O7_28 
ROOT
HETATM    1  C5  UNL     1      -4.426  22.643  10.111  1.00  0.00     0.241 C 
HETATM    2  O4  UNL     1      -4.613  23.736   9.448  1.00  0.00    -0.271 OA
HETATM    3  N2  UNL     1      -3.493  22.711  11.147  1.00  0.00    -0.346 N 
ATOM      4  H2  UNL     1      -3.289  21.892  11.718  1.00  0.00     0.163 HD
ENDROOT
BRANCH   3   5
HETATM    5  C6  UNL     1      -2.812  23.993  11.398  1.00  0.00     0.180 C 
BRANCH   5   6
HETATM    6  C7  UNL     1      -1.369  23.789  11.287  1.00  0.00     0.241 C 
HETATM    7  O5  UNL     1      -0.677  24.723  10.763  1.00  0.00    -0.271 OA
HETATM    8  N3  UNL     1      -0.677  22.600  11.740  1.00  0.00    -0.349 N 
ATOM      9  H3  UNL     1      -1.216  21.843  12.160  1.00  0.00     0.163 HD
BRANCH   8  10
HETATM   10  C8  UNL     1       0.745  22.457  11.614  1.00  0.00     0.146 C 
BRANCH  10  11
HETATM   11  C9  UNL     1       1.169  21.186  10.982  1.00  0.00     0.147 C 
HETATM   12  C10 UNL     1       0.285  20.008  11.201  1.00  0.00     0.036 C 
HETATM   13  C11 UNL     1       0.530  19.175   9.967  1.00  0.00     0.029 C 
HETATM   14  C12 UNL     1       0.775  20.272   8.948  1.00  0.00     0.168 C 
HETATM   15  O6  UNL     1       1.188  21.399   9.601  1.00  0.00    -0.384 OA
ENDBRANCH  10  11
BRANCH  10  16
HETATM   16  C13 UNL     1       1.417  22.823  12.913  1.00  0.00     0.073 C 
HETATM   17  C14 UNL     1       1.995  24.200  12.936  1.00  0.00     0.047 C 
HETATM   18  C15 UNL     1       0.602  22.573  14.128  1.00  0.00     0.047 C 
BRANCH  16  19
HETATM   19  O7  UNL     1       2.530  21.935  13.013  1.00  0.00    -0.388 OA
ATOM     20  H7  UNL     1       2.313  21.352  13.730  1.00  0.00     0.210 HD
ENDBRANCH  16  19
ENDBRANCH  10  16
ENDBRANCH   8  10
ENDBRANCH   5   6
BRANCH   5  21
HETATM   21  C16 UNL     1      -3.265  24.391  12.804  1.00  0.00     0.009 C 
HETATM   22  C17 UNL     1      -4.517  25.194  12.810  1.00  0.00     0.012 C 
HETATM   23  C18 UNL     1      -2.165  25.126  13.538  1.00  0.00     0.012 C 
ENDBRANCH   5  21
ENDBRANCH   3   5
BRANCH   1  24
HETATM   24  C4  UNL     1      -5.233  21.496   9.673  1.00  0.00     0.181 C 
BRANCH  24  25
HETATM   25  N1  UNL     1      -5.903  21.824   8.491  1.00  0.00    -0.339 N 
HETATM   26  C3  UNL     1      -7.168  21.758   7.912  1.00  0.00     0.317 C 
HETATM   27  O3  UNL     1      -8.218  21.278   8.384  1.00  0.00    -0.262 OA
ATOM     28  H1  UNL     1      -5.250  22.253   7.836  1.00  0.00     0.163 HD
BRANCH  26  29
HETATM   29  C2  UNL     1      -7.357  22.329   6.541  1.00  0.00     0.351 C 
HETATM   30  O2  UNL     1      -7.877  21.612   5.679  1.00  0.00    -0.254 OA
BRANCH  29  31
HETATM   31  O1  UNL     1      -6.955  23.606   6.287  1.00  0.00    -0.319 OA
HETATM   32  C1  UNL     1      -7.513  24.639   7.122  1.00  0.00     0.213 C 
ENDBRANCH  29  31
ENDBRANCH  26  29
ENDBRANCH  24  25
BRANCH  24  33
HETATM   33  C19 UNL     1      -4.453  20.188   9.730  1.00  0.00     0.018 C 
HETATM   34  C20 UNL     1      -3.060  20.230   9.229  1.00  0.00     0.007 C 
HETATM   35  C21 UNL     1      -2.748  19.127   8.203  1.00  0.00     0.000 C 
HETATM   36  C22 UNL     1      -3.875  19.050   7.192  1.00  0.00     0.000 C 
HETATM   37  C23 UNL     1      -5.151  18.604   7.863  1.00  0.00     0.000 C 
HETATM   38  C24 UNL     1      -5.214  18.987   9.305  1.00  0.00     0.007 C 
ENDBRANCH  24  33
ENDBRANCH   1  24
TORSDOF 12
ENDMDL
MODEL 4
REMARK VINA RESULT: -6.702940181      3.371      7.488
REMARK  12 active torsions:
REMARK  status: ('A' for Active; 'I' for Inactive)
REMARK    1  A    between atoms: O1_2  and  C2_3 
REMARK    2  A    between atoms: C2_3  and  C3_5 
REMARK       I    between atoms: C3_5  and  N1_7 
REMARK    3  A    between atoms: N1_7  and  C4_9 
REMARK    4  A    between atoms: C4_9  and  C5_10 
REMARK    5  A    between atoms: C4_9  and  C19_33 
REMARK       I    between atoms: C5_10  and  N2_12 
REMARK    6  A    between atoms: N2_12  and  C6_14 
REMARK    7  A    between atoms: C6_14  and  C7_15 
REMARK    8  A    between atoms: C6_14  and  C16_30 
REMARK       I    between atoms: C7_15  and  N3_17 
REMARK    9  A    between atoms: N3_17  and  C8_19 
REMARK   10  A    between atoms: C8_19  and  C9_20 
REMARK   11  A    between atoms: C8_19  and  C13_25 
REMARK   12  A    between atoms: C13_25  and  O7_28 
ROOT
HETATM    1  C5  UNL     1      -4.135  21.520   9.989  1.00  0.00     0.241 C 
HETATM    2  O4  UNL     1      -5.338  21.052  10.031  1.00  0.00    -0.271 OA
HETATM    3  N2  UNL     1      -3.983  22.847  10.394  1.00  0.00    -0.346 N 
ATOM      4  H2  UNL     1      -3.065  23.290  10.390  1.00  0.00     0.163 HD
ENDROOT
BRANCH   3   5
HETATM    5  C6  UNL     1      -5.177  23.592  10.826  1.00  0.00     0.180 C 
BRANCH   5   6
HETATM    6  C7  UNL     1      -6.006  23.874   9.655  1.00  0.00     0.241 C 
HETATM    7  O5  UNL     1      -5.625  24.801   8.868  1.00  0.00    -0.271 OA
HETATM    8  N3  UNL     1      -7.226  23.164   9.332  1.00  0.00    -0.349 N 
ATOM      9  H3  UNL     1      -7.547  22.421   9.953  1.00  0.00     0.163 HD
BRANCH   8  10
HETATM   10  C8  UNL     1      -7.997  23.477   8.162  1.00  0.00     0.146 C 
BRANCH  10  11
HETATM   11  C9  UNL     1      -9.185  24.320   8.433  1.00  0.00     0.147 C 
HETATM   12  C10 UNL     1      -9.677  24.345   9.838  1.00  0.00     0.036 C 
HETATM   13  C11 UNL     1     -10.325  25.704   9.939  1.00  0.00     0.029 C 
HETATM   14  C12 UNL     1      -9.430  26.497   9.005  1.00  0.00     0.168 C 
HETATM   15  O6  UNL     1      -8.834  25.638   8.127  1.00  0.00    -0.384 OA
ENDBRANCH  10  11
BRANCH  10  16
HETATM   16  C13 UNL     1      -8.224  22.230   7.346  1.00  0.00     0.073 C 
HETATM   17  C14 UNL     1      -9.616  22.089   6.822  1.00  0.00     0.047 C 
HETATM   18  C15 UNL     1      -7.229  22.000   6.271  1.00  0.00     0.047 C 
BRANCH  16  19
HETATM   19  O7  UNL     1      -8.047  21.154   8.266  1.00  0.00    -0.388 OA
ATOM     20  H7  UNL     1      -7.390  21.462   8.879  1.00  0.00     0.210 HD
ENDBRANCH  16  19
ENDBRANCH  10  16
ENDBRANCH   8  10
ENDBRANCH   5   6
BRANCH   5  21
HETATM   21  C16 UNL     1      -4.615  24.850  11.492  1.00  0.00     0.009 C 
HETATM   22  C17 UNL     1      -3.419  24.581  12.333  1.00  0.00     0.012 C 
HETATM   23  C18 UNL     1      -5.681  25.553  12.304  1.00  0.00     0.012 C 
ENDBRANCH   5  21
ENDBRANCH   3   5
BRANCH   1  24
HETATM   24  C4  UNL     1      -3.108  20.575   9.528  1.00  0.00     0.181 C 
BRANCH  24  25
HETATM   25  N1  UNL     1      -3.649  19.748   8.539  1.00  0.00    -0.339 N 
HETATM   26  C3  UNL     1      -3.591  18.436   8.077  1.00  0.00     0.317 C 
HETATM   27  O3  UNL     1      -2.893  17.491   8.495  1.00  0.00    -0.262 OA
ATOM     28  H1  UNL     1      -4.302  20.284   7.966  1.00  0.00     0.163 HD
BRANCH  26  29
HETATM   29  C2  UNL     1      -4.468  18.043   6.928  1.00  0.00     0.351 C 
HETATM   30  O2  UNL     1      -5.476  18.724   6.707  1.00  0.00    -0.254 OA
BRANCH  29  31
HETATM   31  O1  UNL     1      -4.134  16.961   6.171  1.00  0.00    -0.319 OA
HETATM   32  C1  UNL     1      -4.973  16.680   5.035  1.00  0.00     0.213 C 
ENDBRANCH  29  31
ENDBRANCH  26  29
ENDBRANCH  24  25
BRANCH  24  33
HETATM   33  C19 UNL     1      -1.775  21.261   9.255  1.00  0.00     0.018 C 
HETATM   34  C20 UNL     1      -0.658  20.386   8.834  1.00  0.00     0.007 C 
HETATM   35  C21 UNL     1       0.624  20.596   9.657  1.00  0.00     0.000 C 
HETATM   36  C22 UNL     1       0.270  20.654  11.130  1.00  0.00     0.000 C 
HETATM   37  C23 UNL     1      -0.579  21.868  11.418  1.00  0.00     0.000 C 
HETATM   38  C24 UNL     1      -1.393  22.300  10.244  1.00  0.00     0.007 C 
ENDBRANCH  24  33
ENDBRANCH   1  24
TORSDOF 12
ENDMDL
MODEL 5
REMARK VINA RESULT: -6.652127419      3.288      5.424
REMARK  12 active torsions:
REMARK  status: ('A' for Active; 'I' for Inactive)
REMARK    1  A    between atoms: O1_2  and  C2_3 
REMARK    2  A    between atoms: C2_3  and  C3_5 
REMARK       I    between atoms: C3_5  and  N1_7 
REMARK    3  A    between atoms: N1_7  and  C4_9 
REMARK    4  A    between atoms: C4_9  and  C5_10 
REMARK    5  A    between atoms: C4_9  and  C19_33 
REMARK       I    between atoms: C5_10  and  N2_12 
REMARK    6  A    between atoms: N2_12  and  C6_14 
REMARK    7  A    between atoms: C6_14  and  C7_15 
REMARK    8  A    between atoms: C6_14  and  C16_30 
REMARK       I    between atoms: C7_15  and  N3_17 
REMARK    9  A    between atoms: N3_17  and  C8_19 
REMARK   10  A    between atoms: C8_19  and  C9_20 
REMARK   11  A    between atoms: C8_19  and  C13_25 
REMARK   12  A    between atoms: C13_25  and  O7_28 
ROOT
HETATM    1  C5  UNL     1      -1.293  21.982   9.246  1.00  0.00     0.241 C 
HETATM    2  O4  UNL     1      -0.789  23.027   8.679  1.00  0.00    -0.271 OA
HETATM    3  N2  UNL     1      -2.150  22.225  10.320  1.00  0.00    -0.346 N 
ATOM      4  H2  UNL     1      -2.589  21.453  10.821  1.00  0.00     0.163 HD
ENDROOT
BRANCH   3   5
HETATM    5  C6  UNL     1      -2.408  23.620  10.713  1.00  0.00     0.180 C 
BRANCH   5   6
HETATM    6  C7  UNL     1      -1.520  23.970  11.820  1.00  0.00     0.241 C 
HETATM    7  O5  UNL     1      -0.450  24.606  11.543  1.00  0.00    -0.271 OA
HETATM    8  N3  UNL     1      -1.781  23.647  13.207  1.00  0.00    -0.349 N 
ATOM      9  H3  UNL     1      -2.631  23.137  13.445  1.00  0.00     0.163 HD
BRANCH   8  10
HETATM   10  C8  UNL     1      -0.877  24.024  14.256  1.00  0.00     0.146 C 
BRANCH  10  11
HETATM   11  C9  UNL     1      -0.053  22.905  14.771  1.00  0.00     0.147 C 
HETATM   12  C10 UNL     1      -0.700  21.565  14.805  1.00  0.00     0.036 C 
HETATM   13  C11 UNL     1       0.474  20.626  14.664  1.00  0.00     0.029 C 
HETATM   14  C12 UNL     1       1.377  21.460  13.775  1.00  0.00     0.168 C 
HETATM   15  O6  UNL     1       1.048  22.778  13.920  1.00  0.00    -0.384 OA
ENDBRANCH  10  11
BRANCH  10  16
HETATM   16  C13 UNL     1      -1.598  24.861  15.282  1.00  0.00     0.073 C 
HETATM   17  C14 UNL     1      -3.079  24.909  15.099  1.00  0.00     0.047 C 
HETATM   18  C15 UNL     1      -1.249  24.557  16.691  1.00  0.00     0.047 C 
BRANCH  16  19
HETATM   19  O7  UNL     1      -1.138  26.193  15.055  1.00  0.00    -0.388 OA
ATOM     20  H7  UNL     1      -1.927  26.721  15.018  1.00  0.00     0.210 HD
ENDBRANCH  16  19
ENDBRANCH  10  16
ENDBRANCH   8  10
ENDBRANCH   5   6
BRANCH   5  21
HETATM   21  C16 UNL     1      -3.890  23.637  11.092  1.00  0.00     0.009 C 
HETATM   22  C17 UNL     1      -4.721  22.743  10.243  1.00  0.00     0.012 C 
HETATM   23  C18 UNL     1      -4.439  25.047  11.065  1.00  0.00     0.012 C 
ENDBRANCH   5  21
ENDBRANCH   3   5
BRANCH   1  24
HETATM   24  C4  UNL     1      -0.888  20.694   8.665  1.00  0.00     0.181 C 
BRANCH  24  25
HETATM   25  N1  UNL     1       0.507  20.629   8.606  1.00  0.00    -0.339 N 
HETATM   26  C3  UNL     1       1.634  20.907   9.375  1.00  0.00     0.317 C 
HETATM   27  O3  UNL     1       1.697  21.399  10.519  1.00  0.00    -0.262 OA
ATOM     28  H1  UNL     1       0.794  20.254   7.702  1.00  0.00     0.163 HD
BRANCH  26  29
HETATM   29  C2  UNL     1       2.983  20.589   8.806  1.00  0.00     0.351 C 
HETATM   30  O2  UNL     1       3.042  19.805   7.853  1.00  0.00    -0.254 OA
BRANCH  29  31
HETATM   31  O1  UNL     1       4.091  21.167   9.350  1.00  0.00    -0.319 OA
HETATM   32  C1  UNL     1       5.169  21.478   8.448  1.00  0.00     0.213 C 
ENDBRANCH  29  31
ENDBRANCH  26  29
ENDBRANCH  24  25
BRANCH  24  33
HETATM   33  C19 UNL     1      -1.647  19.522   9.276  1.00  0.00     0.018 C 
HETATM   34  C20 UNL     1      -0.957  18.212   9.265  1.00  0.00     0.007 C 
HETATM   35  C21 UNL     1      -1.817  17.076   8.684  1.00  0.00     0.000 C 
HETATM   36  C22 UNL     1      -2.480  17.552   7.407  1.00  0.00     0.000 C 
HETATM   37  C23 UNL     1      -3.457  18.663   7.707  1.00  0.00     0.000 C 
HETATM   38  C24 UNL     1      -3.085  19.454   8.917  1.00  0.00     0.007 C 
ENDBRANCH  24  33
ENDBRANCH   1  24
TORSDOF 12
ENDMDL
