MODEL 1
REMARK VINA RESULT: -6.579821387      0.000      0.000
REMARK  11 active torsions:
REMARK  status: ('A' for Active; 'I' for Inactive)
REMARK    1  A    between atoms: C2_2  and  C4_4 
REMARK    2  A    between atoms: C4_4  and  C5_5 
REMARK    3  A    between atoms: C5_5  and  N1_6 
REMARK    4  A    between atoms: C5_5  and  C11_15 
REMARK       I    between atoms: N1_6  and  C6_8 
REMARK    5  A    between atoms: C6_8  and  O2_10 
REMARK    6  A    between atoms: O2_10  and  C7_11 
REMARK       I    between atoms: C11_15  and  N2_17 
REMARK    7  A    between atoms: N2_17  and  C12_19 
REMARK    8  A    between atoms: C12_19  and  C13_20 
REMARK    9  A    between atoms: C12_19  and  C19_30 
REMARK       I    between atoms: C13_20  and  N3_22 
REMARK   10  A    between atoms: N3_22  and  C14_24 
REMARK       I    between atoms: C19_30  and  N4_32 
REMARK   11  A    between atoms: N4_32  and  C20_34 
ROOT
HETATM    1  C20 UNL     1      -2.679  18.531   8.325  1.00  0.00     0.122 A 
HETATM    2  C21 UNL     1      -2.113  17.200   8.112  1.00  0.00     0.091 C 
HETATM    3  N5  UNL     1      -1.675  16.131   7.932  1.00  0.00    -0.195 NA
HETATM    4  C22 UNL     1      -3.842  18.923   7.447  1.00  0.00     0.050 A 
HETATM    5  C23 UNL     1      -4.102  18.638   8.892  1.00  0.00     0.050 A 
ENDROOT
BRANCH   1   6
HETATM    6  N4  UNL     1      -1.728  19.581   8.686  1.00  0.00    -0.337 N 
HETATM    7  C19 UNL     1      -0.712  19.266   9.597  1.00  0.00     0.251 C 
HETATM    8  O6  UNL     1      -0.600  18.106  10.100  1.00  0.00    -0.271 OA
ATOM      9  H4  UNL     1      -1.802  20.517   8.286  1.00  0.00     0.164 HD
BRANCH   7  10
HETATM   10  C12 UNL     1       0.319  20.287  10.038  1.00  0.00     0.269 C 
BRANCH  10  11
HETATM   11  N2  UNL     1      -0.366  21.594   9.904  1.00  0.00    -0.338 N 
HETATM   12  C11 UNL     1      -0.604  22.384  11.059  1.00  0.00     0.241 C 
HETATM   13  O3  UNL     1      -0.215  21.949  12.173  1.00  0.00    -0.271 OA
ATOM     14  H2  UNL     1      -0.665  21.924   8.986  1.00  0.00     0.163 HD
BRANCH  12  15
HETATM   15  C5  UNL     1      -1.289  23.684  11.020  1.00  0.00     0.179 C 
BRANCH  15  16
HETATM   16  C4  UNL     1      -2.715  23.684  11.422  1.00  0.00     0.038 C 
BRANCH  16  17
HETATM   17  C2  UNL     1      -3.762  23.505  10.407  1.00  0.00    -0.020 C 
HETATM   18  C1  UNL     1      -4.994  24.352  10.597  1.00  0.00     0.009 C 
HETATM   19  C3  UNL     1      -4.162  22.091  10.106  1.00  0.00     0.009 C 
ENDBRANCH  16  17
ENDBRANCH  15  16
BRANCH  15  20
HETATM   20  N1  UNL     1      -1.273  24.069   9.579  1.00  0.00    -0.324 N 
HETATM   21  C6  UNL     1      -1.024  25.402   9.220  1.00  0.00     0.362 C 
HETATM   22  O1  UNL     1      -0.814  26.262  10.119  1.00  0.00    -0.238 OA
ATOM     23  H1  UNL     1      -1.443  23.367   8.858  1.00  0.00     0.165 HD
BRANCH  21  24
HETATM   24  O2  UNL     1      -1.002  25.805   7.904  1.00  0.00    -0.294 OA
BRANCH  24  25
HETATM   25  C7  UNL     1       0.125  25.719   7.063  1.00  0.00     0.061 C 
HETATM   26  C8  UNL     1       1.415  25.704   7.856  1.00  0.00     0.046 C 
HETATM   27  C9  UNL     1       0.069  24.465   6.226  1.00  0.00     0.046 C 
HETATM   28  C10 UNL     1       0.089  26.928   6.127  1.00  0.00     0.046 C 
ENDBRANCH  24  25
ENDBRANCH  21  24
ENDBRANCH  15  20
ENDBRANCH  12  15
ENDBRANCH  10  11
BRANCH  10  29
HETATM   29  C13 UNL     1       1.464  20.294   9.121  1.00  0.00     0.250 C 
HETATM   30  O4  UNL     1       1.579  19.406   8.249  1.00  0.00    -0.271 OA
HETATM   31  N3  UNL     1       2.452  21.295   9.193  1.00  0.00    -0.347 N 
ATOM     32  H3  UNL     1       2.372  22.031   9.894  1.00  0.00     0.163 HD
BRANCH  31  33
HETATM   33  C14 UNL     1       3.602  21.291   8.268  1.00  0.00     0.154 C 
HETATM   34  C15 UNL     1       4.847  21.249   9.101  1.00  0.00     0.033 C 
HETATM   35  C16 UNL     1       5.081  22.687   9.535  1.00  0.00     0.010 C 
HETATM   36  C17 UNL     1       4.266  23.555   8.590  1.00  0.00     0.080 C 
HETATM   37  C18 UNL     1       3.650  22.626   7.626  1.00  0.00     0.149 C 
HETATM   38  O5  UNL     1       3.250  22.895   6.511  1.00  0.00    -0.296 OA
ENDBRANCH  31  33
ENDBRANCH  10  29
ENDBRANCH   7  10
ENDBRANCH   1   6
TORSDOF 11
ENDMDL
MODEL 2
REMARK VINA RESULT: -6.451760695      4.280      9.296
REMARK  11 active torsions:
REMARK  status: ('A' for Active; 'I' for Inactive)
REMARK    1  A    between atoms: C2_2  and  C4_4 
REMARK    2  A    between atoms: C4_4  and  C5_5 
REMARK    3  A    between atoms: C5_5  and  N1_6 
REMARK    4  A    between atoms: C5_5  and  C11_15 
REMARK       I    between atoms: N1_6  and  C6_8 
REMARK    5  A    between atoms: C6_8  and  O2_10 
REMARK    6  A    between atoms: O2_10  and  C7_11 
REMARK       I    between atoms: C11_15  and  N2_17 
REMARK    7  A    between atoms: N2_17  and  C12_19 
REMARK    8  A    between atoms: C12_19  and  C13_20 
REMARK    9  A    between atoms: C12_19  and  C19_30 
REMARK       I    between atoms: C13_20  and  N3_22 
REMARK   10  A    between atoms: N3_22  and  C14_24 
REMARK       I    between atoms: C19_30  and  N4_32 
REMARK   11  A    between atoms: N4_32  and  C20_34 
ROOT
HETATM    1  C20 UNL     1      -3.666  24.096  10.890  1.00  0.00     0.122 A 
HETATM    2  C21 UNL     1      -4.599  25.221  10.896  1.00  0.00     0.091 C 
HETATM    3  N5  UNL     1      -5.333  26.131  10.907  1.00  0.00    -0.195 NA
HETATM    4  C22 UNL     1      -2.197  24.432  10.969  1.00  0.00     0.050 A 
HETATM    5  C23 UNL     1      -2.853  23.814  12.162  1.00  0.00     0.050 A 
ENDROOT
BRANCH   1   6
HETATM    6  N4  UNL     1      -4.048  22.950  10.066  1.00  0.00    -0.337 N 
HETATM    7  C19 UNL     1      -5.281  22.337  10.320  1.00  0.00     0.251 C 
HETATM    8  O6  UNL     1      -6.060  22.753  11.232  1.00  0.00    -0.271 OA
ATOM      9  H4  UNL     1      -3.434  22.607   9.327  1.00  0.00     0.164 HD
BRANCH   7  10
HETATM   10  C12 UNL     1      -5.764  21.140   9.525  1.00  0.00     0.269 C 
BRANCH  10  11
HETATM   11  N2  UNL     1      -4.537  20.570   8.921  1.00  0.00    -0.338 N 
HETATM   12  C11 UNL     1      -4.345  19.164   8.916  1.00  0.00     0.241 C 
HETATM   13  O3  UNL     1      -5.236  18.435   9.423  1.00  0.00    -0.271 OA
ATOM     14  H2  UNL     1      -3.834  21.185   8.511  1.00  0.00     0.163 HD
BRANCH  12  15
HETATM   15  C5  UNL     1      -3.152  18.515   8.353  1.00  0.00     0.179 C 
BRANCH  15  16
HETATM   16  C4  UNL     1      -1.913  19.327   8.335  1.00  0.00     0.038 C 
BRANCH  16  17
HETATM   17  C2  UNL     1      -1.100  19.449   9.552  1.00  0.00    -0.020 C 
HETATM   18  C1  UNL     1      -0.724  20.858   9.937  1.00  0.00     0.009 C 
HETATM   19  C3  UNL     1       0.107  18.562   9.639  1.00  0.00     0.009 C 
ENDBRANCH  16  17
ENDBRANCH  15  16
BRANCH  15  20
HETATM   20  N1  UNL     1      -3.500  18.273   6.922  1.00  0.00    -0.324 N 
HETATM   21  C6  UNL     1      -3.197  17.037   6.334  1.00  0.00     0.362 C 
HETATM   22  O1  UNL     1      -2.636  16.139   7.021  1.00  0.00    -0.238 OA
ATOM     23  H1  UNL     1      -3.955  19.004   6.375  1.00  0.00     0.165 HD
BRANCH  21  24
HETATM   24  O2  UNL     1      -3.497  16.769   5.018  1.00  0.00    -0.294 OA
BRANCH  24  25
HETATM   25  C7  UNL     1      -4.786  16.459   4.542  1.00  0.00     0.061 C 
HETATM   26  C8  UNL     1      -4.731  15.707   3.228  1.00  0.00     0.046 C 
HETATM   27  C9  UNL     1      -5.533  15.611   5.542  1.00  0.00     0.046 C 
HETATM   28  C10 UNL     1      -5.539  17.779   4.369  1.00  0.00     0.046 C 
ENDBRANCH  24  25
ENDBRANCH  21  24
ENDBRANCH  15  20
ENDBRANCH  12  15
ENDBRANCH  10  11
BRANCH  10  29
HETATM   29  C13 UNL     1      -6.636  21.569   8.426  1.00  0.00     0.250 C 
HETATM   30  O4  UNL     1      -6.637  20.947   7.342  1.00  0.00    -0.271 OA
HETATM   31  N3  UNL     1      -7.493  22.678   8.563  1.00  0.00    -0.347 N 
ATOM     32  H3  UNL     1      -7.512  23.194   9.442  1.00  0.00     0.163 HD
BRANCH  31  33
HETATM   33  C14 UNL     1      -8.365  23.104   7.451  1.00  0.00     0.154 C 
HETATM   34  C15 UNL     1      -8.894  24.464   7.791  1.00  0.00     0.033 C 
HETATM   35  C16 UNL     1     -10.061  24.211   8.731  1.00  0.00     0.010 C 
HETATM   36  C17 UNL     1     -10.452  22.754   8.540  1.00  0.00     0.080 C 
HETATM   37  C18 UNL     1      -9.567  22.238   7.482  1.00  0.00     0.149 C 
HETATM   38  O5  UNL     1      -9.774  21.280   6.764  1.00  0.00    -0.296 OA
ENDBRANCH  31  33
ENDBRANCH  10  29
ENDBRANCH   7  10
ENDBRANCH   1   6
TORSDOF 11
ENDMDL
MODEL 3
REMARK VINA RESULT: -6.410952619      1.111      1.450
REMARK  11 active torsions:
REMARK  status: ('A' for Active; 'I' for Inactive)
REMARK    1  A    between atoms: C2_2  and  C4_4 
REMARK    2  A    between atoms: C4_4  and  C5_5 
REMARK    3  A    between atoms: C5_5  and  N1_6 
REMARK    4  A    between atoms: C5_5  and  C11_15 
REMARK       I    between atoms: N1_6  and  C6_8 
REMARK    5  A    between atoms: C6_8  and  O2_10 
REMARK    6  A    between atoms: O2_10  and  C7_11 
REMARK       I    between atoms: C11_15  and  N2_17 
REMARK    7  A    between atoms: N2_17  and  C12_19 
REMARK    8  A    between atoms: C12_19  and  C13_20 
REMARK    9  A    between atoms: C12_19  and  C19_30 
REMARK       I    between atoms: C13_20  and  N3_22 
REMARK   10  A    between atoms: N3_22  and  C14_24 
REMARK       I    between atoms: C19_30  and  N4_32 
REMARK   11  A    between atoms: N4_32  and  C20_34 
ROOT
HETATM    1  C20 UNL     1      -2.285  18.719   8.517  1.00  0.00     0.122 A 
HETATM    2  C21 UNL     1      -1.826  17.333   8.588  1.00  0.00     0.091 C 
HETATM    3  N5  UNL     1      -1.473  16.219   8.638  1.00  0.00    -0.195 NA
HETATM    4  C22 UNL     1      -3.434  19.006   7.583  1.00  0.00     0.050 A 
HETATM    5  C23 UNL     1      -3.683  19.054   9.056  1.00  0.00     0.050 A 
ENDROOT
BRANCH   1   6
HETATM    6  N4  UNL     1      -1.250  19.744   8.643  1.00  0.00    -0.337 N 
HETATM    7  C19 UNL     1      -0.340  19.637   9.701  1.00  0.00     0.251 C 
HETATM    8  O6  UNL     1      -0.393  18.681  10.535  1.00  0.00    -0.271 OA
ATOM      9  H4  UNL     1      -1.192  20.515   7.978  1.00  0.00     0.164 HD
BRANCH   7  10
HETATM   10  C12 UNL     1       0.765  20.651   9.920  1.00  0.00     0.269 C 
BRANCH  10  11
HETATM   11  N2  UNL     1       0.162  21.951   9.539  1.00  0.00    -0.338 N 
HETATM   12  C11 UNL     1       0.488  23.118  10.277  1.00  0.00     0.241 C 
HETATM   13  O3  UNL     1       1.293  23.016  11.237  1.00  0.00    -0.271 OA
ATOM     14  H2  UNL     1      -0.483  22.005   8.751  1.00  0.00     0.163 HD
BRANCH  12  15
HETATM   15  C5  UNL     1      -0.075  24.444   9.978  1.00  0.00     0.179 C 
BRANCH  15  16
HETATM   16  C4  UNL     1      -1.309  24.810  10.712  1.00  0.00     0.038 C 
BRANCH  16  17
HETATM   17  C2  UNL     1      -2.070  23.777  11.426  1.00  0.00    -0.020 C 
HETATM   18  C1  UNL     1      -3.408  23.431  10.824  1.00  0.00     0.009 C 
HETATM   19  C3  UNL     1      -2.215  23.962  12.908  1.00  0.00     0.009 C 
ENDBRANCH  16  17
ENDBRANCH  15  16
BRANCH  15  20
HETATM   20  N1  UNL     1      -0.465  24.367   8.540  1.00  0.00    -0.324 N 
HETATM   21  C6  UNL     1      -0.253  25.473   7.705  1.00  0.00     0.362 C 
HETATM   22  O1  UNL     1       0.267  26.522   8.176  1.00  0.00    -0.238 OA
ATOM     23  H1  UNL     1      -0.883  23.515   8.167  1.00  0.00     0.165 HD
BRANCH  21  24
HETATM   24  O2  UNL     1      -0.598  25.450   6.373  1.00  0.00    -0.294 OA
BRANCH  24  25
HETATM   25  C7  UNL     1       0.319  25.298   5.314  1.00  0.00     0.061 C 
HETATM   26  C8  UNL     1       1.673  24.833   5.809  1.00  0.00     0.046 C 
HETATM   27  C9  UNL     1      -0.189  24.292   4.312  1.00  0.00     0.046 C 
HETATM   28  C10 UNL     1       0.443  26.654   4.619  1.00  0.00     0.046 C 
ENDBRANCH  24  25
ENDBRANCH  21  24
ENDBRANCH  15  20
ENDBRANCH  12  15
ENDBRANCH  10  11
BRANCH  10  29
HETATM   29  C13 UNL     1       1.884  20.401   9.005  1.00  0.00     0.250 C 
HETATM   30  O4  UNL     1       1.873  19.402   8.253  1.00  0.00    -0.271 OA
HETATM   31  N3  UNL     1       2.988  21.273   8.943  1.00  0.00    -0.347 N 
ATOM     32  H3  UNL     1       3.013  22.097   9.544  1.00  0.00     0.163 HD
BRANCH  31  33
HETATM   33  C14 UNL     1       4.111  21.011   8.022  1.00  0.00     0.154 C 
HETATM   34  C15 UNL     1       5.368  21.009   8.836  1.00  0.00     0.033 C 
HETATM   35  C16 UNL     1       5.731  22.474   9.008  1.00  0.00     0.010 C 
HETATM   36  C17 UNL     1       4.966  23.230   7.933  1.00  0.00     0.080 C 
HETATM   37  C18 UNL     1       4.251  22.204   7.155  1.00  0.00     0.149 C 
HETATM   38  O5  UNL     1       3.847  22.307   6.014  1.00  0.00    -0.296 OA
ENDBRANCH  31  33
ENDBRANCH  10  29
ENDBRANCH   7  10
ENDBRANCH   1   6
TORSDOF 11
ENDMDL
MODEL 4
REMARK VINA RESULT: -6.343609748      2.372      4.216
REMARK  11 active torsions:
REMARK  status: ('A' for Active; 'I' for Inactive)
REMARK    1  A    between atoms: C2_2  and  C4_4 
REMARK    2  A    between atoms: C4_4  and  C5_5 
REMARK    3  A    between atoms: C5_5  and  N1_6 
REMARK    4  A    between atoms: C5_5  and  C11_15 
REMARK       I    between atoms: N1_6  and  C6_8 
REMARK    5  A    between atoms: C6_8  and  O2_10 
REMARK    6  A    between atoms: O2_10  and  C7_11 
REMARK       I    between atoms: C11_15  and  N2_17 
REMARK    7  A    between atoms: N2_17  and  C12_19 
REMARK    8  A    between atoms: C12_19  and  C13_20 
REMARK    9  A    between atoms: C12_19  and  C19_30 
REMARK       I    between atoms: C13_20  and  N3_22 
REMARK   10  A    between atoms: N3_22  and  C14_24 
REMARK       I    between atoms: C19_30  and  N4_32 
REMARK   11  A    between atoms: N4_32  and  C20_34 
ROOT
HETATM    1  C20 UNL     1      -2.632  18.543   8.337  1.00  0.00     0.122 A 
HETATM    2  C21 UNL     1      -2.159  17.208   7.975  1.00  0.00     0.091 C 
HETATM    3  N5  UNL     1      -1.795  16.138   7.676  1.00  0.00    -0.195 NA
HETATM    4  C22 UNL     1      -3.748  19.118   7.501  1.00  0.00     0.050 A 
HETATM    5  C23 UNL     1      -4.052  18.687   8.900  1.00  0.00     0.050 A 
ENDROOT
BRANCH   1   6
HETATM    6  N4  UNL     1      -1.614  19.472   8.827  1.00  0.00    -0.337 N 
HETATM    7  C19 UNL     1      -0.571  18.957   9.605  1.00  0.00     0.251 C 
HETATM    8  O6  UNL     1      -0.490  17.721   9.884  1.00  0.00    -0.271 OA
ATOM      9  H4  UNL     1      -1.663  20.467   8.607  1.00  0.00     0.164 HD
BRANCH   7  10
HETATM   10  C12 UNL     1       0.529  19.840  10.164  1.00  0.00     0.269 C 
BRANCH  10  11
HETATM   11  N2  UNL     1      -0.123  21.151  10.393  1.00  0.00    -0.338 N 
HETATM   12  C11 UNL     1      -0.140  21.708  11.698  1.00  0.00     0.241 C 
HETATM   13  O3  UNL     1       0.409  21.067  12.631  1.00  0.00    -0.271 OA
ATOM     14  H2  UNL     1      -0.555  21.651   9.616  1.00  0.00     0.163 HD
BRANCH  12  15
HETATM   15  C5  UNL     1      -0.777  22.994  12.018  1.00  0.00     0.179 C 
BRANCH  15  16
HETATM   16  C4  UNL     1      -0.090  24.206  11.513  1.00  0.00     0.038 C 
BRANCH  16  17
HETATM   17  C2  UNL     1      -0.529  24.826  10.256  1.00  0.00    -0.020 C 
HETATM   18  C1  UNL     1      -2.005  24.723   9.968  1.00  0.00     0.009 C 
HETATM   19  C3  UNL     1       0.252  24.466   9.028  1.00  0.00     0.009 C 
ENDBRANCH  16  17
ENDBRANCH  15  16
BRANCH  15  20
HETATM   20  N1  UNL     1      -0.713  23.081  13.506  1.00  0.00    -0.324 N 
HETATM   21  C6  UNL     1      -1.833  23.527  14.223  1.00  0.00     0.362 C 
HETATM   22  O1  UNL     1      -2.884  23.849  13.604  1.00  0.00    -0.238 OA
ATOM     23  H1  UNL     1       0.141  22.818  13.999  1.00  0.00     0.165 HD
BRANCH  21  24
HETATM   24  O2  UNL     1      -1.820  23.626  15.595  1.00  0.00    -0.294 OA
BRANCH  24  25
HETATM   25  C7  UNL     1      -1.637  24.829  16.306  1.00  0.00     0.061 C 
HETATM   26  C8  UNL     1      -0.752  25.797  15.549  1.00  0.00     0.046 C 
HETATM   27  C9  UNL     1      -2.962  25.501  16.564  1.00  0.00     0.046 C 
HETATM   28  C10 UNL     1      -1.005  24.471  17.652  1.00  0.00     0.046 C 
ENDBRANCH  24  25
ENDBRANCH  21  24
ENDBRANCH  15  20
ENDBRANCH  12  15
ENDBRANCH  10  11
BRANCH  10  29
HETATM   29  C13 UNL     1       1.585  20.042   9.167  1.00  0.00     0.250 C 
HETATM   30  O4  UNL     1       1.678  19.277   8.182  1.00  0.00    -0.271 OA
HETATM   31  N3  UNL     1       2.513  21.095   9.286  1.00  0.00    -0.347 N 
ATOM     32  H3  UNL     1       2.450  21.733  10.079  1.00  0.00     0.163 HD
BRANCH  31  33
HETATM   33  C14 UNL     1       3.574  21.288   8.279  1.00  0.00     0.154 C 
HETATM   34  C15 UNL     1       4.883  21.314   9.007  1.00  0.00     0.033 C 
HETATM   35  C16 UNL     1       5.008  22.730   9.546  1.00  0.00     0.010 C 
HETATM   36  C17 UNL     1       4.032  23.577   8.745  1.00  0.00     0.080 C 
HETATM   37  C18 UNL     1       3.432  22.666   7.754  1.00  0.00     0.149 C 
HETATM   38  O5  UNL     1       2.914  22.978   6.701  1.00  0.00    -0.296 OA
ENDBRANCH  31  33
ENDBRANCH  10  29
ENDBRANCH   7  10
ENDBRANCH   1   6
TORSDOF 11
ENDMDL
MODEL 5
REMARK VINA RESULT: -6.265135370      0.663      1.025
REMARK  11 active torsions:
REMARK  status: ('A' for Active; 'I' for Inactive)
REMARK    1  A    between atoms: C2_2  and  C4_4 
REMARK    2  A    between atoms: C4_4  and  C5_5 
REMARK    3  A    between atoms: C5_5  and  N1_6 
REMARK    4  A    between atoms: C5_5  and  C11_15 
REMARK       I    between atoms: N1_6  and  C6_8 
REMARK    5  A    between atoms: C6_8  and  O2_10 
REMARK    6  A    between atoms: O2_10  and  C7_11 
REMARK       I    between atoms: C11_15  and  N2_17 
REMARK    7  A    between atoms: N2_17  and  C12_19 
REMARK    8  A    between atoms: C12_19  and  C13_20 
REMARK    9  A    between atoms: C12_19  and  C19_30 
REMARK       I    between atoms: C13_20  and  N3_22 
REMARK   10  A    between atoms: N3_22  and  C14_24 
REMARK       I    between atoms: C19_30  and  N4_32 
REMARK   11  A    between atoms: N4_32  and  C20_34 
ROOT
HETATM    1  C20 UNL     1      -2.685  18.578   8.341  1.00  0.00     0.122 A 
HETATM    2  C21 UNL     1      -2.123  17.244   8.132  1.00  0.00     0.091 C 
HETATM    3  N5  UNL     1      -1.689  16.173   7.956  1.00  0.00    -0.195 NA
HETATM    4  C22 UNL     1      -3.847  18.970   7.461  1.00  0.00     0.050 A 
HETATM    5  C23 UNL     1      -4.108  18.691   8.906  1.00  0.00     0.050 A 
ENDROOT
BRANCH   1   6
HETATM    6  N4  UNL     1      -1.731  19.626   8.699  1.00  0.00    -0.337 N 
HETATM    7  C19 UNL     1      -0.713  19.309   9.607  1.00  0.00     0.251 C 
HETATM    8  O6  UNL     1      -0.603  18.149  10.111  1.00  0.00    -0.271 OA
ATOM      9  H4  UNL     1      -1.804  20.561   8.298  1.00  0.00     0.164 HD
BRANCH   7  10
HETATM   10  C12 UNL     1       0.320  20.328  10.045  1.00  0.00     0.269 C 
BRANCH  10  11
HETATM   11  N2  UNL     1      -0.361  21.637   9.910  1.00  0.00    -0.338 N 
HETATM   12  C11 UNL     1      -0.627  22.413  11.068  1.00  0.00     0.241 C 
HETATM   13  O3  UNL     1      -0.266  21.965  12.186  1.00  0.00    -0.271 OA
ATOM     14  H2  UNL     1      -0.637  21.978   8.989  1.00  0.00     0.163 HD
BRANCH  12  15
HETATM   15  C5  UNL     1      -1.312  23.714  11.027  1.00  0.00     0.179 C 
BRANCH  15  16
HETATM   16  C4  UNL     1      -2.746  23.710  11.398  1.00  0.00     0.038 C 
BRANCH  16  17
HETATM   17  C2  UNL     1      -3.192  24.412  12.609  1.00  0.00    -0.020 C 
HETATM   18  C1  UNL     1      -3.534  25.868  12.419  1.00  0.00     0.009 C 
HETATM   19  C3  UNL     1      -2.333  24.249  13.827  1.00  0.00     0.009 C 
ENDBRANCH  16  17
ENDBRANCH  15  16
BRANCH  15  20
HETATM   20  N1  UNL     1      -1.265  24.114   9.591  1.00  0.00    -0.324 N 
HETATM   21  C6  UNL     1      -1.051  25.458   9.252  1.00  0.00     0.362 C 
HETATM   22  O1  UNL     1      -0.898  26.315  10.165  1.00  0.00    -0.238 OA
ATOM     23  H1  UNL     1      -1.389  23.414   8.859  1.00  0.00     0.165 HD
BRANCH  21  24
HETATM   24  O2  UNL     1      -1.002  25.874   7.942  1.00  0.00    -0.294 OA
BRANCH  24  25
HETATM   25  C7  UNL     1       0.124  25.743   7.105  1.00  0.00     0.061 C 
HETATM   26  C8  UNL     1       1.416  25.804   7.892  1.00  0.00     0.046 C 
HETATM   27  C9  UNL     1       0.083  24.431   6.362  1.00  0.00     0.046 C 
HETATM   28  C10 UNL     1       0.068  26.879   6.083  1.00  0.00     0.046 C 
ENDBRANCH  24  25
ENDBRANCH  21  24
ENDBRANCH  15  20
ENDBRANCH  12  15
ENDBRANCH  10  11
BRANCH  10  29
HETATM   29  C13 UNL     1       1.464  20.331   9.127  1.00  0.00     0.250 C 
HETATM   30  O4  UNL     1       1.556  19.464   8.231  1.00  0.00    -0.271 OA
HETATM   31  N3  UNL     1       2.478  21.304   9.224  1.00  0.00    -0.347 N 
ATOM     32  H3  UNL     1       2.417  22.023   9.944  1.00  0.00     0.163 HD
BRANCH  31  33
HETATM   33  C14 UNL     1       3.626  21.296   8.297  1.00  0.00     0.154 C 
HETATM   34  C15 UNL     1       4.873  21.285   9.128  1.00  0.00     0.033 C 
HETATM   35  C16 UNL     1       5.091  22.734   9.534  1.00  0.00     0.010 C 
HETATM   36  C17 UNL     1       4.264  23.573   8.573  1.00  0.00     0.080 C 
HETATM   37  C18 UNL     1       3.657  22.619   7.629  1.00  0.00     0.149 C 
HETATM   38  O5  UNL     1       3.252  22.861   6.510  1.00  0.00    -0.296 OA
ENDBRANCH  31  33
ENDBRANCH  10  29
ENDBRANCH   7  10
ENDBRANCH   1   6
TORSDOF 11
ENDMDL
