MODEL 1
REMARK VINA RESULT: -9.080738399      0.000      0.000
REMARK  9 active torsions:
REMARK  status: ('A' for Active; 'I' for Inactive)
REMARK    1  A    between atoms: C2_2  and  N1_3 
REMARK    2  A    between atoms: C2_2  and  C10_13 
REMARK       I    between atoms: N1_3  and  C3_5 
REMARK    3  A    between atoms: C3_5  and  C4_7 
REMARK       I    between atoms: C10_13  and  N2_15 
REMARK    4  A    between atoms: N2_15  and  C11_17 
REMARK    5  A    between atoms: C11_17  and  C12_18 
REMARK    6  A    between atoms: C11_17  and  C21_32 
REMARK       I    between atoms: C12_18  and  N3_20 
REMARK    7  A    between atoms: N3_20  and  C13_22 
REMARK    8  A    between atoms: C13_22  and  C14_23 
REMARK    9  A    between atoms: C19_28  and  C20_29 
ROOT
HETATM    1  C11 UNL     1      -4.307  17.914   7.431  1.00  0.00     0.207 C 
ENDROOT
BRANCH   1   2
HETATM    2  N2  UNL     1      -4.881  19.252   7.422  1.00  0.00    -0.344 N 
HETATM    3  C10 UNL     1      -5.354  19.916   8.557  1.00  0.00     0.240 C 
HETATM    4  O2  UNL     1      -5.272  19.328   9.666  1.00  0.00    -0.271 OA
ATOM      5  H2  UNL     1      -4.942  19.738   6.527  1.00  0.00     0.163 HD
BRANCH   3   6
HETATM    6  C2  UNL     1      -5.945  21.278   8.542  1.00  0.00     0.172 C 
HETATM    7  C1  UNL     1      -5.796  22.025   9.825  1.00  0.00     0.042 C 
BRANCH   6   8
HETATM    8  N1  UNL     1      -7.342  21.217   8.190  1.00  0.00    -0.348 N 
HETATM    9  C3  UNL     1      -7.898  22.000   7.168  1.00  0.00     0.222 C 
HETATM   10  O1  UNL     1      -7.120  22.783   6.534  1.00  0.00    -0.273 OA
ATOM     11  H1  UNL     1      -7.949  20.579   8.705  1.00  0.00     0.163 HD
BRANCH   9  12
HETATM   12  C4  UNL     1      -9.313  21.979   6.782  1.00  0.00     0.078 C 
HETATM   13  C5  UNL     1     -10.063  23.215   7.148  1.00  0.00     0.014 C 
HETATM   14  C6  UNL     1     -11.457  23.298   6.633  1.00  0.00     0.001 C 
HETATM   15  C7  UNL     1     -11.614  22.848   5.206  1.00  0.00     0.000 C 
HETATM   16  C8  UNL     1     -10.915  21.541   4.927  1.00  0.00     0.001 C 
HETATM   17  C9  UNL     1      -9.441  21.637   5.317  1.00  0.00     0.014 C 
ENDBRANCH   9  12
ENDBRANCH   6   8
ENDBRANCH   3   6
ENDBRANCH   1   2
BRANCH   1  18
HETATM   18  C12 UNL     1      -2.969  17.950   8.120  1.00  0.00     0.243 C 
HETATM   19  O3  UNL     1      -2.478  16.874   8.500  1.00  0.00    -0.271 OA
HETATM   20  N3  UNL     1      -2.270  19.156   8.335  1.00  0.00    -0.359 N 
ATOM     21  H3  UNL     1      -2.709  20.018   8.012  1.00  0.00     0.162 HD
BRANCH  20  22
HETATM   22  C13 UNL     1      -1.001  19.265   8.968  1.00  0.00     0.128 C 
BRANCH  22  23
HETATM   23  C14 UNL     1      -0.785  20.437   9.862  1.00  0.00     0.018 C 
HETATM   24  C15 UNL     1      -0.972  21.776   9.230  1.00  0.00     0.007 C 
HETATM   25  C16 UNL     1      -0.422  22.830  10.155  1.00  0.00     0.000 C 
HETATM   26  C17 UNL     1      -0.376  22.389  11.603  1.00  0.00     0.001 C 
HETATM   27  C18 UNL     1       0.624  21.276  11.730  1.00  0.00     0.016 C 
HETATM   28  C19 UNL     1       0.558  20.311  10.566  1.00  0.00     0.092 C 
BRANCH  28  29
HETATM   29  C20 UNL     1       1.711  20.510   9.684  1.00  0.00     0.177 C 
HETATM   30  O4  UNL     1       1.913  19.943   8.585  1.00  0.00    -0.648 OA
HETATM   31  O5  UNL     1       2.684  21.415  10.086  1.00  0.00    -0.648 OA
ENDBRANCH  28  29
ENDBRANCH  22  23
ENDBRANCH  20  22
ENDBRANCH   1  18
BRANCH   1  32
HETATM   32  C21 UNL     1      -4.136  17.503   6.020  1.00  0.00     0.179 C 
HETATM   33  C22 UNL     1      -5.430  17.512   5.232  1.00  0.00     0.205 C 
HETATM   34  O6  UNL     1      -5.076  16.763   4.111  1.00  0.00    -0.364 OA
HETATM   35  C23 UNL     1      -3.909  16.078   4.408  1.00  0.00     0.338 C 
HETATM   36  O7  UNL     1      -3.666  16.243   5.780  1.00  0.00    -0.357 OA
ENDBRANCH   1  32
TORSDOF 9
ENDMDL
MODEL 2
REMARK VINA RESULT: -8.670260955      1.011      1.417
REMARK  9 active torsions:
REMARK  status: ('A' for Active; 'I' for Inactive)
REMARK    1  A    between atoms: C2_2  and  N1_3 
REMARK    2  A    between atoms: C2_2  and  C10_13 
REMARK       I    between atoms: N1_3  and  C3_5 
REMARK    3  A    between atoms: C3_5  and  C4_7 
REMARK       I    between atoms: C10_13  and  N2_15 
REMARK    4  A    between atoms: N2_15  and  C11_17 
REMARK    5  A    between atoms: C11_17  and  C12_18 
REMARK    6  A    between atoms: C11_17  and  C21_32 
REMARK       I    between atoms: C12_18  and  N3_20 
REMARK    7  A    between atoms: N3_20  and  C13_22 
REMARK    8  A    between atoms: C13_22  and  C14_23 
REMARK    9  A    between atoms: C19_28  and  C20_29 
ROOT
HETATM    1  C11 UNL     1      -4.122  17.863   7.556  1.00  0.00     0.207 C 
ENDROOT
BRANCH   1   2
HETATM    2  N2  UNL     1      -4.649  19.220   7.523  1.00  0.00    -0.344 N 
HETATM    3  C10 UNL     1      -5.295  19.842   8.594  1.00  0.00     0.240 C 
HETATM    4  O2  UNL     1      -5.427  19.196   9.665  1.00  0.00    -0.271 OA
ATOM      5  H2  UNL     1      -4.537  19.753   6.660  1.00  0.00     0.163 HD
BRANCH   3   6
HETATM    6  C2  UNL     1      -5.837  21.224   8.553  1.00  0.00     0.172 C 
HETATM    7  C1  UNL     1      -5.651  21.992   9.818  1.00  0.00     0.042 C 
BRANCH   6   8
HETATM    8  N1  UNL     1      -7.238  21.206   8.213  1.00  0.00    -0.348 N 
HETATM    9  C3  UNL     1      -7.766  21.951   7.147  1.00  0.00     0.222 C 
HETATM   10  O1  UNL     1      -6.958  22.656   6.463  1.00  0.00    -0.273 OA
ATOM     11  H1  UNL     1      -7.870  20.629   8.768  1.00  0.00     0.163 HD
BRANCH   9  12
HETATM   12  C4  UNL     1      -9.183  21.972   6.770  1.00  0.00     0.078 C 
HETATM   13  C5  UNL     1      -9.881  23.248   7.097  1.00  0.00     0.014 C 
HETATM   14  C6  UNL     1     -11.275  23.368   6.587  1.00  0.00     0.001 C 
HETATM   15  C7  UNL     1     -11.459  22.874   5.177  1.00  0.00     0.000 C 
HETATM   16  C8  UNL     1     -10.814  21.532   4.942  1.00  0.00     0.001 C 
HETATM   17  C9  UNL     1      -9.335  21.583   5.320  1.00  0.00     0.014 C 
ENDBRANCH   9  12
ENDBRANCH   6   8
ENDBRANCH   3   6
ENDBRANCH   1   2
BRANCH   1  18
HETATM   18  C12 UNL     1      -2.801  17.857   8.278  1.00  0.00     0.243 C 
HETATM   19  O3  UNL     1      -2.291  16.759   8.555  1.00  0.00    -0.271 OA
HETATM   20  N3  UNL     1      -2.140  19.050   8.636  1.00  0.00    -0.359 N 
ATOM     21  H3  UNL     1      -2.594  19.931   8.394  1.00  0.00     0.162 HD
BRANCH  20  22
HETATM   22  C13 UNL     1      -0.888  19.122   9.309  1.00  0.00     0.128 C 
BRANCH  22  23
HETATM   23  C14 UNL     1      -0.106  20.382   9.158  1.00  0.00     0.018 C 
HETATM   24  C15 UNL     1       1.358  20.211   8.923  1.00  0.00     0.007 C 
HETATM   25  C16 UNL     1       2.037  21.543   9.105  1.00  0.00     0.000 C 
HETATM   26  C17 UNL     1       1.107  22.720   8.901  1.00  0.00     0.001 C 
HETATM   27  C18 UNL     1       0.083  22.713   9.999  1.00  0.00     0.016 C 
HETATM   28  C19 UNL     1      -0.401  21.316  10.323  1.00  0.00     0.092 C 
BRANCH  28  29
HETATM   29  C20 UNL     1       0.169  20.872  11.598  1.00  0.00     0.177 C 
HETATM   30  O4  UNL     1       0.170  19.701  12.043  1.00  0.00    -0.648 OA
HETATM   31  O5  UNL     1       0.773  21.827  12.403  1.00  0.00    -0.648 OA
ENDBRANCH  28  29
ENDBRANCH  22  23
ENDBRANCH  20  22
ENDBRANCH   1  18
BRANCH   1  32
HETATM   32  C21 UNL     1      -3.930  17.434   6.152  1.00  0.00     0.179 C 
HETATM   33  C22 UNL     1      -5.212  17.437   5.345  1.00  0.00     0.205 C 
HETATM   34  O6  UNL     1      -4.843  16.674   4.238  1.00  0.00    -0.364 OA
HETATM   35  C23 UNL     1      -3.682  15.990   4.561  1.00  0.00     0.338 C 
HETATM   36  O7  UNL     1      -3.459  16.171   5.934  1.00  0.00    -0.357 OA
ENDBRANCH   1  32
TORSDOF 9
ENDMDL
MODEL 3
REMARK VINA RESULT: -8.353418681      0.891      1.171
REMARK  9 active torsions:
REMARK  status: ('A' for Active; 'I' for Inactive)
REMARK    1  A    between atoms: C2_2  and  N1_3 
REMARK    2  A    between atoms: C2_2  and  C10_13 
REMARK       I    between atoms: N1_3  and  C3_5 
REMARK    3  A    between atoms: C3_5  and  C4_7 
REMARK       I    between atoms: C10_13  and  N2_15 
REMARK    4  A    between atoms: N2_15  and  C11_17 
REMARK    5  A    between atoms: C11_17  and  C12_18 
REMARK    6  A    between atoms: C11_17  and  C21_32 
REMARK       I    between atoms: C12_18  and  N3_20 
REMARK    7  A    between atoms: N3_20  and  C13_22 
REMARK    8  A    between atoms: C13_22  and  C14_23 
REMARK    9  A    between atoms: C19_28  and  C20_29 
ROOT
HETATM    1  C11 UNL     1      -4.181  17.859   7.448  1.00  0.00     0.207 C 
ENDROOT
BRANCH   1   2
HETATM    2  N2  UNL     1      -4.700  19.219   7.473  1.00  0.00    -0.344 N 
HETATM    3  C10 UNL     1      -5.259  19.830   8.598  1.00  0.00     0.240 C 
HETATM    4  O2  UNL     1      -5.313  19.170   9.667  1.00  0.00    -0.271 OA
ATOM      5  H2  UNL     1      -4.652  19.763   6.611  1.00  0.00     0.163 HD
BRANCH   3   6
HETATM    6  C2  UNL     1      -5.794  21.215   8.617  1.00  0.00     0.172 C 
HETATM    7  C1  UNL     1      -5.254  22.065   9.717  1.00  0.00     0.042 C 
BRANCH   6   8
HETATM    8  N1  UNL     1      -7.233  21.199   8.695  1.00  0.00    -0.348 N 
HETATM    9  C3  UNL     1      -8.044  22.001   7.878  1.00  0.00     0.222 C 
HETATM   10  O1  UNL     1      -7.466  22.760   7.036  1.00  0.00    -0.273 OA
ATOM     11  H1  UNL     1      -7.680  20.579   9.371  1.00  0.00     0.163 HD
BRANCH   9  12
HETATM   12  C4  UNL     1      -9.510  22.025   7.929  1.00  0.00     0.078 C 
HETATM   13  C5  UNL     1     -10.069  22.185   9.302  1.00  0.00     0.014 C 
HETATM   14  C6  UNL     1     -11.543  22.374   9.378  1.00  0.00     0.001 C 
HETATM   15  C7  UNL     1     -12.098  23.314   8.342  1.00  0.00     0.000 C 
HETATM   16  C8  UNL     1     -11.568  23.034   6.959  1.00  0.00     0.001 C 
HETATM   17  C9  UNL     1     -10.041  23.056   6.963  1.00  0.00     0.014 C 
ENDBRANCH   9  12
ENDBRANCH   6   8
ENDBRANCH   3   6
ENDBRANCH   1   2
BRANCH   1  18
HETATM   18  C12 UNL     1      -2.823  17.831   8.098  1.00  0.00     0.243 C 
HETATM   19  O3  UNL     1      -2.220  16.747   8.144  1.00  0.00    -0.271 OA
HETATM   20  N3  UNL     1      -2.230  18.990   8.640  1.00  0.00    -0.359 N 
ATOM     21  H3  UNL     1      -2.760  19.859   8.586  1.00  0.00     0.162 HD
BRANCH  20  22
HETATM   22  C13 UNL     1      -0.949  19.041   9.258  1.00  0.00     0.128 C 
BRANCH  22  23
HETATM   23  C14 UNL     1      -0.504  20.359   9.792  1.00  0.00     0.018 C 
HETATM   24  C15 UNL     1      -0.783  21.538   8.921  1.00  0.00     0.007 C 
HETATM   25  C16 UNL     1      -0.010  22.721   9.442  1.00  0.00     0.000 C 
HETATM   26  C17 UNL     1       0.341  22.605  10.910  1.00  0.00     0.001 C 
HETATM   27  C18 UNL     1       1.309  21.469  11.080  1.00  0.00     0.016 C 
HETATM   28  C19 UNL     1       0.957  20.281  10.211  1.00  0.00     0.092 C 
BRANCH  28  29
HETATM   29  C20 UNL     1       1.892  20.188   9.086  1.00  0.00     0.177 C 
HETATM   30  O4  UNL     1       1.861  19.343   8.162  1.00  0.00    -0.648 OA
HETATM   31  O5  UNL     1       2.917  21.121   9.019  1.00  0.00    -0.648 OA
ENDBRANCH  28  29
ENDBRANCH  22  23
ENDBRANCH  20  22
ENDBRANCH   1  18
BRANCH   1  32
HETATM   32  C21 UNL     1      -4.068  17.461   6.027  1.00  0.00     0.179 C 
HETATM   33  C22 UNL     1      -5.385  17.521   5.282  1.00  0.00     0.205 C 
HETATM   34  O6  UNL     1      -5.091  16.775   4.141  1.00  0.00    -0.364 OA
HETATM   35  C23 UNL     1      -3.938  16.050   4.392  1.00  0.00     0.338 C 
HETATM   36  O7  UNL     1      -3.645  16.190   5.757  1.00  0.00    -0.357 OA
ENDBRANCH   1  32
TORSDOF 9
ENDMDL
MODEL 4
REMARK VINA RESULT: -8.199389970      2.449      8.893
REMARK  9 active torsions:
REMARK  status: ('A' for Active; 'I' for Inactive)
REMARK    1  A    between atoms: C2_2  and  N1_3 
REMARK    2  A    between atoms: C2_2  and  C10_13 
REMARK       I    between atoms: N1_3  and  C3_5 
REMARK    3  A    between atoms: C3_5  and  C4_7 
REMARK       I    between atoms: C10_13  and  N2_15 
REMARK    4  A    between atoms: N2_15  and  C11_17 
REMARK    5  A    between atoms: C11_17  and  C12_18 
REMARK    6  A    between atoms: C11_17  and  C21_32 
REMARK       I    between atoms: C12_18  and  N3_20 
REMARK    7  A    between atoms: N3_20  and  C13_22 
REMARK    8  A    between atoms: C13_22  and  C14_23 
REMARK    9  A    between atoms: C19_28  and  C20_29 
ROOT
HETATM    1  C11 UNL     1      -5.211  22.746  10.395  1.00  0.00     0.207 C 
ENDROOT
BRANCH   1   2
HETATM    2  N2  UNL     1      -4.250  21.796   9.853  1.00  0.00    -0.344 N 
HETATM    3  C10 UNL     1      -4.532  20.455   9.581  1.00  0.00     0.240 C 
HETATM    4  O2  UNL     1      -5.696  20.035   9.807  1.00  0.00    -0.271 OA
ATOM      5  H2  UNL     1      -3.306  22.132   9.659  1.00  0.00     0.163 HD
BRANCH   3   6
HETATM    6  C2  UNL     1      -3.545  19.488   9.035  1.00  0.00     0.172 C 
HETATM    7  C1  UNL     1      -2.134  19.970   9.067  1.00  0.00     0.042 C 
BRANCH   6   8
HETATM    8  N1  UNL     1      -3.891  19.125   7.684  1.00  0.00    -0.348 N 
HETATM    9  C3  UNL     1      -3.549  17.884   7.125  1.00  0.00     0.222 C 
HETATM   10  O1  UNL     1      -2.916  17.060   7.859  1.00  0.00    -0.273 OA
ATOM     11  H1  UNL     1      -4.404  19.796   7.112  1.00  0.00     0.163 HD
BRANCH   9  12
HETATM   12  C4  UNL     1      -3.870  17.475   5.753  1.00  0.00     0.078 C 
HETATM   13  C5  UNL     1      -3.190  16.221   5.317  1.00  0.00     0.014 C 
HETATM   14  C6  UNL     1      -3.612  15.687   3.993  1.00  0.00     0.001 C 
HETATM   15  C7  UNL     1      -5.097  15.731   3.757  1.00  0.00     0.000 C 
HETATM   16  C8  UNL     1      -5.707  17.060   4.125  1.00  0.00     0.001 C 
HETATM   17  C9  UNL     1      -5.367  17.415   5.571  1.00  0.00     0.014 C 
ENDBRANCH   9  12
ENDBRANCH   6   8
ENDBRANCH   3   6
ENDBRANCH   1   2
BRANCH   1  18
HETATM   18  C12 UNL     1      -6.028  23.325   9.270  1.00  0.00     0.243 C 
HETATM   19  O3  UNL     1      -5.890  24.531   9.009  1.00  0.00    -0.271 OA
HETATM   20  N3  UNL     1      -6.926  22.541   8.517  1.00  0.00    -0.359 N 
ATOM     21  H3  UNL     1      -7.013  21.555   8.765  1.00  0.00     0.162 HD
BRANCH  20  22
HETATM   22  C13 UNL     1      -7.720  23.016   7.436  1.00  0.00     0.128 C 
BRANCH  22  23
HETATM   23  C14 UNL     1      -9.135  23.369   7.736  1.00  0.00     0.018 C 
HETATM   24  C15 UNL     1      -9.833  22.476   8.708  1.00  0.00     0.007 C 
HETATM   25  C16 UNL     1     -11.310  22.770   8.663  1.00  0.00     0.000 C 
HETATM   26  C17 UNL     1     -11.627  24.161   8.155  1.00  0.00     0.001 C 
HETATM   27  C18 UNL     1     -11.224  24.243   6.711  1.00  0.00     0.016 C 
HETATM   28  C19 UNL     1      -9.914  23.536   6.439  1.00  0.00     0.092 C 
BRANCH  28  29
HETATM   29  C20 UNL     1     -10.162  22.277   5.731  1.00  0.00     0.177 C 
HETATM   30  O4  UNL     1     -11.273  21.850   5.340  1.00  0.00    -0.648 OA
HETATM   31  O5  UNL     1      -9.071  21.465   5.456  1.00  0.00    -0.648 OA
ENDBRANCH  28  29
ENDBRANCH  22  23
ENDBRANCH  20  22
ENDBRANCH   1  18
BRANCH   1  32
HETATM   32  C21 UNL     1      -4.439  23.818  11.061  1.00  0.00     0.179 C 
HETATM   33  C22 UNL     1      -2.960  23.511  11.168  1.00  0.00     0.205 C 
HETATM   34  O6  UNL     1      -2.552  24.448  12.117  1.00  0.00    -0.364 OA
HETATM   35  C23 UNL     1      -3.683  24.923  12.760  1.00  0.00     0.338 C 
HETATM   36  O7  UNL     1      -4.762  24.123  12.352  1.00  0.00    -0.357 OA
ENDBRANCH   1  32
TORSDOF 9
ENDMDL
MODEL 5
REMARK VINA RESULT: -8.082816608      1.907      8.270
REMARK  9 active torsions:
REMARK  status: ('A' for Active; 'I' for Inactive)
REMARK    1  A    between atoms: C2_2  and  N1_3 
REMARK    2  A    between atoms: C2_2  and  C10_13 
REMARK       I    between atoms: N1_3  and  C3_5 
REMARK    3  A    between atoms: C3_5  and  C4_7 
REMARK       I    between atoms: C10_13  and  N2_15 
REMARK    4  A    between atoms: N2_15  and  C11_17 
REMARK    5  A    between atoms: C11_17  and  C12_18 
REMARK    6  A    between atoms: C11_17  and  C21_32 
REMARK       I    between atoms: C12_18  and  N3_20 
REMARK    7  A    between atoms: N3_20  and  C13_22 
REMARK    8  A    between atoms: C13_22  and  C14_23 
REMARK    9  A    between atoms: C19_28  and  C20_29 
ROOT
HETATM    1  C11 UNL     1      -3.867  18.802   7.205  1.00  0.00     0.207 C 
ENDROOT
BRANCH   1   2
HETATM    2  N2  UNL     1      -2.680  18.380   7.935  1.00  0.00    -0.344 N 
HETATM    3  C10 UNL     1      -1.765  19.254   8.527  1.00  0.00     0.240 C 
HETATM    4  O2  UNL     1      -1.979  20.490   8.436  1.00  0.00    -0.271 OA
ATOM      5  H2  UNL     1      -2.505  17.379   8.021  1.00  0.00     0.163 HD
BRANCH   3   6
HETATM    6  C2  UNL     1      -0.552  18.818   9.264  1.00  0.00     0.172 C 
HETATM    7  C1  UNL     1      -0.441  17.342   9.443  1.00  0.00     0.042 C 
BRANCH   6   8
HETATM    8  N1  UNL     1      -0.490  19.457  10.555  1.00  0.00    -0.348 N 
HETATM    9  C3  UNL     1       0.484  20.414  10.878  1.00  0.00     0.222 C 
HETATM   10  O1  UNL     1       1.331  20.722   9.980  1.00  0.00    -0.273 OA
ATOM     11  H1  UNL     1      -1.182  19.204  11.261  1.00  0.00     0.163 HD
BRANCH   9  12
HETATM   12  C4  UNL     1       0.591  21.083  12.180  1.00  0.00     0.078 C 
HETATM   13  C5  UNL     1      -0.227  22.324  12.296  1.00  0.00     0.014 C 
HETATM   14  C6  UNL     1      -0.270  22.942  13.650  1.00  0.00     0.001 C 
HETATM   15  C7  UNL     1      -0.433  21.953  14.773  1.00  0.00     0.000 C 
HETATM   16  C8  UNL     1       0.494  20.771  14.647  1.00  0.00     0.001 C 
HETATM   17  C9  UNL     1       0.311  20.098  13.288  1.00  0.00     0.014 C 
ENDBRANCH   9  12
ENDBRANCH   6   8
ENDBRANCH   3   6
ENDBRANCH   1   2
BRANCH   1  18
HETATM   18  C12 UNL     1      -4.888  19.332   8.177  1.00  0.00     0.243 C 
HETATM   19  O3  UNL     1      -4.955  18.804   9.299  1.00  0.00    -0.271 OA
HETATM   20  N3  UNL     1      -5.751  20.398   7.848  1.00  0.00    -0.359 N 
ATOM     21  H3  UNL     1      -5.667  20.800   6.915  1.00  0.00     0.162 HD
BRANCH  20  22
HETATM   22  C13 UNL     1      -6.730  20.956   8.717  1.00  0.00     0.128 C 
BRANCH  22  23
HETATM   23  C14 UNL     1      -6.902  22.435   8.686  1.00  0.00     0.018 C 
HETATM   24  C15 UNL     1      -7.819  23.002   9.718  1.00  0.00     0.007 C 
HETATM   25  C16 UNL     1      -8.126  24.433   9.363  1.00  0.00     0.000 C 
HETATM   26  C17 UNL     1      -7.069  25.070   8.485  1.00  0.00     0.001 C 
HETATM   27  C18 UNL     1      -7.081  24.381   7.150  1.00  0.00     0.016 C 
HETATM   28  C19 UNL     1      -7.266  22.885   7.278  1.00  0.00     0.092 C 
BRANCH  28  29
HETATM   29  C20 UNL     1      -8.623  22.512   6.869  1.00  0.00     0.177 C 
HETATM   30  O4  UNL     1      -9.151  21.381   6.987  1.00  0.00    -0.648 OA
HETATM   31  O5  UNL     1      -9.418  23.494   6.295  1.00  0.00    -0.648 OA
ENDBRANCH  28  29
ENDBRANCH  22  23
ENDBRANCH  20  22
ENDBRANCH   1  18
BRANCH   1  32
HETATM   32  C21 UNL     1      -4.403  17.608   6.513  1.00  0.00     0.179 C 
HETATM   33  C22 UNL     1      -3.326  16.750   5.882  1.00  0.00     0.205 C 
HETATM   34  O6  UNL     1      -4.079  15.951   5.022  1.00  0.00    -0.364 OA
HETATM   35  C23 UNL     1      -5.321  16.544   4.869  1.00  0.00     0.338 C 
HETATM   36  O7  UNL     1      -5.255  17.812   5.465  1.00  0.00    -0.357 OA
ENDBRANCH   1  32
TORSDOF 9
ENDMDL
