MODEL 1
REMARK VINA RESULT: -6.137108448      0.000      0.000
REMARK  10 active torsions:
REMARK  status: ('A' for Active; 'I' for Inactive)
REMARK    1  A    between atoms: C2_2  and  C3_3 
REMARK    2  A    between atoms: C3_3  and  C5_5 
REMARK    3  A    between atoms: C5_5  and  N1_6 
REMARK    4  A    between atoms: C5_5  and  C14_21 
REMARK       I    between atoms: N1_6  and  C6_8 
REMARK    5  A    between atoms: C6_8  and  C7_10 
REMARK    6  A    between atoms: C7_10  and  C8_11 
REMARK    7  A    between atoms: C7_10  and  N2_13 
REMARK       I    between atoms: N2_13  and  C9_15 
REMARK    8  A    between atoms: C9_15  and  C10_17 
REMARK       I    between atoms: C14_21  and  N3_23 
REMARK    9  A    between atoms: C18_27  and  C19_28 
REMARK       I    between atoms: C19_28  and  N4_30 
REMARK   10  A    between atoms: N4_30  and  C20_32 
ROOT
HETATM    1  C5  UNL     1      -6.315  21.800   9.420  1.00  0.00     0.180 C 
ENDROOT
BRANCH   1   2
HETATM    2  C3  UNL     1      -6.525  22.509   8.135  1.00  0.00     0.013 C 
HETATM    3  C4  UNL     1      -6.725  24.017   8.372  1.00  0.00     0.012 C 
BRANCH   2   4
HETATM    4  C2  UNL     1      -7.643  22.058   7.290  1.00  0.00     0.002 C 
HETATM    5  C1  UNL     1      -7.285  21.706   5.887  1.00  0.00     0.005 C 
ENDBRANCH   2   4
ENDBRANCH   1   2
BRANCH   1   6
HETATM    6  N1  UNL     1      -4.968  21.195   9.409  1.00  0.00    -0.346 N 
HETATM    7  C6  UNL     1      -4.638  19.969   8.847  1.00  0.00     0.242 C 
HETATM    8  O1  UNL     1      -5.558  19.281   8.329  1.00  0.00    -0.271 OA
ATOM      9  H1  UNL     1      -4.215  21.723   9.851  1.00  0.00     0.163 HD
BRANCH   7  10
HETATM   10  C7  UNL     1      -3.284  19.427   8.818  1.00  0.00     0.186 C 
BRANCH  10  11
HETATM   11  C8  UNL     1      -2.903  18.532   7.702  1.00  0.00     0.120 C 
HETATM   12  S1  UNL     1      -2.195  16.953   8.148  1.00  0.00    -0.095 SA
ENDBRANCH  10  11
BRANCH  10  13
HETATM   13  N2  UNL     1      -2.222  20.396   9.029  1.00  0.00    -0.346 N 
HETATM   14  C9  UNL     1      -1.030  20.144   9.688  1.00  0.00     0.226 C 
HETATM   15  O2  UNL     1      -0.833  19.006  10.174  1.00  0.00    -0.273 OA
ATOM     16  H2  UNL     1      -2.365  21.337   8.662  1.00  0.00     0.163 HD
BRANCH  14  17
HETATM   17  C10 UNL     1       0.007  21.185   9.824  1.00  0.00     0.030 C 
HETATM   18  C11 UNL     1       0.014  21.660  11.262  1.00  0.00     0.024 C 
HETATM   19  C12 UNL     1       1.380  20.536   9.519  1.00  0.00     0.024 C 
HETATM   20  C13 UNL     1      -0.149  22.301   8.869  1.00  0.00     0.024 C 
ENDBRANCH  14  17
ENDBRANCH  10  13
ENDBRANCH   7  10
ENDBRANCH   1   6
BRANCH   1  21
HETATM   21  C14 UNL     1      -6.305  22.674  10.637  1.00  0.00     0.243 C 
HETATM   22  O3  UNL     1      -5.187  23.030  11.077  1.00  0.00    -0.271 OA
HETATM   23  N3  UNL     1      -7.459  23.120  11.320  1.00  0.00    -0.337 N 
HETATM   24  C15 UNL     1      -8.868  22.841  11.157  1.00  0.00     0.127 C 
HETATM   25  C18 UNL     1      -7.460  24.086  12.413  1.00  0.00     0.179 C 
HETATM   26  C16 UNL     1      -9.551  24.196  11.413  1.00  0.00     0.022 C 
HETATM   27  C17 UNL     1      -8.402  25.110  11.819  1.00  0.00     0.037 C 
BRANCH  25  28
HETATM   28  C19 UNL     1      -8.005  23.572  13.677  1.00  0.00     0.241 C 
HETATM   29  O4  UNL     1      -8.463  24.339  14.562  1.00  0.00    -0.271 OA
HETATM   30  N4  UNL     1      -8.040  22.184  13.978  1.00  0.00    -0.351 N 
ATOM     31  H4  UNL     1      -7.677  21.529  13.286  1.00  0.00     0.163 HD
BRANCH  30  32
HETATM   32  C20 UNL     1      -8.559  21.660  15.201  1.00  0.00     0.022 C 
HETATM   33  C21 UNL     1      -7.705  22.043  16.412  1.00  0.00     0.037 C 
HETATM   34  C22 UNL     1      -9.951  22.196  15.455  1.00  0.00     0.037 C 
HETATM   35  C23 UNL     1      -8.576  20.146  15.164  1.00  0.00     0.037 C 
ENDBRANCH  30  32
ENDBRANCH  25  28
ENDBRANCH   1  21
TORSDOF 10
ENDMDL
MODEL 2
REMARK VINA RESULT: -6.068811797      6.637     11.224
REMARK  10 active torsions:
REMARK  status: ('A' for Active; 'I' for Inactive)
REMARK    1  A    between atoms: C2_2  and  C3_3 
REMARK    2  A    between atoms: C3_3  and  C5_5 
REMARK    3  A    between atoms: C5_5  and  N1_6 
REMARK    4  A    between atoms: C5_5  and  C14_21 
REMARK       I    between atoms: N1_6  and  C6_8 
REMARK    5  A    between atoms: C6_8  and  C7_10 
REMARK    6  A    between atoms: C7_10  and  C8_11 
REMARK    7  A    between atoms: C7_10  and  N2_13 
REMARK       I    between atoms: N2_13  and  C9_15 
REMARK    8  A    between atoms: C9_15  and  C10_17 
REMARK       I    between atoms: C14_21  and  N3_23 
REMARK    9  A    between atoms: C18_27  and  C19_28 
REMARK       I    between atoms: C19_28  and  N4_30 
REMARK   10  A    between atoms: N4_30  and  C20_32 
ROOT
HETATM    1  C5  UNL     1       3.836  21.380   8.127  1.00  0.00     0.180 C 
ENDROOT
BRANCH   1   2
HETATM    2  C3  UNL     1       5.042  21.185   8.968  1.00  0.00     0.013 C 
HETATM    3  C4  UNL     1       4.739  21.521  10.440  1.00  0.00     0.012 C 
BRANCH   2   4
HETATM    4  C2  UNL     1       6.251  21.938   8.598  1.00  0.00     0.002 C 
HETATM    5  C1  UNL     1       7.154  21.262   7.623  1.00  0.00     0.005 C 
ENDBRANCH   2   4
ENDBRANCH   1   2
BRANCH   1   6
HETATM    6  N1  UNL     1       2.639  21.164   8.965  1.00  0.00    -0.346 N 
HETATM    7  C6  UNL     1       1.779  20.077   8.879  1.00  0.00     0.242 C 
HETATM    8  O1  UNL     1       2.000  19.207   7.994  1.00  0.00    -0.271 OA
ATOM      9  H1  UNL     1       2.426  21.873   9.666  1.00  0.00     0.163 HD
BRANCH   7  10
HETATM   10  C7  UNL     1       0.631  19.878   9.755  1.00  0.00     0.186 C 
BRANCH  10  11
HETATM   11  C8  UNL     1      -0.115  18.603   9.670  1.00  0.00     0.120 C 
HETATM   12  S1  UNL     1      -1.762  18.683   8.984  1.00  0.00    -0.095 SA
ENDBRANCH  10  11
BRANCH  10  13
HETATM   13  N2  UNL     1       0.855  20.199  11.155  1.00  0.00    -0.346 N 
HETATM   14  C9  UNL     1       0.232  21.223  11.850  1.00  0.00     0.226 C 
HETATM   15  O2  UNL     1      -0.577  21.964  11.244  1.00  0.00    -0.273 OA
ATOM     16  H2  UNL     1       1.525  19.625  11.667  1.00  0.00     0.163 HD
BRANCH  14  17
HETATM   17  C10 UNL     1       0.499  21.452  13.283  1.00  0.00     0.030 C 
HETATM   18  C11 UNL     1       1.857  22.110  13.412  1.00  0.00     0.024 C 
HETATM   19  C12 UNL     1      -0.571  22.435  13.818  1.00  0.00     0.024 C 
HETATM   20  C13 UNL     1       0.392  20.230  14.106  1.00  0.00     0.024 C 
ENDBRANCH  14  17
ENDBRANCH  10  13
ENDBRANCH   7  10
ENDBRANCH   1   6
BRANCH   1  21
HETATM   21  C14 UNL     1       3.651  22.767   7.589  1.00  0.00     0.243 C 
HETATM   22  O3  UNL     1       3.081  23.598   8.333  1.00  0.00    -0.271 OA
HETATM   23  N3  UNL     1       4.069  23.198   6.310  1.00  0.00    -0.337 N 
HETATM   24  C15 UNL     1       4.657  22.511   5.183  1.00  0.00     0.127 C 
HETATM   25  C18 UNL     1       4.022  24.578   5.840  1.00  0.00     0.179 C 
HETATM   26  C16 UNL     1       5.691  23.509   4.633  1.00  0.00     0.022 C 
HETATM   27  C17 UNL     1       5.483  24.754   5.486  1.00  0.00     0.037 C 
BRANCH  25  28
HETATM   28  C19 UNL     1       3.186  24.787   4.650  1.00  0.00     0.241 C 
HETATM   29  O4  UNL     1       3.587  25.466   3.670  1.00  0.00    -0.271 OA
HETATM   30  N4  UNL     1       1.880  24.243   4.538  1.00  0.00    -0.351 N 
ATOM     31  H4  UNL     1       1.518  23.686   5.313  1.00  0.00     0.163 HD
BRANCH  30  32
HETATM   32  C20 UNL     1       1.045  24.436   3.395  1.00  0.00     0.022 C 
HETATM   33  C21 UNL     1      -0.376  23.912   3.611  1.00  0.00     0.037 C 
HETATM   34  C22 UNL     1       0.928  25.909   3.072  1.00  0.00     0.037 C 
HETATM   35  C23 UNL     1       1.593  23.677   2.204  1.00  0.00     0.037 C 
ENDBRANCH  30  32
ENDBRANCH  25  28
ENDBRANCH   1  21
TORSDOF 10
ENDMDL
MODEL 3
REMARK VINA RESULT: -5.937524901      4.050     10.034
REMARK  10 active torsions:
REMARK  status: ('A' for Active; 'I' for Inactive)
REMARK    1  A    between atoms: C2_2  and  C3_3 
REMARK    2  A    between atoms: C3_3  and  C5_5 
REMARK    3  A    between atoms: C5_5  and  N1_6 
REMARK    4  A    between atoms: C5_5  and  C14_21 
REMARK       I    between atoms: N1_6  and  C6_8 
REMARK    5  A    between atoms: C6_8  and  C7_10 
REMARK    6  A    between atoms: C7_10  and  C8_11 
REMARK    7  A    between atoms: C7_10  and  N2_13 
REMARK       I    between atoms: N2_13  and  C9_15 
REMARK    8  A    between atoms: C9_15  and  C10_17 
REMARK       I    between atoms: C14_21  and  N3_23 
REMARK    9  A    between atoms: C18_27  and  C19_28 
REMARK       I    between atoms: C19_28  and  N4_30 
REMARK   10  A    between atoms: N4_30  and  C20_32 
ROOT
HETATM    1  C5  UNL     1       0.724  21.675  12.707  1.00  0.00     0.180 C 
ENDROOT
BRANCH   1   2
HETATM    2  C3  UNL     1       0.488  21.473  14.158  1.00  0.00     0.013 C 
HETATM    3  C4  UNL     1       0.345  19.975  14.482  1.00  0.00     0.012 C 
BRANCH   2   4
HETATM    4  C2  UNL     1      -0.675  22.151  14.752  1.00  0.00     0.002 C 
HETATM    5  C1  UNL     1      -0.381  23.434  15.452  1.00  0.00     0.005 C 
ENDBRANCH   2   4
ENDBRANCH   1   2
BRANCH   1   6
HETATM    6  N1  UNL     1      -0.313  22.586  12.185  1.00  0.00    -0.346 N 
HETATM    7  C6  UNL     1      -1.137  22.333  11.095  1.00  0.00     0.242 C 
HETATM    8  O1  UNL     1      -0.979  21.254  10.464  1.00  0.00    -0.271 OA
ATOM      9  H1  UNL     1      -0.436  23.478  12.664  1.00  0.00     0.163 HD
BRANCH   7  10
HETATM   10  C7  UNL     1      -2.181  23.242  10.638  1.00  0.00     0.186 C 
BRANCH  10  11
HETATM   11  C8  UNL     1      -1.804  24.368   9.755  1.00  0.00     0.120 C 
HETATM   12  S1  UNL     1      -2.388  25.989  10.229  1.00  0.00    -0.095 SA
ENDBRANCH  10  11
BRANCH  10  13
HETATM   13  N2  UNL     1      -3.371  22.603  10.102  1.00  0.00    -0.346 N 
HETATM   14  C9  UNL     1      -4.667  22.836  10.535  1.00  0.00     0.226 C 
HETATM   15  O2  UNL     1      -4.857  23.638  11.478  1.00  0.00    -0.273 OA
ATOM     16  H2  UNL     1      -3.243  21.929   9.348  1.00  0.00     0.163 HD
BRANCH  14  17
HETATM   17  C10 UNL     1      -5.819  22.162   9.906  1.00  0.00     0.030 C 
HETATM   18  C11 UNL     1      -5.433  20.724   9.629  1.00  0.00     0.024 C 
HETATM   19  C12 UNL     1      -6.989  22.166  10.921  1.00  0.00     0.024 C 
HETATM   20  C13 UNL     1      -6.314  22.848   8.695  1.00  0.00     0.024 C 
ENDBRANCH  14  17
ENDBRANCH  10  13
ENDBRANCH   7  10
ENDBRANCH   1   6
BRANCH   1  21
HETATM   21  C14 UNL     1       2.011  22.359  12.359  1.00  0.00     0.243 C 
HETATM   22  O3  UNL     1       2.532  23.081  13.241  1.00  0.00    -0.271 OA
HETATM   23  N3  UNL     1       2.672  22.250  11.115  1.00  0.00    -0.337 N 
HETATM   24  C15 UNL     1       2.326  21.601   9.870  1.00  0.00     0.127 C 
HETATM   25  C18 UNL     1       3.993  22.795  10.822  1.00  0.00     0.179 C 
HETATM   26  C16 UNL     1       3.659  21.016   9.370  1.00  0.00     0.022 C 
HETATM   27  C17 UNL     1       4.679  21.520  10.383  1.00  0.00     0.037 C 
BRANCH  25  28
HETATM   28  C19 UNL     1       4.016  23.782   9.734  1.00  0.00     0.241 C 
HETATM   29  O4  UNL     1       5.028  23.940   9.005  1.00  0.00    -0.271 OA
HETATM   30  N4  UNL     1       2.904  24.617   9.446  1.00  0.00    -0.351 N 
ATOM     31  H4  UNL     1       2.064  24.520  10.015  1.00  0.00     0.163 HD
BRANCH  30  32
HETATM   32  C20 UNL     1       2.904  25.588   8.397  1.00  0.00     0.022 C 
HETATM   33  C21 UNL     1       3.989  26.650   8.582  1.00  0.00     0.037 C 
HETATM   34  C22 UNL     1       3.160  24.922   7.064  1.00  0.00     0.037 C 
HETATM   35  C23 UNL     1       1.587  26.336   8.369  1.00  0.00     0.037 C 
ENDBRANCH  30  32
ENDBRANCH  25  28
ENDBRANCH   1  21
TORSDOF 10
ENDMDL
MODEL 4
REMARK VINA RESULT: -5.854199748      4.370      9.865
REMARK  10 active torsions:
REMARK  status: ('A' for Active; 'I' for Inactive)
REMARK    1  A    between atoms: C2_2  and  C3_3 
REMARK    2  A    between atoms: C3_3  and  C5_5 
REMARK    3  A    between atoms: C5_5  and  N1_6 
REMARK    4  A    between atoms: C5_5  and  C14_21 
REMARK       I    between atoms: N1_6  and  C6_8 
REMARK    5  A    between atoms: C6_8  and  C7_10 
REMARK    6  A    between atoms: C7_10  and  C8_11 
REMARK    7  A    between atoms: C7_10  and  N2_13 
REMARK       I    between atoms: N2_13  and  C9_15 
REMARK    8  A    between atoms: C9_15  and  C10_17 
REMARK       I    between atoms: C14_21  and  N3_23 
REMARK    9  A    between atoms: C18_27  and  C19_28 
REMARK       I    between atoms: C19_28  and  N4_30 
REMARK   10  A    between atoms: N4_30  and  C20_32 
ROOT
HETATM    1  C5  UNL     1       1.302  21.391  12.625  1.00  0.00     0.180 C 
ENDROOT
BRANCH   1   2
HETATM    2  C3  UNL     1       0.664  21.452  13.963  1.00  0.00     0.013 C 
HETATM    3  C4  UNL     1       0.364  20.036  14.488  1.00  0.00     0.012 C 
BRANCH   2   4
HETATM    4  C2  UNL     1      -0.584  22.224  14.081  1.00  0.00     0.002 C 
HETATM    5  C1  UNL     1      -0.691  23.089  15.290  1.00  0.00     0.005 C 
ENDBRANCH   2   4
ENDBRANCH   1   2
BRANCH   1   6
HETATM    6  N1  UNL     1       0.266  21.631  11.600  1.00  0.00    -0.346 N 
HETATM    7  C6  UNL     1      -0.149  20.715  10.641  1.00  0.00     0.242 C 
HETATM    8  O1  UNL     1       0.417  19.590  10.603  1.00  0.00    -0.271 OA
ATOM      9  H1  UNL     1      -0.182  22.547  11.595  1.00  0.00     0.163 HD
BRANCH   7  10
HETATM   10  C7  UNL     1      -1.208  20.977   9.673  1.00  0.00     0.186 C 
BRANCH  10  11
HETATM   11  C8  UNL     1      -1.766  19.840   8.909  1.00  0.00     0.120 C 
HETATM   12  S1  UNL     1      -3.543  19.654   8.933  1.00  0.00    -0.095 SA
ENDBRANCH  10  11
BRANCH  10  13
HETATM   13  N2  UNL     1      -2.302  21.802  10.157  1.00  0.00    -0.346 N 
HETATM   14  C9  UNL     1      -2.294  23.186  10.214  1.00  0.00     0.226 C 
HETATM   15  O2  UNL     1      -1.267  23.803   9.849  1.00  0.00    -0.273 OA
ATOM     16  H2  UNL     1      -3.143  21.324  10.480  1.00  0.00     0.163 HD
BRANCH  14  17
HETATM   17  C10 UNL     1      -3.469  23.941  10.690  1.00  0.00     0.030 C 
HETATM   18  C11 UNL     1      -4.699  23.081  10.486  1.00  0.00     0.024 C 
HETATM   19  C12 UNL     1      -3.296  24.190  12.209  1.00  0.00     0.024 C 
HETATM   20  C13 UNL     1      -3.610  25.271  10.063  1.00  0.00     0.024 C 
ENDBRANCH  14  17
ENDBRANCH  10  13
ENDBRANCH   7  10
ENDBRANCH   1   6
BRANCH   1  21
HETATM   21  C14 UNL     1       2.325  22.452  12.356  1.00  0.00     0.243 C 
HETATM   22  O3  UNL     1       2.367  23.420  13.150  1.00  0.00    -0.271 OA
HETATM   23  N3  UNL     1       3.237  22.438  11.277  1.00  0.00    -0.337 N 
HETATM   24  C15 UNL     1       3.410  21.556  10.146  1.00  0.00     0.127 C 
HETATM   25  C18 UNL     1       4.327  23.391  11.095  1.00  0.00     0.179 C 
HETATM   26  C16 UNL     1       4.936  21.446   9.986  1.00  0.00     0.022 C 
HETATM   27  C17 UNL     1       5.481  22.414  11.027  1.00  0.00     0.037 C 
BRANCH  25  28
HETATM   28  C19 UNL     1       4.251  24.170   9.852  1.00  0.00     0.241 C 
HETATM   29  O4  UNL     1       5.284  24.521   9.227  1.00  0.00    -0.271 OA
HETATM   30  N4  UNL     1       3.014  24.578   9.288  1.00  0.00    -0.351 N 
ATOM     31  H4  UNL     1       2.152  24.313   9.766  1.00  0.00     0.163 HD
BRANCH  30  32
HETATM   32  C20 UNL     1       2.914  25.340   8.084  1.00  0.00     0.022 C 
HETATM   33  C21 UNL     1       1.464  25.643   7.700  1.00  0.00     0.037 C 
HETATM   34  C22 UNL     1       3.615  26.671   8.245  1.00  0.00     0.037 C 
HETATM   35  C23 UNL     1       3.503  24.572   6.919  1.00  0.00     0.037 C 
ENDBRANCH  30  32
ENDBRANCH  25  28
ENDBRANCH   1  21
TORSDOF 10
ENDMDL
MODEL 5
REMARK VINA RESULT: -5.823284122      5.873      8.812
REMARK  10 active torsions:
REMARK  status: ('A' for Active; 'I' for Inactive)
REMARK    1  A    between atoms: C2_2  and  C3_3 
REMARK    2  A    between atoms: C3_3  and  C5_5 
REMARK    3  A    between atoms: C5_5  and  N1_6 
REMARK    4  A    between atoms: C5_5  and  C14_21 
REMARK       I    between atoms: N1_6  and  C6_8 
REMARK    5  A    between atoms: C6_8  and  C7_10 
REMARK    6  A    between atoms: C7_10  and  C8_11 
REMARK    7  A    between atoms: C7_10  and  N2_13 
REMARK       I    between atoms: N2_13  and  C9_15 
REMARK    8  A    between atoms: C9_15  and  C10_17 
REMARK       I    between atoms: C14_21  and  N3_23 
REMARK    9  A    between atoms: C18_27  and  C19_28 
REMARK       I    between atoms: C19_28  and  N4_30 
REMARK   10  A    between atoms: N4_30  and  C20_32 
ROOT
HETATM    1  C5  UNL     1      -1.363  22.051  10.279  1.00  0.00     0.180 C 
ENDROOT
BRANCH   1   2
HETATM    2  C3  UNL     1      -1.391  21.019   9.214  1.00  0.00     0.013 C 
HETATM    3  C4  UNL     1      -2.738  20.273   9.216  1.00  0.00     0.012 C 
BRANCH   2   4
HETATM    4  C2  UNL     1      -0.335  19.994   9.240  1.00  0.00     0.002 C 
HETATM    5  C1  UNL     1      -0.813  18.582   9.279  1.00  0.00     0.005 C 
ENDBRANCH   2   4
ENDBRANCH   1   2
BRANCH   1   6
HETATM    6  N1  UNL     1      -0.116  21.891  11.055  1.00  0.00    -0.346 N 
HETATM    7  C6  UNL     1       0.081  22.314  12.363  1.00  0.00     0.242 C 
HETATM    8  O1  UNL     1      -0.860  22.919  12.945  1.00  0.00    -0.271 OA
ATOM      9  H1  UNL     1       0.667  21.431  10.591  1.00  0.00     0.163 HD
BRANCH   7  10
HETATM   10  C7  UNL     1       1.314  22.097  13.110  1.00  0.00     0.186 C 
BRANCH  10  11
HETATM   11  C8  UNL     1       1.297  21.151  14.248  1.00  0.00     0.120 C 
HETATM   12  S1  UNL     1       0.157  19.780  14.133  1.00  0.00    -0.095 SA
ENDBRANCH  10  11
BRANCH  10  13
HETATM   13  N2  UNL     1       2.493  21.839  12.301  1.00  0.00    -0.346 N 
HETATM   14  C9  UNL     1       3.630  22.630  12.269  1.00  0.00     0.226 C 
HETATM   15  O2  UNL     1       3.664  23.671  12.965  1.00  0.00    -0.273 OA
ATOM     16  H2  UNL     1       2.483  21.008  11.708  1.00  0.00     0.163 HD
BRANCH  14  17
HETATM   17  C10 UNL     1       4.794  22.268  11.439  1.00  0.00     0.030 C 
HETATM   18  C11 UNL     1       4.305  21.428  10.278  1.00  0.00     0.024 C 
HETATM   19  C12 UNL     1       5.403  23.574  10.872  1.00  0.00     0.024 C 
HETATM   20  C13 UNL     1       5.873  21.598  12.195  1.00  0.00     0.024 C 
ENDBRANCH  14  17
ENDBRANCH  10  13
ENDBRANCH   7  10
ENDBRANCH   1   6
BRANCH   1  21
HETATM   21  C14 UNL     1      -1.303  23.468   9.794  1.00  0.00     0.243 C 
HETATM   22  O3  UNL     1      -2.362  24.136   9.850  1.00  0.00    -0.271 OA
HETATM   23  N3  UNL     1      -0.147  24.096   9.279  1.00  0.00    -0.337 N 
HETATM   24  C15 UNL     1       1.185  23.620   8.988  1.00  0.00     0.127 C 
HETATM   25  C18 UNL     1      -0.049  25.512   8.942  1.00  0.00     0.179 C 
HETATM   26  C16 UNL     1       2.101  24.780   9.417  1.00  0.00     0.022 C 
HETATM   27  C17 UNL     1       1.127  25.880   9.820  1.00  0.00     0.037 C 
BRANCH  25  28
HETATM   28  C19 UNL     1       0.269  25.781   7.533  1.00  0.00     0.241 C 
HETATM   29  O4  UNL     1       0.957  26.776   7.187  1.00  0.00    -0.271 OA
HETATM   30  N4  UNL     1      -0.185  24.942   6.481  1.00  0.00    -0.351 N 
ATOM     31  H4  UNL     1      -0.747  24.125   6.721  1.00  0.00     0.163 HD
BRANCH  30  32
HETATM   32  C20 UNL     1       0.105  25.185   5.104  1.00  0.00     0.022 C 
HETATM   33  C21 UNL     1      -0.410  24.071   4.190  1.00  0.00     0.037 C 
HETATM   34  C22 UNL     1      -0.549  26.470   4.647  1.00  0.00     0.037 C 
HETATM   35  C23 UNL     1       1.602  25.248   4.881  1.00  0.00     0.037 C 
ENDBRANCH  30  32
ENDBRANCH  25  28
ENDBRANCH   1  21
TORSDOF 10
ENDMDL
