MODEL 1
REMARK VINA RESULT: -6.846688767      0.000      0.000
REMARK  11 active torsions:
REMARK  status: ('A' for Active; 'I' for Inactive)
REMARK    1  A    between atoms: C2_2  and  C3_3 
REMARK    2  A    between atoms: C3_3  and  S1_4 
REMARK    3  A    between atoms: S1_4  and  C4_5 
REMARK    4  A    between atoms: C5_6  and  C6_7 
REMARK    5  A    between atoms: C6_7  and  C7_8 
REMARK       I    between atoms: C7_8  and  N1_10 
REMARK    6  A    between atoms: N1_10  and  C8_12 
REMARK    7  A    between atoms: C8_12  and  C9_13 
REMARK    8  A    between atoms: C8_12  and  C10_16 
REMARK    9  A    between atoms: C9_13  and  O2_14 
REMARK   10  A    between atoms: C10_16  and  O3_17 
REMARK   11  A    between atoms: C12_23  and  C13_24 
ROOT
HETATM    1  C4  UNL     1       5.686 -24.729  10.367  1.00  0.00     0.084 C 
HETATM    2  C5  UNL     1       6.896 -24.122   9.775  1.00  0.00     0.102 C 
HETATM    3  C11 UNL     1       6.686 -22.674   9.453  1.00  0.00     0.224 C 
HETATM    4  O4  UNL     1       6.379 -22.416   8.257  1.00  0.00    -0.273 OA
HETATM    5  N2  UNL     1       6.753 -21.480  10.204  1.00  0.00    -0.347 N 
ATOM      6  H2  UNL     1       7.146 -20.716   9.653  1.00  0.00     0.163 HD
HETATM    7  C12 UNL     1       6.418 -21.051  11.531  1.00  0.00     0.180 C 
HETATM    8  C19 UNL     1       6.252 -22.127  12.499  1.00  0.00     0.243 C 
HETATM    9  O5  UNL     1       6.720 -21.801  13.615  1.00  0.00    -0.271 OA
HETATM   10  N3  UNL     1       5.710 -23.439  12.536  1.00  0.00    -0.344 N 
HETATM   11  C20 UNL     1       5.428 -23.855  13.929  1.00  0.00     0.126 C 
HETATM   12  C21 UNL     1       5.396 -25.344  13.947  1.00  0.00     0.022 C 
HETATM   13  C22 UNL     1       5.770 -25.754  12.562  1.00  0.00     0.028 C 
HETATM   14  C23 UNL     1       5.324 -24.519  11.759  1.00  0.00     0.102 C 
ENDROOT
BRANCH   2  15
HETATM   15  C6  UNL     1       8.184 -24.415  10.479  1.00  0.00     0.118 C 
BRANCH  15  16
HETATM   16  C7  UNL     1       9.271 -23.591   9.920  1.00  0.00     0.218 C 
HETATM   17  O1  UNL     1       9.789 -22.688  10.605  1.00  0.00    -0.274 OA
HETATM   18  N1  UNL     1       9.746 -23.804   8.607  1.00  0.00    -0.352 N 
ATOM     19  H1  UNL     1       9.313 -24.545   8.055  1.00  0.00     0.163 HD
BRANCH  18  20
HETATM   20  C8  UNL     1      10.802 -23.039   7.999  1.00  0.00     0.131 C 
BRANCH  20  21
HETATM   21  C9  UNL     1      10.289 -21.818   7.275  1.00  0.00     0.191 C 
BRANCH  21  22
HETATM   22  O2  UNL     1       9.098 -21.380   7.851  1.00  0.00    -0.399 OA
ATOM     23  H2  UNL     1       8.396 -21.399   7.212  1.00  0.00     0.209 HD
ENDBRANCH  21  22
ENDBRANCH  20  21
BRANCH  20  24
HETATM   24  C10 UNL     1      11.588 -23.865   6.991  1.00  0.00     0.191 C 
BRANCH  24  25
HETATM   25  O3  UNL     1      10.741 -24.467   6.084  1.00  0.00    -0.399 OA
ATOM     26  H3  UNL     1      11.231 -24.843   5.363  1.00  0.00     0.209 HD
ENDBRANCH  24  25
ENDBRANCH  20  24
ENDBRANCH  18  20
ENDBRANCH  15  16
ENDBRANCH   2  15
BRANCH   1  27
HETATM   27  S1  UNL     1       5.594 -26.479  10.024  1.00  0.00    -0.158 SA
BRANCH  27  28
HETATM   28  C3  UNL     1       6.469 -27.160   8.678  1.00  0.00     0.100 C 
BRANCH  28  29
HETATM   29  C2  UNL     1       5.685 -28.014   7.779  1.00  0.00    -0.027 C 
HETATM   30  C1  UNL     1       4.643 -28.728   8.226  1.00  0.00     0.007 C 
ENDBRANCH  28  29
ENDBRANCH  27  28
ENDBRANCH   1  27
BRANCH   7  31
HETATM   31  C13 UNL     1       5.159 -20.203  11.528  1.00  0.00     0.018 C 
HETATM   32  C14 UNL     1       5.291 -19.228  10.375  1.00  0.00     0.007 C 
HETATM   33  C15 UNL     1       3.952 -18.563  10.066  1.00  0.00     0.000 C 
HETATM   34  C16 UNL     1       3.070 -18.681  11.287  1.00  0.00     0.000 C 
HETATM   35  C17 UNL     1       2.719 -20.143  11.445  1.00  0.00     0.000 C 
HETATM   36  C18 UNL     1       3.924 -21.036  11.271  1.00  0.00     0.007 C 
ENDBRANCH   7  31
TORSDOF 11
ENDMDL
MODEL 2
REMARK VINA RESULT: -6.311104991      2.345      5.056
REMARK  11 active torsions:
REMARK  status: ('A' for Active; 'I' for Inactive)
REMARK    1  A    between atoms: C2_2  and  C3_3 
REMARK    2  A    between atoms: C3_3  and  S1_4 
REMARK    3  A    between atoms: S1_4  and  C4_5 
REMARK    4  A    between atoms: C5_6  and  C6_7 
REMARK    5  A    between atoms: C6_7  and  C7_8 
REMARK       I    between atoms: C7_8  and  N1_10 
REMARK    6  A    between atoms: N1_10  and  C8_12 
REMARK    7  A    between atoms: C8_12  and  C9_13 
REMARK    8  A    between atoms: C8_12  and  C10_16 
REMARK    9  A    between atoms: C9_13  and  O2_14 
REMARK   10  A    between atoms: C10_16  and  O3_17 
REMARK   11  A    between atoms: C12_23  and  C13_24 
ROOT
HETATM    1  C4  UNL     1       8.627 -23.676   9.537  1.00  0.00     0.084 C 
HETATM    2  C5  UNL     1       9.264 -23.094  10.736  1.00  0.00     0.102 C 
HETATM    3  C11 UNL     1       8.609 -21.809  11.140  1.00  0.00     0.224 C 
HETATM    4  O4  UNL     1       9.175 -20.755  10.739  1.00  0.00    -0.273 OA
HETATM    5  N2  UNL     1       7.460 -21.484  11.893  1.00  0.00    -0.347 N 
ATOM      6  H2  UNL     1       7.611 -20.651  12.463  1.00  0.00     0.163 HD
HETATM    7  C12 UNL     1       6.137 -22.008  12.073  1.00  0.00     0.180 C 
HETATM    8  C19 UNL     1       5.962 -23.390  11.647  1.00  0.00     0.243 C 
HETATM    9  O5  UNL     1       5.208 -24.010  12.434  1.00  0.00    -0.271 OA
HETATM   10  N3  UNL     1       6.404 -24.233  10.593  1.00  0.00    -0.344 N 
HETATM   11  C20 UNL     1       5.517 -25.411  10.452  1.00  0.00     0.126 C 
HETATM   12  C21 UNL     1       6.300 -26.472   9.756  1.00  0.00     0.022 C 
HETATM   13  C22 UNL     1       7.671 -25.902   9.607  1.00  0.00     0.028 C 
HETATM   14  C23 UNL     1       7.364 -24.394   9.608  1.00  0.00     0.102 C 
ENDROOT
BRANCH   2  15
HETATM   15  C6  UNL     1       9.509 -24.041  11.868  1.00  0.00     0.118 C 
BRANCH  15  16
HETATM   16  C7  UNL     1       9.792 -23.294  13.108  1.00  0.00     0.218 C 
HETATM   17  O1  UNL     1      10.822 -22.598  13.200  1.00  0.00    -0.274 OA
HETATM   18  N1  UNL     1       8.910 -23.349  14.210  1.00  0.00    -0.352 N 
ATOM     19  H1  UNL     1       8.070 -23.923  14.123  1.00  0.00     0.163 HD
BRANCH  18  20
HETATM   20  C8  UNL     1       9.122 -22.646  15.447  1.00  0.00     0.131 C 
BRANCH  20  21
HETATM   21  C9  UNL     1       8.593 -23.405  16.640  1.00  0.00     0.191 C 
BRANCH  21  22
HETATM   22  O2  UNL     1       7.251 -23.094  16.855  1.00  0.00    -0.399 OA
ATOM     23  H2  UNL     1       6.903 -23.613  17.570  1.00  0.00     0.209 HD
ENDBRANCH  21  22
ENDBRANCH  20  21
BRANCH  20  24
HETATM   24  C10 UNL     1       8.449 -21.282  15.444  1.00  0.00     0.191 C 
BRANCH  24  25
HETATM   25  O3  UNL     1       9.033 -20.450  14.512  1.00  0.00    -0.399 OA
ATOM     26  H3  UNL     1       9.170 -19.582  14.873  1.00  0.00     0.209 HD
ENDBRANCH  24  25
ENDBRANCH  20  24
ENDBRANCH  18  20
ENDBRANCH  15  16
ENDBRANCH   2  15
BRANCH   1  27
HETATM   27  S1  UNL     1       9.779 -24.665   8.596  1.00  0.00    -0.158 SA
BRANCH  27  28
HETATM   28  C3  UNL     1      10.737 -23.937   7.334  1.00  0.00     0.100 C 
BRANCH  28  29
HETATM   29  C2  UNL     1      11.155 -22.552   7.573  1.00  0.00    -0.027 C 
HETATM   30  C1  UNL     1      10.410 -21.517   7.159  1.00  0.00     0.007 C 
ENDBRANCH  28  29
ENDBRANCH  27  28
ENDBRANCH   1  27
BRANCH   7  31
HETATM   31  C13 UNL     1       5.108 -21.148  11.363  1.00  0.00     0.018 C 
HETATM   32  C14 UNL     1       3.767 -21.457  11.996  1.00  0.00     0.007 C 
HETATM   33  C15 UNL     1       2.723 -20.414  11.603  1.00  0.00     0.000 C 
HETATM   34  C16 UNL     1       3.190 -19.727  10.342  1.00  0.00     0.000 C 
HETATM   35  C17 UNL     1       4.405 -18.903  10.705  1.00  0.00     0.000 C 
HETATM   36  C18 UNL     1       5.373 -19.675  11.571  1.00  0.00     0.007 C 
ENDBRANCH   7  31
TORSDOF 11
ENDMDL
MODEL 3
REMARK VINA RESULT: -6.018632357      6.787      9.444
REMARK  11 active torsions:
REMARK  status: ('A' for Active; 'I' for Inactive)
REMARK    1  A    between atoms: C2_2  and  C3_3 
REMARK    2  A    between atoms: C3_3  and  S1_4 
REMARK    3  A    between atoms: S1_4  and  C4_5 
REMARK    4  A    between atoms: C5_6  and  C6_7 
REMARK    5  A    between atoms: C6_7  and  C7_8 
REMARK       I    between atoms: C7_8  and  N1_10 
REMARK    6  A    between atoms: N1_10  and  C8_12 
REMARK    7  A    between atoms: C8_12  and  C9_13 
REMARK    8  A    between atoms: C8_12  and  C10_16 
REMARK    9  A    between atoms: C9_13  and  O2_14 
REMARK   10  A    between atoms: C10_16  and  O3_17 
REMARK   11  A    between atoms: C12_23  and  C13_24 
ROOT
HETATM    1  C4  UNL     1      -2.145 -21.911  12.579  1.00  0.00     0.084 C 
HETATM    2  C5  UNL     1      -1.082 -20.897  12.732  1.00  0.00     0.102 C 
HETATM    3  C11 UNL     1      -0.328 -21.076  14.014  1.00  0.00     0.224 C 
HETATM    4  O4  UNL     1      -0.699 -20.348  14.975  1.00  0.00    -0.273 OA
HETATM    5  N2  UNL     1       0.743 -21.903  14.418  1.00  0.00    -0.347 N 
ATOM      6  H2  UNL     1       1.372 -21.412  15.053  1.00  0.00     0.163 HD
HETATM    7  C12 UNL     1       1.184 -23.246  14.177  1.00  0.00     0.180 C 
HETATM    8  C19 UNL     1       0.613 -23.875  12.994  1.00  0.00     0.243 C 
HETATM    9  O5  UNL     1       1.467 -24.579  12.404  1.00  0.00    -0.271 OA
HETATM   10  N3  UNL     1      -0.636 -23.918  12.319  1.00  0.00    -0.344 N 
HETATM   11  C20 UNL     1      -0.716 -25.098  11.428  1.00  0.00     0.126 C 
HETATM   12  C21 UNL     1      -1.747 -24.801  10.394  1.00  0.00     0.022 C 
HETATM   13  C22 UNL     1      -2.165 -23.394  10.661  1.00  0.00     0.028 C 
HETATM   14  C23 UNL     1      -1.852 -23.274  12.163  1.00  0.00     0.102 C 
ENDROOT
BRANCH   2  15
HETATM   15  C6  UNL     1      -0.213 -20.676  11.534  1.00  0.00     0.118 C 
BRANCH  15  16
HETATM   16  C7  UNL     1       0.417 -19.345  11.597  1.00  0.00     0.218 C 
HETATM   17  O1  UNL     1       0.009 -18.495  12.413  1.00  0.00    -0.274 OA
HETATM   18  N1  UNL     1       1.489 -19.004  10.742  1.00  0.00    -0.352 N 
ATOM     19  H1  UNL     1       1.814 -19.707  10.078  1.00  0.00     0.163 HD
BRANCH  18  20
HETATM   20  C8  UNL     1       2.151 -17.727  10.750  1.00  0.00     0.131 C 
BRANCH  20  21
HETATM   21  C9  UNL     1       1.312 -16.637  10.128  1.00  0.00     0.191 C 
BRANCH  21  22
HETATM   22  O2  UNL     1       0.784 -15.809  11.117  1.00  0.00    -0.399 OA
ATOM     23  H2  UNL     1       1.223 -14.967  11.110  1.00  0.00     0.209 HD
ENDBRANCH  21  22
ENDBRANCH  20  21
BRANCH  20  24
HETATM   24  C10 UNL     1       3.470 -17.770   9.992  1.00  0.00     0.191 C 
BRANCH  24  25
HETATM   25  O3  UNL     1       3.409 -16.985   8.859  1.00  0.00    -0.399 OA
ATOM     26  H3  UNL     1       4.279 -16.717   8.588  1.00  0.00     0.209 HD
ENDBRANCH  24  25
ENDBRANCH  20  24
ENDBRANCH  18  20
ENDBRANCH  15  16
ENDBRANCH   2  15
BRANCH   1  27
HETATM   27  S1  UNL     1      -3.496 -21.302  11.583  1.00  0.00    -0.158 SA
BRANCH  27  28
HETATM   28  C3  UNL     1      -5.146 -21.647  12.031  1.00  0.00     0.100 C 
BRANCH  28  29
HETATM   29  C2  UNL     1      -5.642 -20.938  13.216  1.00  0.00    -0.027 C 
HETATM   30  C1  UNL     1      -5.591 -21.495  14.434  1.00  0.00     0.007 C 
ENDBRANCH  28  29
ENDBRANCH  27  28
ENDBRANCH   1  27
BRANCH   7  31
HETATM   31  C13 UNL     1       0.911 -24.133  15.378  1.00  0.00     0.018 C 
HETATM   32  C14 UNL     1       1.325 -23.347  16.606  1.00  0.00     0.007 C 
HETATM   33  C15 UNL     1       0.784 -23.996  17.877  1.00  0.00     0.000 C 
HETATM   34  C16 UNL     1       0.467 -25.442  17.575  1.00  0.00     0.000 C 
HETATM   35  C17 UNL     1      -0.716 -25.453  16.633  1.00  0.00     0.000 C 
HETATM   36  C18 UNL     1      -0.561 -24.445  15.519  1.00  0.00     0.007 C 
ENDBRANCH   7  31
TORSDOF 11
ENDMDL
MODEL 4
REMARK VINA RESULT: -5.994972614      7.966     10.323
REMARK  11 active torsions:
REMARK  status: ('A' for Active; 'I' for Inactive)
REMARK    1  A    between atoms: C2_2  and  C3_3 
REMARK    2  A    between atoms: C3_3  and  S1_4 
REMARK    3  A    between atoms: S1_4  and  C4_5 
REMARK    4  A    between atoms: C5_6  and  C6_7 
REMARK    5  A    between atoms: C6_7  and  C7_8 
REMARK       I    between atoms: C7_8  and  N1_10 
REMARK    6  A    between atoms: N1_10  and  C8_12 
REMARK    7  A    between atoms: C8_12  and  C9_13 
REMARK    8  A    between atoms: C8_12  and  C10_16 
REMARK    9  A    between atoms: C9_13  and  O2_14 
REMARK   10  A    between atoms: C10_16  and  O3_17 
REMARK   11  A    between atoms: C12_23  and  C13_24 
ROOT
HETATM    1  C4  UNL     1      -2.735 -23.257  10.593  1.00  0.00     0.084 C 
HETATM    2  C5  UNL     1      -2.142 -22.031  11.166  1.00  0.00     0.102 C 
HETATM    3  C11 UNL     1      -3.188 -21.003  11.470  1.00  0.00     0.224 C 
HETATM    4  O4  UNL     1      -3.352 -20.111  10.593  1.00  0.00    -0.273 OA
HETATM    5  N2  UNL     1      -4.070 -20.786  12.551  1.00  0.00    -0.347 N 
ATOM      6  H2  UNL     1      -4.183 -19.791  12.746  1.00  0.00     0.163 HD
HETATM    7  C12 UNL     1      -4.850 -21.588  13.449  1.00  0.00     0.180 C 
HETATM    8  C19 UNL     1      -4.446 -22.985  13.532  1.00  0.00     0.243 C 
HETATM    9  O5  UNL     1      -4.534 -23.408  14.708  1.00  0.00    -0.271 OA
HETATM   10  N3  UNL     1      -3.982 -24.003  12.656  1.00  0.00    -0.344 N 
HETATM   11  C20 UNL     1      -4.180 -25.344  13.253  1.00  0.00     0.126 C 
HETATM   12  C21 UNL     1      -3.225 -26.270  12.584  1.00  0.00     0.022 C 
HETATM   13  C22 UNL     1      -2.418 -25.402  11.678  1.00  0.00     0.028 C 
HETATM   14  C23 UNL     1      -3.403 -24.247  11.422  1.00  0.00     0.102 C 
ENDROOT
BRANCH   2  15
HETATM   15  C6  UNL     1      -1.147 -22.240  12.263  1.00  0.00     0.118 C 
BRANCH  15  16
HETATM   16  C7  UNL     1      -0.388 -20.999  12.508  1.00  0.00     0.218 C 
HETATM   17  O1  UNL     1      -0.303 -20.533  13.661  1.00  0.00    -0.274 OA
HETATM   18  N1  UNL     1       0.254 -20.317  11.450  1.00  0.00    -0.352 N 
ATOM     19  H1  UNL     1       0.176 -20.708  10.511  1.00  0.00     0.163 HD
BRANCH  18  20
HETATM   20  C8  UNL     1       1.011 -19.104  11.616  1.00  0.00     0.131 C 
BRANCH  20  21
HETATM   21  C9  UNL     1       0.174 -17.867  11.399  1.00  0.00     0.191 C 
BRANCH  21  22
HETATM   22  O2  UNL     1      -0.986 -18.185  10.695  1.00  0.00    -0.399 OA
ATOM     23  H2  UNL     1      -1.257 -17.450  10.157  1.00  0.00     0.209 HD
ENDBRANCH  21  22
ENDBRANCH  20  21
BRANCH  20  24
HETATM   24  C10 UNL     1       2.182 -19.033  10.648  1.00  0.00     0.191 C 
BRANCH  24  25
HETATM   25  O3  UNL     1       2.070 -17.932   9.825  1.00  0.00    -0.399 OA
ATOM     26  H3  UNL     1       1.821 -18.192   8.946  1.00  0.00     0.209 HD
ENDBRANCH  24  25
ENDBRANCH  20  24
ENDBRANCH  18  20
ENDBRANCH  15  16
ENDBRANCH   2  15
BRANCH   1  27
HETATM   27  S1  UNL     1      -1.583 -24.108   9.527  1.00  0.00    -0.158 SA
BRANCH  27  28
HETATM   28  C3  UNL     1      -1.922 -24.283   7.825  1.00  0.00     0.100 C 
BRANCH  28  29
HETATM   29  C2  UNL     1      -0.762 -24.567   6.973  1.00  0.00    -0.027 C 
HETATM   30  C1  UNL     1      -0.393 -23.730   5.994  1.00  0.00     0.007 C 
ENDBRANCH  28  29
ENDBRANCH  27  28
ENDBRANCH   1  27
BRANCH   7  31
HETATM   31  C13 UNL     1      -6.324 -21.529  13.092  1.00  0.00     0.018 C 
HETATM   32  C14 UNL     1      -6.618 -20.099  12.683  1.00  0.00     0.007 C 
HETATM   33  C15 UNL     1      -7.972 -19.999  11.983  1.00  0.00     0.000 C 
HETATM   34  C16 UNL     1      -8.796 -21.205  12.367  1.00  0.00     0.000 C 
HETATM   35  C17 UNL     1      -8.147 -22.412  11.727  1.00  0.00     0.000 C 
HETATM   36  C18 UNL     1      -6.647 -22.409  11.907  1.00  0.00     0.007 C 
ENDBRANCH   7  31
TORSDOF 11
ENDMDL
MODEL 5
REMARK VINA RESULT: -5.956071866      3.023      5.321
REMARK  11 active torsions:
REMARK  status: ('A' for Active; 'I' for Inactive)
REMARK    1  A    between atoms: C2_2  and  C3_3 
REMARK    2  A    between atoms: C3_3  and  S1_4 
REMARK    3  A    between atoms: S1_4  and  C4_5 
REMARK    4  A    between atoms: C5_6  and  C6_7 
REMARK    5  A    between atoms: C6_7  and  C7_8 
REMARK       I    between atoms: C7_8  and  N1_10 
REMARK    6  A    between atoms: N1_10  and  C8_12 
REMARK    7  A    between atoms: C8_12  and  C9_13 
REMARK    8  A    between atoms: C8_12  and  C10_16 
REMARK    9  A    between atoms: C9_13  and  O2_14 
REMARK   10  A    between atoms: C10_16  and  O3_17 
REMARK   11  A    between atoms: C12_23  and  C13_24 
ROOT
HETATM    1  C4  UNL     1       7.331 -21.929  12.192  1.00  0.00     0.084 C 
HETATM    2  C5  UNL     1       8.723 -22.423  12.244  1.00  0.00     0.102 C 
HETATM    3  C11 UNL     1       9.344 -22.180  13.585  1.00  0.00     0.224 C 
HETATM    4  O4  UNL     1      10.061 -21.146  13.679  1.00  0.00    -0.273 OA
HETATM    5  N2  UNL     1       9.316 -22.862  14.821  1.00  0.00    -0.347 N 
ATOM      6  H2  UNL     1      10.221 -22.822  15.289  1.00  0.00     0.163 HD
HETATM    7  C12 UNL     1       8.357 -23.596  15.595  1.00  0.00     0.180 C 
HETATM    8  C19 UNL     1       7.195 -24.062  14.851  1.00  0.00     0.243 C 
HETATM    9  O5  UNL     1       6.849 -25.206  15.229  1.00  0.00    -0.271 OA
HETATM   10  N3  UNL     1       6.343 -23.587  13.818  1.00  0.00    -0.344 N 
HETATM   11  C20 UNL     1       5.061 -24.328  13.808  1.00  0.00     0.126 C 
HETATM   12  C21 UNL     1       4.478 -24.183  12.444  1.00  0.00     0.022 C 
HETATM   13  C22 UNL     1       5.508 -23.437  11.663  1.00  0.00     0.028 C 
HETATM   14  C23 UNL     1       6.230 -22.670  12.786  1.00  0.00     0.102 C 
ENDROOT
BRANCH   2  15
HETATM   15  C6  UNL     1       8.947 -23.799  11.702  1.00  0.00     0.118 C 
BRANCH  15  16
HETATM   16  C7  UNL     1      10.040 -23.788  10.713  1.00  0.00     0.218 C 
HETATM   17  O1  UNL     1      11.217 -23.982  11.076  1.00  0.00    -0.274 OA
HETATM   18  N1  UNL     1       9.782 -23.558   9.343  1.00  0.00    -0.352 N 
ATOM     19  H1  UNL     1       8.815 -23.399   9.059  1.00  0.00     0.163 HD
BRANCH  18  20
HETATM   20  C8  UNL     1      10.798 -23.534   8.325  1.00  0.00     0.131 C 
BRANCH  20  21
HETATM   21  C9  UNL     1      10.740 -22.284   7.481  1.00  0.00     0.191 C 
BRANCH  21  22
HETATM   22  O2  UNL     1       9.452 -21.749   7.496  1.00  0.00    -0.399 OA
ATOM     23  H2  UNL     1       8.912 -22.174   6.840  1.00  0.00     0.209 HD
ENDBRANCH  21  22
ENDBRANCH  20  21
BRANCH  20  24
HETATM   24  C10 UNL     1      10.680 -24.722   7.382  1.00  0.00     0.191 C 
BRANCH  24  25
HETATM   25  O3  UNL     1      10.692 -24.306   6.066  1.00  0.00    -0.399 OA
ATOM     26  H3  UNL     1      11.487 -23.824   5.873  1.00  0.00     0.209 HD
ENDBRANCH  24  25
ENDBRANCH  20  24
ENDBRANCH  18  20
ENDBRANCH  15  16
ENDBRANCH   2  15
BRANCH   1  27
HETATM   27  S1  UNL     1       6.860 -21.465  10.533  1.00  0.00    -0.158 SA
BRANCH  27  28
HETATM   28  C3  UNL     1       5.837 -20.079  10.263  1.00  0.00     0.100 C 
BRANCH  28  29
HETATM   29  C2  UNL     1       5.004 -19.675  11.401  1.00  0.00    -0.027 C 
HETATM   30  C1  UNL     1       3.745 -20.115  11.534  1.00  0.00     0.007 C 
ENDBRANCH  28  29
ENDBRANCH  27  28
ENDBRANCH   1  27
BRANCH   7  31
HETATM   31  C13 UNL     1       7.878 -22.783  16.783  1.00  0.00     0.018 C 
HETATM   32  C14 UNL     1       8.353 -23.505  18.028  1.00  0.00     0.007 C 
HETATM   33  C15 UNL     1       8.228 -22.611  19.260  1.00  0.00     0.000 C 
HETATM   34  C16 UNL     1       7.224 -21.523  18.957  1.00  0.00     0.000 C 
HETATM   35  C17 UNL     1       7.844 -20.619  17.916  1.00  0.00     0.000 C 
HETATM   36  C18 UNL     1       8.496 -21.404  16.802  1.00  0.00     0.007 C 
ENDBRANCH   7  31
TORSDOF 11
ENDMDL
