MODEL 1
REMARK VINA RESULT: -6.468968209      0.000      0.000
REMARK  11 active torsions:
REMARK  status: ('A' for Active; 'I' for Inactive)
REMARK    1  A    between atoms: C2_2  and  C3_3 
REMARK    2  A    between atoms: C3_3  and  C4_4 
REMARK    3  A    between atoms: C4_4  and  C5_5 
REMARK    4  A    between atoms: C5_5  and  C6_6 
REMARK    5  A    between atoms: C6_6  and  C7_7 
REMARK    6  A    between atoms: C8_10  and  O1_11 
REMARK    7  A    between atoms: C13_20  and  C14_21 
REMARK    8  A    between atoms: C14_21  and  C15_22 
REMARK    9  A    between atoms: C18_28  and  C19_29 
REMARK   10  A    between atoms: C19_29  and  O4_30 
REMARK   11  A    between atoms: O4_30  and  C20_31 
ROOT
HETATM    1  C7  UNL     1       5.072 -20.841  11.249  1.00  0.00     0.175 C 
HETATM    2  N1  UNL     1       5.647 -20.966   9.919  1.00  0.00    -0.361 N 
ATOM      3  H1  UNL     1       5.220 -20.336   9.238  1.00  0.00     0.162 HD
HETATM    4  C8  UNL     1       6.637 -21.743   9.380  1.00  0.00     0.111 C 
HETATM    5  C9  UNL     1       8.088 -21.819   9.627  1.00  0.00     0.085 C 
HETATM    6  C10 UNL     1       8.594 -23.227   9.644  1.00  0.00     0.027 C 
HETATM    7  C11 UNL     1       7.751 -24.227  10.343  1.00  0.00     0.123 C 
HETATM    8  N2  UNL     1       8.262 -24.631  11.653  1.00  0.00    -0.359 N 
ATOM      9  H2  UNL     1       9.254 -24.542  11.875  1.00  0.00     0.162 HD
HETATM   10  C12 UNL     1       7.347 -25.152  12.608  1.00  0.00     0.240 C 
HETATM   11  O2  UNL     1       7.534 -24.966  13.843  1.00  0.00    -0.271 OA
HETATM   12  C13 UNL     1       6.118 -25.946  12.182  1.00  0.00     0.176 C 
HETATM   13  N3  UNL     1       5.047 -25.730  13.094  1.00  0.00    -0.346 N 
ATOM     14  H3  UNL     1       5.128 -26.215  13.987  1.00  0.00     0.163 HD
HETATM   15  C17 UNL     1       3.886 -24.936  12.936  1.00  0.00     0.243 C 
HETATM   16  O3  UNL     1       2.738 -25.452  13.186  1.00  0.00    -0.271 OA
HETATM   17  C18 UNL     1       3.822 -23.514  12.498  1.00  0.00     0.200 C 
HETATM   18  N4  UNL     1       4.905 -22.722  12.973  1.00  0.00    -0.344 N 
ATOM     19  H4  UNL     1       5.222 -22.914  13.923  1.00  0.00     0.163 HD
HETATM   20  C24 UNL     1       5.601 -21.688  12.273  1.00  0.00     0.241 C 
HETATM   21  O5  UNL     1       6.809 -21.559  12.647  1.00  0.00    -0.271 OA
ENDROOT
BRANCH   1  22
HETATM   22  C6  UNL     1       4.948 -19.373  11.505  1.00  0.00     0.035 C 
BRANCH  22  23
HETATM   23  C5  UNL     1       4.553 -18.468  10.422  1.00  0.00     0.002 C 
BRANCH  23  24
HETATM   24  C4  UNL     1       3.151 -18.156  10.144  1.00  0.00     0.000 C 
BRANCH  24  25
HETATM   25  C3  UNL     1       2.063 -18.625  11.015  1.00  0.00    -0.000 C 
BRANCH  25  26
HETATM   26  C2  UNL     1       0.897 -17.729  11.233  1.00  0.00    -0.005 C 
HETATM   27  C1  UNL     1       1.067 -16.318  10.816  1.00  0.00     0.005 C 
ENDBRANCH  25  26
ENDBRANCH  24  25
ENDBRANCH  23  24
ENDBRANCH  22  23
ENDBRANCH   1  22
BRANCH   4  28
HETATM   28  O1  UNL     1       6.255 -22.591   8.468  1.00  0.00    -0.350 OA
ATOM     29  H1  UNL     1       6.670 -23.444   8.500  1.00  0.00     0.219 HD
ENDBRANCH   4  28
BRANCH  17  30
HETATM   30  C19 UNL     1       2.567 -22.875  13.123  1.00  0.00     0.203 C 
BRANCH  30  31
HETATM   31  O4  UNL     1       1.940 -22.018  12.259  1.00  0.00    -0.379 OA
BRANCH  31  32
HETATM   32  C20 UNL     1       0.585 -22.077  12.435  1.00  0.00     0.050 C 
HETATM   33  C21 UNL     1       0.103 -21.208  13.583  1.00  0.00     0.045 C 
HETATM   34  C22 UNL     1       0.054 -23.464  12.674  1.00  0.00     0.045 C 
HETATM   35  C23 UNL     1      -0.117 -21.545  11.179  1.00  0.00     0.045 C 
ENDBRANCH  31  32
ENDBRANCH  30  31
ENDBRANCH  17  30
BRANCH  12  36
HETATM   36  C14 UNL     1       6.650 -27.349  12.084  1.00  0.00     0.034 C 
BRANCH  36  37
HETATM   37  C15 UNL     1       6.644 -27.991  10.755  1.00  0.00    -0.002 C 
HETATM   38  C16 UNL     1       5.766 -27.370   9.711  1.00  0.00     0.005 C 
ENDBRANCH  36  37
ENDBRANCH  12  36
TORSDOF 11
ENDMDL
MODEL 2
REMARK VINA RESULT: -6.457490640      1.106      1.552
REMARK  11 active torsions:
REMARK  status: ('A' for Active; 'I' for Inactive)
REMARK    1  A    between atoms: C2_2  and  C3_3 
REMARK    2  A    between atoms: C3_3  and  C4_4 
REMARK    3  A    between atoms: C4_4  and  C5_5 
REMARK    4  A    between atoms: C5_5  and  C6_6 
REMARK    5  A    between atoms: C6_6  and  C7_7 
REMARK    6  A    between atoms: C8_10  and  O1_11 
REMARK    7  A    between atoms: C13_20  and  C14_21 
REMARK    8  A    between atoms: C14_21  and  C15_22 
REMARK    9  A    between atoms: C18_28  and  C19_29 
REMARK   10  A    between atoms: C19_29  and  O4_30 
REMARK   11  A    between atoms: O4_30  and  C20_31 
ROOT
HETATM    1  C7  UNL     1       5.021 -20.597  11.032  1.00  0.00     0.175 C 
HETATM    2  N1  UNL     1       5.670 -20.824   9.750  1.00  0.00    -0.361 N 
ATOM      3  H1  UNL     1       5.322 -20.213   9.012  1.00  0.00     0.162 HD
HETATM    4  C8  UNL     1       6.648 -21.680   9.319  1.00  0.00     0.111 C 
HETATM    5  C9  UNL     1       8.075 -21.815   9.663  1.00  0.00     0.085 C 
HETATM    6  C10 UNL     1       8.502 -23.244   9.787  1.00  0.00     0.027 C 
HETATM    7  C11 UNL     1       7.564 -24.159  10.481  1.00  0.00     0.123 C 
HETATM    8  N2  UNL     1       7.970 -24.515  11.840  1.00  0.00    -0.359 N 
ATOM      9  H2  UNL     1       8.949 -24.464  12.122  1.00  0.00     0.162 HD
HETATM   10  C12 UNL     1       6.970 -24.935  12.760  1.00  0.00     0.240 C 
HETATM   11  O2  UNL     1       7.089 -24.691  13.992  1.00  0.00    -0.271 OA
HETATM   12  C13 UNL     1       5.729 -25.688  12.296  1.00  0.00     0.176 C 
HETATM   13  N3  UNL     1       4.616 -25.368  13.124  1.00  0.00    -0.346 N 
ATOM     14  H3  UNL     1       4.615 -25.807  14.044  1.00  0.00     0.163 HD
HETATM   15  C17 UNL     1       3.512 -24.526  12.849  1.00  0.00     0.243 C 
HETATM   16  O3  UNL     1       2.324 -24.969  13.050  1.00  0.00    -0.271 OA
HETATM   17  C18 UNL     1       3.553 -23.130  12.335  1.00  0.00     0.200 C 
HETATM   18  N4  UNL     1       4.645 -22.368  12.837  1.00  0.00    -0.344 N 
ATOM     19  H4  UNL     1       4.891 -22.522  13.814  1.00  0.00     0.163 HD
HETATM   20  C24 UNL     1       5.438 -21.411  12.131  1.00  0.00     0.241 C 
HETATM   21  O5  UNL     1       6.626 -21.323  12.576  1.00  0.00    -0.271 OA
ENDROOT
BRANCH   1  22
HETATM   22  C6  UNL     1       4.961 -19.113  11.203  1.00  0.00     0.035 C 
BRANCH  22  23
HETATM   23  C5  UNL     1       3.759 -18.374  10.804  1.00  0.00     0.002 C 
BRANCH  23  24
HETATM   24  C4  UNL     1       3.617 -17.781   9.475  1.00  0.00     0.000 C 
BRANCH  24  25
HETATM   25  C3  UNL     1       4.779 -17.523   8.611  1.00  0.00    -0.000 C 
BRANCH  25  26
HETATM   26  C2  UNL     1       4.598 -16.641   7.429  1.00  0.00    -0.005 C 
HETATM   27  C1  UNL     1       3.214 -16.197   7.146  1.00  0.00     0.005 C 
ENDBRANCH  25  26
ENDBRANCH  24  25
ENDBRANCH  23  24
ENDBRANCH  22  23
ENDBRANCH   1  22
BRANCH   4  28
HETATM   28  O1  UNL     1       6.278 -22.556   8.430  1.00  0.00    -0.350 OA
ATOM     29  H1  UNL     1       6.297 -23.462   8.712  1.00  0.00     0.219 HD
ENDBRANCH   4  28
BRANCH  17  30
HETATM   30  C19 UNL     1       2.298 -22.394  12.842  1.00  0.00     0.203 C 
BRANCH  30  31
HETATM   31  O4  UNL     1       1.916 -21.384  12.000  1.00  0.00    -0.379 OA
BRANCH  31  32
HETATM   32  C20 UNL     1       0.612 -21.041  12.233  1.00  0.00     0.050 C 
HETATM   33  C21 UNL     1       0.346 -19.562  12.018  1.00  0.00     0.045 C 
HETATM   34  C22 UNL     1       0.121 -21.385  13.612  1.00  0.00     0.045 C 
HETATM   35  C23 UNL     1      -0.295 -21.782  11.243  1.00  0.00     0.045 C 
ENDBRANCH  31  32
ENDBRANCH  30  31
ENDBRANCH  17  30
BRANCH  12  36
HETATM   36  C14 UNL     1       6.189 -27.120  12.307  1.00  0.00     0.034 C 
BRANCH  36  37
HETATM   37  C15 UNL     1       6.362 -27.792  11.004  1.00  0.00    -0.002 C 
HETATM   38  C16 UNL     1       5.532 -27.279   9.866  1.00  0.00     0.005 C 
ENDBRANCH  36  37
ENDBRANCH  12  36
TORSDOF 11
ENDMDL
MODEL 3
REMARK VINA RESULT: -5.838941180      0.870      1.357
REMARK  11 active torsions:
REMARK  status: ('A' for Active; 'I' for Inactive)
REMARK    1  A    between atoms: C2_2  and  C3_3 
REMARK    2  A    between atoms: C3_3  and  C4_4 
REMARK    3  A    between atoms: C4_4  and  C5_5 
REMARK    4  A    between atoms: C5_5  and  C6_6 
REMARK    5  A    between atoms: C6_6  and  C7_7 
REMARK    6  A    between atoms: C8_10  and  O1_11 
REMARK    7  A    between atoms: C13_20  and  C14_21 
REMARK    8  A    between atoms: C14_21  and  C15_22 
REMARK    9  A    between atoms: C18_28  and  C19_29 
REMARK   10  A    between atoms: C19_29  and  O4_30 
REMARK   11  A    between atoms: O4_30  and  C20_31 
ROOT
HETATM    1  C7  UNL     1       4.743 -21.030  11.122  1.00  0.00     0.175 C 
HETATM    2  N1  UNL     1       5.372 -21.273   9.834  1.00  0.00    -0.361 N 
ATOM      3  H1  UNL     1       4.870 -20.845   9.056  1.00  0.00     0.162 HD
HETATM    4  C8  UNL     1       6.492 -21.953   9.437  1.00  0.00     0.111 C 
HETATM    5  C9  UNL     1       7.927 -21.743   9.698  1.00  0.00     0.085 C 
HETATM    6  C10 UNL     1       8.657 -23.025   9.953  1.00  0.00     0.027 C 
HETATM    7  C11 UNL     1       7.968 -24.022  10.807  1.00  0.00     0.123 C 
HETATM    8  N2  UNL     1       8.497 -24.115  12.167  1.00  0.00    -0.359 N 
ATOM      9  H2  UNL     1       9.453 -23.826  12.375  1.00  0.00     0.162 HD
HETATM   10  C12 UNL     1       7.649 -24.617  13.193  1.00  0.00     0.240 C 
HETATM   11  O2  UNL     1       7.764 -24.202  14.379  1.00  0.00    -0.271 OA
HETATM   12  C13 UNL     1       6.582 -25.664  12.901  1.00  0.00     0.176 C 
HETATM   13  N3  UNL     1       5.461 -25.483  13.760  1.00  0.00    -0.346 N 
ATOM     14  H3  UNL     1       5.592 -25.795  14.722  1.00  0.00     0.163 HD
HETATM   15  C17 UNL     1       4.192 -24.931  13.466  1.00  0.00     0.243 C 
HETATM   16  O3  UNL     1       3.136 -25.583  13.795  1.00  0.00    -0.271 OA
HETATM   17  C18 UNL     1       3.909 -23.632  12.797  1.00  0.00     0.200 C 
HETATM   18  N4  UNL     1       4.832 -22.602  13.136  1.00  0.00    -0.344 N 
ATOM     19  H4  UNL     1       5.145 -22.580  14.106  1.00  0.00     0.163 HD
HETATM   20  C24 UNL     1       5.370 -21.596  12.276  1.00  0.00     0.241 C 
HETATM   21  O5  UNL     1       6.529 -21.207  12.628  1.00  0.00    -0.271 OA
ENDROOT
BRANCH   1  22
HETATM   22  C6  UNL     1       4.371 -19.581  11.129  1.00  0.00     0.035 C 
BRANCH  22  23
HETATM   23  C5  UNL     1       3.100 -19.145  10.544  1.00  0.00     0.002 C 
BRANCH  23  24
HETATM   24  C4  UNL     1       2.616 -17.771  10.677  1.00  0.00     0.000 C 
BRANCH  24  25
HETATM   25  C3  UNL     1       1.218 -17.470  11.023  1.00  0.00    -0.000 C 
BRANCH  25  26
HETATM   26  C2  UNL     1       0.446 -18.484  11.787  1.00  0.00    -0.005 C 
HETATM   27  C1  UNL     1      -0.985 -18.624  11.433  1.00  0.00     0.005 C 
ENDBRANCH  25  26
ENDBRANCH  24  25
ENDBRANCH  23  24
ENDBRANCH  22  23
ENDBRANCH   1  22
BRANCH   4  28
HETATM   28  O1  UNL     1       6.283 -22.990   8.679  1.00  0.00    -0.350 OA
ATOM     29  H1  UNL     1       6.755 -23.778   8.920  1.00  0.00     0.219 HD
ENDBRANCH   4  28
BRANCH  17  30
HETATM   30  C19 UNL     1       2.547 -23.116  13.301  1.00  0.00     0.203 C 
BRANCH  30  31
HETATM   31  O4  UNL     1       1.845 -22.470  12.320  1.00  0.00    -0.379 OA
BRANCH  31  32
HETATM   32  C20 UNL     1       0.501 -22.591  12.543  1.00  0.00     0.050 C 
HETATM   33  C21 UNL     1       0.095 -23.998  12.945  1.00  0.00     0.045 C 
HETATM   34  C22 UNL     1      -0.357 -22.200  11.370  1.00  0.00     0.045 C 
HETATM   35  C23 UNL     1       0.093 -21.684  13.711  1.00  0.00     0.045 C 
ENDBRANCH  31  32
ENDBRANCH  30  31
ENDBRANCH  17  30
BRANCH  12  36
HETATM   36  C14 UNL     1       7.339 -26.955  13.041  1.00  0.00     0.034 C 
BRANCH  36  37
HETATM   37  C15 UNL     1       7.631 -27.714  11.809  1.00  0.00    -0.002 C 
HETATM   38  C16 UNL     1       8.739 -28.720  11.883  1.00  0.00     0.005 C 
ENDBRANCH  36  37
ENDBRANCH  12  36
TORSDOF 11
ENDMDL
MODEL 4
REMARK VINA RESULT: -5.774348234      1.313      1.799
REMARK  11 active torsions:
REMARK  status: ('A' for Active; 'I' for Inactive)
REMARK    1  A    between atoms: C2_2  and  C3_3 
REMARK    2  A    between atoms: C3_3  and  C4_4 
REMARK    3  A    between atoms: C4_4  and  C5_5 
REMARK    4  A    between atoms: C5_5  and  C6_6 
REMARK    5  A    between atoms: C6_6  and  C7_7 
REMARK    6  A    between atoms: C8_10  and  O1_11 
REMARK    7  A    between atoms: C13_20  and  C14_21 
REMARK    8  A    between atoms: C14_21  and  C15_22 
REMARK    9  A    between atoms: C18_28  and  C19_29 
REMARK   10  A    between atoms: C19_29  and  O4_30 
REMARK   11  A    between atoms: O4_30  and  C20_31 
ROOT
HETATM    1  C7  UNL     1       4.742 -21.260  11.333  1.00  0.00     0.175 C 
HETATM    2  N1  UNL     1       5.306 -21.360   9.996  1.00  0.00    -0.361 N 
ATOM      3  H1  UNL     1       4.736 -20.899   9.287  1.00  0.00     0.162 HD
HETATM    4  C8  UNL     1       6.435 -21.938   9.483  1.00  0.00     0.111 C 
HETATM    5  C9  UNL     1       7.870 -21.667   9.682  1.00  0.00     0.085 C 
HETATM    6  C10 UNL     1       8.681 -22.921   9.786  1.00  0.00     0.027 C 
HETATM    7  C11 UNL     1       8.097 -24.024  10.588  1.00  0.00     0.123 C 
HETATM    8  N2  UNL     1       8.710 -24.197  11.905  1.00  0.00    -0.359 N 
ATOM      9  H2  UNL     1       9.660 -23.870  12.084  1.00  0.00     0.162 HD
HETATM   10  C12 UNL     1       7.953 -24.829  12.929  1.00  0.00     0.240 C 
HETATM   11  O2  UNL     1       8.116 -24.507  14.138  1.00  0.00    -0.271 OA
HETATM   12  C13 UNL     1       6.927 -25.909  12.607  1.00  0.00     0.176 C 
HETATM   13  N3  UNL     1       5.852 -25.865  13.538  1.00  0.00    -0.346 N 
ATOM     14  H3  UNL     1       6.056 -26.246  14.462  1.00  0.00     0.163 HD
HETATM   15  C17 UNL     1       4.540 -25.365  13.363  1.00  0.00     0.243 C 
HETATM   16  O3  UNL     1       3.542 -26.103  13.692  1.00  0.00    -0.271 OA
HETATM   17  C18 UNL     1       4.149 -24.034  12.823  1.00  0.00     0.200 C 
HETATM   18  N4  UNL     1       5.034 -22.984  13.198  1.00  0.00    -0.344 N 
ATOM     19  H4  UNL     1       5.403 -23.023  14.148  1.00  0.00     0.163 HD
HETATM   20  C24 UNL     1       5.466 -21.881  12.399  1.00  0.00     0.241 C 
HETATM   21  O5  UNL     1       6.621 -21.456  12.718  1.00  0.00    -0.271 OA
ENDROOT
BRANCH   1  22
HETATM   22  C6  UNL     1       4.295 -19.841  11.484  1.00  0.00     0.035 C 
BRANCH  22  23
HETATM   23  C5  UNL     1       4.961 -18.775  10.729  1.00  0.00     0.002 C 
BRANCH  23  24
HETATM   24  C4  UNL     1       4.289 -18.050   9.652  1.00  0.00     0.000 C 
BRANCH  24  25
HETATM   25  C3  UNL     1       5.026 -17.513   8.498  1.00  0.00    -0.000 C 
BRANCH  25  26
HETATM   26  C2  UNL     1       4.310 -16.609   7.560  1.00  0.00    -0.005 C 
HETATM   27  C1  UNL     1       5.005 -16.295   6.291  1.00  0.00     0.005 C 
ENDBRANCH  25  26
ENDBRANCH  24  25
ENDBRANCH  23  24
ENDBRANCH  22  23
ENDBRANCH   1  22
BRANCH   4  28
HETATM   28  O1  UNL     1       6.237 -22.920   8.651  1.00  0.00    -0.350 OA
ATOM     29  H1  UNL     1       6.248 -22.688   7.730  1.00  0.00     0.219 HD
ENDBRANCH   4  28
BRANCH  17  30
HETATM   30  C19 UNL     1       2.794 -23.642  13.443  1.00  0.00     0.203 C 
BRANCH  30  31
HETATM   31  O4  UNL     1       2.045 -22.868  12.599  1.00  0.00    -0.379 OA
BRANCH  31  32
HETATM   32  C20 UNL     1       0.836 -22.578  13.170  1.00  0.00     0.050 C 
HETATM   33  C21 UNL     1       0.398 -21.145  12.925  1.00  0.00     0.045 C 
HETATM   34  C22 UNL     1       0.784 -22.811  14.655  1.00  0.00     0.045 C 
HETATM   35  C23 UNL     1      -0.248 -23.465  12.545  1.00  0.00     0.045 C 
ENDBRANCH  31  32
ENDBRANCH  30  31
ENDBRANCH  17  30
BRANCH  12  36
HETATM   36  C14 UNL     1       7.760 -27.162  12.596  1.00  0.00     0.034 C 
BRANCH  36  37
HETATM   37  C15 UNL     1       7.551 -28.111  11.484  1.00  0.00    -0.002 C 
HETATM   38  C16 UNL     1       6.966 -27.553  10.223  1.00  0.00     0.005 C 
ENDBRANCH  36  37
ENDBRANCH  12  36
TORSDOF 11
ENDMDL
MODEL 5
REMARK VINA RESULT: -5.732437817      3.337      4.804
REMARK  11 active torsions:
REMARK  status: ('A' for Active; 'I' for Inactive)
REMARK    1  A    between atoms: C2_2  and  C3_3 
REMARK    2  A    between atoms: C3_3  and  C4_4 
REMARK    3  A    between atoms: C4_4  and  C5_5 
REMARK    4  A    between atoms: C5_5  and  C6_6 
REMARK    5  A    between atoms: C6_6  and  C7_7 
REMARK    6  A    between atoms: C8_10  and  O1_11 
REMARK    7  A    between atoms: C13_20  and  C14_21 
REMARK    8  A    between atoms: C14_21  and  C15_22 
REMARK    9  A    between atoms: C18_28  and  C19_29 
REMARK   10  A    between atoms: C19_29  and  O4_30 
REMARK   11  A    between atoms: O4_30  and  C20_31 
ROOT
HETATM    1  C7  UNL     1       6.632 -23.515  11.611  1.00  0.00     0.175 C 
HETATM    2  N1  UNL     1       7.934 -23.757  11.010  1.00  0.00    -0.361 N 
ATOM      3  H1  UNL     1       7.886 -24.332  10.168  1.00  0.00     0.162 HD
HETATM    4  C8  UNL     1       9.211 -23.381  11.328  1.00  0.00     0.111 C 
HETATM    5  C9  UNL     1       9.877 -22.067  11.383  1.00  0.00     0.085 C 
HETATM    6  C10 UNL     1      10.787 -21.934  12.564  1.00  0.00     0.027 C 
HETATM    7  C11 UNL     1      10.288 -22.478  13.850  1.00  0.00     0.123 C 
HETATM    8  N2  UNL     1       9.843 -21.459  14.799  1.00  0.00    -0.359 N 
ATOM      9  H2  UNL     1      10.195 -20.503  14.742  1.00  0.00     0.162 HD
HETATM   10  C12 UNL     1       8.907 -21.829  15.804  1.00  0.00     0.240 C 
HETATM   11  O2  UNL     1       8.065 -20.993  16.236  1.00  0.00    -0.271 OA
HETATM   12  C13 UNL     1       8.886 -23.235  16.392  1.00  0.00     0.176 C 
HETATM   13  N3  UNL     1       7.559 -23.602  16.752  1.00  0.00    -0.346 N 
ATOM     14  H3  UNL     1       7.202 -23.173  17.606  1.00  0.00     0.163 HD
HETATM   15  C17 UNL     1       6.665 -24.479  16.093  1.00  0.00     0.243 C 
HETATM   16  O3  UNL     1       6.091 -25.408  16.767  1.00  0.00    -0.271 OA
HETATM   17  C18 UNL     1       6.287 -24.461  14.653  1.00  0.00     0.200 C 
HETATM   18  N4  UNL     1       6.194 -23.151  14.103  1.00  0.00    -0.344 N 
ATOM     19  H4  UNL     1       5.794 -22.435  14.709  1.00  0.00     0.163 HD
HETATM   20  C24 UNL     1       6.596 -22.722  12.801  1.00  0.00     0.241 C 
HETATM   21  O5  UNL     1       6.945 -21.500  12.764  1.00  0.00    -0.271 OA
ENDROOT
BRANCH   1  22
HETATM   22  C6  UNL     1       5.716 -23.177  10.479  1.00  0.00     0.035 C 
BRANCH  22  23
HETATM   23  C5  UNL     1       6.080 -22.123   9.526  1.00  0.00     0.002 C 
BRANCH  23  24
HETATM   24  C4  UNL     1       5.658 -20.735   9.706  1.00  0.00     0.000 C 
BRANCH  24  25
HETATM   25  C3  UNL     1       4.529 -20.372  10.577  1.00  0.00    -0.000 C 
BRANCH  25  26
HETATM   26  C2  UNL     1       4.482 -18.995  11.134  1.00  0.00    -0.005 C 
HETATM   27  C1  UNL     1       3.304 -18.176  10.764  1.00  0.00     0.005 C 
ENDBRANCH  25  26
ENDBRANCH  24  25
ENDBRANCH  23  24
ENDBRANCH  22  23
ENDBRANCH   1  22
BRANCH   4  28
HETATM   28  O1  UNL     1      10.022 -24.349  11.645  1.00  0.00    -0.350 OA
ATOM     29  H1  UNL     1      10.038 -25.085  11.046  1.00  0.00     0.219 HD
ENDBRANCH   4  28
BRANCH  17  30
HETATM   30  C19 UNL     1       4.866 -25.041  14.521  1.00  0.00     0.203 C 
BRANCH  30  31
HETATM   31  O4  UNL     1       3.901 -24.082  14.668  1.00  0.00    -0.379 OA
BRANCH  31  32
HETATM   32  C20 UNL     1       2.998 -24.159  13.644  1.00  0.00     0.050 C 
HETATM   33  C21 UNL     1       3.334 -25.250  12.643  1.00  0.00     0.045 C 
HETATM   34  C22 UNL     1       2.834 -22.881  12.868  1.00  0.00     0.045 C 
HETATM   35  C23 UNL     1       1.616 -24.515  14.207  1.00  0.00     0.045 C 
ENDBRANCH  31  32
ENDBRANCH  30  31
ENDBRANCH  17  30
BRANCH  12  36
HETATM   36  C14 UNL     1       9.888 -23.139  17.510  1.00  0.00     0.034 C 
BRANCH  36  37
HETATM   37  C15 UNL     1       9.367 -23.010  18.885  1.00  0.00    -0.002 C 
HETATM   38  C16 UNL     1       9.424 -21.646  19.502  1.00  0.00     0.005 C 
ENDBRANCH  36  37
ENDBRANCH  12  36
TORSDOF 11
ENDMDL
