MODEL 1
REMARK VINA RESULT: -7.300374933      0.000      0.000
REMARK  11 active torsions:
REMARK  status: ('A' for Active; 'I' for Inactive)
REMARK    1  A    between atoms: C5_6  and  C6_7 
REMARK    2  A    between atoms: C6_7  and  C7_8 
REMARK    3  A    between atoms: C7_8  and  N1_9 
REMARK    4  A    between atoms: C8_13  and  N2_14 
REMARK    5  A    between atoms: N2_14  and  S2_16 
REMARK    6  A    between atoms: S2_16  and  N3_19 
REMARK    7  A    between atoms: N3_19  and  C9_21 
REMARK    8  A    between atoms: C9_21  and  C10_25 
REMARK    9  A    between atoms: C10_25  and  C11_26 
REMARK   10  A    between atoms: C11_26  and  C12_27 
REMARK   11  A    between atoms: C12_27  and  C13_28 
ROOT
HETATM    1  N2  UNL     1      -1.092 -19.793  13.320  1.00  0.00    -0.296 N 
ATOM      2  H2  UNL     1      -1.685 -19.120  13.806  1.00  0.00     0.174 HD
ENDROOT
BRANCH   1   3
HETATM    3  C8  UNL     1      -0.762 -21.072  13.813  1.00  0.00     0.119 C 
HETATM    4  C5  UNL     1      -1.847 -22.093  13.942  1.00  0.00     0.045 C 
HETATM    5  C4  UNL     1      -1.186 -23.070  14.933  1.00  0.00     0.156 C 
HETATM    6  S1  UNL     1      -0.361 -24.429  14.090  1.00  0.00    -0.138 SA
HETATM    7  N5  UNL     1      -0.194 -22.313  15.642  1.00  0.00    -0.332 N 
HETATM    8  C3  UNL     1       1.053 -25.043  15.051  1.00  0.00     0.119 C 
HETATM    9  C2  UNL     1       1.047 -24.374  16.377  1.00  0.00     0.010 C 
HETATM   10  C1  UNL     1       1.397 -25.062  17.432  1.00  0.00     0.025 C 
HETATM   11  C21 UNL     1       0.663 -22.972  16.538  1.00  0.00     0.250 C 
HETATM   12  O3  UNL     1       1.123 -22.311  17.531  1.00  0.00    -0.268 OA
HETATM   13  C20 UNL     1      -0.266 -20.911  15.274  1.00  0.00     0.153 C 
BRANCH   4  14
HETATM   14  C6  UNL     1      -2.104 -22.773  12.646  1.00  0.00     0.037 C 
BRANCH  14  15
HETATM   15  C7  UNL     1      -3.379 -22.436  11.944  1.00  0.00     0.230 C 
BRANCH  15  16
HETATM   16  N1  UNL     1      -3.030 -21.626  10.764  1.00  0.00    -0.079 N 
ATOM     17  H13 UNL     1      -2.370 -22.093  10.142  1.00  0.00     0.274 HD
ATOM     18  H12 UNL     1      -3.799 -21.538  10.099  1.00  0.00     0.274 HD
ATOM     19  H11 UNL     1      -2.690 -20.726  11.102  1.00  0.00     0.274 HD
ENDBRANCH  15  16
ENDBRANCH  14  15
ENDBRANCH   4  14
ENDBRANCH   1   3
BRANCH   1  20
HETATM   20  S2  UNL     1      -0.362 -19.521  11.794  1.00  0.00     0.320 S 
HETATM   21  O1  UNL     1      -1.344 -18.852  10.843  1.00  0.00    -0.182 OA
HETATM   22  O2  UNL     1       0.060 -20.827  11.146  1.00  0.00    -0.182 OA
BRANCH  20  23
HETATM   23  N3  UNL     1       1.023 -18.510  11.910  1.00  0.00    -0.257 N 
ATOM     24  H3  UNL     1       1.515 -18.440  12.800  1.00  0.00     0.181 HD
BRANCH  23  25
HETATM   25  C9  UNL     1       1.498 -17.770  10.797  1.00  0.00     0.085 C 
HETATM   26  N4  UNL     1       0.851 -16.724  10.437  1.00  0.00    -0.388 N 
ATOM     27  H42 UNL     1       0.014 -16.439  10.945  1.00  0.00     0.157 HD
ATOM     28  H41 UNL     1       1.192 -16.192   9.637  1.00  0.00     0.157 HD
BRANCH  25  29
HETATM   29  C10 UNL     1       2.708 -18.182  10.063  1.00  0.00     0.076 C 
BRANCH  29  30
HETATM   30  C11 UNL     1       3.385 -19.320  10.789  1.00  0.00     0.008 C 
BRANCH  30  31
HETATM   31  C12 UNL     1       4.785 -18.943  11.195  1.00  0.00     0.010 C 
BRANCH  31  32
HETATM   32  C13 UNL     1       5.680 -20.156  11.317  1.00  0.00     0.018 C 
HETATM   33  C14 UNL     1       5.945 -20.611   9.881  1.00  0.00    -0.025 C 
HETATM   34  C15 UNL     1       6.695 -21.787   9.560  1.00  0.00    -0.029 C 
HETATM   35  C16 UNL     1       6.064 -23.164   9.376  1.00  0.00     0.038 C 
HETATM   36  C17 UNL     1       5.291 -23.619  10.664  1.00  0.00     0.083 C 
HETATM   37  C18 UNL     1       5.095 -22.454  11.422  1.00  0.00    -0.182 C 
HETATM   38  C19 UNL     1       4.918 -21.260  12.133  1.00  0.00     0.088 C 
ENDBRANCH  31  32
ENDBRANCH  30  31
ENDBRANCH  29  30
ENDBRANCH  25  29
ENDBRANCH  23  25
ENDBRANCH  20  23
ENDBRANCH   1  20
TORSDOF 11
ENDMDL
MODEL 2
REMARK VINA RESULT: -7.096563535      0.825      1.377
REMARK  11 active torsions:
REMARK  status: ('A' for Active; 'I' for Inactive)
REMARK    1  A    between atoms: C5_6  and  C6_7 
REMARK    2  A    between atoms: C6_7  and  C7_8 
REMARK    3  A    between atoms: C7_8  and  N1_9 
REMARK    4  A    between atoms: C8_13  and  N2_14 
REMARK    5  A    between atoms: N2_14  and  S2_16 
REMARK    6  A    between atoms: S2_16  and  N3_19 
REMARK    7  A    between atoms: N3_19  and  C9_21 
REMARK    8  A    between atoms: C9_21  and  C10_25 
REMARK    9  A    between atoms: C10_25  and  C11_26 
REMARK   10  A    between atoms: C11_26  and  C12_27 
REMARK   11  A    between atoms: C12_27  and  C13_28 
ROOT
HETATM    1  N2  UNL     1      -0.727 -19.625  13.586  1.00  0.00    -0.296 N 
ATOM      2  H2  UNL     1      -1.097 -18.846  14.130  1.00  0.00     0.174 HD
ENDROOT
BRANCH   1   3
HETATM    3  C8  UNL     1      -0.646 -20.956  14.046  1.00  0.00     0.119 C 
HETATM    4  C5  UNL     1      -1.912 -21.737  14.207  1.00  0.00     0.045 C 
HETATM    5  C4  UNL     1      -1.425 -22.850  15.155  1.00  0.00     0.156 C 
HETATM    6  S1  UNL     1      -0.930 -24.329  14.258  1.00  0.00    -0.138 SA
HETATM    7  N5  UNL     1      -0.272 -22.328  15.831  1.00  0.00    -0.332 N 
HETATM    8  C3  UNL     1       0.365 -25.240  15.147  1.00  0.00     0.119 C 
HETATM    9  C2  UNL     1       0.550 -24.615  16.481  1.00  0.00     0.010 C 
HETATM   10  C1  UNL     1       0.793 -25.384  17.510  1.00  0.00     0.025 C 
HETATM   11  C21 UNL     1       0.468 -23.168  16.679  1.00  0.00     0.250 C 
HETATM   12  O3  UNL     1       1.092 -22.638  17.659  1.00  0.00    -0.268 OA
HETATM   13  C20 UNL     1      -0.070 -20.933  15.486  1.00  0.00     0.153 C 
BRANCH   4  14
HETATM   14  C6  UNL     1      -2.354 -22.320  12.915  1.00  0.00     0.037 C 
BRANCH  14  15
HETATM   15  C7  UNL     1      -3.720 -21.952  12.436  1.00  0.00     0.230 C 
BRANCH  15  16
HETATM   16  N1  UNL     1      -3.631 -20.605  11.845  1.00  0.00    -0.079 N 
ATOM     17  H13 UNL     1      -4.488 -20.064  11.956  1.00  0.00     0.274 HD
ATOM     18  H12 UNL     1      -3.012 -19.983  12.364  1.00  0.00     0.274 HD
ATOM     19  H11 UNL     1      -3.355 -20.719  10.869  1.00  0.00     0.274 HD
ENDBRANCH  15  16
ENDBRANCH  14  15
ENDBRANCH   4  14
ENDBRANCH   1   3
BRANCH   1  20
HETATM   20  S2  UNL     1      -0.119 -19.494  11.989  1.00  0.00     0.320 S 
HETATM   21  O1  UNL     1      -1.163 -18.880  11.068  1.00  0.00    -0.182 OA
HETATM   22  O2  UNL     1       0.226 -20.859  11.419  1.00  0.00    -0.182 OA
BRANCH  20  23
HETATM   23  N3  UNL     1       1.289 -18.511  11.911  1.00  0.00    -0.257 N 
ATOM     24  H3  UNL     1       1.905 -18.459  12.722  1.00  0.00     0.181 HD
BRANCH  23  25
HETATM   25  C9  UNL     1       1.614 -17.771  10.747  1.00  0.00     0.085 C 
HETATM   26  N4  UNL     1       0.779 -16.893  10.326  1.00  0.00    -0.388 N 
ATOM     27  H42 UNL     1      -0.097 -16.741  10.825  1.00  0.00     0.157 HD
ATOM     28  H41 UNL     1       1.012 -16.361   9.489  1.00  0.00     0.157 HD
BRANCH  25  29
HETATM   29  C10 UNL     1       2.880 -17.992  10.025  1.00  0.00     0.076 C 
BRANCH  29  30
HETATM   30  C11 UNL     1       3.994 -18.241  11.014  1.00  0.00     0.008 C 
BRANCH  30  31
HETATM   31  C12 UNL     1       4.998 -19.217  10.459  1.00  0.00     0.010 C 
BRANCH  31  32
HETATM   32  C13 UNL     1       4.453 -20.627  10.429  1.00  0.00     0.018 C 
HETATM   33  C14 UNL     1       4.016 -20.923  11.864  1.00  0.00    -0.025 C 
HETATM   34  C15 UNL     1       3.510 -22.196  12.281  1.00  0.00    -0.029 C 
HETATM   35  C16 UNL     1       4.393 -23.316  12.823  1.00  0.00     0.038 C 
HETATM   36  C17 UNL     1       5.495 -23.733  11.786  1.00  0.00     0.083 C 
HETATM   37  C18 UNL     1       5.565 -22.680  10.861  1.00  0.00    -0.182 C 
HETATM   38  C19 UNL     1       5.600 -21.597   9.971  1.00  0.00     0.088 C 
ENDBRANCH  31  32
ENDBRANCH  30  31
ENDBRANCH  29  30
ENDBRANCH  25  29
ENDBRANCH  23  25
ENDBRANCH  20  23
ENDBRANCH   1  20
TORSDOF 11
ENDMDL
MODEL 3
REMARK VINA RESULT: -7.082615841      5.253      9.263
REMARK  11 active torsions:
REMARK  status: ('A' for Active; 'I' for Inactive)
REMARK    1  A    between atoms: C5_6  and  C6_7 
REMARK    2  A    between atoms: C6_7  and  C7_8 
REMARK    3  A    between atoms: C7_8  and  N1_9 
REMARK    4  A    between atoms: C8_13  and  N2_14 
REMARK    5  A    between atoms: N2_14  and  S2_16 
REMARK    6  A    between atoms: S2_16  and  N3_19 
REMARK    7  A    between atoms: N3_19  and  C9_21 
REMARK    8  A    between atoms: C9_21  and  C10_25 
REMARK    9  A    between atoms: C10_25  and  C11_26 
REMARK   10  A    between atoms: C11_26  and  C12_27 
REMARK   11  A    between atoms: C12_27  and  C13_28 
ROOT
HETATM    1  N2  UNL     1       7.811 -20.469  10.759  1.00  0.00    -0.296 N 
ATOM      2  H2  UNL     1       8.234 -19.542  10.806  1.00  0.00     0.174 HD
ENDROOT
BRANCH   1   3
HETATM    3  C8  UNL     1       8.527 -21.665  10.544  1.00  0.00     0.119 C 
HETATM    4  C5  UNL     1       9.685 -21.977  11.436  1.00  0.00     0.045 C 
HETATM    5  C4  UNL     1      10.424 -23.016  10.569  1.00  0.00     0.156 C 
HETATM    6  S1  UNL     1       9.966 -24.701  11.002  1.00  0.00    -0.138 SA
HETATM    7  N5  UNL     1      10.014 -22.773   9.215  1.00  0.00    -0.332 N 
HETATM    8  C3  UNL     1      10.093 -25.810   9.569  1.00  0.00     0.119 C 
HETATM    9  C2  UNL     1      10.720 -25.064   8.449  1.00  0.00     0.010 C 
HETATM   10  C1  UNL     1      11.553 -25.691   7.661  1.00  0.00     0.025 C 
HETATM   11  C21 UNL     1      10.434 -23.650   8.202  1.00  0.00     0.250 C 
HETATM   12  O3  UNL     1      10.568 -23.187   7.019  1.00  0.00    -0.268 OA
HETATM   13  C20 UNL     1       9.184 -21.586   9.141  1.00  0.00     0.153 C 
BRANCH   4  14
HETATM   14  C6  UNL     1       9.235 -22.598  12.708  1.00  0.00     0.037 C 
BRANCH  14  15
HETATM   15  C7  UNL     1       9.409 -21.795  13.955  1.00  0.00     0.230 C 
BRANCH  15  16
HETATM   16  N1  UNL     1       8.153 -21.058  14.181  1.00  0.00    -0.079 N 
ATOM     17  H13 UNL     1       7.323 -21.638  14.059  1.00  0.00     0.274 HD
ATOM     18  H12 UNL     1       8.003 -20.817  15.161  1.00  0.00     0.274 HD
ATOM     19  H11 UNL     1       8.163 -20.243  13.567  1.00  0.00     0.274 HD
ENDBRANCH  15  16
ENDBRANCH  14  15
ENDBRANCH   4  14
ENDBRANCH   1   3
BRANCH   1  20
HETATM   20  S2  UNL     1       6.136 -20.783  10.932  1.00  0.00     0.320 S 
HETATM   21  O1  UNL     1       5.887 -21.737  12.091  1.00  0.00    -0.182 OA
HETATM   22  O2  UNL     1       5.569 -21.443   9.687  1.00  0.00    -0.182 OA
BRANCH  20  23
HETATM   23  N3  UNL     1       5.235 -19.350  11.233  1.00  0.00    -0.257 N 
ATOM     24  H3  UNL     1       5.018 -19.093  12.196  1.00  0.00     0.181 HD
BRANCH  23  25
HETATM   25  C9  UNL     1       4.787 -18.518  10.177  1.00  0.00     0.085 C 
HETATM   26  N4  UNL     1       5.608 -18.231   9.234  1.00  0.00    -0.388 N 
ATOM     27  H42 UNL     1       6.559 -18.598   9.254  1.00  0.00     0.157 HD
ATOM     28  H41 UNL     1       5.286 -17.632   8.474  1.00  0.00     0.157 HD
BRANCH  25  29
HETATM   29  C10 UNL     1       3.413 -17.987  10.148  1.00  0.00     0.076 C 
BRANCH  29  30
HETATM   30  C11 UNL     1       2.483 -18.940  10.862  1.00  0.00     0.008 C 
BRANCH  30  31
HETATM   31  C12 UNL     1       1.224 -18.238  11.296  1.00  0.00     0.010 C 
BRANCH  31  32
HETATM   32  C13 UNL     1       0.331 -19.142  12.116  1.00  0.00     0.018 C 
HETATM   33  C14 UNL     1       0.858 -20.558  11.878  1.00  0.00    -0.025 C 
HETATM   34  C15 UNL     1       0.233 -21.726  12.419  1.00  0.00    -0.029 C 
HETATM   35  C16 UNL     1      -0.848 -22.518  11.690  1.00  0.00     0.038 C 
HETATM   36  C17 UNL     1      -2.090 -21.618  11.352  1.00  0.00     0.083 C 
HETATM   37  C18 UNL     1      -1.644 -20.293  11.475  1.00  0.00    -0.182 C 
HETATM   38  C19 UNL     1      -1.145 -18.989  11.602  1.00  0.00     0.088 C 
ENDBRANCH  31  32
ENDBRANCH  30  31
ENDBRANCH  29  30
ENDBRANCH  25  29
ENDBRANCH  23  25
ENDBRANCH  20  23
ENDBRANCH   1  20
TORSDOF 11
ENDMDL
MODEL 4
REMARK VINA RESULT: -7.058543424      2.188      4.644
REMARK  11 active torsions:
REMARK  status: ('A' for Active; 'I' for Inactive)
REMARK    1  A    between atoms: C5_6  and  C6_7 
REMARK    2  A    between atoms: C6_7  and  C7_8 
REMARK    3  A    between atoms: C7_8  and  N1_9 
REMARK    4  A    between atoms: C8_13  and  N2_14 
REMARK    5  A    between atoms: N2_14  and  S2_16 
REMARK    6  A    between atoms: S2_16  and  N3_19 
REMARK    7  A    between atoms: N3_19  and  C9_21 
REMARK    8  A    between atoms: C9_21  and  C10_25 
REMARK    9  A    between atoms: C10_25  and  C11_26 
REMARK   10  A    between atoms: C11_26  and  C12_27 
REMARK   11  A    between atoms: C12_27  and  C13_28 
ROOT
HETATM    1  N2  UNL     1      -0.823 -21.347  11.863  1.00  0.00    -0.296 N 
ATOM      2  H2  UNL     1      -0.145 -22.099  11.741  1.00  0.00     0.174 HD
ENDROOT
BRANCH   1   3
HETATM    3  C8  UNL     1      -2.201 -21.542  12.092  1.00  0.00     0.119 C 
HETATM    4  C5  UNL     1      -2.622 -22.507  13.154  1.00  0.00     0.045 C 
HETATM    5  C4  UNL     1      -4.077 -22.771  12.721  1.00  0.00     0.156 C 
HETATM    6  S1  UNL     1      -5.241 -21.706  13.587  1.00  0.00    -0.138 SA
HETATM    7  N5  UNL     1      -4.142 -22.462  11.321  1.00  0.00    -0.332 N 
HETATM    8  C3  UNL     1      -6.710 -21.369  12.573  1.00  0.00     0.119 C 
HETATM    9  C2  UNL     1      -6.646 -22.215  11.354  1.00  0.00     0.010 C 
HETATM   10  C1  UNL     1      -7.752 -22.727  10.882  1.00  0.00     0.025 C 
HETATM   11  C21 UNL     1      -5.384 -22.492  10.666  1.00  0.00     0.250 C 
HETATM   12  O3  UNL     1      -5.404 -22.772   9.420  1.00  0.00    -0.268 OA
HETATM   13  C20 UNL     1      -2.821 -22.152  10.807  1.00  0.00     0.153 C 
BRANCH   4  14
HETATM   14  C6  UNL     1      -2.594 -21.875  14.498  1.00  0.00     0.037 C 
BRANCH  14  15
HETATM   15  C7  UNL     1      -1.290 -21.887  15.227  1.00  0.00     0.230 C 
BRANCH  15  16
HETATM   16  N1  UNL     1      -1.073 -20.532  15.762  1.00  0.00    -0.079 N 
ATOM     17  H13 UNL     1      -1.938 -20.071  16.045  1.00  0.00     0.274 HD
ATOM     18  H12 UNL     1      -0.617 -20.531  16.675  1.00  0.00     0.274 HD
ATOM     19  H11 UNL     1      -0.555 -20.006  15.058  1.00  0.00     0.274 HD
ENDBRANCH  15  16
ENDBRANCH  14  15
ENDBRANCH   4  14
ENDBRANCH   1   3
BRANCH   1  20
HETATM   20  S2  UNL     1      -0.443 -19.677  11.817  1.00  0.00     0.320 S 
HETATM   21  O1  UNL     1      -0.313 -19.119  13.227  1.00  0.00    -0.182 OA
HETATM   22  O2  UNL     1      -1.537 -18.883  11.126  1.00  0.00    -0.182 OA
BRANCH  20  23
HETATM   23  N3  UNL     1       1.037 -19.372  10.996  1.00  0.00    -0.257 N 
ATOM     24  H3  UNL     1       1.566 -20.157  10.616  1.00  0.00     0.181 HD
BRANCH  23  25
HETATM   25  C9  UNL     1       1.540 -18.057  10.835  1.00  0.00     0.085 C 
HETATM   26  N4  UNL     1       0.704 -17.087  10.766  1.00  0.00    -0.388 N 
ATOM     27  H42 UNL     1      -0.297 -17.269  10.825  1.00  0.00     0.157 HD
ATOM     28  H41 UNL     1       1.066 -16.140  10.650  1.00  0.00     0.157 HD
BRANCH  25  29
HETATM   29  C10 UNL     1       2.987 -17.794  10.749  1.00  0.00     0.076 C 
BRANCH  29  30
HETATM   30  C11 UNL     1       3.756 -19.045  11.106  1.00  0.00     0.008 C 
BRANCH  30  31
HETATM   31  C12 UNL     1       4.996 -19.173  10.263  1.00  0.00     0.010 C 
BRANCH  31  32
HETATM   32  C13 UNL     1       5.832 -20.365  10.672  1.00  0.00     0.018 C 
HETATM   33  C14 UNL     1       6.018 -21.187   9.396  1.00  0.00    -0.025 C 
HETATM   34  C15 UNL     1       6.694 -22.449   9.370  1.00  0.00    -0.029 C 
HETATM   35  C16 UNL     1       5.987 -23.787   9.562  1.00  0.00     0.038 C 
HETATM   36  C17 UNL     1       5.242 -23.851  10.942  1.00  0.00     0.083 C 
HETATM   37  C18 UNL     1       5.135 -22.521  11.378  1.00  0.00    -0.182 C 
HETATM   38  C19 UNL     1       5.047 -21.177  11.763  1.00  0.00     0.088 C 
ENDBRANCH  31  32
ENDBRANCH  30  31
ENDBRANCH  29  30
ENDBRANCH  25  29
ENDBRANCH  23  25
ENDBRANCH  20  23
ENDBRANCH   1  20
TORSDOF 11
ENDMDL
MODEL 5
REMARK VINA RESULT: -6.973505931      2.164      3.361
REMARK  11 active torsions:
REMARK  status: ('A' for Active; 'I' for Inactive)
REMARK    1  A    between atoms: C5_6  and  C6_7 
REMARK    2  A    between atoms: C6_7  and  C7_8 
REMARK    3  A    between atoms: C7_8  and  N1_9 
REMARK    4  A    between atoms: C8_13  and  N2_14 
REMARK    5  A    between atoms: N2_14  and  S2_16 
REMARK    6  A    between atoms: S2_16  and  N3_19 
REMARK    7  A    between atoms: N3_19  and  C9_21 
REMARK    8  A    between atoms: C9_21  and  C10_25 
REMARK    9  A    between atoms: C10_25  and  C11_26 
REMARK   10  A    between atoms: C11_26  and  C12_27 
REMARK   11  A    between atoms: C12_27  and  C13_28 
ROOT
HETATM    1  N2  UNL     1       0.581 -21.443  12.689  1.00  0.00    -0.296 N 
ATOM      2  H2  UNL     1       1.561 -21.684  12.835  1.00  0.00     0.174 HD
ENDROOT
BRANCH   1   3
HETATM    3  C8  UNL     1      -0.507 -22.270  13.037  1.00  0.00     0.119 C 
HETATM    4  C5  UNL     1      -0.687 -22.652  14.471  1.00  0.00     0.045 C 
HETATM    5  C4  UNL     1      -1.601 -23.883  14.313  1.00  0.00     0.156 C 
HETATM    6  S1  UNL     1      -3.341 -23.455  14.474  1.00  0.00    -0.138 SA
HETATM    7  N5  UNL     1      -1.382 -24.377  12.983  1.00  0.00    -0.332 N 
HETATM    8  C3  UNL     1      -4.391 -24.571  13.499  1.00  0.00     0.119 C 
HETATM    9  C2  UNL     1      -3.543 -25.665  12.961  1.00  0.00     0.010 C 
HETATM   10  C1  UNL     1      -4.038 -26.874  12.897  1.00  0.00     0.025 C 
HETATM   11  C21 UNL     1      -2.173 -25.433  12.502  1.00  0.00     0.250 C 
HETATM   12  O3  UNL     1      -1.669 -26.217  11.629  1.00  0.00    -0.268 OA
HETATM   13  C20 UNL     1      -0.311 -23.641  12.337  1.00  0.00     0.153 C 
BRANCH   4  14
HETATM   14  C6  UNL     1      -1.391 -21.586  15.229  1.00  0.00     0.037 C 
BRANCH  14  15
HETATM   15  C7  UNL     1      -0.614 -20.883  16.293  1.00  0.00     0.230 C 
BRANCH  15  16
HETATM   16  N1  UNL     1      -0.749 -19.435  16.054  1.00  0.00    -0.079 N 
ATOM     17  H13 UNL     1       0.031 -19.044  15.525  1.00  0.00     0.274 HD
ATOM     18  H12 UNL     1      -1.487 -19.209  15.387  1.00  0.00     0.274 HD
ATOM     19  H11 UNL     1      -0.880 -18.987  16.961  1.00  0.00     0.274 HD
ENDBRANCH  15  16
ENDBRANCH  14  15
ENDBRANCH   4  14
ENDBRANCH   1   3
BRANCH   1  20
HETATM   20  S2  UNL     1       0.033 -19.978  11.989  1.00  0.00     0.320 S 
HETATM   21  O1  UNL     1      -0.080 -18.889  13.046  1.00  0.00    -0.182 OA
HETATM   22  O2  UNL     1      -1.346 -20.144  11.376  1.00  0.00    -0.182 OA
BRANCH  20  23
HETATM   23  N3  UNL     1       1.096 -19.408  10.764  1.00  0.00    -0.257 N 
ATOM     24  H3  UNL     1       1.384 -20.044  10.020  1.00  0.00     0.181 HD
BRANCH  23  25
HETATM   25  C9  UNL     1       1.583 -18.077  10.763  1.00  0.00     0.085 C 
HETATM   26  N4  UNL     1       0.734 -17.115  10.768  1.00  0.00    -0.388 N 
ATOM     27  H42 UNL     1      -0.265 -17.315  10.771  1.00  0.00     0.157 HD
ATOM     28  H41 UNL     1       1.084 -16.157  10.766  1.00  0.00     0.157 HD
BRANCH  25  29
HETATM   29  C10 UNL     1       3.028 -17.788  10.758  1.00  0.00     0.076 C 
BRANCH  29  30
HETATM   30  C11 UNL     1       3.799 -19.033  11.128  1.00  0.00     0.008 C 
BRANCH  30  31
HETATM   31  C12 UNL     1       5.027 -19.180  10.270  1.00  0.00     0.010 C 
BRANCH  31  32
HETATM   32  C13 UNL     1       5.851 -20.384  10.671  1.00  0.00     0.018 C 
HETATM   33  C14 UNL     1       6.029 -21.199   9.389  1.00  0.00    -0.025 C 
HETATM   34  C15 UNL     1       6.692 -22.467   9.354  1.00  0.00    -0.029 C 
HETATM   35  C16 UNL     1       5.972 -23.799   9.537  1.00  0.00     0.038 C 
HETATM   36  C17 UNL     1       5.226 -23.865  10.917  1.00  0.00     0.083 C 
HETATM   37  C18 UNL     1       5.132 -22.537  11.362  1.00  0.00    -0.182 C 
HETATM   38  C19 UNL     1       5.058 -21.195  11.756  1.00  0.00     0.088 C 
ENDBRANCH  31  32
ENDBRANCH  30  31
ENDBRANCH  29  30
ENDBRANCH  25  29
ENDBRANCH  23  25
ENDBRANCH  20  23
ENDBRANCH   1  20
TORSDOF 11
ENDMDL
