MODEL 1
REMARK VINA RESULT: -6.910961273      0.000      0.000
REMARK  11 active torsions:
REMARK  status: ('A' for Active; 'I' for Inactive)
REMARK    1  A    between atoms: C2_2  and  C4_14 
REMARK    2  A    between atoms: N1_3  and  N2_5 
REMARK    3  A    between atoms: N2_5  and  C3_7 
REMARK    4  A    between atoms: C3_7  and  N3_9 
REMARK    5  A    between atoms: N3_9  and  N4_11 
REMARK    6  A    between atoms: C4_14  and  C11_32 
REMARK    7  A    between atoms: N5_15  and  N6_17 
REMARK       I    between atoms: N6_17  and  C5_19 
REMARK    8  A    between atoms: C5_19  and  C6_21 
REMARK    9  A    between atoms: C10_28  and  N8_29 
REMARK   10  A    between atoms: C11_32  and  O7_33 
REMARK   11  A    between atoms: N9_35  and  O8_37 
ROOT
HETATM    1  C4  UNL     1      27.386 -55.227   6.089  1.00  0.00     0.124 C 
HETATM    2  N5  UNL     1      28.653 -55.296   5.884  1.00  0.00    -0.292 N 
ATOM      3  H5  UNL     1      29.067 -56.218   6.025  1.00  0.00     0.187 HD
ENDROOT
BRANCH   1   4
HETATM    4  C2  UNL     1      26.669 -53.974   5.923  1.00  0.00     0.054 C 
HETATM    5  C1  UNL     1      25.973 -53.624   4.669  1.00  0.00     0.072 C 
HETATM    6  N1  UNL     1      26.621 -53.111   6.918  1.00  0.00    -0.301 N 
ATOM      7  H1  UNL     1      27.090 -53.318   7.799  1.00  0.00     0.186 HD
BRANCH   6   8
HETATM    8  N2  UNL     1      25.923 -51.916   6.759  1.00  0.00    -0.275 N 
ATOM      9  H2  UNL     1      24.910 -51.948   6.642  1.00  0.00     0.189 HD
BRANCH   8  10
HETATM   10  C3  UNL     1      26.576 -50.654   6.754  1.00  0.00     0.210 C 
HETATM   11  S1  UNL     1      26.759 -49.845   8.177  1.00  0.00    -0.038 SA
BRANCH  10  12
HETATM   12  N3  UNL     1      27.052 -50.121   5.534  1.00  0.00    -0.214 N 
ATOM     13  H3  UNL     1      26.469 -49.484   4.991  1.00  0.00     0.195 HD
BRANCH  12  14
HETATM   14  N4  UNL     1      28.317 -50.472   5.077  1.00  0.00    -0.037 N 
HETATM   15  O1  UNL     1      28.986 -51.373   5.628  1.00  0.00    -0.516 OA
HETATM   16  O2  UNL     1      28.908 -49.846   3.992  1.00  0.00    -0.516 OA
ENDBRANCH  12  14
ENDBRANCH  10  12
ENDBRANCH   8  10
ENDBRANCH   6   8
ENDBRANCH   1   4
BRANCH   1  17
HETATM   17  C11 UNL     1      26.654 -56.424   6.489  1.00  0.00     0.190 C 
HETATM   18  N9  UNL     1      26.765 -57.012   7.617  1.00  0.00    -0.245 N 
ATOM     19  H9  UNL     1      27.409 -56.643   8.316  1.00  0.00     0.196 HD
BRANCH  17  20
HETATM   20  O7  UNL     1      25.756 -56.948   5.523  1.00  0.00    -0.343 OA
ATOM     21  H7  UNL     1      26.127 -57.119   4.665  1.00  0.00     0.219 HD
ENDBRANCH  17  20
BRANCH  18  22
HETATM   22  O8  UNL     1      26.040 -58.122   7.896  1.00  0.00    -0.288 OA
ATOM     23  H8  UNL     1      26.335 -58.979   7.615  1.00  0.00     0.244 HD
ENDBRANCH  18  22
ENDBRANCH   1  17
BRANCH   2  24
HETATM   24  N6  UNL     1      29.526 -54.314   5.505  1.00  0.00    -0.264 N 
HETATM   25  C5  UNL     1      30.098 -54.239   4.171  1.00  0.00     0.289 C 
HETATM   26  O3  UNL     1      29.698 -55.169   3.428  1.00  0.00    -0.264 OA
ATOM     27  H6  UNL     1      29.787 -53.603   6.187  1.00  0.00     0.190 HD
BRANCH  25  28
HETATM   28  C6  UNL     1      31.015 -53.191   3.794  1.00  0.00     0.138 A 
HETATM   29  N7  UNL     1      30.576 -52.354   2.806  1.00  0.00    -0.317 N 
HETATM   30  C7  UNL     1      31.335 -51.339   2.388  1.00  0.00     0.245 A 
ATOM     31  H7  UNL     1      29.660 -52.507   2.384  1.00  0.00     0.169 HD
HETATM   32  O4  UNL     1      30.868 -50.591   1.459  1.00  0.00    -0.268 OA
HETATM   33  C8  UNL     1      32.570 -51.095   2.924  1.00  0.00     0.077 A 
HETATM   34  C9  UNL     1      33.051 -51.898   3.908  1.00  0.00     0.044 A 
HETATM   35  C10 UNL     1      32.235 -52.991   4.356  1.00  0.00     0.135 A 
BRANCH  35  36
HETATM   36  N8  UNL     1      32.785 -53.806   5.357  1.00  0.00    -0.113 N 
HETATM   37  O5  UNL     1      32.333 -53.664   6.522  1.00  0.00    -0.532 OA
HETATM   38  O6  UNL     1      33.746 -54.726   5.180  1.00  0.00    -0.532 OA
ENDBRANCH  35  36
ENDBRANCH  25  28
ENDBRANCH   2  24
TORSDOF 11
ENDMDL
MODEL 2
REMARK VINA RESULT: -6.829509556      2.829      5.751
REMARK  11 active torsions:
REMARK  status: ('A' for Active; 'I' for Inactive)
REMARK    1  A    between atoms: C2_2  and  C4_14 
REMARK    2  A    between atoms: N1_3  and  N2_5 
REMARK    3  A    between atoms: N2_5  and  C3_7 
REMARK    4  A    between atoms: C3_7  and  N3_9 
REMARK    5  A    between atoms: N3_9  and  N4_11 
REMARK    6  A    between atoms: C4_14  and  C11_32 
REMARK    7  A    between atoms: N5_15  and  N6_17 
REMARK       I    between atoms: N6_17  and  C5_19 
REMARK    8  A    between atoms: C5_19  and  C6_21 
REMARK    9  A    between atoms: C10_28  and  N8_29 
REMARK   10  A    between atoms: C11_32  and  O7_33 
REMARK   11  A    between atoms: N9_35  and  O8_37 
ROOT
HETATM    1  C4  UNL     1      25.519 -55.488   5.695  1.00  0.00     0.124 C 
HETATM    2  N5  UNL     1      24.599 -54.601   5.826  1.00  0.00    -0.292 N 
ATOM      3  H5  UNL     1      23.654 -54.919   5.612  1.00  0.00     0.187 HD
ENDROOT
BRANCH   1   4
HETATM    4  C2  UNL     1      26.910 -55.168   5.969  1.00  0.00     0.054 C 
HETATM    5  C1  UNL     1      27.662 -55.800   7.071  1.00  0.00     0.072 C 
HETATM    6  N1  UNL     1      27.542 -54.293   5.213  1.00  0.00    -0.301 N 
ATOM      7  H1  UNL     1      27.055 -53.835   4.443  1.00  0.00     0.186 HD
BRANCH   6   8
HETATM    8  N2  UNL     1      28.878 -53.997   5.472  1.00  0.00    -0.275 N 
ATOM      9  H2  UNL     1      29.115 -53.496   6.328  1.00  0.00     0.189 HD
BRANCH   8  10
HETATM   10  C3  UNL     1      29.922 -54.371   4.582  1.00  0.00     0.210 C 
HETATM   11  S1  UNL     1      29.673 -54.238   2.960  1.00  0.00    -0.038 SA
BRANCH  10  12
HETATM   12  N3  UNL     1      31.145 -54.847   5.107  1.00  0.00    -0.214 N 
ATOM     13  H3  UNL     1      31.371 -55.841   5.060  1.00  0.00     0.195 HD
BRANCH  12  14
HETATM   14  N4  UNL     1      32.039 -53.955   5.687  1.00  0.00    -0.037 N 
HETATM   15  O1  UNL     1      31.656 -52.869   6.176  1.00  0.00    -0.516 OA
HETATM   16  O2  UNL     1      33.398 -54.214   5.757  1.00  0.00    -0.516 OA
ENDBRANCH  12  14
ENDBRANCH  10  12
ENDBRANCH   8  10
ENDBRANCH   6   8
ENDBRANCH   1   4
BRANCH   1  17
HETATM   17  C11 UNL     1      25.165 -56.837   5.270  1.00  0.00     0.190 C 
HETATM   18  N9  UNL     1      25.034 -57.216   4.057  1.00  0.00    -0.245 N 
ATOM     19  H9  UNL     1      25.181 -56.547   3.302  1.00  0.00     0.196 HD
BRANCH  17  20
HETATM   20  O7  UNL     1      24.955 -57.776   6.312  1.00  0.00    -0.343 OA
ATOM     21  H7  UNL     1      24.432 -58.536   6.083  1.00  0.00     0.219 HD
ENDBRANCH  17  20
BRANCH  18  22
HETATM   22  O8  UNL     1      24.701 -58.495   3.761  1.00  0.00    -0.288 OA
ATOM     23  H8  UNL     1      24.927 -58.875   2.921  1.00  0.00     0.244 HD
ENDBRANCH  18  22
ENDBRANCH   1  17
BRANCH   2  24
HETATM   24  N6  UNL     1      24.703 -53.292   6.212  1.00  0.00    -0.264 N 
HETATM   25  C5  UNL     1      24.886 -52.203   5.267  1.00  0.00     0.289 C 
HETATM   26  O3  UNL     1      24.936 -52.607   4.079  1.00  0.00    -0.264 OA
ATOM     27  H6  UNL     1      24.649 -53.070   7.206  1.00  0.00     0.190 HD
BRANCH  25  28
HETATM   28  C6  UNL     1      24.989 -50.831   5.699  1.00  0.00     0.138 A 
HETATM   29  N7  UNL     1      24.008 -49.996   5.242  1.00  0.00    -0.317 N 
HETATM   30  C7  UNL     1      23.994 -48.707   5.590  1.00  0.00     0.245 A 
ATOM     31  H7  UNL     1      23.279 -50.361   4.628  1.00  0.00     0.169 HD
HETATM   32  O4  UNL     1      23.049 -47.977   5.128  1.00  0.00    -0.268 OA
HETATM   33  C8  UNL     1      24.951 -48.173   6.410  1.00  0.00     0.077 A 
HETATM   34  C9  UNL     1      25.948 -48.961   6.889  1.00  0.00     0.044 A 
HETATM   35  C10 UNL     1      25.963 -50.347   6.513  1.00  0.00     0.135 A 
BRANCH  35  36
HETATM   36  N8  UNL     1      27.025 -51.114   7.014  1.00  0.00    -0.113 N 
HETATM   37  O5  UNL     1      26.866 -51.641   8.145  1.00  0.00    -0.532 OA
HETATM   38  O6  UNL     1      28.192 -51.340   6.393  1.00  0.00    -0.532 OA
ENDBRANCH  35  36
ENDBRANCH  25  28
ENDBRANCH   2  24
TORSDOF 11
ENDMDL
MODEL 3
REMARK VINA RESULT: -6.752849344      1.276      1.409
REMARK  11 active torsions:
REMARK  status: ('A' for Active; 'I' for Inactive)
REMARK    1  A    between atoms: C2_2  and  C4_14 
REMARK    2  A    between atoms: N1_3  and  N2_5 
REMARK    3  A    between atoms: N2_5  and  C3_7 
REMARK    4  A    between atoms: C3_7  and  N3_9 
REMARK    5  A    between atoms: N3_9  and  N4_11 
REMARK    6  A    between atoms: C4_14  and  C11_32 
REMARK    7  A    between atoms: N5_15  and  N6_17 
REMARK       I    between atoms: N6_17  and  C5_19 
REMARK    8  A    between atoms: C5_19  and  C6_21 
REMARK    9  A    between atoms: C10_28  and  N8_29 
REMARK   10  A    between atoms: C11_32  and  O7_33 
REMARK   11  A    between atoms: N9_35  and  O8_37 
ROOT
HETATM    1  C4  UNL     1      27.048 -55.315   5.811  1.00  0.00     0.124 C 
HETATM    2  N5  UNL     1      28.332 -55.277   5.845  1.00  0.00    -0.292 N 
ATOM      3  H5  UNL     1      28.783 -56.115   6.213  1.00  0.00     0.187 HD
ENDROOT
BRANCH   1   4
HETATM    4  C2  UNL     1      26.280 -54.188   5.310  1.00  0.00     0.054 C 
HETATM    5  C1  UNL     1      26.164 -53.892   3.868  1.00  0.00     0.072 C 
HETATM    6  N1  UNL     1      25.652 -53.396   6.155  1.00  0.00    -0.301 N 
ATOM      7  H1  UNL     1      25.710 -53.568   7.158  1.00  0.00     0.186 HD
BRANCH   6   8
HETATM    8  N2  UNL     1      24.907 -52.323   5.670  1.00  0.00    -0.275 N 
ATOM      9  H2  UNL     1      24.056 -52.513   5.141  1.00  0.00     0.189 HD
BRANCH   8  10
HETATM   10  C3  UNL     1      25.295 -50.973   5.888  1.00  0.00     0.210 C 
HETATM   11  S1  UNL     1      25.116 -49.884   4.665  1.00  0.00    -0.038 SA
BRANCH  10  12
HETATM   12  N3  UNL     1      25.826 -50.596   7.143  1.00  0.00    -0.214 N 
ATOM     13  H3  UNL     1      25.261 -50.053   7.796  1.00  0.00     0.195 HD
BRANCH  12  14
HETATM   14  N4  UNL     1      27.122 -50.968   7.481  1.00  0.00    -0.037 N 
HETATM   15  O1  UNL     1      27.552 -50.855   8.650  1.00  0.00    -0.516 OA
HETATM   16  O2  UNL     1      28.007 -51.484   6.549  1.00  0.00    -0.516 OA
ENDBRANCH  12  14
ENDBRANCH  10  12
ENDBRANCH   8  10
ENDBRANCH   6   8
ENDBRANCH   1   4
BRANCH   1  17
HETATM   17  C11 UNL     1      26.350 -56.508   6.276  1.00  0.00     0.190 C 
HETATM   18  N9  UNL     1      26.504 -57.052   7.422  1.00  0.00    -0.245 N 
ATOM     19  H9  UNL     1      27.160 -56.645   8.087  1.00  0.00     0.196 HD
BRANCH  17  20
HETATM   20  O7  UNL     1      25.435 -57.084   5.357  1.00  0.00    -0.343 OA
ATOM     21  H7  UNL     1      25.295 -58.019   5.446  1.00  0.00     0.219 HD
ENDBRANCH  17  20
BRANCH  18  22
HETATM   22  O8  UNL     1      25.807 -58.162   7.762  1.00  0.00    -0.288 OA
ATOM     23  H8  UNL     1      25.697 -58.406   8.673  1.00  0.00     0.244 HD
ENDBRANCH  18  22
ENDBRANCH   1  17
BRANCH   2  24
HETATM   24  N6  UNL     1      29.182 -54.276   5.461  1.00  0.00    -0.264 N 
HETATM   25  C5  UNL     1      29.920 -54.304   4.210  1.00  0.00     0.289 C 
HETATM   26  O3  UNL     1      29.683 -55.339   3.540  1.00  0.00    -0.264 OA
ATOM     27  H6  UNL     1      29.303 -53.474   6.081  1.00  0.00     0.190 HD
BRANCH  25  28
HETATM   28  C6  UNL     1      30.807 -53.234   3.826  1.00  0.00     0.138 A 
HETATM   29  N7  UNL     1      30.346 -52.414   2.834  1.00  0.00    -0.317 N 
HETATM   30  C7  UNL     1      31.076 -51.381   2.409  1.00  0.00     0.245 A 
ATOM     31  H7  UNL     1      29.433 -52.594   2.414  1.00  0.00     0.169 HD
HETATM   32  O4  UNL     1      30.588 -50.651   1.477  1.00  0.00    -0.268 OA
HETATM   33  C8  UNL     1      32.306 -51.101   2.942  1.00  0.00     0.077 A 
HETATM   34  C9  UNL     1      32.809 -51.887   3.929  1.00  0.00     0.044 A 
HETATM   35  C10 UNL     1      32.023 -52.999   4.385  1.00  0.00     0.135 A 
BRANCH  35  36
HETATM   36  N8  UNL     1      32.596 -53.793   5.389  1.00  0.00    -0.113 N 
HETATM   37  O5  UNL     1      32.183 -53.616   6.563  1.00  0.00    -0.532 OA
HETATM   38  O6  UNL     1      33.540 -54.729   5.207  1.00  0.00    -0.532 OA
ENDBRANCH  35  36
ENDBRANCH  25  28
ENDBRANCH   2  24
TORSDOF 11
ENDMDL
MODEL 4
REMARK VINA RESULT: -6.430098399      2.334      6.246
REMARK  11 active torsions:
REMARK  status: ('A' for Active; 'I' for Inactive)
REMARK    1  A    between atoms: C2_2  and  C4_14 
REMARK    2  A    between atoms: N1_3  and  N2_5 
REMARK    3  A    between atoms: N2_5  and  C3_7 
REMARK    4  A    between atoms: C3_7  and  N3_9 
REMARK    5  A    between atoms: N3_9  and  N4_11 
REMARK    6  A    between atoms: C4_14  and  C11_32 
REMARK    7  A    between atoms: N5_15  and  N6_17 
REMARK       I    between atoms: N6_17  and  C5_19 
REMARK    8  A    between atoms: C5_19  and  C6_21 
REMARK    9  A    between atoms: C10_28  and  N8_29 
REMARK   10  A    between atoms: C11_32  and  O7_33 
REMARK   11  A    between atoms: N9_35  and  O8_37 
ROOT
HETATM    1  C4  UNL     1      30.472 -54.142   4.939  1.00  0.00     0.124 C 
HETATM    2  N5  UNL     1      29.821 -55.228   5.161  1.00  0.00    -0.292 N 
ATOM      3  H5  UNL     1      30.330 -55.942   5.683  1.00  0.00     0.187 HD
ENDROOT
BRANCH   1   4
HETATM    4  C2  UNL     1      29.866 -53.043   4.207  1.00  0.00     0.054 C 
HETATM    5  C1  UNL     1      29.914 -52.957   2.734  1.00  0.00     0.072 C 
HETATM    6  N1  UNL     1      29.240 -52.087   4.862  1.00  0.00    -0.301 N 
ATOM      7  H1  UNL     1      29.187 -52.112   5.880  1.00  0.00     0.186 HD
BRANCH   6   8
HETATM    8  N2  UNL     1      28.650 -51.041   4.156  1.00  0.00    -0.275 N 
ATOM      9  H2  UNL     1      28.912 -50.895   3.181  1.00  0.00     0.189 HD
BRANCH   8  10
HETATM   10  C3  UNL     1      27.696 -50.170   4.749  1.00  0.00     0.210 C 
HETATM   11  S1  UNL     1      27.876 -48.544   4.564  1.00  0.00    -0.038 SA
BRANCH  10  12
HETATM   12  N3  UNL     1      26.618 -50.717   5.483  1.00  0.00    -0.214 N 
ATOM     13  H3  UNL     1      25.729 -50.909   5.022  1.00  0.00     0.195 HD
BRANCH  12  14
HETATM   14  N4  UNL     1      26.778 -50.990   6.837  1.00  0.00    -0.037 N 
HETATM   15  O1  UNL     1      27.899 -51.250   7.326  1.00  0.00    -0.516 OA
HETATM   16  O2  UNL     1      25.709 -50.992   7.718  1.00  0.00    -0.516 OA
ENDBRANCH  12  14
ENDBRANCH  10  12
ENDBRANCH   8  10
ENDBRANCH   6   8
ENDBRANCH   1   4
BRANCH   1  17
HETATM   17  C11 UNL     1      31.838 -54.007   5.434  1.00  0.00     0.190 C 
HETATM   18  N9  UNL     1      32.839 -54.690   5.027  1.00  0.00    -0.245 N 
ATOM     19  H9  UNL     1      32.707 -55.393   4.301  1.00  0.00     0.196 HD
BRANCH  17  20
HETATM   20  O7  UNL     1      32.034 -53.033   6.446  1.00  0.00    -0.343 OA
ATOM     21  H7  UNL     1      31.608 -52.196   6.301  1.00  0.00     0.219 HD
ENDBRANCH  17  20
BRANCH  18  22
HETATM   22  O8  UNL     1      34.073 -54.490   5.549  1.00  0.00    -0.288 OA
ATOM     23  H8  UNL     1      34.725 -53.988   5.077  1.00  0.00     0.244 HD
ENDBRANCH  18  22
ENDBRANCH   1  17
BRANCH   2  24
HETATM   24  N6  UNL     1      28.546 -55.565   4.798  1.00  0.00    -0.264 N 
HETATM   25  C5  UNL     1      27.416 -55.472   5.708  1.00  0.00     0.289 C 
HETATM   26  O3  UNL     1      27.751 -55.052   6.843  1.00  0.00    -0.264 OA
ATOM     27  H6  UNL     1      28.380 -55.895   3.848  1.00  0.00     0.190 HD
BRANCH  25  28
HETATM   28  C6  UNL     1      26.080 -55.830   5.300  1.00  0.00     0.138 A 
HETATM   29  N7  UNL     1      25.707 -57.117   5.573  1.00  0.00    -0.317 N 
HETATM   30  C7  UNL     1      24.487 -57.554   5.254  1.00  0.00     0.245 A 
ATOM     31  H7  UNL     1      26.368 -57.749   6.025  1.00  0.00     0.169 HD
HETATM   32  O4  UNL     1      24.198 -58.770   5.536  1.00  0.00    -0.268 OA
HETATM   33  C8  UNL     1      23.567 -56.742   4.647  1.00  0.00     0.077 A 
HETATM   34  C9  UNL     1      23.890 -55.455   4.354  1.00  0.00     0.044 A 
HETATM   35  C10 UNL     1      25.203 -54.987   4.696  1.00  0.00     0.135 A 
BRANCH  35  36
HETATM   36  N8  UNL     1      25.497 -53.658   4.352  1.00  0.00    -0.113 N 
HETATM   37  O5  UNL     1      24.713 -52.772   4.776  1.00  0.00    -0.532 OA
HETATM   38  O6  UNL     1      26.542 -53.251   3.616  1.00  0.00    -0.532 OA
ENDBRANCH  35  36
ENDBRANCH  25  28
ENDBRANCH   2  24
TORSDOF 11
ENDMDL
MODEL 5
REMARK VINA RESULT: -6.408513679      1.535      1.639
REMARK  11 active torsions:
REMARK  status: ('A' for Active; 'I' for Inactive)
REMARK    1  A    between atoms: C2_2  and  C4_14 
REMARK    2  A    between atoms: N1_3  and  N2_5 
REMARK    3  A    between atoms: N2_5  and  C3_7 
REMARK    4  A    between atoms: C3_7  and  N3_9 
REMARK    5  A    between atoms: N3_9  and  N4_11 
REMARK    6  A    between atoms: C4_14  and  C11_32 
REMARK    7  A    between atoms: N5_15  and  N6_17 
REMARK       I    between atoms: N6_17  and  C5_19 
REMARK    8  A    between atoms: C5_19  and  C6_21 
REMARK    9  A    between atoms: C10_28  and  N8_29 
REMARK   10  A    between atoms: C11_32  and  O7_33 
REMARK   11  A    between atoms: N9_35  and  O8_37 
ROOT
HETATM    1  C4  UNL     1      26.880 -54.508   5.991  1.00  0.00     0.124 C 
HETATM    2  N5  UNL     1      28.097 -54.710   5.630  1.00  0.00    -0.292 N 
ATOM      3  H5  UNL     1      28.391 -55.687   5.613  1.00  0.00     0.187 HD
ENDROOT
BRANCH   1   4
HETATM    4  C2  UNL     1      26.334 -53.164   6.058  1.00  0.00     0.054 C 
HETATM    5  C1  UNL     1      26.638 -52.244   7.173  1.00  0.00     0.072 C 
HETATM    6  N1  UNL     1      25.545 -52.729   5.097  1.00  0.00    -0.301 N 
ATOM      7  H1  UNL     1      25.311 -53.337   4.312  1.00  0.00     0.186 HD
BRANCH   6   8
HETATM    8  N2  UNL     1      25.032 -51.436   5.159  1.00  0.00    -0.275 N 
ATOM      9  H2  UNL     1      24.389 -51.196   5.914  1.00  0.00     0.189 HD
BRANCH   8  10
HETATM   10  C3  UNL     1      25.374 -50.439   4.205  1.00  0.00     0.210 C 
HETATM   11  S1  UNL     1      24.249 -49.979   3.094  1.00  0.00    -0.038 SA
BRANCH  10  12
HETATM   12  N3  UNL     1      26.667 -49.868   4.230  1.00  0.00    -0.214 N 
ATOM     13  H3  UNL     1      26.781 -48.863   4.361  1.00  0.00     0.195 HD
BRANCH  12  14
HETATM   14  N4  UNL     1      27.782 -50.683   4.074  1.00  0.00    -0.037 N 
HETATM   15  O1  UNL     1      27.801 -51.614   3.240  1.00  0.00    -0.516 OA
HETATM   16  O2  UNL     1      28.930 -50.514   4.831  1.00  0.00    -0.516 OA
ENDBRANCH  12  14
ENDBRANCH  10  12
ENDBRANCH   8  10
ENDBRANCH   6   8
ENDBRANCH   1   4
BRANCH   1  17
HETATM   17  C11 UNL     1      26.033 -55.645   6.334  1.00  0.00     0.190 C 
HETATM   18  N9  UNL     1      26.440 -56.733   6.866  1.00  0.00    -0.245 N 
ATOM     19  H9  UNL     1      27.430 -56.849   7.081  1.00  0.00     0.196 HD
BRANCH  17  20
HETATM   20  O7  UNL     1      24.653 -55.496   6.038  1.00  0.00    -0.343 OA
ATOM     21  H7  UNL     1      24.413 -55.604   5.125  1.00  0.00     0.219 HD
ENDBRANCH  17  20
BRANCH  18  22
HETATM   22  O8  UNL     1      25.572 -57.734   7.148  1.00  0.00    -0.288 OA
ATOM     23  H8  UNL     1      25.057 -58.139   6.461  1.00  0.00     0.244 HD
ENDBRANCH  18  22
ENDBRANCH   1  17
BRANCH   2  24
HETATM   24  N6  UNL     1      29.056 -53.804   5.266  1.00  0.00    -0.264 N 
HETATM   25  C5  UNL     1      29.978 -54.031   4.166  1.00  0.00     0.289 C 
HETATM   26  O3  UNL     1      29.787 -55.138   3.604  1.00  0.00    -0.264 OA
ATOM     27  H6  UNL     1      29.127 -52.932   5.789  1.00  0.00     0.190 HD
BRANCH  25  28
HETATM   28  C6  UNL     1      30.978 -53.059   3.799  1.00  0.00     0.138 A 
HETATM   29  N7  UNL     1      30.614 -52.183   2.815  1.00  0.00    -0.317 N 
HETATM   30  C7  UNL     1      31.454 -51.230   2.406  1.00  0.00     0.245 A 
ATOM     31  H7  UNL     1      29.690 -52.257   2.389  1.00  0.00     0.169 HD
HETATM   32  O4  UNL     1      31.053 -50.440   1.481  1.00  0.00    -0.268 OA
HETATM   33  C8  UNL     1      32.704 -51.091   2.948  1.00  0.00     0.077 A 
HETATM   34  C9  UNL     1      33.114 -51.938   3.928  1.00  0.00     0.044 A 
HETATM   35  C10 UNL     1      32.209 -52.964   4.366  1.00  0.00     0.135 A 
BRANCH  35  36
HETATM   36  N8  UNL     1      32.687 -53.827   5.363  1.00  0.00    -0.113 N 
HETATM   37  O5  UNL     1      32.201 -53.694   6.515  1.00  0.00    -0.532 OA
HETATM   38  O6  UNL     1      33.612 -54.785   5.195  1.00  0.00    -0.532 OA
ENDBRANCH  35  36
ENDBRANCH  25  28
ENDBRANCH   2  24
TORSDOF 11
ENDMDL
