MODEL 1
REMARK VINA RESULT: -7.811717020      0.000      0.000
REMARK  10 active torsions:
REMARK  status: ('A' for Active; 'I' for Inactive)
REMARK    1  A    between atoms: C4_6  and  N2_7 
REMARK    2  A    between atoms: N2_7  and  N3_9 
REMARK    3  A    between atoms: N3_9  and  C5_11 
REMARK    4  A    between atoms: C8_16  and  C9_17 
REMARK    5  A    between atoms: C9_17  and  N5_18 
REMARK    6  A    between atoms: C11_25  and  O1_26 
REMARK    7  A    between atoms: C11_25  and  C12_28 
REMARK    8  A    between atoms: C12_28  and  C13_29 
REMARK    9  A    between atoms: C14_34  and  C15_35 
REMARK   10  A    between atoms: C15_35  and  C16_36 
ROOT
HETATM    1  C1  UNL     1      30.432 -53.772   4.717  1.00  0.00     0.044 C 
HETATM    2  C2  UNL     1      29.264 -54.732   4.837  1.00  0.00     0.091 C 
HETATM    3  C3  UNL     1      29.268 -55.724   3.699  1.00  0.00     0.044 C 
HETATM    4  N1  UNL     1      29.456 -55.443   6.079  1.00  0.00    -0.212 N 
ATOM      5  H1  UNL     1      30.330 -55.850   6.412  1.00  0.00     0.178 HD
HETATM    6  C4  UNL     1      28.216 -55.472   6.751  1.00  0.00     0.691 C 
HETATM    7  N6  UNL     1      27.388 -54.671   6.189  1.00  0.00    -0.190 N 
ATOM      8  H6  UNL     1      26.428 -54.525   6.501  1.00  0.00     0.181 HD
HETATM    9  C11 UNL     1      27.999 -53.989   5.036  1.00  0.00     0.178 C 
ENDROOT
BRANCH   9  10
HETATM   10  O1  UNL     1      28.224 -52.642   5.392  1.00  0.00    -0.367 OA
ATOM     11  H1  UNL     1      27.614 -52.341   6.055  1.00  0.00     0.212 HD
ENDBRANCH   9  10
BRANCH   9  12
HETATM   12  C12 UNL     1      26.987 -54.035   3.960  1.00  0.00     0.130 C 
BRANCH  12  13
HETATM   13  C13 UNL     1      26.275 -52.764   3.744  1.00  0.00     0.072 A 
HETATM   14  N7  UNL     1      26.629 -51.549   3.366  1.00  0.00    -0.297 N 
HETATM   15  N8  UNL     1      25.775 -50.628   3.264  1.00  0.00    -0.297 N 
ATOM     16  H7  UNL     1      27.607 -51.353   3.153  1.00  0.00     0.187 HD
HETATM   17  C14 UNL     1      24.499 -50.873   3.539  1.00  0.00     0.075 A 
ATOM     18  H8  UNL     1      26.063 -49.695   2.970  1.00  0.00     0.187 HD
HETATM   19  S1  UNL     1      24.567 -52.527   3.963  1.00  0.00    -0.060 SA
BRANCH  17  20
HETATM   20  C15 UNL     1      23.326 -49.932   3.485  1.00  0.00     0.145 C 
BRANCH  20  21
HETATM   21  C16 UNL     1      23.365 -49.074   4.681  1.00  0.00     0.119 A 
HETATM   22  N9  UNL     1      23.011 -47.786   4.762  1.00  0.00    -0.272 N 
HETATM   23  N10 UNL     1      23.202 -47.393   6.028  1.00  0.00    -0.227 N 
ATOM     24  H9  UNL     1      22.658 -47.209   3.999  1.00  0.00     0.190 HD
HETATM   25  N11 UNL     1      23.665 -48.404   6.733  1.00  0.00    -0.227 N 
ATOM     26  H10 UNL     1      23.017 -46.457   6.390  1.00  0.00     0.210 HD
HETATM   27  N12 UNL     1      23.762 -49.423   5.908  1.00  0.00    -0.272 N 
ATOM     28  H11 UNL     1      23.902 -48.397   7.726  1.00  0.00     0.210 HD
ATOM     29  H12 UNL     1      24.094 -50.352   6.168  1.00  0.00     0.190 HD
ENDBRANCH  20  21
ENDBRANCH  17  20
ENDBRANCH  12  13
ENDBRANCH   9  12
BRANCH   6  30
HETATM   30  N2  UNL     1      27.983 -56.307   7.897  1.00  0.00    -0.132 N 
ATOM     31  H2  UNL     1      27.051 -56.699   8.032  1.00  0.00     0.205 HD
BRANCH  30  32
HETATM   32  N3  UNL     1      28.961 -56.602   8.821  1.00  0.00    -0.287 N 
ATOM     33  H3  UNL     1      29.893 -56.206   8.690  1.00  0.00     0.187 HD
BRANCH  32  34
HETATM   34  C5  UNL     1      28.743 -57.368   9.861  1.00  0.00     0.051 A 
HETATM   35  C6  UNL     1      27.570 -58.080   9.997  1.00  0.00     0.048 A 
HETATM   36  C7  UNL     1      27.419 -58.867  11.127  1.00  0.00     0.090 A 
HETATM   37  N4  UNL     1      28.384 -58.941  12.069  1.00  0.00    -0.368 N 
HETATM   38  C8  UNL     1      29.532 -58.267  11.969  1.00  0.00     0.036 A 
ATOM     39  H4  UNL     1      28.231 -59.534  12.885  1.00  0.00     0.165 HD
HETATM   40  C10 UNL     1      29.702 -57.473  10.846  1.00  0.00     0.057 A 
BRANCH  38  41
HETATM   41  C9  UNL     1      30.540 -58.397  13.034  1.00  0.00     0.286 C 
BRANCH  41  42
HETATM   42  N5  UNL     1      30.567 -59.698  13.638  1.00  0.00    -0.074 N 
ATOM     43  H53 UNL     1      30.848 -60.405  12.960  1.00  0.00     0.274 HD
ATOM     44  H52 UNL     1      31.343 -59.776  14.296  1.00  0.00     0.274 HD
ATOM     45  H51 UNL     1      29.688 -59.954  14.086  1.00  0.00     0.274 HD
ENDBRANCH  41  42
ENDBRANCH  38  41
ENDBRANCH  32  34
ENDBRANCH  30  32
ENDBRANCH   6  30
TORSDOF 10
ENDMDL
MODEL 2
REMARK VINA RESULT: -7.799441928      4.113      5.680
REMARK  10 active torsions:
REMARK  status: ('A' for Active; 'I' for Inactive)
REMARK    1  A    between atoms: C4_6  and  N2_7 
REMARK    2  A    between atoms: N2_7  and  N3_9 
REMARK    3  A    between atoms: N3_9  and  C5_11 
REMARK    4  A    between atoms: C8_16  and  C9_17 
REMARK    5  A    between atoms: C9_17  and  N5_18 
REMARK    6  A    between atoms: C11_25  and  O1_26 
REMARK    7  A    between atoms: C11_25  and  C12_28 
REMARK    8  A    between atoms: C12_28  and  C13_29 
REMARK    9  A    between atoms: C14_34  and  C15_35 
REMARK   10  A    between atoms: C15_35  and  C16_36 
ROOT
HETATM    1  C1  UNL     1      28.726 -55.670   2.548  1.00  0.00     0.044 C 
HETATM    2  C2  UNL     1      28.164 -54.897   3.726  1.00  0.00     0.091 C 
HETATM    3  C3  UNL     1      27.008 -54.028   3.294  1.00  0.00     0.044 C 
HETATM    4  N1  UNL     1      27.683 -55.886   4.661  1.00  0.00    -0.212 N 
ATOM      5  H1  UNL     1      27.125 -56.709   4.433  1.00  0.00     0.178 HD
HETATM    6  C4  UNL     1      28.124 -55.511   5.947  1.00  0.00     0.691 C 
HETATM    7  N6  UNL     1      28.997 -54.576   5.860  1.00  0.00    -0.190 N 
ATOM      8  H6  UNL     1      29.457 -54.144   6.661  1.00  0.00     0.181 HD
HETATM    9  C11 UNL     1      29.249 -54.205   4.458  1.00  0.00     0.178 C 
ENDROOT
BRANCH   9  10
HETATM   10  O1  UNL     1      30.525 -54.688   4.099  1.00  0.00    -0.367 OA
ATOM     11  H1  UNL     1      31.168 -54.543   4.784  1.00  0.00     0.212 HD
ENDBRANCH   9  10
BRANCH   9  12
HETATM   12  C12 UNL     1      29.274 -52.727   4.433  1.00  0.00     0.130 C 
BRANCH  12  13
HETATM   13  C13 UNL     1      30.563 -52.150   4.015  1.00  0.00     0.072 A 
HETATM   14  N7  UNL     1      31.800 -52.196   4.478  1.00  0.00    -0.297 N 
HETATM   15  N8  UNL     1      32.733 -51.583   3.894  1.00  0.00    -0.297 N 
ATOM     16  H7  UNL     1      32.002 -52.735   5.320  1.00  0.00     0.187 HD
HETATM   17  C14 UNL     1      32.479 -50.877   2.797  1.00  0.00     0.075 A 
ATOM     18  H8  UNL     1      33.683 -51.629   4.263  1.00  0.00     0.187 HD
HETATM   19  S1  UNL     1      30.799 -51.132   2.626  1.00  0.00    -0.060 SA
BRANCH  17  20
HETATM   20  C15 UNL     1      33.431 -50.077   1.951  1.00  0.00     0.145 C 
BRANCH  20  21
HETATM   21  C16 UNL     1      33.763 -48.837   2.673  1.00  0.00     0.119 A 
HETATM   22  N9  UNL     1      33.417 -47.589   2.336  1.00  0.00    -0.272 N 
HETATM   23  N10 UNL     1      33.923 -46.766   3.263  1.00  0.00    -0.227 N 
ATOM     24  H9  UNL     1      32.868 -47.315   1.521  1.00  0.00     0.190 HD
HETATM   25  N11 UNL     1      34.572 -47.470   4.166  1.00  0.00    -0.227 N 
ATOM     26  H10 UNL     1      33.820 -45.750   3.269  1.00  0.00     0.210 HD
HETATM   27  N12 UNL     1      34.471 -48.730   3.801  1.00  0.00    -0.272 N 
ATOM     28  H11 UNL     1      35.058 -47.109   4.988  1.00  0.00     0.210 HD
ATOM     29  H12 UNL     1      34.877 -49.516   4.309  1.00  0.00     0.190 HD
ENDBRANCH  20  21
ENDBRANCH  17  20
ENDBRANCH  12  13
ENDBRANCH   9  12
BRANCH   6  30
HETATM   30  N2  UNL     1      27.624 -56.130   7.142  1.00  0.00    -0.132 N 
ATOM     31  H2  UNL     1      26.640 -56.398   7.177  1.00  0.00     0.205 HD
BRANCH  30  32
HETATM   32  N3  UNL     1      28.412 -56.378   8.245  1.00  0.00    -0.287 N 
ATOM     33  H3  UNL     1      29.308 -55.897   8.324  1.00  0.00     0.187 HD
BRANCH  32  34
HETATM   34  C5  UNL     1      28.058 -57.208   9.195  1.00  0.00     0.051 A 
HETATM   35  C6  UNL     1      26.953 -58.022   9.064  1.00  0.00     0.048 A 
HETATM   36  C7  UNL     1      26.647 -58.870  10.116  1.00  0.00     0.090 A 
HETATM   37  N4  UNL     1      27.401 -58.906  11.236  1.00  0.00    -0.368 N 
HETATM   38  C8  UNL     1      28.477 -58.133  11.395  1.00  0.00     0.036 A 
ATOM     39  H4  UNL     1      27.140 -59.546  11.986  1.00  0.00     0.165 HD
HETATM   40  C10 UNL     1      28.800 -57.276  10.354  1.00  0.00     0.057 A 
BRANCH  38  41
HETATM   41  C9  UNL     1      29.254 -58.225  12.643  1.00  0.00     0.286 C 
BRANCH  41  42
HETATM   42  N5  UNL     1      29.203 -59.523  13.251  1.00  0.00    -0.074 N 
ATOM     43  H53 UNL     1      28.507 -59.547  13.996  1.00  0.00     0.274 HD
ATOM     44  H52 UNL     1      28.793 -60.206  12.614  1.00  0.00     0.274 HD
ATOM     45  H51 UNL     1      30.108 -59.846  13.592  1.00  0.00     0.274 HD
ENDBRANCH  41  42
ENDBRANCH  38  41
ENDBRANCH  32  34
ENDBRANCH  30  32
ENDBRANCH   6  30
TORSDOF 10
ENDMDL
MODEL 3
REMARK VINA RESULT: -7.795209689      1.009      1.148
REMARK  10 active torsions:
REMARK  status: ('A' for Active; 'I' for Inactive)
REMARK    1  A    between atoms: C4_6  and  N2_7 
REMARK    2  A    between atoms: N2_7  and  N3_9 
REMARK    3  A    between atoms: N3_9  and  C5_11 
REMARK    4  A    between atoms: C8_16  and  C9_17 
REMARK    5  A    between atoms: C9_17  and  N5_18 
REMARK    6  A    between atoms: C11_25  and  O1_26 
REMARK    7  A    between atoms: C11_25  and  C12_28 
REMARK    8  A    between atoms: C12_28  and  C13_29 
REMARK    9  A    between atoms: C14_34  and  C15_35 
REMARK   10  A    between atoms: C15_35  and  C16_36 
ROOT
HETATM    1  C1  UNL     1      30.106 -53.696   4.666  1.00  0.00     0.044 C 
HETATM    2  C2  UNL     1      28.898 -54.589   4.873  1.00  0.00     0.091 C 
HETATM    3  C3  UNL     1      28.654 -55.451   3.659  1.00  0.00     0.044 C 
HETATM    4  N1  UNL     1      29.217 -55.439   5.996  1.00  0.00    -0.212 N 
ATOM      5  H1  UNL     1      30.097 -55.933   6.146  1.00  0.00     0.178 HD
HETATM    6  C4  UNL     1      28.093 -55.464   6.847  1.00  0.00     0.691 C 
HETATM    7  N6  UNL     1      27.256 -54.557   6.502  1.00  0.00    -0.190 N 
ATOM      8  H6  UNL     1      26.368 -54.387   6.974  1.00  0.00     0.181 HD
HETATM    9  C11 UNL     1      27.739 -53.794   5.340  1.00  0.00     0.178 C 
ENDROOT
BRANCH   9  10
HETATM   10  O1  UNL     1      28.119 -52.510   5.785  1.00  0.00    -0.367 OA
ATOM     11  H1  UNL     1      27.661 -52.257   6.578  1.00  0.00     0.212 HD
ENDBRANCH   9  10
BRANCH   9  12
HETATM   12  C12 UNL     1      26.577 -53.661   4.437  1.00  0.00     0.130 C 
BRANCH  12  13
HETATM   13  C13 UNL     1      25.716 -52.501   4.723  1.00  0.00     0.072 A 
HETATM   14  N7  UNL     1      25.214 -51.960   5.819  1.00  0.00    -0.297 N 
HETATM   15  N8  UNL     1      24.486 -50.933   5.759  1.00  0.00    -0.297 N 
ATOM     16  H7  UNL     1      25.419 -52.378   6.726  1.00  0.00     0.187 HD
HETATM   17  C14 UNL     1      24.213 -50.381   4.582  1.00  0.00     0.075 A 
ATOM     18  H8  UNL     1      24.107 -50.526   6.614  1.00  0.00     0.187 HD
HETATM   19  S1  UNL     1      25.067 -51.419   3.528  1.00  0.00    -0.060 SA
BRANCH  17  20
HETATM   20  C15 UNL     1      23.376 -49.167   4.282  1.00  0.00     0.145 C 
BRANCH  20  21
HETATM   21  C16 UNL     1      23.756 -48.098   5.221  1.00  0.00     0.119 A 
HETATM   22  N9  UNL     1      22.996 -47.556   6.178  1.00  0.00    -0.272 N 
HETATM   23  N10 UNL     1      23.729 -46.622   6.797  1.00  0.00    -0.227 N 
ATOM     24  H9  UNL     1      22.032 -47.809   6.398  1.00  0.00     0.190 HD
HETATM   25  N11 UNL     1      24.925 -46.572   6.249  1.00  0.00    -0.227 N 
ATOM     26  H10 UNL     1      23.411 -46.041   7.573  1.00  0.00     0.210 HD
HETATM   27  N12 UNL     1      24.935 -47.472   5.290  1.00  0.00    -0.272 N 
ATOM     28  H11 UNL     1      25.693 -45.955   6.515  1.00  0.00     0.210 HD
ATOM     29  H12 UNL     1      25.732 -47.666   4.683  1.00  0.00     0.190 HD
ENDBRANCH  20  21
ENDBRANCH  17  20
ENDBRANCH  12  13
ENDBRANCH   9  12
BRANCH   6  30
HETATM   30  N2  UNL     1      27.970 -56.402   7.929  1.00  0.00    -0.132 N 
ATOM     31  H2  UNL     1      27.113 -56.951   8.002  1.00  0.00     0.205 HD
BRANCH  30  32
HETATM   32  N3  UNL     1      28.956 -56.592   8.873  1.00  0.00    -0.287 N 
ATOM     33  H3  UNL     1      29.846 -56.107   8.755  1.00  0.00     0.187 HD
BRANCH  32  34
HETATM   34  C5  UNL     1      28.797 -57.370   9.915  1.00  0.00     0.051 A 
HETATM   35  C6  UNL     1      27.649 -58.113  10.089  1.00  0.00     0.048 A 
HETATM   36  C7  UNL     1      27.561 -58.911  11.218  1.00  0.00     0.090 A 
HETATM   37  N4  UNL     1      28.562 -58.966  12.123  1.00  0.00    -0.368 N 
HETATM   38  C8  UNL     1      29.687 -58.261  11.985  1.00  0.00     0.036 A 
ATOM     39  H4  UNL     1      28.455 -59.567  12.940  1.00  0.00     0.165 HD
HETATM   40  C10 UNL     1      29.794 -57.456  10.862  1.00  0.00     0.057 A 
BRANCH  38  41
HETATM   41  C9  UNL     1      30.737 -58.370  13.011  1.00  0.00     0.286 C 
BRANCH  41  42
HETATM   42  N5  UNL     1      30.799 -59.664  13.628  1.00  0.00    -0.074 N 
ATOM     43  H53 UNL     1      29.892 -60.128  13.586  1.00  0.00     0.274 HD
ATOM     44  H52 UNL     1      31.347 -60.310  13.059  1.00  0.00     0.274 HD
ATOM     45  H51 UNL     1      31.149 -59.640  14.585  1.00  0.00     0.274 HD
ENDBRANCH  41  42
ENDBRANCH  38  41
ENDBRANCH  32  34
ENDBRANCH  30  32
ENDBRANCH   6  30
TORSDOF 10
ENDMDL
MODEL 4
REMARK VINA RESULT: -7.762276599      3.473      5.665
REMARK  10 active torsions:
REMARK  status: ('A' for Active; 'I' for Inactive)
REMARK    1  A    between atoms: C4_6  and  N2_7 
REMARK    2  A    between atoms: N2_7  and  N3_9 
REMARK    3  A    between atoms: N3_9  and  C5_11 
REMARK    4  A    between atoms: C8_16  and  C9_17 
REMARK    5  A    between atoms: C9_17  and  N5_18 
REMARK    6  A    between atoms: C11_25  and  O1_26 
REMARK    7  A    between atoms: C11_25  and  C12_28 
REMARK    8  A    between atoms: C12_28  and  C13_29 
REMARK    9  A    between atoms: C14_34  and  C15_35 
REMARK   10  A    between atoms: C15_35  and  C16_36 
ROOT
HETATM    1  C1  UNL     1      24.897 -57.298   5.068  1.00  0.00     0.044 C 
HETATM    2  C2  UNL     1      25.566 -56.149   5.799  1.00  0.00     0.091 C 
HETATM    3  C3  UNL     1      24.545 -55.132   6.248  1.00  0.00     0.044 C 
HETATM    4  N1  UNL     1      26.195 -56.728   6.962  1.00  0.00    -0.212 N 
ATOM      5  H1  UNL     1      25.775 -57.403   7.601  1.00  0.00     0.178 HD
HETATM    6  C4  UNL     1      27.496 -56.191   7.058  1.00  0.00     0.691 C 
HETATM    7  N6  UNL     1      27.798 -55.567   5.979  1.00  0.00    -0.190 N 
ATOM      8  H6  UNL     1      28.688 -55.097   5.818  1.00  0.00     0.181 HD
HETATM    9  C11 UNL     1      26.696 -55.616   5.004  1.00  0.00     0.178 C 
ENDROOT
BRANCH   9  10
HETATM   10  O1  UNL     1      27.072 -56.490   3.962  1.00  0.00    -0.367 OA
ATOM     11  H1  UNL     1      26.609 -56.303   3.153  1.00  0.00     0.212 HD
ENDBRANCH   9  10
BRANCH   9  12
HETATM   12  C12 UNL     1      26.581 -54.247   4.460  1.00  0.00     0.130 C 
BRANCH  12  13
HETATM   13  C13 UNL     1      27.816 -53.450   4.557  1.00  0.00     0.072 A 
HETATM   14  N7  UNL     1      28.302 -52.586   5.430  1.00  0.00    -0.297 N 
HETATM   15  N8  UNL     1      29.423 -52.042   5.247  1.00  0.00    -0.297 N 
ATOM     16  H7  UNL     1      27.762 -52.356   6.265  1.00  0.00     0.187 HD
HETATM   17  C14 UNL     1      30.133 -52.334   4.163  1.00  0.00     0.075 A 
ATOM     18  H8  UNL     1      29.786 -51.377   5.930  1.00  0.00     0.187 HD
HETATM   19  S1  UNL     1      29.103 -53.456   3.389  1.00  0.00    -0.060 SA
BRANCH  17  20
HETATM   20  C15 UNL     1      31.481 -51.807   3.749  1.00  0.00     0.145 C 
BRANCH  20  21
HETATM   21  C16 UNL     1      32.513 -52.724   4.259  1.00  0.00     0.119 A 
HETATM   22  N9  UNL     1      32.330 -53.784   5.054  1.00  0.00    -0.272 N 
HETATM   23  N10 UNL     1      33.530 -54.337   5.274  1.00  0.00    -0.227 N 
ATOM     24  H9  UNL     1      31.439 -54.112   5.426  1.00  0.00     0.190 HD
HETATM   25  N11 UNL     1      34.452 -53.648   4.635  1.00  0.00    -0.227 N 
ATOM     26  H10 UNL     1      33.703 -55.163   5.847  1.00  0.00     0.210 HD
HETATM   27  N12 UNL     1      33.827 -52.668   4.019  1.00  0.00    -0.272 N 
ATOM     28  H11 UNL     1      35.455 -53.837   4.621  1.00  0.00     0.210 HD
ATOM     29  H12 UNL     1      34.281 -51.962   3.439  1.00  0.00     0.190 HD
ENDBRANCH  20  21
ENDBRANCH  17  20
ENDBRANCH  12  13
ENDBRANCH   9  12
BRANCH   6  30
HETATM   30  N2  UNL     1      28.312 -56.357   8.228  1.00  0.00    -0.132 N 
ATOM     31  H2  UNL     1      29.145 -55.776   8.328  1.00  0.00     0.205 HD
BRANCH  30  32
HETATM   32  N3  UNL     1      28.020 -57.265   9.223  1.00  0.00    -0.287 N 
ATOM     33  H3  UNL     1      27.165 -57.816   9.147  1.00  0.00     0.187 HD
BRANCH  32  34
HETATM   34  C5  UNL     1      28.797 -57.449  10.262  1.00  0.00     0.051 A 
HETATM   35  C6  UNL     1      30.079 -56.945  10.300  1.00  0.00     0.048 A 
HETATM   36  C7  UNL     1      30.835 -57.185  11.436  1.00  0.00     0.090 A 
HETATM   37  N4  UNL     1      30.339 -57.887  12.478  1.00  0.00    -0.368 N 
HETATM   38  C8  UNL     1      29.102 -58.388  12.475  1.00  0.00     0.036 A 
ATOM     39  H4  UNL     1      30.930 -58.040  13.295  1.00  0.00     0.165 HD
HETATM   40  C10 UNL     1      28.330 -58.160  11.347  1.00  0.00     0.057 A 
BRANCH  38  41
HETATM   41  C9  UNL     1      28.626 -59.144  13.646  1.00  0.00     0.286 C 
BRANCH  41  42
HETATM   42  N5  UNL     1      29.231 -60.439  13.772  1.00  0.00    -0.074 N 
ATOM     43  H53 UNL     1      28.719 -61.012  14.443  1.00  0.00     0.274 HD
ATOM     44  H52 UNL     1      29.082 -60.991  12.928  1.00  0.00     0.274 HD
ATOM     45  H51 UNL     1      30.221 -60.402  14.010  1.00  0.00     0.274 HD
ENDBRANCH  41  42
ENDBRANCH  38  41
ENDBRANCH  32  34
ENDBRANCH  30  32
ENDBRANCH   6  30
TORSDOF 10
ENDMDL
MODEL 5
REMARK VINA RESULT: -7.654192851      1.792      1.998
REMARK  10 active torsions:
REMARK  status: ('A' for Active; 'I' for Inactive)
REMARK    1  A    between atoms: C4_6  and  N2_7 
REMARK    2  A    between atoms: N2_7  and  N3_9 
REMARK    3  A    between atoms: N3_9  and  C5_11 
REMARK    4  A    between atoms: C8_16  and  C9_17 
REMARK    5  A    between atoms: C9_17  and  N5_18 
REMARK    6  A    between atoms: C11_25  and  O1_26 
REMARK    7  A    between atoms: C11_25  and  C12_28 
REMARK    8  A    between atoms: C12_28  and  C13_29 
REMARK    9  A    between atoms: C14_34  and  C15_35 
REMARK   10  A    between atoms: C15_35  and  C16_36 
ROOT
HETATM    1  C1  UNL     1      30.430 -54.238   3.786  1.00  0.00     0.044 C 
HETATM    2  C2  UNL     1      28.992 -54.505   4.188  1.00  0.00     0.091 C 
HETATM    3  C3  UNL     1      28.174 -54.937   2.995  1.00  0.00     0.044 C 
HETATM    4  N1  UNL     1      29.037 -55.586   5.143  1.00  0.00    -0.212 N 
ATOM      5  H1  UNL     1      29.583 -56.444   5.056  1.00  0.00     0.178 HD
HETATM    6  C4  UNL     1      28.191 -55.244   6.218  1.00  0.00     0.691 C 
HETATM    7  N6  UNL     1      27.849 -54.011   6.138  1.00  0.00    -0.190 N 
ATOM      8  H6  UNL     1      27.240 -53.540   6.806  1.00  0.00     0.181 HD
HETATM    9  C11 UNL     1      28.448 -53.364   4.959  1.00  0.00     0.178 C 
ENDROOT
BRANCH   9  10
HETATM   10  O1  UNL     1      29.463 -52.491   5.406  1.00  0.00    -0.367 OA
ATOM     11  H1  UNL     1      29.841 -52.775   6.230  1.00  0.00     0.212 HD
ENDBRANCH   9  10
BRANCH   9  12
HETATM   12  C12 UNL     1      27.366 -52.563   4.349  1.00  0.00     0.130 C 
BRANCH  12  13
HETATM   13  C13 UNL     1      27.297 -51.172   4.828  1.00  0.00     0.072 A 
HETATM   14  N7  UNL     1      27.800 -50.020   4.421  1.00  0.00    -0.297 N 
HETATM   15  N8  UNL     1      27.565 -48.953   5.049  1.00  0.00    -0.297 N 
ATOM     16  H7  UNL     1      28.386 -49.993   3.587  1.00  0.00     0.187 HD
HETATM   17  C14 UNL     1      26.803 -48.978   6.137  1.00  0.00     0.075 A 
ATOM     18  H8  UNL     1      27.959 -48.071   4.723  1.00  0.00     0.187 HD
HETATM   19  S1  UNL     1      26.421 -50.641   6.232  1.00  0.00    -0.060 SA
BRANCH  17  20
HETATM   20  C15 UNL     1      26.398 -47.837   7.031  1.00  0.00     0.145 C 
BRANCH  20  21
HETATM   21  C16 UNL     1      24.971 -47.554   6.803  1.00  0.00     0.119 A 
HETATM   22  N9  UNL     1      24.207 -48.008   5.803  1.00  0.00    -0.272 N 
HETATM   23  N10 UNL     1      22.976 -47.510   5.976  1.00  0.00    -0.227 N 
ATOM     24  H9  UNL     1      24.508 -48.622   5.046  1.00  0.00     0.190 HD
HETATM   25  N11 UNL     1      22.957 -46.760   7.057  1.00  0.00    -0.227 N 
ATOM     26  H10 UNL     1      22.178 -47.686   5.365  1.00  0.00     0.210 HD
HETATM   27  N12 UNL     1      24.173 -46.791   7.556  1.00  0.00    -0.272 N 
ATOM     28  H11 UNL     1      22.154 -46.255   7.435  1.00  0.00     0.210 HD
ATOM     29  H12 UNL     1      24.468 -46.301   8.401  1.00  0.00     0.190 HD
ENDBRANCH  20  21
ENDBRANCH  17  20
ENDBRANCH  12  13
ENDBRANCH   9  12
BRANCH   6  30
HETATM   30  N2  UNL     1      27.807 -56.193   7.226  1.00  0.00    -0.132 N 
ATOM     31  H2  UNL     1      26.947 -56.726   7.090  1.00  0.00     0.205 HD
BRANCH  30  32
HETATM   32  N3  UNL     1      28.546 -56.416   8.367  1.00  0.00    -0.287 N 
ATOM     33  H3  UNL     1      29.432 -55.923   8.480  1.00  0.00     0.187 HD
BRANCH  32  34
HETATM   34  C5  UNL     1      28.158 -57.237   9.312  1.00  0.00     0.051 A 
HETATM   35  C6  UNL     1      27.029 -58.015   9.170  1.00  0.00     0.048 A 
HETATM   36  C7  UNL     1      26.687 -58.856  10.216  1.00  0.00     0.090 A 
HETATM   37  N4  UNL     1      27.431 -58.918  11.342  1.00  0.00    -0.368 N 
HETATM   38  C8  UNL     1      28.529 -58.180  11.513  1.00  0.00     0.036 A 
ATOM     39  H4  UNL     1      27.143 -59.552  12.088  1.00  0.00     0.165 HD
HETATM   40  C10 UNL     1      28.887 -57.331  10.477  1.00  0.00     0.057 A 
BRANCH  38  41
HETATM   41  C9  UNL     1      29.291 -58.299  12.767  1.00  0.00     0.286 C 
BRANCH  41  42
HETATM   42  N5  UNL     1      29.198 -59.598  13.369  1.00  0.00    -0.074 N 
ATOM     43  H53 UNL     1      28.520 -60.178  12.875  1.00  0.00     0.274 HD
ATOM     44  H52 UNL     1      30.044 -60.140  13.193  1.00  0.00     0.274 HD
ATOM     45  H51 UNL     1      28.990 -59.568  14.367  1.00  0.00     0.274 HD
ENDBRANCH  41  42
ENDBRANCH  38  41
ENDBRANCH  32  34
ENDBRANCH  30  32
ENDBRANCH   6  30
TORSDOF 10
ENDMDL
