MODEL 1
REMARK VINA RESULT: -5.530390387      0.000      0.000
REMARK  12 active torsions:
REMARK  status: ('A' for Active; 'I' for Inactive)
REMARK    1  A    between atoms: N1_2  and  C2_5 
REMARK    2  A    between atoms: C2_5  and  N2_6 
REMARK    3  A    between atoms: C2_5  and  S2_39 
REMARK    4  A    between atoms: N2_6  and  C3_8 
REMARK    5  A    between atoms: C4_11  and  S1_12 
REMARK    6  A    between atoms: C6_16  and  C7_17 
REMARK    7  A    between atoms: C7_17  and  O1_18 
REMARK    8  A    between atoms: C7_17  and  O2_20 
REMARK    9  A    between atoms: C8_22  and  C9_23 
REMARK   10  A    between atoms: C10_26  and  N6_27 
REMARK       I    between atoms: N6_27  and  C11_29 
REMARK   11  A    between atoms: C11_29  and  C12_31 
REMARK   12  A    between atoms: C12_31  and  N7_32 
ROOT
HETATM    1  C3  UNL     1      30.302 -52.096   2.934  1.00  0.00     0.122 A 
HETATM    2  N3  UNL     1      31.142 -51.142   2.497  1.00  0.00    -0.322 N 
ATOM      3  H3  UNL     1      30.781 -50.443   1.848  1.00  0.00     0.169 HD
HETATM    4  C4  UNL     1      32.427 -51.059   2.867  1.00  0.00     0.145 A 
HETATM    5  N4  UNL     1      32.881 -51.976   3.717  1.00  0.00    -0.335 N 
ATOM      6  H4  UNL     1      33.856 -51.934   4.015  1.00  0.00     0.168 HD
HETATM    7  C6  UNL     1      32.072 -52.987   4.210  1.00  0.00     0.084 A 
HETATM    8  C8  UNL     1      30.773 -53.074   3.832  1.00  0.00     0.089 A 
ENDROOT
BRANCH   8   9
HETATM    9  C9  UNL     1      29.870 -54.125   4.247  1.00  0.00     0.201 A 
HETATM   10  N5  UNL     1      29.018 -54.276   5.254  1.00  0.00    -0.165 N 
HETATM   11  C10 UNL     1      28.411 -55.468   5.189  1.00  0.00     0.707 A 
ATOM     12  H5  UNL     1      28.850 -53.579   5.980  1.00  0.00     0.186 HD
HETATM   13  N8  UNL     1      28.904 -56.078   4.099  1.00  0.00    -0.089 N 
HETATM   14  O4  UNL     1      29.748 -55.275   3.573  1.00  0.00    -0.203 OA
ATOM     15  H8  UNL     1      28.652 -57.005   3.757  1.00  0.00     0.213 HD
BRANCH  11  16
HETATM   16  N6  UNL     1      27.531 -55.985   5.971  1.00  0.00    -0.156 N 
HETATM   17  C11 UNL     1      26.149 -55.743   5.782  1.00  0.00     0.261 C 
HETATM   18  O3  UNL     1      25.666 -54.613   6.039  1.00  0.00    -0.271 OA
ATOM     19  H6  UNL     1      27.834 -56.580   6.742  1.00  0.00     0.187 HD
BRANCH  17  20
HETATM   20  C12 UNL     1      25.212 -56.786   5.282  1.00  0.00     0.332 C 
BRANCH  20  21
HETATM   21  N7  UNL     1      25.329 -56.986   3.867  1.00  0.00    -0.071 N 
ATOM     22  H73 UNL     1      24.859 -56.242   3.350  1.00  0.00     0.274 HD
ATOM     23  H72 UNL     1      26.285 -56.826   3.549  1.00  0.00     0.274 HD
ATOM     24  H71 UNL     1      24.993 -57.905   3.578  1.00  0.00     0.274 HD
ENDBRANCH  20  21
ENDBRANCH  17  20
ENDBRANCH  11  16
ENDBRANCH   8   9
BRANCH   1  25
HETATM   25  N2  UNL     1      29.082 -52.174   2.582  1.00  0.00    -0.340 N 
ATOM     26  H2  UNL     1      28.767 -52.935   1.980  1.00  0.00     0.164 HD
BRANCH  25  27
HETATM   27  C2  UNL     1      28.146 -51.174   3.041  1.00  0.00     0.348 C 
BRANCH  27  28
HETATM   28  N1  UNL     1      28.524 -50.657   4.353  1.00  0.00    -0.049 N 
HETATM   29  C1  UNL     1      27.517 -50.976   5.320  1.00  0.00     0.270 C 
ATOM     30  H12 UNL     1      28.722 -49.657   4.326  1.00  0.00     0.280 HD
ATOM     31  H11 UNL     1      29.446 -50.985   4.641  1.00  0.00     0.280 HD
ENDBRANCH  27  28
BRANCH  27  32
HETATM   32  S2  UNL     1      26.512 -51.999   3.167  1.00  0.00    -0.120 SA
HETATM   33  C13 UNL     1      26.684 -53.641   2.429  1.00  0.00     0.093 C 
ENDBRANCH  27  32
ENDBRANCH  25  27
ENDBRANCH   1  25
BRANCH   7  34
HETATM   34  C7  UNL     1      32.639 -53.898   5.231  1.00  0.00     0.306 C 
BRANCH  34  35
HETATM   35  O1  UNL     1      32.248 -53.601   6.529  1.00  0.00    -0.366 OA
ATOM     36  H1  UNL     1      32.967 -53.571   7.150  1.00  0.00     0.213 HD
ENDBRANCH  34  35
BRANCH  34  37
HETATM   37  O2  UNL     1      34.044 -53.731   5.229  1.00  0.00    -0.366 OA
ATOM     38  H2  UNL     1      34.421 -54.450   4.735  1.00  0.00     0.213 HD
ENDBRANCH  34  37
ENDBRANCH   7  34
BRANCH   4  39
HETATM   39  S1  UNL     1      33.489 -49.745   2.228  1.00  0.00    -0.098 SA
HETATM   40  C5  UNL     1      33.920 -48.628   3.560  1.00  0.00     0.099 C 
ENDBRANCH   4  39
TORSDOF 12
ENDMDL
MODEL 2
REMARK VINA RESULT: -5.514110483      4.936      8.233
REMARK  12 active torsions:
REMARK  status: ('A' for Active; 'I' for Inactive)
REMARK    1  A    between atoms: N1_2  and  C2_5 
REMARK    2  A    between atoms: C2_5  and  N2_6 
REMARK    3  A    between atoms: C2_5  and  S2_39 
REMARK    4  A    between atoms: N2_6  and  C3_8 
REMARK    5  A    between atoms: C4_11  and  S1_12 
REMARK    6  A    between atoms: C6_16  and  C7_17 
REMARK    7  A    between atoms: C7_17  and  O1_18 
REMARK    8  A    between atoms: C7_17  and  O2_20 
REMARK    9  A    between atoms: C8_22  and  C9_23 
REMARK   10  A    between atoms: C10_26  and  N6_27 
REMARK       I    between atoms: N6_27  and  C11_29 
REMARK   11  A    between atoms: C11_29  and  C12_31 
REMARK   12  A    between atoms: C12_31  and  N7_32 
ROOT
HETATM    1  C3  UNL     1      27.089 -56.301   6.943  1.00  0.00     0.122 A 
HETATM    2  N3  UNL     1      26.128 -56.336   6.003  1.00  0.00    -0.322 N 
ATOM      3  H3  UNL     1      26.179 -55.665   5.237  1.00  0.00     0.169 HD
HETATM    4  C4  UNL     1      25.108 -57.204   6.020  1.00  0.00     0.145 A 
HETATM    5  N4  UNL     1      25.057 -58.075   7.024  1.00  0.00    -0.335 N 
ATOM      6  H4  UNL     1      24.291 -58.746   7.058  1.00  0.00     0.168 HD
HETATM    7  C6  UNL     1      26.014 -58.097   8.026  1.00  0.00     0.084 A 
HETATM    8  C8  UNL     1      27.045 -57.216   8.013  1.00  0.00     0.089 A 
ENDROOT
BRANCH   8   9
HETATM    9  C9  UNL     1      28.055 -57.125   9.043  1.00  0.00     0.201 A 
HETATM   10  N5  UNL     1      28.049 -57.250  10.365  1.00  0.00    -0.165 N 
HETATM   11  C10 UNL     1      29.277 -57.063  10.866  1.00  0.00     0.707 A 
ATOM     12  H5  UNL     1      27.222 -57.460  10.924  1.00  0.00     0.186 HD
HETATM   13  N8  UNL     1      30.075 -56.814   9.815  1.00  0.00    -0.089 N 
HETATM   14  O4  UNL     1      29.338 -56.857   8.771  1.00  0.00    -0.203 OA
ATOM     15  H8  UNL     1      31.077 -56.627   9.844  1.00  0.00     0.213 HD
BRANCH  11  16
HETATM   16  N6  UNL     1      29.681 -57.100  12.087  1.00  0.00    -0.156 N 
HETATM   17  C11 UNL     1      29.145 -58.030  13.008  1.00  0.00     0.261 C 
HETATM   18  O3  UNL     1      27.972 -57.891  13.435  1.00  0.00    -0.271 OA
ATOM     19  H6  UNL     1      30.400 -56.446  12.396  1.00  0.00     0.187 HD
BRANCH  17  20
HETATM   20  C12 UNL     1      29.921 -59.197  13.514  1.00  0.00     0.332 C 
BRANCH  20  21
HETATM   21  N7  UNL     1      29.119 -60.382  13.604  1.00  0.00    -0.071 N 
ATOM     22  H73 UNL     1      29.502 -61.035  14.287  1.00  0.00     0.274 HD
ATOM     23  H72 UNL     1      28.222 -60.188  14.049  1.00  0.00     0.274 HD
ATOM     24  H71 UNL     1      28.991 -60.830  12.696  1.00  0.00     0.274 HD
ENDBRANCH  20  21
ENDBRANCH  17  20
ENDBRANCH  11  16
ENDBRANCH   8   9
BRANCH   1  25
HETATM   25  N2  UNL     1      28.058 -55.476   6.927  1.00  0.00    -0.340 N 
ATOM     26  H2  UNL     1      28.232 -54.870   7.728  1.00  0.00     0.164 HD
BRANCH  25  27
HETATM   27  C2  UNL     1      28.910 -55.405   5.762  1.00  0.00     0.348 C 
BRANCH  27  28
HETATM   28  N1  UNL     1      30.280 -55.056   6.127  1.00  0.00    -0.049 N 
HETATM   29  C1  UNL     1      30.987 -54.565   4.984  1.00  0.00     0.270 C 
ATOM     30  H12 UNL     1      30.766 -55.836   6.571  1.00  0.00     0.280 HD
ATOM     31  H11 UNL     1      30.311 -54.398   6.906  1.00  0.00     0.280 HD
ENDBRANCH  27  28
BRANCH  27  32
HETATM   32  S2  UNL     1      28.221 -54.091   4.683  1.00  0.00    -0.120 SA
HETATM   33  C13 UNL     1      27.410 -52.886   5.760  1.00  0.00     0.093 C 
ENDBRANCH  27  32
ENDBRANCH  25  27
ENDBRANCH   1  25
BRANCH   7  34
HETATM   34  C7  UNL     1      25.932 -59.169   9.045  1.00  0.00     0.306 C 
BRANCH  34  35
HETATM   35  O1  UNL     1      25.068 -60.201   8.706  1.00  0.00    -0.366 OA
ATOM     36  H1  UNL     1      24.438 -59.970   8.033  1.00  0.00     0.213 HD
ENDBRANCH  34  35
BRANCH  34  37
HETATM   37  O2  UNL     1      25.382 -58.608  10.221  1.00  0.00    -0.366 OA
ATOM     38  H2  UNL     1      25.063 -59.321  10.762  1.00  0.00     0.213 HD
ENDBRANCH  34  37
ENDBRANCH   7  34
BRANCH   4  39
HETATM   39  S1  UNL     1      23.855 -57.180   4.718  1.00  0.00    -0.098 SA
HETATM   40  C5  UNL     1      23.009 -58.758   4.679  1.00  0.00     0.099 C 
ENDBRANCH   4  39
TORSDOF 12
ENDMDL
MODEL 3
REMARK VINA RESULT: -5.466630764      1.278      1.361
REMARK  12 active torsions:
REMARK  status: ('A' for Active; 'I' for Inactive)
REMARK    1  A    between atoms: N1_2  and  C2_5 
REMARK    2  A    between atoms: C2_5  and  N2_6 
REMARK    3  A    between atoms: C2_5  and  S2_39 
REMARK    4  A    between atoms: N2_6  and  C3_8 
REMARK    5  A    between atoms: C4_11  and  S1_12 
REMARK    6  A    between atoms: C6_16  and  C7_17 
REMARK    7  A    between atoms: C7_17  and  O1_18 
REMARK    8  A    between atoms: C7_17  and  O2_20 
REMARK    9  A    between atoms: C8_22  and  C9_23 
REMARK   10  A    between atoms: C10_26  and  N6_27 
REMARK       I    between atoms: N6_27  and  C11_29 
REMARK   11  A    between atoms: C11_29  and  C12_31 
REMARK   12  A    between atoms: C12_31  and  N7_32 
ROOT
HETATM    1  C3  UNL     1      29.990 -51.579   3.190  1.00  0.00     0.122 A 
HETATM    2  N3  UNL     1      30.942 -50.772   2.690  1.00  0.00    -0.322 N 
ATOM      3  H3  UNL     1      30.651 -49.983   2.114  1.00  0.00     0.169 HD
HETATM    4  C4  UNL     1      32.252 -50.949   2.909  1.00  0.00     0.145 A 
HETATM    5  N4  UNL     1      32.615 -51.980   3.666  1.00  0.00    -0.335 N 
ATOM      6  H4  UNL     1      33.607 -52.135   3.848  1.00  0.00     0.168 HD
HETATM    7  C6  UNL     1      31.688 -52.851   4.215  1.00  0.00     0.084 A 
HETATM    8  C8  UNL     1      30.363 -52.676   3.991  1.00  0.00     0.089 A 
ENDROOT
BRANCH   8   9
HETATM    9  C9  UNL     1      29.328 -53.565   4.471  1.00  0.00     0.201 A 
HETATM   10  N5  UNL     1      28.821 -54.717   4.048  1.00  0.00    -0.165 N 
HETATM   11  C10 UNL     1      27.849 -55.139   4.868  1.00  0.00     0.707 A 
ATOM     12  H5  UNL     1      29.128 -55.212   3.211  1.00  0.00     0.186 HD
HETATM   13  N8  UNL     1      27.752 -54.215   5.837  1.00  0.00    -0.089 N 
HETATM   14  O4  UNL     1      28.623 -53.314   5.581  1.00  0.00    -0.203 OA
ATOM     15  H8  UNL     1      27.108 -54.230   6.628  1.00  0.00     0.213 HD
BRANCH  11  16
HETATM   16  N6  UNL     1      27.121 -56.197   4.803  1.00  0.00    -0.156 N 
HETATM   17  C11 UNL     1      26.121 -56.460   5.768  1.00  0.00     0.261 C 
HETATM   18  O3  UNL     1      26.444 -56.794   6.935  1.00  0.00    -0.271 OA
ATOM     19  H6  UNL     1      27.268 -56.858   4.040  1.00  0.00     0.187 HD
BRANCH  17  20
HETATM   20  C12 UNL     1      24.667 -56.361   5.466  1.00  0.00     0.332 C 
BRANCH  20  21
HETATM   21  N7  UNL     1      24.165 -55.030   5.648  1.00  0.00    -0.071 N 
ATOM     22  H73 UNL     1      24.350 -54.692   6.592  1.00  0.00     0.274 HD
ATOM     23  H72 UNL     1      24.717 -54.353   5.122  1.00  0.00     0.274 HD
ATOM     24  H71 UNL     1      23.174 -54.957   5.417  1.00  0.00     0.274 HD
ENDBRANCH  20  21
ENDBRANCH  17  20
ENDBRANCH  11  16
ENDBRANCH   8   9
BRANCH   1  25
HETATM   25  N2  UNL     1      28.746 -51.411   2.981  1.00  0.00    -0.340 N 
ATOM     26  H2  UNL     1      28.222 -52.083   2.421  1.00  0.00     0.164 HD
BRANCH  25  27
HETATM   27  C2  UNL     1      28.082 -50.259   3.546  1.00  0.00     0.348 C 
BRANCH  27  28
HETATM   28  N1  UNL     1      28.219 -50.226   4.999  1.00  0.00    -0.049 N 
HETATM   29  C1  UNL     1      27.102 -49.552   5.587  1.00  0.00     0.270 C 
ATOM     30  H12 UNL     1      29.107 -49.816   5.289  1.00  0.00     0.280 HD
ATOM     31  H11 UNL     1      28.351 -51.159   5.391  1.00  0.00     0.280 HD
ENDBRANCH  27  28
BRANCH  27  32
HETATM   32  S2  UNL     1      26.306 -50.409   3.112  1.00  0.00    -0.120 SA
HETATM   33  C13 UNL     1      25.887 -52.167   3.175  1.00  0.00     0.093 C 
ENDBRANCH  27  32
ENDBRANCH  25  27
ENDBRANCH   1  25
BRANCH   7  34
HETATM   34  C7  UNL     1      32.181 -53.908   5.129  1.00  0.00     0.306 C 
BRANCH  34  35
HETATM   35  O1  UNL     1      32.194 -53.534   6.465  1.00  0.00    -0.366 OA
ATOM     36  H1  UNL     1      33.053 -53.584   6.870  1.00  0.00     0.213 HD
ENDBRANCH  34  35
BRANCH  34  37
HETATM   37  O2  UNL     1      33.536 -54.159   4.810  1.00  0.00    -0.366 OA
ATOM     38  H2  UNL     1      33.927 -53.339   4.534  1.00  0.00     0.213 HD
ENDBRANCH  34  37
ENDBRANCH   7  34
BRANCH   4  39
HETATM   39  S1  UNL     1      33.467 -49.818   2.195  1.00  0.00    -0.098 SA
HETATM   40  C5  UNL     1      33.881 -48.555   3.397  1.00  0.00     0.099 C 
ENDBRANCH   4  39
TORSDOF 12
ENDMDL
MODEL 4
REMARK VINA RESULT: -5.442737241      2.846      6.788
REMARK  12 active torsions:
REMARK  status: ('A' for Active; 'I' for Inactive)
REMARK    1  A    between atoms: N1_2  and  C2_5 
REMARK    2  A    between atoms: C2_5  and  N2_6 
REMARK    3  A    between atoms: C2_5  and  S2_39 
REMARK    4  A    between atoms: N2_6  and  C3_8 
REMARK    5  A    between atoms: C4_11  and  S1_12 
REMARK    6  A    between atoms: C6_16  and  C7_17 
REMARK    7  A    between atoms: C7_17  and  O1_18 
REMARK    8  A    between atoms: C7_17  and  O2_20 
REMARK    9  A    between atoms: C8_22  and  C9_23 
REMARK   10  A    between atoms: C10_26  and  N6_27 
REMARK       I    between atoms: N6_27  and  C11_29 
REMARK   11  A    between atoms: C11_29  and  C12_31 
REMARK   12  A    between atoms: C12_31  and  N7_32 
ROOT
HETATM    1  C3  UNL     1      25.899 -54.378   5.362  1.00  0.00     0.122 A 
HETATM    2  N3  UNL     1      24.902 -55.279   5.358  1.00  0.00    -0.322 N 
ATOM      3  H3  UNL     1      24.091 -55.104   5.950  1.00  0.00     0.169 HD
HETATM    4  C4  UNL     1      24.917 -56.396   4.617  1.00  0.00     0.145 A 
HETATM    5  N4  UNL     1      25.980 -56.608   3.847  1.00  0.00    -0.335 N 
ATOM      6  H4  UNL     1      26.014 -57.450   3.273  1.00  0.00     0.168 HD
HETATM    7  C6  UNL     1      27.043 -55.721   3.801  1.00  0.00     0.084 A 
HETATM    8  C8  UNL     1      27.031 -54.593   4.553  1.00  0.00     0.089 A 
ENDROOT
BRANCH   8   9
HETATM    9  C9  UNL     1      28.118 -53.641   4.615  1.00  0.00     0.201 A 
HETATM   10  N5  UNL     1      29.370 -53.686   5.056  1.00  0.00    -0.165 N 
HETATM   11  C10 UNL     1      29.976 -52.503   4.887  1.00  0.00     0.707 A 
ATOM     12  H5  UNL     1      29.810 -54.508   5.468  1.00  0.00     0.186 HD
HETATM   13  N8  UNL     1      29.066 -51.696   4.318  1.00  0.00    -0.089 N 
HETATM   14  O4  UNL     1      27.999 -52.383   4.172  1.00  0.00    -0.203 OA
ATOM     15  H8  UNL     1      29.202 -50.721   4.052  1.00  0.00     0.213 HD
BRANCH  11  16
HETATM   16  N6  UNL     1      31.175 -52.146   5.182  1.00  0.00    -0.156 N 
HETATM   17  C11 UNL     1      32.181 -53.103   5.452  1.00  0.00     0.261 C 
HETATM   18  O3  UNL     1      32.151 -53.765   6.519  1.00  0.00    -0.271 OA
ATOM     19  H6  UNL     1      31.406 -51.153   5.223  1.00  0.00     0.187 HD
BRANCH  17  20
HETATM   20  C12 UNL     1      33.305 -53.375   4.514  1.00  0.00     0.332 C 
BRANCH  20  21
HETATM   21  N7  UNL     1      34.315 -54.203   5.104  1.00  0.00    -0.071 N 
ATOM     22  H73 UNL     1      34.429 -55.073   4.584  1.00  0.00     0.274 HD
ATOM     23  H72 UNL     1      35.244 -53.808   4.966  1.00  0.00     0.274 HD
ATOM     24  H71 UNL     1      34.135 -54.386   6.092  1.00  0.00     0.274 HD
ENDBRANCH  20  21
ENDBRANCH  17  20
ENDBRANCH  11  16
ENDBRANCH   8   9
BRANCH   1  25
HETATM   25  N2  UNL     1      25.885 -53.318   6.067  1.00  0.00    -0.340 N 
ATOM     26  H2  UNL     1      26.527 -53.212   6.852  1.00  0.00     0.164 HD
BRANCH  25  27
HETATM   27  C2  UNL     1      24.950 -52.265   5.744  1.00  0.00     0.348 C 
BRANCH  27  28
HETATM   28  N1  UNL     1      24.834 -52.082   4.300  1.00  0.00    -0.049 N 
HETATM   29  C1  UNL     1      23.465 -51.882   3.935  1.00  0.00     0.270 C 
ATOM     30  H12 UNL     1      25.257 -52.854   3.783  1.00  0.00     0.280 HD
ATOM     31  H11 UNL     1      25.433 -51.329   3.962  1.00  0.00     0.280 HD
ENDBRANCH  27  28
BRANCH  27  32
HETATM   32  S2  UNL     1      25.609 -50.726   6.494  1.00  0.00    -0.120 SA
HETATM   33  C13 UNL     1      26.921 -51.209   7.641  1.00  0.00     0.093 C 
ENDBRANCH  27  32
ENDBRANCH  25  27
ENDBRANCH   1  25
BRANCH   7  34
HETATM   34  C7  UNL     1      28.134 -55.991   2.835  1.00  0.00     0.306 C 
BRANCH  34  35
HETATM   35  O1  UNL     1      27.831 -56.975   1.905  1.00  0.00    -0.366 OA
ATOM     36  H1  UNL     1      27.305 -57.685   2.254  1.00  0.00     0.213 HD
ENDBRANCH  34  35
BRANCH  34  37
HETATM   37  O2  UNL     1      29.236 -56.503   3.559  1.00  0.00    -0.366 OA
ATOM     38  H2  UNL     1      29.823 -56.921   2.939  1.00  0.00     0.213 HD
ENDBRANCH  34  37
ENDBRANCH   7  34
BRANCH   4  39
HETATM   39  S1  UNL     1      23.535 -57.559   4.673  1.00  0.00    -0.098 SA
HETATM   40  C5  UNL     1      22.022 -56.706   4.234  1.00  0.00     0.099 C 
ENDBRANCH   4  39
TORSDOF 12
ENDMDL
MODEL 5
REMARK VINA RESULT: -5.391140801      0.878      1.110
REMARK  12 active torsions:
REMARK  status: ('A' for Active; 'I' for Inactive)
REMARK    1  A    between atoms: N1_2  and  C2_5 
REMARK    2  A    between atoms: C2_5  and  N2_6 
REMARK    3  A    between atoms: C2_5  and  S2_39 
REMARK    4  A    between atoms: N2_6  and  C3_8 
REMARK    5  A    between atoms: C4_11  and  S1_12 
REMARK    6  A    between atoms: C6_16  and  C7_17 
REMARK    7  A    between atoms: C7_17  and  O1_18 
REMARK    8  A    between atoms: C7_17  and  O2_20 
REMARK    9  A    between atoms: C8_22  and  C9_23 
REMARK   10  A    between atoms: C10_26  and  N6_27 
REMARK       I    between atoms: N6_27  and  C11_29 
REMARK   11  A    between atoms: C11_29  and  C12_31 
REMARK   12  A    between atoms: C12_31  and  N7_32 
ROOT
HETATM    1  C3  UNL     1      30.368 -52.132   2.863  1.00  0.00     0.122 A 
HETATM    2  N3  UNL     1      31.211 -51.184   2.420  1.00  0.00    -0.322 N 
ATOM      3  H3  UNL     1      30.859 -50.500   1.750  1.00  0.00     0.169 HD
HETATM    4  C4  UNL     1      32.489 -51.088   2.811  1.00  0.00     0.145 A 
HETATM    5  N4  UNL     1      32.932 -51.985   3.688  1.00  0.00    -0.335 N 
ATOM      6  H4  UNL     1      33.901 -51.932   4.002  1.00  0.00     0.168 HD
HETATM    7  C6  UNL     1      32.118 -52.988   4.187  1.00  0.00     0.084 A 
HETATM    8  C8  UNL     1      30.826 -53.089   3.789  1.00  0.00     0.089 A 
ENDROOT
BRANCH   8   9
HETATM    9  C9  UNL     1      29.920 -54.134   4.209  1.00  0.00     0.201 A 
HETATM   10  N5  UNL     1      29.137 -54.317   5.266  1.00  0.00    -0.165 N 
HETATM   11  C10 UNL     1      28.487 -55.486   5.180  1.00  0.00     0.707 A 
ATOM     12  H5  UNL     1      29.043 -53.658   6.039  1.00  0.00     0.186 HD
HETATM   13  N8  UNL     1      28.881 -56.047   4.026  1.00  0.00    -0.089 N 
HETATM   14  O4  UNL     1      29.712 -55.241   3.485  1.00  0.00    -0.203 OA
ATOM     15  H8  UNL     1      28.576 -56.946   3.652  1.00  0.00     0.213 HD
BRANCH  11  16
HETATM   16  N6  UNL     1      27.647 -56.020   5.994  1.00  0.00    -0.156 N 
HETATM   17  C11 UNL     1      26.255 -55.813   5.851  1.00  0.00     0.261 C 
HETATM   18  O3  UNL     1      25.753 -54.694   6.121  1.00  0.00    -0.271 OA
ATOM     19  H6  UNL     1      27.991 -56.604   6.756  1.00  0.00     0.187 HD
BRANCH  17  20
HETATM   20  C12 UNL     1      25.327 -56.882   5.388  1.00  0.00     0.332 C 
BRANCH  20  21
HETATM   21  N7  UNL     1      25.304 -56.997   3.959  1.00  0.00    -0.071 N 
ATOM     22  H73 UNL     1      25.800 -57.833   3.649  1.00  0.00     0.274 HD
ATOM     23  H72 UNL     1      24.370 -57.227   3.622  1.00  0.00     0.274 HD
ATOM     24  H71 UNL     1      25.667 -56.162   3.500  1.00  0.00     0.274 HD
ENDBRANCH  20  21
ENDBRANCH  17  20
ENDBRANCH  11  16
ENDBRANCH   8   9
BRANCH   1  25
HETATM   25  N2  UNL     1      29.154 -52.222   2.490  1.00  0.00    -0.340 N 
ATOM     26  H2  UNL     1      28.850 -53.005   1.911  1.00  0.00     0.164 HD
BRANCH  25  27
HETATM   27  C2  UNL     1      28.210 -51.206   2.896  1.00  0.00     0.348 C 
BRANCH  27  28
HETATM   28  N1  UNL     1      27.130 -51.775   3.697  1.00  0.00    -0.049 N 
HETATM   29  C1  UNL     1      26.598 -52.939   3.055  1.00  0.00     0.270 C 
ATOM     30  H12 UNL     1      26.404 -51.087   3.901  1.00  0.00     0.280 HD
ATOM     31  H11 UNL     1      27.426 -51.969   4.654  1.00  0.00     0.280 HD
ENDBRANCH  27  28
BRANCH  27  32
HETATM   32  S2  UNL     1      27.509 -50.494   1.358  1.00  0.00    -0.120 SA
HETATM   33  C13 UNL     1      28.173 -51.449  -0.026  1.00  0.00     0.093 C 
ENDBRANCH  27  32
ENDBRANCH  25  27
ENDBRANCH   1  25
BRANCH   7  34
HETATM   34  C7  UNL     1      32.671 -53.876   5.237  1.00  0.00     0.306 C 
BRANCH  34  35
HETATM   35  O1  UNL     1      32.203 -53.596   6.513  1.00  0.00    -0.366 OA
ATOM     36  H1  UNL     1      32.154 -54.357   7.081  1.00  0.00     0.213 HD
ENDBRANCH  34  35
BRANCH  34  37
HETATM   37  O2  UNL     1      34.065 -53.650   5.305  1.00  0.00    -0.366 OA
ATOM     38  H2  UNL     1      34.234 -52.771   4.986  1.00  0.00     0.213 HD
ENDBRANCH  34  37
ENDBRANCH   7  34
BRANCH   4  39
HETATM   39  S1  UNL     1      33.557 -49.783   2.162  1.00  0.00    -0.098 SA
HETATM   40  C5  UNL     1      33.905 -48.600   3.462  1.00  0.00     0.099 C 
ENDBRANCH   4  39
TORSDOF 12
ENDMDL
