MODEL 1
REMARK VINA RESULT: -7.322580301      0.000      0.000
REMARK  10 active torsions:
REMARK  status: ('A' for Active; 'I' for Inactive)
REMARK    1  A    between atoms: C2_2  and  C3_3 
REMARK    2  A    between atoms: C3_3  and  C4_4 
REMARK    3  A    between atoms: C4_4  and  S1_5 
REMARK    4  A    between atoms: S1_5  and  C5_6 
REMARK    5  A    between atoms: C6_10  and  S2_11 
REMARK    6  A    between atoms: S2_11  and  C7_12 
REMARK    7  A    between atoms: C8_16  and  N5_17 
REMARK    8  A    between atoms: C9_22  and  N7_23 
REMARK    9  A    between atoms: C11_33  and  N11_34 
REMARK   10  A    between atoms: N13_40  and  O1_41 
ROOT
HETATM    1  C5  UNL     1      27.230 -51.734   6.508  1.00  0.00     0.205 A 
HETATM    2  N1  UNL     1      26.874 -53.058   6.566  1.00  0.00    -0.254 N 
ATOM      3  H1  UNL     1      26.249 -53.462   7.263  1.00  0.00     0.190 HD
HETATM    4  N2  UNL     1      27.443 -53.724   5.611  1.00  0.00    -0.058 N 
HETATM    5  C6  UNL     1      27.439 -55.024   5.211  1.00  0.00     0.206 A 
HETATM    6  N10 UNL     1      28.147 -55.430   4.150  1.00  0.00    -0.167 N 
ATOM      7  H10 UNL     1      28.128 -56.410   3.868  1.00  0.00     0.186 HD
HETATM    8  C11 UNL     1      28.889 -54.539   3.451  1.00  0.00     0.692 A 
HETATM    9  N12 UNL     1      28.913 -53.242   3.825  1.00  0.00    -0.018 N 
ATOM     10  H12 UNL     1      29.467 -52.557   3.310  1.00  0.00     0.203 HD
HETATM   11  C12 UNL     1      28.183 -52.882   4.899  1.00  0.00     0.749 A 
HETATM   12  N13 UNL     1      28.043 -51.647   5.466  1.00  0.00    -0.025 N 
ENDROOT
BRANCH   5  13
HETATM   13  S2  UNL     1      26.460 -56.185   6.149  1.00  0.00    -0.013 SA
BRANCH  13  14
HETATM   14  C7  UNL     1      27.367 -56.629   7.614  1.00  0.00     0.183 A 
HETATM   15  N3  UNL     1      27.008 -57.488   8.596  1.00  0.00    -0.243 N 
HETATM   16  N4  UNL     1      27.949 -57.546   9.525  1.00  0.00     0.093 N 
ATOM     17  H3  UNL     1      26.136 -58.017   8.618  1.00  0.00     0.191 HD
HETATM   18  C8  UNL     1      28.078 -58.230  10.682  1.00  0.00     0.727 A 
HETATM   19  C10 UNL     1      28.935 -56.717   9.147  1.00  0.00     0.735 A 
HETATM   20  N6  UNL     1      29.192 -58.068  11.434  1.00  0.00    -0.020 N 
HETATM   21  C9  UNL     1      30.194 -57.245  11.079  1.00  0.00     0.705 A 
ATOM     22  H6  UNL     1      29.274 -58.592  12.305  1.00  0.00     0.203 HD
HETATM   23  N8  UNL     1      30.049 -56.571   9.923  1.00  0.00    -0.020 N 
ATOM     24  H8  UNL     1      30.788 -55.936   9.619  1.00  0.00     0.203 HD
HETATM   25  N9  UNL     1      28.572 -56.159   7.978  1.00  0.00    -0.166 N 
ATOM     26  H9  UNL     1      29.125 -55.485   7.449  1.00  0.00     0.186 HD
BRANCH  18  27
HETATM   27  N5  UNL     1      27.127 -59.023  11.038  1.00  0.00    -0.232 N 
ATOM     28  H52 UNL     1      26.251 -58.672  11.425  1.00  0.00     0.174 HD
ATOM     29  H51 UNL     1      27.262 -60.028  10.926  1.00  0.00     0.174 HD
ENDBRANCH  18  27
BRANCH  21  30
HETATM   30  N7  UNL     1      31.216 -57.155  11.857  1.00  0.00    -0.234 N 
ATOM     31  H72 UNL     1      31.204 -57.352  12.857  1.00  0.00     0.174 HD
ATOM     32  H71 UNL     1      32.108 -56.867  11.454  1.00  0.00     0.174 HD
ENDBRANCH  21  30
ENDBRANCH  13  14
ENDBRANCH   5  13
BRANCH   8  33
HETATM   33  N11 UNL     1      29.560 -54.952   2.438  1.00  0.00    -0.234 N 
ATOM     34 2H11 UNL     1      30.068 -54.302   1.839  1.00  0.00     0.174 HD
ATOM     35 1H11 UNL     1      29.578 -55.952   2.235  1.00  0.00     0.174 HD
ENDBRANCH   8  33
BRANCH   1  36
HETATM   36  S1  UNL     1      26.624 -50.597   7.701  1.00  0.00    -0.090 SA
BRANCH  36  37
HETATM   37  C4  UNL     1      27.154 -50.840   9.371  1.00  0.00     0.082 C 
BRANCH  37  38
HETATM   38  C3  UNL     1      27.724 -49.634  10.032  1.00  0.00     0.010 C 
BRANCH  38  39
HETATM   39  C2  UNL     1      28.170 -49.892  11.449  1.00  0.00    -0.004 C 
HETATM   40  C1  UNL     1      27.699 -48.877  12.437  1.00  0.00     0.005 C 
ENDBRANCH  38  39
ENDBRANCH  37  38
ENDBRANCH  36  37
ENDBRANCH   1  36
BRANCH  12  41
HETATM   41  O1  UNL     1      28.659 -50.513   5.040  1.00  0.00    -0.267 OA
ATOM     42  H1  UNL     1      29.216 -49.956   5.572  1.00  0.00     0.246 HD
ENDBRANCH  12  41
TORSDOF 10
ENDMDL
MODEL 2
REMARK VINA RESULT: -7.078322972      3.567      7.751
REMARK  10 active torsions:
REMARK  status: ('A' for Active; 'I' for Inactive)
REMARK    1  A    between atoms: C2_2  and  C3_3 
REMARK    2  A    between atoms: C3_3  and  C4_4 
REMARK    3  A    between atoms: C4_4  and  S1_5 
REMARK    4  A    between atoms: S1_5  and  C5_6 
REMARK    5  A    between atoms: C6_10  and  S2_11 
REMARK    6  A    between atoms: S2_11  and  C7_12 
REMARK    7  A    between atoms: C8_16  and  N5_17 
REMARK    8  A    between atoms: C9_22  and  N7_23 
REMARK    9  A    between atoms: C11_33  and  N11_34 
REMARK   10  A    between atoms: N13_40  and  O1_41 
ROOT
HETATM    1  C5  UNL     1      28.365 -57.039   9.098  1.00  0.00     0.205 A 
HETATM    2  N1  UNL     1      28.485 -56.198   8.020  1.00  0.00    -0.254 N 
ATOM      3  H1  UNL     1      29.251 -55.539   7.880  1.00  0.00     0.190 HD
HETATM    4  N2  UNL     1      27.491 -56.358   7.204  1.00  0.00    -0.058 N 
HETATM    5  C6  UNL     1      27.122 -55.803   6.019  1.00  0.00     0.206 A 
HETATM    6  N10 UNL     1      26.004 -56.185   5.387  1.00  0.00    -0.167 N 
ATOM      7  H10 UNL     1      25.748 -55.755   4.499  1.00  0.00     0.186 HD
HETATM    8  C11 UNL     1      25.214 -57.141   5.930  1.00  0.00     0.692 A 
HETATM    9  N12 UNL     1      25.555 -57.710   7.106  1.00  0.00    -0.018 N 
ATOM     10  H12 UNL     1      24.972 -58.432   7.530  1.00  0.00     0.203 HD
HETATM   11  C12 UNL     1      26.689 -57.292   7.703  1.00  0.00     0.749 A 
HETATM   12  N13 UNL     1      27.243 -57.709   8.880  1.00  0.00    -0.025 N 
ENDROOT
BRANCH   5  13
HETATM   13  S2  UNL     1      28.172 -54.539   5.323  1.00  0.00    -0.013 SA
BRANCH  13  14
HETATM   14  C7  UNL     1      27.329 -52.977   5.448  1.00  0.00     0.183 A 
HETATM   15  N3  UNL     1      27.803 -51.741   5.167  1.00  0.00    -0.243 N 
HETATM   16  N4  UNL     1      26.873 -50.827   5.394  1.00  0.00     0.093 N 
ATOM     17  H3  UNL     1      28.744 -51.542   4.829  1.00  0.00     0.191 HD
HETATM   18  C8  UNL     1      26.837 -49.483   5.279  1.00  0.00     0.727 A 
HETATM   19  C10 UNL     1      25.778 -51.472   5.828  1.00  0.00     0.735 A 
HETATM   20  N6  UNL     1      25.705 -48.814   5.599  1.00  0.00    -0.020 N 
HETATM   21  C9  UNL     1      24.594 -49.433   6.035  1.00  0.00     0.705 A 
ATOM     22  H6  UNL     1      25.695 -47.798   5.506  1.00  0.00     0.203 HD
HETATM   23  N8  UNL     1      24.647 -50.774   6.144  1.00  0.00    -0.020 N 
ATOM     24  H8  UNL     1      23.824 -51.281   6.471  1.00  0.00     0.203 HD
HETATM   25  N9  UNL     1      26.064 -52.786   5.858  1.00  0.00    -0.166 N 
ATOM     26  H9  UNL     1      25.420 -53.523   6.147  1.00  0.00     0.186 HD
BRANCH  18  27
HETATM   27  N5  UNL     1      27.893 -48.872   4.864  1.00  0.00    -0.232 N 
ATOM     28  H52 UNL     1      28.660 -48.636   5.494  1.00  0.00     0.174 HD
ATOM     29  H51 UNL     1      27.956 -48.623   3.877  1.00  0.00     0.174 HD
ENDBRANCH  18  27
BRANCH  21  30
HETATM   30  N7  UNL     1      23.563 -48.715   6.315  1.00  0.00    -0.234 N 
ATOM     31  H72 UNL     1      22.609 -48.931   6.026  1.00  0.00     0.174 HD
ATOM     32  H71 UNL     1      23.698 -47.867   6.865  1.00  0.00     0.174 HD
ENDBRANCH  21  30
ENDBRANCH  13  14
ENDBRANCH   5  13
BRANCH   8  33
HETATM   33  N11 UNL     1      24.148 -57.490   5.306  1.00  0.00    -0.234 N 
ATOM     34 2H11 UNL     1      24.120 -58.340   4.742  1.00  0.00     0.174 HD
ATOM     35 1H11 UNL     1      23.320 -56.900   5.380  1.00  0.00     0.174 HD
ENDBRANCH   8  33
BRANCH   1  36
HETATM   36  S1  UNL     1      29.563 -57.018  10.381  1.00  0.00    -0.090 SA
BRANCH  36  37
HETATM   37  C4  UNL     1      28.961 -57.207  12.033  1.00  0.00     0.082 C 
BRANCH  37  38
HETATM   38  C3  UNL     1      28.818 -58.616  12.493  1.00  0.00     0.010 C 
BRANCH  38  39
HETATM   39  C2  UNL     1      29.665 -58.933  13.699  1.00  0.00    -0.004 C 
HETATM   40  C1  UNL     1      31.102 -58.553  13.559  1.00  0.00     0.005 C 
ENDBRANCH  38  39
ENDBRANCH  37  38
ENDBRANCH  36  37
ENDBRANCH   1  36
BRANCH  12  41
HETATM   41  O1  UNL     1      26.712 -58.648   9.708  1.00  0.00    -0.267 OA
ATOM     42  H1  UNL     1      26.468 -59.530   9.455  1.00  0.00     0.246 HD
ENDBRANCH  12  41
TORSDOF 10
ENDMDL
MODEL 3
REMARK VINA RESULT: -7.030678359      3.409      7.523
REMARK  10 active torsions:
REMARK  status: ('A' for Active; 'I' for Inactive)
REMARK    1  A    between atoms: C2_2  and  C3_3 
REMARK    2  A    between atoms: C3_3  and  C4_4 
REMARK    3  A    between atoms: C4_4  and  S1_5 
REMARK    4  A    between atoms: S1_5  and  C5_6 
REMARK    5  A    between atoms: C6_10  and  S2_11 
REMARK    6  A    between atoms: S2_11  and  C7_12 
REMARK    7  A    between atoms: C8_16  and  N5_17 
REMARK    8  A    between atoms: C9_22  and  N7_23 
REMARK    9  A    between atoms: C11_33  and  N11_34 
REMARK   10  A    between atoms: N13_40  and  O1_41 
ROOT
HETATM    1  C5  UNL     1      28.286 -56.992   9.011  1.00  0.00     0.205 A 
HETATM    2  N1  UNL     1      28.370 -56.119   7.956  1.00  0.00    -0.254 N 
ATOM      3  H1  UNL     1      29.110 -55.428   7.831  1.00  0.00     0.190 HD
HETATM    4  N2  UNL     1      27.379 -56.294   7.139  1.00  0.00    -0.058 N 
HETATM    5  C6  UNL     1      26.986 -55.722   5.970  1.00  0.00     0.206 A 
HETATM    6  N10 UNL     1      25.881 -56.129   5.331  1.00  0.00    -0.167 N 
ATOM      7  H10 UNL     1      25.605 -55.686   4.455  1.00  0.00     0.186 HD
HETATM    8  C11 UNL     1      25.129 -57.128   5.850  1.00  0.00     0.692 A 
HETATM    9  N12 UNL     1      25.495 -57.715   7.009  1.00  0.00    -0.018 N 
ATOM     10  H12 UNL     1      24.942 -58.469   7.415  1.00  0.00     0.203 HD
HETATM   11  C12 UNL     1      26.616 -57.271   7.614  1.00  0.00     0.749 A 
HETATM   12  N13 UNL     1      27.189 -57.698   8.778  1.00  0.00    -0.025 N 
ENDROOT
BRANCH   5  13
HETATM   13  S2  UNL     1      27.985 -54.401   5.305  1.00  0.00    -0.013 SA
BRANCH  13  14
HETATM   14  C7  UNL     1      27.174 -52.856   5.651  1.00  0.00     0.183 A 
HETATM   15  N3  UNL     1      25.930 -52.461   5.295  1.00  0.00    -0.243 N 
HETATM   16  N4  UNL     1      25.691 -51.235   5.732  1.00  0.00     0.093 N 
ATOM     17  H3  UNL     1      25.269 -53.028   4.763  1.00  0.00     0.191 HD
HETATM   18  C8  UNL     1      24.632 -50.402   5.646  1.00  0.00     0.727 A 
HETATM   19  C10 UNL     1      26.791 -50.822   6.383  1.00  0.00     0.735 A 
HETATM   20  N6  UNL     1      24.698 -49.175   6.213  1.00  0.00    -0.020 N 
HETATM   21  C9  UNL     1      25.785 -48.737   6.870  1.00  0.00     0.705 A 
ATOM     22  H6  UNL     1      23.889 -48.558   6.138  1.00  0.00     0.203 HD
HETATM   23  N8  UNL     1      26.832 -49.580   6.948  1.00  0.00    -0.020 N 
ATOM     24  H8  UNL     1      27.676 -49.284   7.439  1.00  0.00     0.203 HD
HETATM   25  N9  UNL     1      27.694 -51.819   6.329  1.00  0.00    -0.166 N 
ATOM     26  H9  UNL     1      28.627 -51.791   6.740  1.00  0.00     0.186 HD
BRANCH  18  27
HETATM   27  N5  UNL     1      23.582 -50.805   5.018  1.00  0.00    -0.232 N 
ATOM     28  H52 UNL     1      23.449 -50.628   4.022  1.00  0.00     0.174 HD
ATOM     29  H51 UNL     1      22.868 -51.316   5.539  1.00  0.00     0.174 HD
ENDBRANCH  18  27
BRANCH  21  30
HETATM   30  N7  UNL     1      25.758 -47.554   7.379  1.00  0.00    -0.234 N 
ATOM     31  H72 UNL     1      26.189 -46.731   6.959  1.00  0.00     0.174 HD
ATOM     32  H71 UNL     1      25.272 -47.419   8.266  1.00  0.00     0.174 HD
ENDBRANCH  21  30
ENDBRANCH  13  14
ENDBRANCH   5  13
BRANCH   8  33
HETATM   33  N11 UNL     1      24.075 -57.501   5.220  1.00  0.00    -0.234 N 
ATOM     34 2H11 UNL     1      24.108 -58.253   4.533  1.00  0.00     0.174 HD
ATOM     35 1H11 UNL     1      23.193 -57.028   5.417  1.00  0.00     0.174 HD
ENDBRANCH   8  33
BRANCH   1  36
HETATM   36  S1  UNL     1      29.487 -56.960  10.290  1.00  0.00    -0.090 SA
BRANCH  36  37
HETATM   37  C4  UNL     1      28.899 -57.211  11.939  1.00  0.00     0.082 C 
BRANCH  37  38
HETATM   38  C3  UNL     1      28.868 -58.631  12.387  1.00  0.00     0.010 C 
BRANCH  38  39
HETATM   39  C2  UNL     1      29.666 -58.871  13.644  1.00  0.00    -0.004 C 
HETATM   40  C1  UNL     1      31.105 -58.490  13.542  1.00  0.00     0.005 C 
ENDBRANCH  38  39
ENDBRANCH  37  38
ENDBRANCH  36  37
ENDBRANCH   1  36
BRANCH  12  41
HETATM   41  O1  UNL     1      26.697 -58.677   9.582  1.00  0.00    -0.267 OA
ATOM     42  H1  UNL     1      27.200 -59.402   9.937  1.00  0.00     0.246 HD
ENDBRANCH  12  41
TORSDOF 10
ENDMDL
MODEL 4
REMARK VINA RESULT: -6.887422905      3.165      5.592
REMARK  10 active torsions:
REMARK  status: ('A' for Active; 'I' for Inactive)
REMARK    1  A    between atoms: C2_2  and  C3_3 
REMARK    2  A    between atoms: C3_3  and  C4_4 
REMARK    3  A    between atoms: C4_4  and  S1_5 
REMARK    4  A    between atoms: S1_5  and  C5_6 
REMARK    5  A    between atoms: C6_10  and  S2_11 
REMARK    6  A    between atoms: S2_11  and  C7_12 
REMARK    7  A    between atoms: C8_16  and  N5_17 
REMARK    8  A    between atoms: C9_22  and  N7_23 
REMARK    9  A    between atoms: C11_33  and  N11_34 
REMARK   10  A    between atoms: N13_40  and  O1_41 
ROOT
HETATM    1  C5  UNL     1      23.605 -54.864   4.503  1.00  0.00     0.205 A 
HETATM    2  N1  UNL     1      24.879 -55.238   4.848  1.00  0.00    -0.254 N 
ATOM      3  H1  UNL     1      25.312 -56.127   4.597  1.00  0.00     0.190 HD
HETATM    4  N2  UNL     1      25.458 -54.305   5.537  1.00  0.00    -0.058 N 
HETATM    5  C6  UNL     1      26.680 -54.153   6.112  1.00  0.00     0.206 A 
HETATM    6  N10 UNL     1      27.004 -53.039   6.781  1.00  0.00    -0.167 N 
ATOM      7  H10 UNL     1      27.927 -52.947   7.203  1.00  0.00     0.186 HD
HETATM    8  C11 UNL     1      26.104 -52.034   6.895  1.00  0.00     0.692 A 
HETATM    9  N12 UNL     1      24.882 -52.156   6.334  1.00  0.00    -0.018 N 
ATOM     10  H12 UNL     1      24.190 -51.410   6.410  1.00  0.00     0.203 HD
HETATM   11  C12 UNL     1      24.604 -53.297   5.671  1.00  0.00     0.749 A 
HETATM   12  N13 UNL     1      23.455 -53.655   5.024  1.00  0.00    -0.025 N 
ENDROOT
BRANCH   5  13
HETATM   13  S2  UNL     1      27.851 -55.492   5.957  1.00  0.00    -0.013 SA
BRANCH  13  14
HETATM   14  C7  UNL     1      27.896 -56.380   7.497  1.00  0.00     0.183 A 
HETATM   15  N3  UNL     1      27.028 -57.312   7.955  1.00  0.00    -0.243 N 
HETATM   16  N4  UNL     1      27.397 -57.738   9.153  1.00  0.00     0.093 N 
ATOM     17  H3  UNL     1      26.205 -57.640   7.449  1.00  0.00     0.191 HD
HETATM   18  C8  UNL     1      26.888 -58.636  10.022  1.00  0.00     0.727 A 
HETATM   19  C10 UNL     1      28.519 -57.078   9.483  1.00  0.00     0.735 A 
HETATM   20  N6  UNL     1      27.514 -58.854  11.202  1.00  0.00    -0.020 N 
HETATM   21  C9  UNL     1      28.638 -58.208  11.558  1.00  0.00     0.705 A 
ATOM     22  H6  UNL     1      27.116 -59.536  11.848  1.00  0.00     0.203 HD
HETATM   23  N8  UNL     1      29.132 -57.316  10.679  1.00  0.00    -0.020 N 
ATOM     24  H8  UNL     1      29.985 -56.806  10.912  1.00  0.00     0.203 HD
HETATM   25  N9  UNL     1      28.818 -56.250   8.466  1.00  0.00    -0.166 N 
ATOM     26  H9  UNL     1      29.620 -55.621   8.434  1.00  0.00     0.186 HD
BRANCH  18  27
HETATM   27  N5  UNL     1      25.810 -59.264   9.699  1.00  0.00    -0.232 N 
ATOM     28  H52 UNL     1      25.144 -59.586  10.401  1.00  0.00     0.174 HD
ATOM     29  H51 UNL     1      25.624 -59.436   8.711  1.00  0.00     0.174 HD
ENDBRANCH  18  27
BRANCH  21  30
HETATM   30  N7  UNL     1      29.165 -58.481  12.700  1.00  0.00    -0.234 N 
ATOM     31  H72 UNL     1      29.524 -57.786  13.355  1.00  0.00     0.174 HD
ATOM     32  H71 UNL     1      29.234 -59.459  12.982  1.00  0.00     0.174 HD
ENDBRANCH  21  30
ENDBRANCH  13  14
ENDBRANCH   5  13
BRANCH   8  33
HETATM   33  N11 UNL     1      26.436 -50.976   7.540  1.00  0.00    -0.234 N 
ATOM     34 2H11 UNL     1      25.838 -50.594   8.273  1.00  0.00     0.174 HD
ATOM     35 1H11 UNL     1      27.316 -50.515   7.308  1.00  0.00     0.174 HD
ENDBRANCH   8  33
BRANCH   1  36
HETATM   36  S1  UNL     1      22.576 -55.950   3.585  1.00  0.00    -0.090 SA
BRANCH  36  37
HETATM   37  C4  UNL     1      21.515 -57.016   4.517  1.00  0.00     0.082 C 
BRANCH  37  38
HETATM   38  C3  UNL     1      21.919 -58.448   4.533  1.00  0.00     0.010 C 
BRANCH  38  39
HETATM   39  C2  UNL     1      23.404 -58.647   4.359  1.00  0.00    -0.004 C 
HETATM   40  C1  UNL     1      24.152 -58.851   5.634  1.00  0.00     0.005 C 
ENDBRANCH  38  39
ENDBRANCH  37  38
ENDBRANCH  36  37
ENDBRANCH   1  36
BRANCH  12  41
HETATM   41  O1  UNL     1      22.328 -52.899   4.948  1.00  0.00    -0.267 OA
ATOM     42  H1  UNL     1      22.161 -52.108   5.448  1.00  0.00     0.246 HD
ENDBRANCH  12  41
TORSDOF 10
ENDMDL
MODEL 5
REMARK VINA RESULT: -6.873758540      3.141      6.381
REMARK  10 active torsions:
REMARK  status: ('A' for Active; 'I' for Inactive)
REMARK    1  A    between atoms: C2_2  and  C3_3 
REMARK    2  A    between atoms: C3_3  and  C4_4 
REMARK    3  A    between atoms: C4_4  and  S1_5 
REMARK    4  A    between atoms: S1_5  and  C5_6 
REMARK    5  A    between atoms: C6_10  and  S2_11 
REMARK    6  A    between atoms: S2_11  and  C7_12 
REMARK    7  A    between atoms: C8_16  and  N5_17 
REMARK    8  A    between atoms: C9_22  and  N7_23 
REMARK    9  A    between atoms: C11_33  and  N11_34 
REMARK   10  A    between atoms: N13_40  and  O1_41 
ROOT
HETATM    1  C5  UNL     1      28.225 -55.378   6.468  1.00  0.00     0.205 A 
HETATM    2  N1  UNL     1      27.470 -54.249   6.273  1.00  0.00    -0.254 N 
ATOM      3  H1  UNL     1      26.652 -53.995   6.826  1.00  0.00     0.190 HD
HETATM    4  N2  UNL     1      27.941 -53.551   5.288  1.00  0.00    -0.058 N 
HETATM    5  C6  UNL     1      27.594 -52.381   4.687  1.00  0.00     0.206 A 
HETATM    6  N10 UNL     1      28.296 -51.890   3.658  1.00  0.00    -0.167 N 
ATOM      7  H10 UNL     1      28.017 -51.010   3.224  1.00  0.00     0.186 HD
HETATM    8  C11 UNL     1      29.375 -52.562   3.194  1.00  0.00     0.692 A 
HETATM    9  N12 UNL     1      29.743 -53.726   3.769  1.00  0.00    -0.018 N 
ATOM     10  H12 UNL     1      30.554 -54.247   3.433  1.00  0.00     0.203 HD
HETATM   11  C12 UNL     1      29.006 -54.179   4.803  1.00  0.00     0.749 A 
HETATM   12  N13 UNL     1      29.173 -55.314   5.544  1.00  0.00    -0.025 N 
ENDROOT
BRANCH   5  13
HETATM   13  S2  UNL     1      26.164 -51.512   5.309  1.00  0.00    -0.013 SA
BRANCH  13  14
HETATM   14  C7  UNL     1      26.588 -50.782   6.875  1.00  0.00     0.183 A 
HETATM   15  N3  UNL     1      26.624 -49.470   7.208  1.00  0.00    -0.243 N 
HETATM   16  N4  UNL     1      26.996 -49.325   8.470  1.00  0.00     0.093 N 
ATOM     17  H3  UNL     1      26.398 -48.703   6.576  1.00  0.00     0.191 HD
HETATM   18  C8  UNL     1      27.186 -48.254   9.270  1.00  0.00     0.727 A 
HETATM   19  C10 UNL     1      27.204 -50.554   8.969  1.00  0.00     0.735 A 
HETATM   20  N6  UNL     1      27.580 -48.438  10.551  1.00  0.00    -0.020 N 
HETATM   21  C9  UNL     1      27.794 -49.656  11.077  1.00  0.00     0.705 A 
ATOM     22  H6  UNL     1      27.719 -47.618  11.142  1.00  0.00     0.203 HD
HETATM   23  N8  UNL     1      27.600 -50.713  10.266  1.00  0.00    -0.020 N 
ATOM     24  H8  UNL     1      27.753 -51.655  10.628  1.00  0.00     0.203 HD
HETATM   25  N9  UNL     1      26.953 -51.440   7.988  1.00  0.00    -0.166 N 
ATOM     26  H9  UNL     1      27.027 -52.453   8.076  1.00  0.00     0.186 HD
BRANCH  18  27
HETATM   27  N5  UNL     1      26.986 -47.078   8.782  1.00  0.00    -0.232 N 
ATOM     28  H52 UNL     1      26.366 -46.923   7.987  1.00  0.00     0.174 HD
ATOM     29  H51 UNL     1      27.463 -46.285   9.211  1.00  0.00     0.174 HD
ENDBRANCH  18  27
BRANCH  21  30
HETATM   30  N7  UNL     1      28.167 -49.735  12.307  1.00  0.00    -0.234 N 
ATOM     31  H72 UNL     1      28.640 -48.991  12.820  1.00  0.00     0.174 HD
ATOM     32  H71 UNL     1      27.981 -50.600  12.816  1.00  0.00     0.174 HD
ENDBRANCH  21  30
ENDBRANCH  13  14
ENDBRANCH   5  13
BRANCH   8  33
HETATM   33  N11 UNL     1      30.032 -52.072   2.206  1.00  0.00    -0.234 N 
ATOM     34 2H11 UNL     1      29.676 -52.134   1.252  1.00  0.00     0.174 HD
ATOM     35 1H11 UNL     1      30.925 -51.616   2.388  1.00  0.00     0.174 HD
ENDBRANCH   8  33
BRANCH   1  36
HETATM   36  S1  UNL     1      27.799 -56.527   7.725  1.00  0.00    -0.090 SA
BRANCH  36  37
HETATM   37  C4  UNL     1      28.916 -56.663   9.089  1.00  0.00     0.082 C 
BRANCH  37  38
HETATM   38  C3  UNL     1      28.479 -57.588  10.171  1.00  0.00     0.010 C 
BRANCH  38  39
HETATM   39  C2  UNL     1      29.011 -57.203  11.528  1.00  0.00    -0.004 C 
HETATM   40  C1  UNL     1      30.453 -56.820  11.539  1.00  0.00     0.005 C 
ENDBRANCH  38  39
ENDBRANCH  37  38
ENDBRANCH  36  37
ENDBRANCH   1  36
BRANCH  12  41
HETATM   41  O1  UNL     1      30.147 -56.243   5.350  1.00  0.00    -0.267 OA
ATOM     42  H1  UNL     1      31.035 -56.058   5.065  1.00  0.00     0.246 HD
ENDBRANCH  12  41
TORSDOF 10
ENDMDL
