MODEL 1
REMARK VINA RESULT: -6.793983569      0.000      0.000
REMARK  9 active torsions:
REMARK  status: ('A' for Active; 'I' for Inactive)
REMARK    1  A    between atoms: O1_2  and  C2_3 
REMARK    2  A    between atoms: C2_3  and  C3_5 
REMARK    3  A    between atoms: C6_8  and  C7_9 
REMARK    4  A    between atoms: N1_10  and  N2_12 
REMARK    5  A    between atoms: C10_19  and  N5_20 
REMARK       I    between atoms: N5_20  and  C11_22 
REMARK    6  A    between atoms: C11_22  and  C12_24 
REMARK    7  A    between atoms: C12_24  and  N6_25 
REMARK    8  A    between atoms: C12_24  and  C13_29 
REMARK    9  A    between atoms: C13_29  and  N7_30 
ROOT
HETATM    1  N2  UNL     1      26.754 -55.585   6.520  1.00  0.00    -0.284 N 
ATOM      2  H2  UNL     1      27.654 -55.719   6.982  1.00  0.00     0.188 HD
HETATM    3  C8  UNL     1      26.532 -54.427   6.075  1.00  0.00     0.144 A 
HETATM    4  N3  UNL     1      27.497 -53.463   6.243  1.00  0.00    -0.327 N 
ATOM      5  H3  UNL     1      28.366 -53.702   6.721  1.00  0.00     0.168 HD
HETATM    6  C9  UNL     1      27.319 -52.219   5.793  1.00  0.00     0.146 A 
HETATM    7  N4  UNL     1      28.337 -51.240   5.981  1.00  0.00    -0.080 NA
HETATM    8  C10 UNL     1      26.163 -51.843   5.139  1.00  0.00     0.102 A 
HETATM    9  C14 UNL     1      25.205 -52.813   4.977  1.00  0.00     0.101 A 
HETATM   10  N8  UNL     1      24.004 -52.502   4.322  1.00  0.00    -0.098 NA
HETATM   11  C15 UNL     1      25.358 -54.127   5.436  1.00  0.00     0.116 A 
HETATM   12  C16 UNL     1      24.293 -55.078   5.218  1.00  0.00     0.105 C 
HETATM   13  N9  UNL     1      23.420 -55.821   5.027  1.00  0.00    -0.191 NA
ENDROOT
BRANCH   1  14
HETATM   14  N1  UNL     1      25.960 -56.661   6.465  1.00  0.00    -0.309 N 
HETATM   15  C7  UNL     1      25.753 -57.662   7.166  1.00  0.00     0.126 C 
ATOM     16  H1  UNL     1      25.374 -56.655   5.630  1.00  0.00     0.186 HD
BRANCH  15  17
HETATM   17  C6  UNL     1      26.452 -57.933   8.424  1.00  0.00     0.022 A 
HETATM   18  C5  UNL     1      26.161 -58.769   9.460  1.00  0.00     0.022 A 
HETATM   19  C4  UNL     1      26.999 -58.810  10.501  1.00  0.00     0.026 A 
HETATM   20  C3  UNL     1      28.102 -58.002  10.457  1.00  0.00     0.081 A 
HETATM   21  S1  UNL     1      27.938 -57.210   8.964  1.00  0.00    -0.083 SA
BRANCH  20  22
HETATM   22  C2  UNL     1      29.166 -57.872  11.482  1.00  0.00     0.299 C 
HETATM   23  O2  UNL     1      30.356 -57.828  11.090  1.00  0.00    -0.259 OA
BRANCH  22  24
HETATM   24  O1  UNL     1      28.875 -57.804  12.815  1.00  0.00    -0.322 OA
HETATM   25  C1  UNL     1      29.385 -58.704  13.785  1.00  0.00     0.213 C 
ENDBRANCH  22  24
ENDBRANCH  20  22
ENDBRANCH  15  17
ENDBRANCH   1  14
BRANCH   8  26
HETATM   26  N5  UNL     1      25.951 -50.538   4.655  1.00  0.00    -0.321 N 
HETATM   27  C11 UNL     1      25.347 -49.509   5.448  1.00  0.00     0.254 C 
HETATM   28  O3  UNL     1      24.983 -49.755   6.624  1.00  0.00    -0.271 OA
ATOM     29  H5  UNL     1      26.240 -50.316   3.702  1.00  0.00     0.169 HD
BRANCH  27  30
HETATM   30  C12 UNL     1      25.155 -48.158   4.876  1.00  0.00     0.300 C 
BRANCH  30  31
HETATM   31  N6  UNL     1      25.888 -47.954   3.664  1.00  0.00    -0.065 N 
ATOM     32  H63 UNL     1      26.888 -47.877   3.852  1.00  0.00     0.275 HD
ATOM     33  H62 UNL     1      25.891 -48.800   3.093  1.00  0.00     0.275 HD
ATOM     34  H61 UNL     1      25.556 -47.154   3.127  1.00  0.00     0.275 HD
ENDBRANCH  30  31
BRANCH  30  35
HETATM   35  C13 UNL     1      23.692 -47.851   4.610  1.00  0.00     0.272 C 
BRANCH  35  36
HETATM   36  N7  UNL     1      23.084 -47.492   5.889  1.00  0.00    -0.077 N 
ATOM     37  H73 UNL     1      22.171 -47.923   6.032  1.00  0.00     0.274 HD
ATOM     38  H72 UNL     1      23.556 -47.915   6.688  1.00  0.00     0.274 HD
ATOM     39  H71 UNL     1      23.056 -46.473   5.936  1.00  0.00     0.274 HD
ENDBRANCH  35  36
ENDBRANCH  30  35
ENDBRANCH  27  30
ENDBRANCH   8  26
TORSDOF 9
ENDMDL
MODEL 2
REMARK VINA RESULT: -6.684781561      4.009      4.485
REMARK  9 active torsions:
REMARK  status: ('A' for Active; 'I' for Inactive)
REMARK    1  A    between atoms: O1_2  and  C2_3 
REMARK    2  A    between atoms: C2_3  and  C3_5 
REMARK    3  A    between atoms: C6_8  and  C7_9 
REMARK    4  A    between atoms: N1_10  and  N2_12 
REMARK    5  A    between atoms: C10_19  and  N5_20 
REMARK       I    between atoms: N5_20  and  C11_22 
REMARK    6  A    between atoms: C11_22  and  C12_24 
REMARK    7  A    between atoms: C12_24  and  N6_25 
REMARK    8  A    between atoms: C12_24  and  C13_29 
REMARK    9  A    between atoms: C13_29  and  N7_30 
ROOT
HETATM    1  N2  UNL     1      28.911 -55.962   7.278  1.00  0.00    -0.284 N 
ATOM      2  H2  UNL     1      29.674 -55.886   7.951  1.00  0.00     0.188 HD
HETATM    3  C8  UNL     1      29.117 -55.433   6.152  1.00  0.00     0.144 A 
HETATM    4  N3  UNL     1      30.323 -54.814   5.928  1.00  0.00    -0.327 N 
ATOM      5  H3  UNL     1      31.021 -54.794   6.671  1.00  0.00     0.168 HD
HETATM    6  C9  UNL     1      30.598 -54.237   4.757  1.00  0.00     0.146 A 
HETATM    7  N4  UNL     1      31.857 -53.602   4.553  1.00  0.00    -0.080 NA
HETATM    8  C10 UNL     1      29.690 -54.234   3.718  1.00  0.00     0.102 A 
HETATM    9  C14 UNL     1      28.488 -54.856   3.951  1.00  0.00     0.101 A 
HETATM   10  N8  UNL     1      27.515 -54.892   2.941  1.00  0.00    -0.098 NA
HETATM   11  C15 UNL     1      28.164 -55.471   5.167  1.00  0.00     0.116 A 
HETATM   12  C16 UNL     1      26.873 -56.099   5.318  1.00  0.00     0.105 C 
HETATM   13  N9  UNL     1      25.827 -56.597   5.411  1.00  0.00    -0.191 NA
ENDROOT
BRANCH   1  14
HETATM   14  N1  UNL     1      27.820 -56.609   7.702  1.00  0.00    -0.309 N 
HETATM   15  C7  UNL     1      27.490 -57.248   8.712  1.00  0.00     0.126 C 
ATOM     16  H1  UNL     1      27.064 -56.566   7.019  1.00  0.00     0.186 HD
BRANCH  15  17
HETATM   17  C6  UNL     1      28.374 -57.472   9.857  1.00  0.00     0.022 A 
HETATM   18  C5  UNL     1      29.638 -57.040  10.125  1.00  0.00     0.022 A 
HETATM   19  C4  UNL     1      30.210 -57.410  11.276  1.00  0.00     0.026 A 
HETATM   20  C3  UNL     1      29.480 -58.206  12.116  1.00  0.00     0.081 A 
HETATM   21  S1  UNL     1      28.019 -58.413  11.276  1.00  0.00    -0.083 SA
BRANCH  20  22
HETATM   22  C2  UNL     1      29.895 -58.742  13.436  1.00  0.00     0.299 C 
HETATM   23  O2  UNL     1      29.031 -58.801  14.342  1.00  0.00    -0.259 OA
BRANCH  22  24
HETATM   24  O1  UNL     1      31.174 -59.161  13.672  1.00  0.00    -0.322 OA
HETATM   25  C1  UNL     1      31.511 -60.465  14.114  1.00  0.00     0.213 C 
ENDBRANCH  22  24
ENDBRANCH  20  22
ENDBRANCH  15  17
ENDBRANCH   1  14
BRANCH   8  26
HETATM   26  N5  UNL     1      29.955 -53.633   2.473  1.00  0.00    -0.321 N 
HETATM   27  C11 UNL     1      29.661 -52.258   2.202  1.00  0.00     0.254 C 
HETATM   28  O3  UNL     1      29.145 -51.539   3.092  1.00  0.00    -0.271 OA
ATOM     29  H5  UNL     1      30.375 -54.199   1.735  1.00  0.00     0.169 HD
BRANCH  27  30
HETATM   30  C12 UNL     1      29.968 -51.689   0.871  1.00  0.00     0.300 C 
BRANCH  30  31
HETATM   31  N6  UNL     1      28.796 -51.409   0.098  1.00  0.00    -0.065 N 
ATOM     32  H63 UNL     1      28.118 -50.877   0.644  1.00  0.00     0.275 HD
ATOM     33  H62 UNL     1      28.996 -50.725  -0.632  1.00  0.00     0.275 HD
ATOM     34  H61 UNL     1      28.368 -52.247  -0.296  1.00  0.00     0.275 HD
ENDBRANCH  30  31
BRANCH  30  35
HETATM   35  C13 UNL     1      30.794 -50.420   0.966  1.00  0.00     0.272 C 
BRANCH  35  36
HETATM   36  N7  UNL     1      31.730 -50.593   2.076  1.00  0.00    -0.077 N 
ATOM     37  H73 UNL     1      32.634 -50.153   1.908  1.00  0.00     0.274 HD
ATOM     38  H72 UNL     1      31.472 -50.053   2.903  1.00  0.00     0.274 HD
ATOM     39  H71 UNL     1      31.801 -51.594   2.258  1.00  0.00     0.274 HD
ENDBRANCH  35  36
ENDBRANCH  30  35
ENDBRANCH  27  30
ENDBRANCH   8  26
TORSDOF 9
ENDMDL
MODEL 3
REMARK VINA RESULT: -6.557766047      3.968      4.449
REMARK  9 active torsions:
REMARK  status: ('A' for Active; 'I' for Inactive)
REMARK    1  A    between atoms: O1_2  and  C2_3 
REMARK    2  A    between atoms: C2_3  and  C3_5 
REMARK    3  A    between atoms: C6_8  and  C7_9 
REMARK    4  A    between atoms: N1_10  and  N2_12 
REMARK    5  A    between atoms: C10_19  and  N5_20 
REMARK       I    between atoms: N5_20  and  C11_22 
REMARK    6  A    between atoms: C11_22  and  C12_24 
REMARK    7  A    between atoms: C12_24  and  N6_25 
REMARK    8  A    between atoms: C12_24  and  C13_29 
REMARK    9  A    between atoms: C13_29  and  N7_30 
ROOT
HETATM    1  N2  UNL     1      28.890 -55.887   7.242  1.00  0.00    -0.284 N 
ATOM      2  H2  UNL     1      29.673 -55.742   7.879  1.00  0.00     0.188 HD
HETATM    3  C8  UNL     1      29.047 -55.452   6.069  1.00  0.00     0.144 A 
HETATM    4  N3  UNL     1      30.232 -54.833   5.752  1.00  0.00    -0.327 N 
ATOM      5  H3  UNL     1      30.954 -54.738   6.466  1.00  0.00     0.168 HD
HETATM    6  C9  UNL     1      30.456 -54.352   4.527  1.00  0.00     0.146 A 
HETATM    7  N4  UNL     1      31.695 -53.715   4.227  1.00  0.00    -0.080 NA
HETATM    8  C10 UNL     1      29.514 -54.453   3.525  1.00  0.00     0.102 A 
HETATM    9  C14 UNL     1      28.333 -55.073   3.851  1.00  0.00     0.101 A 
HETATM   10  N8  UNL     1      27.328 -55.212   2.882  1.00  0.00    -0.098 NA
HETATM   11  C15 UNL     1      28.063 -55.589   5.125  1.00  0.00     0.116 A 
HETATM   12  C16 UNL     1      26.791 -56.225   5.374  1.00  0.00     0.105 C 
HETATM   13  N9  UNL     1      25.759 -56.731   5.544  1.00  0.00    -0.191 NA
ENDROOT
BRANCH   1  14
HETATM   14  N1  UNL     1      27.827 -56.515   7.757  1.00  0.00    -0.309 N 
HETATM   15  C7  UNL     1      27.573 -57.152   8.790  1.00  0.00     0.126 C 
ATOM     16  H1  UNL     1      27.016 -56.455   7.141  1.00  0.00     0.186 HD
BRANCH  15  17
HETATM   17  C6  UNL     1      28.547 -57.398   9.854  1.00  0.00     0.022 A 
HETATM   18  C5  UNL     1      29.837 -56.989  10.014  1.00  0.00     0.022 A 
HETATM   19  C4  UNL     1      30.499 -57.376  11.110  1.00  0.00     0.026 A 
HETATM   20  C3  UNL     1      29.831 -58.165  12.006  1.00  0.00     0.081 A 
HETATM   21  S1  UNL     1      28.300 -58.342  11.293  1.00  0.00    -0.083 SA
BRANCH  20  22
HETATM   22  C2  UNL     1      30.347 -58.716  13.283  1.00  0.00     0.299 C 
HETATM   23  O2  UNL     1      31.449 -58.290  13.702  1.00  0.00    -0.259 OA
BRANCH  22  24
HETATM   24  O1  UNL     1      29.656 -59.659  13.990  1.00  0.00    -0.322 OA
HETATM   25  C1  UNL     1      30.185 -60.925  14.348  1.00  0.00     0.213 C 
ENDBRANCH  22  24
ENDBRANCH  20  22
ENDBRANCH  15  17
ENDBRANCH   1  14
BRANCH   8  26
HETATM   26  N5  UNL     1      29.725 -53.954   2.225  1.00  0.00    -0.321 N 
HETATM   27  C11 UNL     1      29.376 -52.618   1.845  1.00  0.00     0.254 C 
HETATM   28  O3  UNL     1      28.860 -51.842   2.685  1.00  0.00    -0.271 OA
ATOM     29  H5  UNL     1      30.144 -54.569   1.527  1.00  0.00     0.169 HD
BRANCH  27  30
HETATM   30  C12 UNL     1      29.628 -52.158   0.462  1.00  0.00     0.300 C 
BRANCH  30  31
HETATM   31  N6  UNL     1      29.568 -53.217  -0.500  1.00  0.00    -0.065 N 
ATOM     32  H63 UNL     1      28.997 -52.949  -1.301  1.00  0.00     0.275 HD
ATOM     33  H62 UNL     1      30.466 -53.336  -0.967  1.00  0.00     0.275 HD
ATOM     34  H61 UNL     1      29.246 -54.099  -0.102  1.00  0.00     0.275 HD
ENDBRANCH  30  31
BRANCH  30  35
HETATM   35  C13 UNL     1      28.662 -51.068   0.035  1.00  0.00     0.272 C 
BRANCH  35  36
HETATM   36  N7  UNL     1      29.213 -49.795   0.497  1.00  0.00    -0.077 N 
ATOM     37  H73 UNL     1      29.125 -49.664   1.504  1.00  0.00     0.274 HD
ATOM     38  H72 UNL     1      30.231 -49.760   0.447  1.00  0.00     0.274 HD
ATOM     39  H71 UNL     1      28.761 -49.056  -0.043  1.00  0.00     0.274 HD
ENDBRANCH  35  36
ENDBRANCH  30  35
ENDBRANCH  27  30
ENDBRANCH   8  26
TORSDOF 9
ENDMDL
MODEL 4
REMARK VINA RESULT: -6.552821659      1.383      1.465
REMARK  9 active torsions:
REMARK  status: ('A' for Active; 'I' for Inactive)
REMARK    1  A    between atoms: O1_2  and  C2_3 
REMARK    2  A    between atoms: C2_3  and  C3_5 
REMARK    3  A    between atoms: C6_8  and  C7_9 
REMARK    4  A    between atoms: N1_10  and  N2_12 
REMARK    5  A    between atoms: C10_19  and  N5_20 
REMARK       I    between atoms: N5_20  and  C11_22 
REMARK    6  A    between atoms: C11_22  and  C12_24 
REMARK    7  A    between atoms: C12_24  and  N6_25 
REMARK    8  A    between atoms: C12_24  and  C13_29 
REMARK    9  A    between atoms: C13_29  and  N7_30 
ROOT
HETATM    1  N2  UNL     1      27.314 -55.668   6.113  1.00  0.00    -0.284 N 
ATOM      2  H2  UNL     1      28.243 -56.060   6.265  1.00  0.00     0.188 HD
HETATM    3  C8  UNL     1      27.275 -54.443   5.818  1.00  0.00     0.144 A 
HETATM    4  N3  UNL     1      28.459 -53.752   5.727  1.00  0.00    -0.327 N 
ATOM      5  H3  UNL     1      29.338 -54.240   5.899  1.00  0.00     0.168 HD
HETATM    6  C9  UNL     1      28.481 -52.454   5.419  1.00  0.00     0.146 A 
HETATM    7  N4  UNL     1      29.724 -51.763   5.331  1.00  0.00    -0.080 NA
HETATM    8  C10 UNL     1      27.322 -51.745   5.177  1.00  0.00     0.102 A 
HETATM    9  C14 UNL     1      26.144 -52.445   5.270  1.00  0.00     0.101 A 
HETATM   10  N8  UNL     1      24.925 -51.790   5.038  1.00  0.00    -0.098 NA
HETATM   11  C15 UNL     1      26.082 -53.807   5.592  1.00  0.00     0.116 A 
HETATM   12  C16 UNL     1      24.795 -54.456   5.667  1.00  0.00     0.105 C 
HETATM   13  N9  UNL     1      23.745 -54.952   5.720  1.00  0.00    -0.191 NA
ENDROOT
BRANCH   1  14
HETATM   14  N1  UNL     1      26.291 -56.519   6.252  1.00  0.00    -0.309 N 
HETATM   15  C7  UNL     1      25.927 -57.358   7.090  1.00  0.00     0.126 C 
ATOM     16  H1  UNL     1      25.643 -56.464   5.467  1.00  0.00     0.186 HD
BRANCH  15  17
HETATM   17  C6  UNL     1      26.664 -57.650   8.321  1.00  0.00     0.022 A 
HETATM   18  C5  UNL     1      26.405 -58.504   9.351  1.00  0.00     0.022 A 
HETATM   19  C4  UNL     1      27.275 -58.563  10.365  1.00  0.00     0.026 A 
HETATM   20  C3  UNL     1      28.377 -57.754  10.301  1.00  0.00     0.081 A 
HETATM   21  S1  UNL     1      28.167 -56.937   8.827  1.00  0.00    -0.083 SA
BRANCH  20  22
HETATM   22  C2  UNL     1      29.472 -57.642  11.295  1.00  0.00     0.299 C 
HETATM   23  O2  UNL     1      30.638 -57.476  10.866  1.00  0.00    -0.259 OA
BRANCH  22  24
HETATM   24  O1  UNL     1      29.233 -57.716  12.638  1.00  0.00    -0.322 OA
HETATM   25  C1  UNL     1      29.564 -58.838  13.441  1.00  0.00     0.213 C 
ENDBRANCH  22  24
ENDBRANCH  20  22
ENDBRANCH  15  17
ENDBRANCH   1  14
BRANCH   8  26
HETATM   26  N5  UNL     1      27.318 -50.376   4.850  1.00  0.00    -0.321 N 
HETATM   27  C11 UNL     1      27.293 -49.345   5.844  1.00  0.00     0.254 C 
HETATM   28  O3  UNL     1      27.274 -49.648   7.061  1.00  0.00    -0.271 OA
ATOM     29  H5  UNL     1      27.334 -50.107   3.865  1.00  0.00     0.169 HD
BRANCH  27  30
HETATM   30  C12 UNL     1      27.293 -47.925   5.429  1.00  0.00     0.300 C 
BRANCH  30  31
HETATM   31  N6  UNL     1      26.153 -47.574   4.637  1.00  0.00    -0.065 N 
ATOM     32  H63 UNL     1      25.791 -48.387   4.139  1.00  0.00     0.275 HD
ATOM     33  H62 UNL     1      25.348 -47.368   5.228  1.00  0.00     0.275 HD
ATOM     34  H61 UNL     1      26.337 -46.805   3.993  1.00  0.00     0.275 HD
ENDBRANCH  30  31
BRANCH  30  35
HETATM   35  C13 UNL     1      27.361 -46.981   6.617  1.00  0.00     0.272 C 
BRANCH  35  36
HETATM   36  N7  UNL     1      26.067 -47.042   7.294  1.00  0.00    -0.077 N 
ATOM     37  H73 UNL     1      25.668 -47.980   7.309  1.00  0.00     0.274 HD
ATOM     38  H72 UNL     1      26.140 -46.912   8.304  1.00  0.00     0.274 HD
ATOM     39  H71 UNL     1      25.458 -46.356   6.846  1.00  0.00     0.274 HD
ENDBRANCH  35  36
ENDBRANCH  30  35
ENDBRANCH  27  30
ENDBRANCH   8  26
TORSDOF 9
ENDMDL
MODEL 5
REMARK VINA RESULT: -6.393410734      4.025      5.730
REMARK  9 active torsions:
REMARK  status: ('A' for Active; 'I' for Inactive)
REMARK    1  A    between atoms: O1_2  and  C2_3 
REMARK    2  A    between atoms: C2_3  and  C3_5 
REMARK    3  A    between atoms: C6_8  and  C7_9 
REMARK    4  A    between atoms: N1_10  and  N2_12 
REMARK    5  A    between atoms: C10_19  and  N5_20 
REMARK       I    between atoms: N5_20  and  C11_22 
REMARK    6  A    between atoms: C11_22  and  C12_24 
REMARK    7  A    between atoms: C12_24  and  N6_25 
REMARK    8  A    between atoms: C12_24  and  C13_29 
REMARK    9  A    between atoms: C13_29  and  N7_30 
ROOT
HETATM    1  N2  UNL     1      26.745 -57.234   7.556  1.00  0.00    -0.284 N 
ATOM      2  H2  UNL     1      26.544 -57.939   8.264  1.00  0.00     0.188 HD
HETATM    3  C8  UNL     1      25.971 -57.218   6.561  1.00  0.00     0.144 A 
HETATM    4  N3  UNL     1      24.945 -58.130   6.513  1.00  0.00    -0.327 N 
ATOM      5  H3  UNL     1      24.831 -58.796   7.277  1.00  0.00     0.168 HD
HETATM    6  C9  UNL     1      24.094 -58.162   5.485  1.00  0.00     0.146 A 
HETATM    7  N4  UNL     1      23.038 -59.119   5.463  1.00  0.00    -0.080 NA
HETATM    8  C10 UNL     1      24.203 -57.285   4.426  1.00  0.00     0.102 A 
HETATM    9  C14 UNL     1      25.232 -56.377   4.483  1.00  0.00     0.101 A 
HETATM   10  N8  UNL     1      25.405 -55.454   3.440  1.00  0.00    -0.098 NA
HETATM   11  C15 UNL     1      26.143 -56.315   5.545  1.00  0.00     0.116 A 
HETATM   12  C16 UNL     1      27.193 -55.325   5.515  1.00  0.00     0.105 C 
HETATM   13  N9  UNL     1      28.028 -54.518   5.464  1.00  0.00    -0.191 NA
ENDROOT
BRANCH   1  14
HETATM   14  N1  UNL     1      27.796 -56.443   7.801  1.00  0.00    -0.309 N 
HETATM   15  C7  UNL     1      28.632 -56.315   8.706  1.00  0.00     0.126 C 
ATOM     16  H1  UNL     1      27.949 -55.772   7.048  1.00  0.00     0.186 HD
BRANCH  15  17
HETATM   17  C6  UNL     1      28.657 -57.143   9.914  1.00  0.00     0.022 A 
HETATM   18  C5  UNL     1      27.818 -58.120  10.361  1.00  0.00     0.022 A 
HETATM   19  C4  UNL     1      28.096 -58.718  11.524  1.00  0.00     0.026 A 
HETATM   20  C3  UNL     1      29.214 -58.306  12.195  1.00  0.00     0.081 A 
HETATM   21  S1  UNL     1      29.845 -57.097  11.183  1.00  0.00    -0.083 SA
BRANCH  20  22
HETATM   22  C2  UNL     1      29.725 -58.812  13.492  1.00  0.00     0.299 C 
HETATM   23  O2  UNL     1      28.914 -58.916  14.441  1.00  0.00    -0.259 OA
BRANCH  22  24
HETATM   24  O1  UNL     1      31.036 -59.158  13.662  1.00  0.00    -0.322 OA
HETATM   25  C1  UNL     1      31.469 -60.441  14.083  1.00  0.00     0.213 C 
ENDBRANCH  22  24
ENDBRANCH  20  22
ENDBRANCH  15  17
ENDBRANCH   1  14
BRANCH   8  26
HETATM   26  N5  UNL     1      23.319 -57.298   3.330  1.00  0.00    -0.321 N 
HETATM   27  C11 UNL     1      22.133 -56.496   3.285  1.00  0.00     0.254 C 
HETATM   28  O3  UNL     1      21.847 -55.744   4.249  1.00  0.00    -0.271 OA
ATOM     29  H5  UNL     1      23.532 -57.902   2.536  1.00  0.00     0.169 HD
BRANCH  27  30
HETATM   30  C12 UNL     1      21.248 -56.558   2.102  1.00  0.00     0.300 C 
BRANCH  30  31
HETATM   31  N6  UNL     1      21.676 -57.522   1.133  1.00  0.00    -0.065 N 
ATOM     32  H63 UNL     1      22.678 -57.443   0.959  1.00  0.00     0.275 HD
ATOM     33  H62 UNL     1      21.648 -58.465   1.521  1.00  0.00     0.275 HD
ATOM     34  H61 UNL     1      21.149 -57.471   0.261  1.00  0.00     0.275 HD
ENDBRANCH  30  31
BRANCH  30  35
HETATM   35  C13 UNL     1      19.808 -56.861   2.476  1.00  0.00     0.272 C 
BRANCH  35  36
HETATM   36  N7  UNL     1      19.839 -57.781   3.611  1.00  0.00    -0.077 N 
ATOM     37  H73 UNL     1      19.155 -58.533   3.534  1.00  0.00     0.274 HD
ATOM     38  H72 UNL     1      20.676 -58.365   3.628  1.00  0.00     0.274 HD
ATOM     39  H71 UNL     1      19.725 -57.223   4.457  1.00  0.00     0.274 HD
ENDBRANCH  35  36
ENDBRANCH  30  35
ENDBRANCH  27  30
ENDBRANCH   8  26
TORSDOF 9
ENDMDL
