MODEL 1
REMARK VINA RESULT: -8.065989249      0.000      0.000
REMARK  8 active torsions:
REMARK  status: ('A' for Active; 'I' for Inactive)
REMARK    1  A    between atoms: C2_2  and  N1_3 
REMARK    2  A    between atoms: C2_2  and  C7_21 
REMARK    3  A    between atoms: N1_3  and  O1_5 
REMARK    4  A    between atoms: O1_5  and  C3_6 
REMARK    5  A    between atoms: C3_6  and  C4_7 
REMARK       I    between atoms: C4_7  and  N2_9 
REMARK    6  A    between atoms: N2_9  and  C5_11 
REMARK    7  A    between atoms: C8_28  and  C9_29 
REMARK    8  A    between atoms: C9_29  and  C12_33 
ROOT
HETATM    1  C9  UNL     1      27.147 -53.688   4.465  1.00  0.00     0.157 C 
HETATM    2  C10 UNL     1      27.555 -52.681   3.413  1.00  0.00     0.047 C 
HETATM    3  C11 UNL     1      25.967 -54.435   4.066  1.00  0.00     0.084 C 
HETATM    4  N9  UNL     1      25.008 -55.011   3.774  1.00  0.00    -0.196 NA
ENDROOT
BRANCH   1   5
HETATM    5  C8  UNL     1      28.282 -54.500   4.861  1.00  0.00     0.087 A 
HETATM    6  C7  UNL     1      28.497 -55.454   5.785  1.00  0.00     0.099 A 
HETATM    7  N6  UNL     1      29.828 -55.858   5.611  1.00  0.00    -0.282 N 
HETATM    8  N7  UNL     1      30.381 -55.197   4.653  1.00  0.00    -0.242 N 
ATOM      9  H6  UNL     1      30.294 -56.575   6.166  1.00  0.00     0.188 HD
HETATM   10  N8  UNL     1      29.482 -54.379   4.187  1.00  0.00    -0.286 N 
ATOM     11  H7  UNL     1      31.340 -55.296   4.321  1.00  0.00     0.208 HD
ATOM     12  H8  UNL     1      29.644 -53.727   3.420  1.00  0.00     0.188 HD
BRANCH   6  13
HETATM   13  C2  UNL     1      27.683 -56.019   6.797  1.00  0.00     0.058 C 
HETATM   14  C1  UNL     1      26.408 -56.662   6.741  1.00  0.00     0.072 C 
BRANCH  13  15
HETATM   15  N1  UNL     1      28.192 -55.908   8.021  1.00  0.00    -0.269 N 
ATOM     16  H1  UNL     1      28.684 -55.064   8.314  1.00  0.00     0.194 HD
BRANCH  15  17
HETATM   17  O1  UNL     1      28.036 -56.956   8.862  1.00  0.00    -0.271 OA
BRANCH  17  18
HETATM   18  C3  UNL     1      28.948 -57.282   9.897  1.00  0.00     0.304 C 
BRANCH  18  19
HETATM   19  C4  UNL     1      28.215 -58.010  10.967  1.00  0.00     0.249 C 
HETATM   20  O2  UNL     1      27.293 -58.839  10.669  1.00  0.00    -0.271 OA
HETATM   21  N2  UNL     1      28.483 -57.837  12.343  1.00  0.00    -0.304 N 
ATOM     22  H2  UNL     1      28.048 -57.083  12.873  1.00  0.00     0.171 HD
BRANCH  21  23
HETATM   23  C5  UNL     1      29.312 -58.682  12.917  1.00  0.00     0.183 A 
HETATM   24  N3  UNL     1      29.039 -59.920  13.332  1.00  0.00    -0.168 N 
HETATM   25  C6  UNL     1      30.006 -60.605  13.880  1.00  0.00     0.684 A 
ATOM     26  H3  UNL     1      28.106 -60.318  13.224  1.00  0.00     0.186 HD
HETATM   27  N4  UNL     1      29.824 -61.842  14.320  1.00  0.00    -0.234 N 
HETATM   28  N5  UNL     1      31.203 -60.034  13.996  1.00  0.00    -0.157 N 
ATOM     29  H42 UNL     1      28.906 -62.279  14.232  1.00  0.00     0.174 HD
ATOM     30  H41 UNL     1      30.579 -62.377  14.749  1.00  0.00     0.174 HD
HETATM   31  S1  UNL     1      30.957 -58.510  13.320  1.00  0.00     0.039 SA
ATOM     32  H5  UNL     1      32.057 -60.422  14.395  1.00  0.00     0.193 HD
ENDBRANCH  21  23
ENDBRANCH  18  19
ENDBRANCH  17  18
ENDBRANCH  15  17
ENDBRANCH  13  15
ENDBRANCH   6  13
ENDBRANCH   1   5
BRANCH   1  33
HETATM   33  C12 UNL     1      26.739 -52.811   5.647  1.00  0.00     0.171 A 
HETATM   34  N10 UNL     1      25.485 -52.393   5.817  1.00  0.00    -0.278 N 
HETATM   35  N11 UNL     1      25.404 -51.644   6.926  1.00  0.00    -0.263 N 
ATOM     36  H10 UNL     1      24.704 -52.611   5.198  1.00  0.00     0.189 HD
HETATM   37  C13 UNL     1      26.668 -51.631   7.415  1.00  0.00     0.238 A 
ATOM     38  H11 UNL     1      24.579 -51.188   7.313  1.00  0.00     0.190 HD
HETATM   39  N12 UNL     1      27.038 -51.017   8.484  1.00  0.00    -0.364 N 
HETATM   40  O3  UNL     1      27.447 -52.344   6.619  1.00  0.00    -0.262 OA
ATOM     41 2H12 UNL     1      26.437 -50.467   9.097  1.00  0.00     0.159 HD
ATOM     42 1H12 UNL     1      27.989 -51.007   8.852  1.00  0.00     0.159 HD
ENDBRANCH   1  33
TORSDOF 8
ENDMDL
MODEL 2
REMARK VINA RESULT: -7.675913339      2.240      3.631
REMARK  8 active torsions:
REMARK  status: ('A' for Active; 'I' for Inactive)
REMARK    1  A    between atoms: C2_2  and  N1_3 
REMARK    2  A    between atoms: C2_2  and  C7_21 
REMARK    3  A    between atoms: N1_3  and  O1_5 
REMARK    4  A    between atoms: O1_5  and  C3_6 
REMARK    5  A    between atoms: C3_6  and  C4_7 
REMARK       I    between atoms: C4_7  and  N2_9 
REMARK    6  A    between atoms: N2_9  and  C5_11 
REMARK    7  A    between atoms: C8_28  and  C9_29 
REMARK    8  A    between atoms: C9_29  and  C12_33 
ROOT
HETATM    1  C9  UNL     1      25.178 -56.232   4.380  1.00  0.00     0.157 C 
HETATM    2  C10 UNL     1      24.428 -55.036   4.922  1.00  0.00     0.047 C 
HETATM    3  C11 UNL     1      24.624 -56.690   3.118  1.00  0.00     0.084 C 
HETATM    4  N9  UNL     1      24.169 -57.082   2.130  1.00  0.00    -0.196 NA
ENDROOT
BRANCH   1   5
HETATM    5  C8  UNL     1      26.605 -55.976   4.366  1.00  0.00     0.087 A 
HETATM    6  C7  UNL     1      27.471 -55.349   5.183  1.00  0.00     0.099 A 
HETATM    7  N6  UNL     1      28.732 -55.498   4.588  1.00  0.00    -0.282 N 
HETATM    8  N7  UNL     1      28.638 -56.167   3.490  1.00  0.00    -0.242 N 
ATOM      9  H6  UNL     1      29.602 -55.130   4.971  1.00  0.00     0.188 HD
HETATM   10  N8  UNL     1      27.381 -56.464   3.332  1.00  0.00    -0.286 N 
ATOM     11  H7  UNL     1      29.404 -56.416   2.864  1.00  0.00     0.208 HD
ATOM     12  H8  UNL     1      27.013 -56.992   2.541  1.00  0.00     0.188 HD
BRANCH   6  13
HETATM   13  C2  UNL     1      27.309 -54.627   6.392  1.00  0.00     0.058 C 
HETATM   14  C1  UNL     1      26.911 -53.278   6.645  1.00  0.00     0.072 C 
BRANCH  13  15
HETATM   15  N1  UNL     1      27.602 -55.331   7.481  1.00  0.00    -0.269 N 
ATOM     16  H1  UNL     1      27.029 -55.265   8.323  1.00  0.00     0.194 HD
BRANCH  15  17
HETATM   17  O1  UNL     1      28.686 -56.138   7.433  1.00  0.00    -0.271 OA
BRANCH  17  18
HETATM   18  C3  UNL     1      29.421 -56.544   8.575  1.00  0.00     0.304 C 
BRANCH  18  19
HETATM   19  C4  UNL     1      28.469 -57.047   9.602  1.00  0.00     0.249 C 
HETATM   20  O2  UNL     1      27.515 -57.824   9.271  1.00  0.00    -0.271 OA
HETATM   21  N2  UNL     1      28.557 -56.706  10.969  1.00  0.00    -0.304 N 
ATOM     22  H2  UNL     1      28.135 -55.849  11.327  1.00  0.00     0.171 HD
BRANCH  21  23
HETATM   23  C5  UNL     1      29.200 -57.531  11.767  1.00  0.00     0.183 A 
HETATM   24  N3  UNL     1      28.713 -58.626  12.353  1.00  0.00    -0.168 N 
HETATM   25  C6  UNL     1      29.517 -59.319  13.113  1.00  0.00     0.684 A 
ATOM     26  H3  UNL     1      27.744 -58.913  12.211  1.00  0.00     0.186 HD
HETATM   27  N4  UNL     1      29.117 -60.420  13.733  1.00  0.00    -0.234 N 
HETATM   28  N5  UNL     1      30.771 -58.897  13.263  1.00  0.00    -0.157 N 
ATOM     29  H42 UNL     1      28.157 -60.743  13.619  1.00  0.00     0.174 HD
ATOM     30  H41 UNL     1      29.746 -60.961  14.327  1.00  0.00     0.174 HD
HETATM   31  S1  UNL     1      30.811 -57.504  12.315  1.00  0.00     0.039 SA
ATOM     32  H5  UNL     1      31.520 -59.313  13.814  1.00  0.00     0.193 HD
ENDBRANCH  21  23
ENDBRANCH  18  19
ENDBRANCH  17  18
ENDBRANCH  15  17
ENDBRANCH  13  15
ENDBRANCH   6  13
ENDBRANCH   1   5
BRANCH   1  33
HETATM   33  C12 UNL     1      24.889 -57.321   5.412  1.00  0.00     0.171 A 
HETATM   34  N10 UNL     1      24.132 -58.380   5.129  1.00  0.00    -0.278 N 
HETATM   35  N11 UNL     1      24.042 -59.173   6.206  1.00  0.00    -0.263 N 
ATOM     36  H10 UNL     1      23.689 -58.561   4.228  1.00  0.00     0.189 HD
HETATM   37  C13 UNL     1      24.780 -58.542   7.150  1.00  0.00     0.238 A 
ATOM     38  H11 UNL     1      23.533 -60.052   6.293  1.00  0.00     0.190 HD
HETATM   39  N12 UNL     1      24.960 -58.968   8.351  1.00  0.00    -0.364 N 
HETATM   40  O3  UNL     1      25.276 -57.428   6.638  1.00  0.00    -0.262 OA
ATOM     41 2H12 UNL     1      24.577 -59.827   8.746  1.00  0.00     0.159 HD
ATOM     42 1H12 UNL     1      25.516 -58.493   9.062  1.00  0.00     0.159 HD
ENDBRANCH   1  33
TORSDOF 8
ENDMDL
MODEL 3
REMARK VINA RESULT: -7.644926150      4.090      7.367
REMARK  8 active torsions:
REMARK  status: ('A' for Active; 'I' for Inactive)
REMARK    1  A    between atoms: C2_2  and  N1_3 
REMARK    2  A    between atoms: C2_2  and  C7_21 
REMARK    3  A    between atoms: N1_3  and  O1_5 
REMARK    4  A    between atoms: O1_5  and  C3_6 
REMARK    5  A    between atoms: C3_6  and  C4_7 
REMARK       I    between atoms: C4_7  and  N2_9 
REMARK    6  A    between atoms: N2_9  and  C5_11 
REMARK    7  A    between atoms: C8_28  and  C9_29 
REMARK    8  A    between atoms: C9_29  and  C12_33 
ROOT
HETATM    1  C9  UNL     1      25.646 -53.798   5.535  1.00  0.00     0.157 C 
HETATM    2  C10 UNL     1      24.211 -54.155   5.851  1.00  0.00     0.047 C 
HETATM    3  C11 UNL     1      25.942 -53.954   4.121  1.00  0.00     0.084 C 
HETATM    4  N9  UNL     1      26.197 -54.107   3.004  1.00  0.00    -0.196 NA
ENDROOT
BRANCH   1   5
HETATM    5  C8  UNL     1      25.984 -52.503   6.093  1.00  0.00     0.087 A 
HETATM    6  C7  UNL     1      25.683 -51.226   5.794  1.00  0.00     0.099 A 
HETATM    7  N6  UNL     1      26.318 -50.446   6.770  1.00  0.00    -0.282 N 
HETATM    8  N7  UNL     1      26.959 -51.194   7.601  1.00  0.00    -0.242 N 
ATOM      9  H6  UNL     1      26.278 -49.428   6.816  1.00  0.00     0.188 HD
HETATM   10  N8  UNL     1      26.778 -52.426   7.221  1.00  0.00    -0.286 N 
ATOM     11  H7  UNL     1      27.504 -50.881   8.404  1.00  0.00     0.208 HD
ATOM     12  H8  UNL     1      27.175 -53.235   7.697  1.00  0.00     0.188 HD
BRANCH   6  13
HETATM   13  C2  UNL     1      24.932 -50.630   4.750  1.00  0.00     0.058 C 
HETATM   14  C1  UNL     1      23.541 -50.322   4.638  1.00  0.00     0.072 C 
BRANCH  13  15
HETATM   15  N1  UNL     1      25.654 -50.325   3.676  1.00  0.00    -0.269 N 
ATOM     16  H1  UNL     1      25.220 -50.229   2.757  1.00  0.00     0.194 HD
BRANCH  15  17
HETATM   17  O1  UNL     1      26.984 -50.148   3.845  1.00  0.00    -0.271 OA
BRANCH  17  18
HETATM   18  C3  UNL     1      27.975 -50.920   3.187  1.00  0.00     0.304 C 
BRANCH  18  19
HETATM   19  C4  UNL     1      29.040 -51.264   4.167  1.00  0.00     0.249 C 
HETATM   20  O2  UNL     1      28.967 -50.853   5.371  1.00  0.00    -0.271 OA
HETATM   21  N2  UNL     1      30.169 -52.046   3.839  1.00  0.00    -0.304 N 
ATOM     22  H2  UNL     1      31.001 -51.623   3.427  1.00  0.00     0.171 HD
BRANCH  21  23
HETATM   23  C5  UNL     1      30.112 -53.337   4.081  1.00  0.00     0.183 A 
HETATM   24  N3  UNL     1      29.285 -54.224   3.526  1.00  0.00    -0.168 N 
HETATM   25  C6  UNL     1      29.386 -55.471   3.902  1.00  0.00     0.684 A 
ATOM     26  H3  UNL     1      28.596 -53.938   2.830  1.00  0.00     0.186 HD
HETATM   27  N4  UNL     1      28.606 -56.417   3.402  1.00  0.00    -0.234 N 
HETATM   28  N5  UNL     1      30.303 -55.786   4.814  1.00  0.00    -0.157 N 
ATOM     29  H42 UNL     1      27.903 -56.175   2.703  1.00  0.00     0.174 HD
ATOM     30  H41 UNL     1      28.685 -57.391   3.695  1.00  0.00     0.174 HD
HETATM   31  S1  UNL     1      31.030 -54.302   5.142  1.00  0.00     0.039 SA
ATOM     32  H5  UNL     1      30.514 -56.700   5.214  1.00  0.00     0.193 HD
ENDBRANCH  21  23
ENDBRANCH  18  19
ENDBRANCH  17  18
ENDBRANCH  15  17
ENDBRANCH  13  15
ENDBRANCH   6  13
ENDBRANCH   1   5
BRANCH   1  33
HETATM   33  C12 UNL     1      26.444 -54.870   6.276  1.00  0.00     0.171 A 
HETATM   34  N10 UNL     1      25.994 -56.116   6.414  1.00  0.00    -0.278 N 
HETATM   35  N11 UNL     1      26.884 -56.846   7.100  1.00  0.00    -0.263 N 
ATOM     36  H10 UNL     1      25.106 -56.464   6.051  1.00  0.00     0.189 HD
HETATM   37  C13 UNL     1      27.891 -55.980   7.369  1.00  0.00     0.238 A 
ATOM     38  H11 UNL     1      26.818 -57.829   7.361  1.00  0.00     0.190 HD
HETATM   39  N12 UNL     1      28.962 -56.275   8.020  1.00  0.00    -0.364 N 
HETATM   40  O3  UNL     1      27.593 -54.798   6.857  1.00  0.00    -0.262 OA
ATOM     41 2H12 UNL     1      29.192 -57.186   8.415  1.00  0.00     0.159 HD
ATOM     42 1H12 UNL     1      29.720 -55.623   8.222  1.00  0.00     0.159 HD
ENDBRANCH   1  33
TORSDOF 8
ENDMDL
MODEL 4
REMARK VINA RESULT: -7.600131018      4.710      8.237
REMARK  8 active torsions:
REMARK  status: ('A' for Active; 'I' for Inactive)
REMARK    1  A    between atoms: C2_2  and  N1_3 
REMARK    2  A    between atoms: C2_2  and  C7_21 
REMARK    3  A    between atoms: N1_3  and  O1_5 
REMARK    4  A    between atoms: O1_5  and  C3_6 
REMARK    5  A    between atoms: C3_6  and  C4_7 
REMARK       I    between atoms: C4_7  and  N2_9 
REMARK    6  A    between atoms: N2_9  and  C5_11 
REMARK    7  A    between atoms: C8_28  and  C9_29 
REMARK    8  A    between atoms: C9_29  and  C12_33 
ROOT
HETATM    1  C9  UNL     1      27.222 -55.622   6.061  1.00  0.00     0.157 C 
HETATM    2  C10 UNL     1      25.989 -56.498   6.052  1.00  0.00     0.047 C 
HETATM    3  C11 UNL     1      28.112 -55.955   7.160  1.00  0.00     0.084 C 
HETATM    4  N9  UNL     1      28.810 -56.189   8.051  1.00  0.00    -0.196 NA
ENDROOT
BRANCH   1   5
HETATM    5  C8  UNL     1      27.844 -55.603   4.752  1.00  0.00     0.087 A 
HETATM    6  C7  UNL     1      28.977 -55.090   4.240  1.00  0.00     0.099 A 
HETATM    7  N6  UNL     1      28.993 -55.471   2.892  1.00  0.00    -0.282 N 
HETATM    8  N7  UNL     1      27.946 -56.165   2.605  1.00  0.00    -0.242 N 
ATOM      9  H6  UNL     1      29.731 -55.232   2.230  1.00  0.00     0.188 HD
HETATM   10  N8  UNL     1      27.242 -56.259   3.695  1.00  0.00    -0.286 N 
ATOM     11  H7  UNL     1      27.713 -56.565   1.696  1.00  0.00     0.208 HD
ATOM     12  H8  UNL     1      26.354 -56.756   3.761  1.00  0.00     0.188 HD
BRANCH   6  13
HETATM   13  C2  UNL     1      30.013 -54.296   4.793  1.00  0.00     0.058 C 
HETATM   14  C1  UNL     1      31.325 -54.632   5.250  1.00  0.00     0.072 C 
BRANCH  13  15
HETATM   15  N1  UNL     1      29.693 -53.012   4.927  1.00  0.00    -0.269 N 
ATOM     16  H1  UNL     1      29.736 -52.549   5.835  1.00  0.00     0.194 HD
BRANCH  15  17
HETATM   17  O1  UNL     1      29.308 -52.343   3.817  1.00  0.00    -0.271 OA
BRANCH  17  18
HETATM   18  C3  UNL     1      28.332 -51.315   3.811  1.00  0.00     0.304 C 
BRANCH  18  19
HETATM   19  C4  UNL     1      27.117 -51.812   3.110  1.00  0.00     0.249 C 
HETATM   20  O2  UNL     1      26.954 -53.060   2.909  1.00  0.00    -0.271 OA
HETATM   21  N2  UNL     1      26.096 -50.961   2.637  1.00  0.00    -0.304 N 
ATOM     22  H2  UNL     1      26.163 -50.515   1.721  1.00  0.00     0.171 HD
BRANCH  21  23
HETATM   23  C5  UNL     1      25.054 -50.762   3.414  1.00  0.00     0.183 A 
HETATM   24  N3  UNL     1      24.944 -49.871   4.400  1.00  0.00    -0.168 N 
HETATM   25  C6  UNL     1      23.818 -49.827   5.060  1.00  0.00     0.684 A 
ATOM     26  H3  UNL     1      25.715 -49.244   4.631  1.00  0.00     0.186 HD
HETATM   27  N4  UNL     1      23.624 -48.973   6.054  1.00  0.00    -0.234 N 
HETATM   28  N5  UNL     1      22.847 -50.670   4.716  1.00  0.00    -0.157 N 
ATOM     29  H42 UNL     1      24.368 -48.327   6.318  1.00  0.00     0.174 HD
ATOM     30  H41 UNL     1      22.744 -48.939   6.569  1.00  0.00     0.174 HD
HETATM   31  S1  UNL     1      23.536 -51.533   3.443  1.00  0.00     0.039 SA
ATOM     32  H5  UNL     1      21.917 -50.769   5.121  1.00  0.00     0.193 HD
ENDBRANCH  21  23
ENDBRANCH  18  19
ENDBRANCH  17  18
ENDBRANCH  15  17
ENDBRANCH  13  15
ENDBRANCH   6  13
ENDBRANCH   1   5
BRANCH   1  33
HETATM   33  C12 UNL     1      26.658 -54.232   6.353  1.00  0.00     0.171 A 
HETATM   34  N10 UNL     1      25.368 -53.943   6.186  1.00  0.00    -0.278 N 
HETATM   35  N11 UNL     1      25.146 -52.662   6.512  1.00  0.00    -0.263 N 
ATOM     36  H10 UNL     1      24.657 -54.597   5.859  1.00  0.00     0.189 HD
HETATM   37  C13 UNL     1      26.362 -52.194   6.883  1.00  0.00     0.238 A 
ATOM     38  H11 UNL     1      24.261 -52.155   6.486  1.00  0.00     0.190 HD
HETATM   39  N12 UNL     1      26.600 -50.991   7.275  1.00  0.00    -0.364 N 
HETATM   40  O3  UNL     1      27.251 -53.167   6.775  1.00  0.00    -0.262 OA
ATOM     41 2H12 UNL     1      25.914 -50.241   7.358  1.00  0.00     0.159 HD
ATOM     42 1H12 UNL     1      27.515 -50.639   7.555  1.00  0.00     0.159 HD
ENDBRANCH   1  33
TORSDOF 8
ENDMDL
MODEL 5
REMARK VINA RESULT: -7.525210614      1.771      2.463
REMARK  8 active torsions:
REMARK  status: ('A' for Active; 'I' for Inactive)
REMARK    1  A    between atoms: C2_2  and  N1_3 
REMARK    2  A    between atoms: C2_2  and  C7_21 
REMARK    3  A    between atoms: N1_3  and  O1_5 
REMARK    4  A    between atoms: O1_5  and  C3_6 
REMARK    5  A    between atoms: C3_6  and  C4_7 
REMARK       I    between atoms: C4_7  and  N2_9 
REMARK    6  A    between atoms: N2_9  and  C5_11 
REMARK    7  A    between atoms: C8_28  and  C9_29 
REMARK    8  A    between atoms: C9_29  and  C12_33 
ROOT
HETATM    1  C9  UNL     1      27.204 -52.973   4.982  1.00  0.00     0.157 C 
HETATM    2  C10 UNL     1      25.900 -53.373   4.328  1.00  0.00     0.047 C 
HETATM    3  C11 UNL     1      27.003 -52.499   6.340  1.00  0.00     0.084 C 
HETATM    4  N9  UNL     1      26.850 -52.089   7.410  1.00  0.00    -0.196 NA
ENDROOT
BRANCH   1   5
HETATM    5  C8  UNL     1      28.190 -54.026   4.839  1.00  0.00     0.087 A 
HETATM    6  C7  UNL     1      28.419 -55.208   5.440  1.00  0.00     0.099 A 
HETATM    7  N6  UNL     1      29.533 -55.756   4.789  1.00  0.00    -0.282 N 
HETATM    8  N7  UNL     1      29.951 -54.965   3.862  1.00  0.00    -0.242 N 
ATOM      9  H6  UNL     1      29.954 -56.656   5.018  1.00  0.00     0.188 HD
HETATM   10  N8  UNL     1      29.169 -53.924   3.869  1.00  0.00    -0.286 N 
ATOM     11  H7  UNL     1      30.743 -55.124   3.239  1.00  0.00     0.208 HD
ATOM     12  H8  UNL     1      29.268 -53.130   3.237  1.00  0.00     0.188 HD
BRANCH   6  13
HETATM   13  C2  UNL     1      27.791 -55.881   6.517  1.00  0.00     0.058 C 
HETATM   14  C1  UNL     1      26.529 -56.545   6.615  1.00  0.00     0.072 C 
BRANCH  13  15
HETATM   15  N1  UNL     1      28.499 -55.871   7.642  1.00  0.00    -0.269 N 
ATOM     16  H1  UNL     1      29.257 -55.203   7.784  1.00  0.00     0.194 HD
BRANCH  15  17
HETATM   17  O1  UNL     1      28.179 -56.780   8.592  1.00  0.00    -0.271 OA
BRANCH  17  18
HETATM   18  C3  UNL     1      29.071 -57.214   9.604  1.00  0.00     0.304 C 
BRANCH  18  19
HETATM   19  C4  UNL     1      28.279 -57.785  10.727  1.00  0.00     0.249 C 
HETATM   20  O2  UNL     1      27.275 -58.534  10.492  1.00  0.00    -0.271 OA
HETATM   21  N2  UNL     1      28.579 -57.544  12.085  1.00  0.00    -0.304 N 
ATOM     22  H2  UNL     1      28.229 -56.713  12.562  1.00  0.00     0.171 HD
BRANCH  21  23
HETATM   23  C5  UNL     1      29.323 -58.426  12.715  1.00  0.00     0.183 A 
HETATM   24  N3  UNL     1      28.962 -59.649  13.107  1.00  0.00    -0.168 N 
HETATM   25  C6  UNL     1      29.853 -60.379  13.722  1.00  0.00     0.684 A 
ATOM     26  H3  UNL     1      28.021 -60.002  12.932  1.00  0.00     0.186 HD
HETATM   27  N4  UNL     1      29.581 -61.605  14.146  1.00  0.00    -0.234 N 
HETATM   28  N5  UNL     1      31.065 -59.866  13.924  1.00  0.00    -0.157 N 
ATOM     29  H42 UNL     1      28.652 -61.998  13.991  1.00  0.00     0.174 HD
ATOM     30  H41 UNL     1      30.277 -62.175  14.626  1.00  0.00     0.174 HD
HETATM   31  S1  UNL     1      30.942 -58.334  13.235  1.00  0.00     0.039 SA
ATOM     32  H5  UNL     1      31.869 -60.295  14.382  1.00  0.00     0.193 HD
ENDBRANCH  21  23
ENDBRANCH  18  19
ENDBRANCH  17  18
ENDBRANCH  15  17
ENDBRANCH  13  15
ENDBRANCH   6  13
ENDBRANCH   1   5
BRANCH   1  33
HETATM   33  C12 UNL     1      27.653 -51.769   4.155  1.00  0.00     0.171 A 
HETATM   34  N10 UNL     1      28.107 -50.652   4.721  1.00  0.00    -0.278 N 
HETATM   35  N11 UNL     1      28.429 -49.762   3.772  1.00  0.00    -0.263 N 
ATOM     36  H10 UNL     1      28.195 -50.497   5.726  1.00  0.00     0.189 HD
HETATM   37  C13 UNL     1      28.149 -50.396   2.608  1.00  0.00     0.238 A 
ATOM     38  H11 UNL     1      28.801 -48.821   3.899  1.00  0.00     0.190 HD
HETATM   39  N12 UNL     1      28.315 -49.891   1.436  1.00  0.00    -0.364 N 
HETATM   40  O3  UNL     1      27.683 -51.604   2.875  1.00  0.00    -0.262 OA
ATOM     41 2H12 UNL     1      28.674 -48.959   1.230  1.00  0.00     0.159 HD
ATOM     42 1H12 UNL     1      28.104 -50.369   0.560  1.00  0.00     0.159 HD
ENDBRANCH   1  33
TORSDOF 8
ENDMDL
