MODEL 1
REMARK VINA RESULT: -9.122051660      0.000      0.000
REMARK  8 active torsions:
REMARK  status: ('A' for Active; 'I' for Inactive)
REMARK    1  A    between atoms: C2_2  and  O1_3 
REMARK    2  A    between atoms: C2_2  and  C5_16 
REMARK    3  A    between atoms: O1_3  and  C3_4 
REMARK    4  A    between atoms: C4_8  and  N3_9 
REMARK    5  A    between atoms: N3_9  and  N4_11 
REMARK    6  A    between atoms: C7_23  and  N8_24 
REMARK    7  A    between atoms: N8_24  and  N9_26 
REMARK       I    between atoms: N9_26  and  C8_28 
REMARK    8  A    between atoms: C8_28  and  C9_30 
ROOT
HETATM    1  C5  UNL     1      27.011 -55.052   5.715  1.00  0.00     0.128 A 
HETATM    2  N6  UNL     1      25.921 -55.293   4.957  1.00  0.00    -0.320 N 
ATOM      3  H6  UNL     1      25.721 -54.698   4.153  1.00  0.00     0.169 HD
HETATM    4  C6  UNL     1      25.090 -56.321   5.258  1.00  0.00     0.192 A 
HETATM    5  S1  UNL     1      23.776 -56.566   4.296  1.00  0.00    -0.040 SA
HETATM    6  N7  UNL     1      25.309 -57.133   6.304  1.00  0.00    -0.165 N 
ATOM      7  H7  UNL     1      24.671 -57.900   6.511  1.00  0.00     0.186 HD
HETATM    8  C7  UNL     1      26.388 -56.910   7.070  1.00  0.00     0.700 A 
HETATM    9  N11 UNL     1      27.195 -55.886   6.751  1.00  0.00    -0.176 N 
ATOM     10  H11 UNL     1      28.011 -55.729   7.342  1.00  0.00     0.185 HD
ENDROOT
BRANCH   1  11
HETATM   11  C2  UNL     1      27.960 -53.933   5.425  1.00  0.00     0.189 C 
HETATM   12  C1  UNL     1      27.119 -52.671   5.326  1.00  0.00     0.048 C 
BRANCH  11  13
HETATM   13  O1  UNL     1      28.613 -54.198   4.245  1.00  0.00    -0.338 OA
BRANCH  13  14
HETATM   14  C3  UNL     1      29.794 -54.907   4.450  1.00  0.00     0.343 A 
HETATM   15  N1  UNL     1      30.189 -54.889   5.848  1.00  0.00    -0.085 NA
HETATM   16  N2  UNL     1      31.429 -54.254   5.955  1.00  0.00    -0.270 N 
HETATM   17  C4  UNL     1      31.861 -53.899   4.786  1.00  0.00     0.214 A 
ATOM     18  H2  UNL     1      31.925 -54.093   6.832  1.00  0.00     0.185 HD
HETATM   19  N5  UNL     1      30.912 -54.287   3.807  1.00  0.00    -0.319 N 
ATOM     20  H5  UNL     1      31.010 -54.146   2.802  1.00  0.00     0.166 HD
BRANCH  17  21
HETATM   21  N3  UNL     1      33.095 -53.232   4.577  1.00  0.00    -0.210 N 
ATOM     22  H3  UNL     1      33.090 -52.303   4.155  1.00  0.00     0.196 HD
BRANCH  21  23
HETATM   23  N4  UNL     1      34.315 -53.805   4.929  1.00  0.00    -0.036 N 
HETATM   24  O2  UNL     1      35.379 -53.182   5.004  1.00  0.00    -0.516 OA
HETATM   25  O3  UNL     1      34.331 -55.169   5.212  1.00  0.00    -0.516 OA
ENDBRANCH  21  23
ENDBRANCH  17  21
ENDBRANCH  13  14
ENDBRANCH  11  13
ENDBRANCH   1  11
BRANCH   8  26
HETATM   26  N8  UNL     1      26.709 -57.619   8.098  1.00  0.00    -0.129 N 
ATOM     27  H8  UNL     1      26.092 -58.401   8.322  1.00  0.00     0.205 HD
BRANCH  26  28
HETATM   28  N9  UNL     1      27.787 -57.438   8.924  1.00  0.00    -0.251 N 
HETATM   29  C8  UNL     1      27.902 -58.043  10.197  1.00  0.00     0.271 C 
HETATM   30  O4  UNL     1      26.962 -58.782  10.581  1.00  0.00    -0.266 OA
ATOM     31  H9  UNL     1      28.546 -56.835   8.604  1.00  0.00     0.191 HD
BRANCH  29  32
HETATM   32  C9  UNL     1      29.037 -57.861  11.084  1.00  0.00     0.049 A 
HETATM   33  C10 UNL     1      29.126 -58.555  12.296  1.00  0.00     0.020 A 
HETATM   34  C11 UNL     1      30.185 -58.404  13.143  1.00  0.00     0.018 A 
HETATM   35  C12 UNL     1      31.199 -57.519  12.762  1.00  0.00     0.087 A 
HETATM   36  N10 UNL     1      31.116 -56.846  11.591  1.00  0.00    -0.374 N 
HETATM   37  C13 UNL     1      30.063 -57.004  10.759  1.00  0.00     0.104 A 
ATOM     38  H10 UNL     1      31.865 -56.205  11.331  1.00  0.00     0.164 HD
ENDBRANCH  29  32
ENDBRANCH  26  28
ENDBRANCH   8  26
TORSDOF 8
ENDMDL
MODEL 2
REMARK VINA RESULT: -8.936419766      0.846      1.266
REMARK  8 active torsions:
REMARK  status: ('A' for Active; 'I' for Inactive)
REMARK    1  A    between atoms: C2_2  and  O1_3 
REMARK    2  A    between atoms: C2_2  and  C5_16 
REMARK    3  A    between atoms: O1_3  and  C3_4 
REMARK    4  A    between atoms: C4_8  and  N3_9 
REMARK    5  A    between atoms: N3_9  and  N4_11 
REMARK    6  A    between atoms: C7_23  and  N8_24 
REMARK    7  A    between atoms: N8_24  and  N9_26 
REMARK       I    between atoms: N9_26  and  C8_28 
REMARK    8  A    between atoms: C8_28  and  C9_30 
ROOT
HETATM    1  C5  UNL     1      26.905 -55.039   5.329  1.00  0.00     0.128 A 
HETATM    2  N6  UNL     1      26.053 -55.347   4.328  1.00  0.00    -0.320 N 
ATOM      3  H6  UNL     1      26.023 -54.766   3.491  1.00  0.00     0.169 HD
HETATM    4  C6  UNL     1      25.239 -56.426   4.429  1.00  0.00     0.192 A 
HETATM    5  S1  UNL     1      24.221 -56.752   3.177  1.00  0.00    -0.040 SA
HETATM    6  N7  UNL     1      25.242 -57.223   5.509  1.00  0.00    -0.165 N 
ATOM      7  H7  UNL     1      24.621 -58.030   5.564  1.00  0.00     0.186 HD
HETATM    8  C7  UNL     1      26.081 -56.934   6.514  1.00  0.00     0.700 A 
HETATM    9  N11 UNL     1      26.877 -55.861   6.390  1.00  0.00    -0.176 N 
ATOM     10  H11 UNL     1      27.511 -55.653   7.162  1.00  0.00     0.185 HD
ENDROOT
BRANCH   1  11
HETATM   11  C2  UNL     1      27.826 -53.862   5.265  1.00  0.00     0.189 C 
HETATM   12  C1  UNL     1      26.942 -52.628   5.204  1.00  0.00     0.048 C 
BRANCH  11  13
HETATM   13  O1  UNL     1      28.616 -53.974   4.146  1.00  0.00    -0.338 OA
BRANCH  13  14
HETATM   14  C3  UNL     1      29.745 -54.753   4.380  1.00  0.00     0.343 A 
HETATM   15  N1  UNL     1      30.082 -54.790   5.792  1.00  0.00    -0.085 NA
HETATM   16  N2  UNL     1      31.351 -54.229   5.965  1.00  0.00    -0.270 N 
HETATM   17  C4  UNL     1      31.850 -53.872   4.824  1.00  0.00     0.214 A 
ATOM     18  H2  UNL     1      31.818 -54.117   6.865  1.00  0.00     0.185 HD
HETATM   19  N5  UNL     1      30.922 -54.182   3.798  1.00  0.00    -0.319 N 
ATOM     20  H5  UNL     1      31.069 -54.024   2.801  1.00  0.00     0.166 HD
BRANCH  17  21
HETATM   21  N3  UNL     1      33.127 -53.271   4.681  1.00  0.00    -0.210 N 
ATOM     22  H3  UNL     1      33.185 -52.308   4.348  1.00  0.00     0.196 HD
BRANCH  21  23
HETATM   23  N4  UNL     1      34.303 -53.953   4.981  1.00  0.00    -0.036 N 
HETATM   24  O2  UNL     1      34.364 -55.165   5.212  1.00  0.00    -0.516 OA
HETATM   25  O3  UNL     1      35.485 -53.217   5.022  1.00  0.00    -0.516 OA
ENDBRANCH  21  23
ENDBRANCH  17  21
ENDBRANCH  13  14
ENDBRANCH  11  13
ENDBRANCH   1  11
BRANCH   8  26
HETATM   26  N8  UNL     1      26.180 -57.622   7.601  1.00  0.00    -0.129 N 
ATOM     27  H8  UNL     1      25.433 -58.292   7.784  1.00  0.00     0.205 HD
BRANCH  26  28
HETATM   28  N9  UNL     1      27.179 -57.551   8.536  1.00  0.00    -0.251 N 
HETATM   29  C8  UNL     1      27.179 -58.306   9.733  1.00  0.00     0.271 C 
HETATM   30  O4  UNL     1      26.208 -59.076   9.939  1.00  0.00    -0.266 OA
ATOM     31  H9  UNL     1      27.963 -56.923   8.361  1.00  0.00     0.191 HD
BRANCH  29  32
HETATM   32  C9  UNL     1      28.228 -58.242  10.734  1.00  0.00     0.049 A 
HETATM   33  C10 UNL     1      29.268 -57.311  10.633  1.00  0.00     0.020 A 
HETATM   34  C11 UNL     1      30.262 -57.228  11.564  1.00  0.00     0.018 A 
HETATM   35  C12 UNL     1      30.214 -58.116  12.643  1.00  0.00     0.087 A 
HETATM   36  N10 UNL     1      29.210 -59.018  12.744  1.00  0.00    -0.374 N 
HETATM   37  C13 UNL     1      28.231 -59.091  11.817  1.00  0.00     0.104 A 
ATOM     38  H10 UNL     1      29.193 -59.657  13.538  1.00  0.00     0.164 HD
ENDBRANCH  29  32
ENDBRANCH  26  28
ENDBRANCH   8  26
TORSDOF 8
ENDMDL
MODEL 3
REMARK VINA RESULT: -8.780247732      1.850      2.446
REMARK  8 active torsions:
REMARK  status: ('A' for Active; 'I' for Inactive)
REMARK    1  A    between atoms: C2_2  and  O1_3 
REMARK    2  A    between atoms: C2_2  and  C5_16 
REMARK    3  A    between atoms: O1_3  and  C3_4 
REMARK    4  A    between atoms: C4_8  and  N3_9 
REMARK    5  A    between atoms: N3_9  and  N4_11 
REMARK    6  A    between atoms: C7_23  and  N8_24 
REMARK    7  A    between atoms: N8_24  and  N9_26 
REMARK       I    between atoms: N9_26  and  C8_28 
REMARK    8  A    between atoms: C8_28  and  C9_30 
ROOT
HETATM    1  C5  UNL     1      27.508 -52.668   5.381  1.00  0.00     0.128 A 
HETATM    2  N6  UNL     1      26.162 -52.743   5.347  1.00  0.00    -0.320 N 
ATOM      3  H6  UNL     1      25.616 -51.935   5.046  1.00  0.00     0.169 HD
HETATM    4  C6  UNL     1      25.529 -53.885   5.711  1.00  0.00     0.192 A 
HETATM    5  S1  UNL     1      23.884 -53.916   5.649  1.00  0.00    -0.040 SA
HETATM    6  N7  UNL     1      26.201 -54.975   6.113  1.00  0.00    -0.165 N 
ATOM      7  H7  UNL     1      25.705 -55.824   6.382  1.00  0.00     0.186 HD
HETATM    8  C7  UNL     1      27.541 -54.921   6.153  1.00  0.00     0.700 A 
HETATM    9  N11 UNL     1      28.143 -53.779   5.788  1.00  0.00    -0.176 N 
ATOM     10  H11 UNL     1      29.162 -53.752   5.823  1.00  0.00     0.185 HD
ENDROOT
BRANCH   1  11
HETATM   11  C2  UNL     1      28.254 -51.432   4.987  1.00  0.00     0.189 C 
HETATM   12  C1  UNL     1      27.245 -50.516   4.317  1.00  0.00     0.048 C 
BRANCH  11  13
HETATM   13  O1  UNL     1      29.270 -51.779   4.128  1.00  0.00    -0.338 OA
BRANCH  13  14
HETATM   14  C3  UNL     1      30.524 -51.484   4.656  1.00  0.00     0.343 A 
HETATM   15  N1  UNL     1      31.532 -51.401   3.613  1.00  0.00    -0.085 NA
HETATM   16  N2  UNL     1      32.495 -52.389   3.841  1.00  0.00    -0.270 N 
HETATM   17  C4  UNL     1      32.216 -53.057   4.915  1.00  0.00     0.214 A 
ATOM     18  H2  UNL     1      33.305 -52.559   3.244  1.00  0.00     0.185 HD
HETATM   19  N5  UNL     1      31.022 -52.542   5.481  1.00  0.00    -0.319 N 
ATOM     20  H5  UNL     1      30.587 -52.873   6.342  1.00  0.00     0.166 HD
BRANCH  17  21
HETATM   21  N3  UNL     1      33.012 -54.125   5.403  1.00  0.00    -0.210 N 
ATOM     22  H3  UNL     1      32.574 -54.847   5.974  1.00  0.00     0.196 HD
BRANCH  21  23
HETATM   23  N4  UNL     1      34.374 -54.218   5.126  1.00  0.00    -0.036 N 
HETATM   24  O2  UNL     1      35.111 -53.246   4.930  1.00  0.00    -0.516 OA
HETATM   25  O3  UNL     1      34.936 -55.491   5.069  1.00  0.00    -0.516 OA
ENDBRANCH  21  23
ENDBRANCH  17  21
ENDBRANCH  13  14
ENDBRANCH  11  13
ENDBRANCH   1  11
BRANCH   8  26
HETATM   26  N8  UNL     1      28.297 -55.900   6.518  1.00  0.00    -0.129 N 
ATOM     27  H8  UNL     1      28.658 -56.498   5.774  1.00  0.00     0.205 HD
BRANCH  26  28
HETATM   28  N9  UNL     1      28.670 -56.224   7.796  1.00  0.00    -0.251 N 
HETATM   29  C8  UNL     1      27.935 -57.109   8.619  1.00  0.00     0.271 C 
HETATM   30  O4  UNL     1      26.888 -57.616   8.145  1.00  0.00    -0.266 OA
ATOM     31  H9  UNL     1      29.521 -55.806   8.174  1.00  0.00     0.191 HD
BRANCH  29  32
HETATM   32  C9  UNL     1      28.314 -57.462   9.975  1.00  0.00     0.049 A 
HETATM   33  C10 UNL     1      29.421 -56.869  10.594  1.00  0.00     0.020 A 
HETATM   34  C11 UNL     1      29.794 -57.181  11.869  1.00  0.00     0.018 A 
HETATM   35  C12 UNL     1      29.027 -58.128  12.555  1.00  0.00     0.087 A 
HETATM   36  N10 UNL     1      27.957 -58.704  11.960  1.00  0.00    -0.374 N 
HETATM   37  C13 UNL     1      27.596 -58.387  10.697  1.00  0.00     0.104 A 
ATOM     38  H10 UNL     1      27.411 -59.393  12.476  1.00  0.00     0.164 HD
ENDBRANCH  29  32
ENDBRANCH  26  28
ENDBRANCH   8  26
TORSDOF 8
ENDMDL
MODEL 4
REMARK VINA RESULT: -8.729403881      1.281      1.533
REMARK  8 active torsions:
REMARK  status: ('A' for Active; 'I' for Inactive)
REMARK    1  A    between atoms: C2_2  and  O1_3 
REMARK    2  A    between atoms: C2_2  and  C5_16 
REMARK    3  A    between atoms: O1_3  and  C3_4 
REMARK    4  A    between atoms: C4_8  and  N3_9 
REMARK    5  A    between atoms: N3_9  and  N4_11 
REMARK    6  A    between atoms: C7_23  and  N8_24 
REMARK    7  A    between atoms: N8_24  and  N9_26 
REMARK       I    between atoms: N9_26  and  C8_28 
REMARK    8  A    between atoms: C8_28  and  C9_30 
ROOT
HETATM    1  C5  UNL     1      27.484 -54.049   5.377  1.00  0.00     0.128 A 
HETATM    2  N6  UNL     1      26.911 -54.458   4.227  1.00  0.00    -0.320 N 
ATOM      3  H6  UNL     1      26.909 -53.842   3.414  1.00  0.00     0.169 HD
HETATM    4  C6  UNL     1      26.337 -55.683   4.144  1.00  0.00     0.192 A 
HETATM    5  S1  UNL     1      25.653 -56.128   2.714  1.00  0.00    -0.040 SA
HETATM    6  N7  UNL     1      26.314 -56.531   5.185  1.00  0.00    -0.165 N 
ATOM      7  H7  UNL     1      25.877 -57.449   5.101  1.00  0.00     0.186 HD
HETATM    8  C7  UNL     1      26.879 -56.143   6.338  1.00  0.00     0.700 A 
HETATM    9  N11 UNL     1      27.440 -54.926   6.393  1.00  0.00    -0.176 N 
ATOM     10  H11 UNL     1      27.866 -54.644   7.276  1.00  0.00     0.185 HD
ENDROOT
BRANCH   1  11
HETATM   11  C2  UNL     1      28.133 -52.709   5.519  1.00  0.00     0.189 C 
HETATM   12  C1  UNL     1      27.014 -51.716   5.790  1.00  0.00     0.048 C 
BRANCH  11  13
HETATM   13  O1  UNL     1      28.801 -52.411   4.356  1.00  0.00    -0.338 OA
BRANCH  13  14
HETATM   14  C3  UNL     1      30.089 -51.941   4.598  1.00  0.00     0.343 A 
HETATM   15  N1  UNL     1      30.927 -52.056   3.418  1.00  0.00    -0.085 NA
HETATM   16  N2  UNL     1      31.992 -52.916   3.706  1.00  0.00    -0.270 N 
HETATM   17  C4  UNL     1      31.925 -53.326   4.933  1.00  0.00     0.214 A 
ATOM     18  H2  UNL     1      32.719 -53.182   3.042  1.00  0.00     0.185 HD
HETATM   19  N5  UNL     1      30.786 -52.750   5.550  1.00  0.00    -0.319 N 
ATOM     20  H5  UNL     1      30.507 -52.891   6.521  1.00  0.00     0.166 HD
BRANCH  17  21
HETATM   21  N3  UNL     1      32.869 -54.211   5.515  1.00  0.00    -0.210 N 
ATOM     22  H3  UNL     1      32.554 -54.871   6.226  1.00  0.00     0.196 HD
BRANCH  21  23
HETATM   23  N4  UNL     1      34.212 -54.205   5.148  1.00  0.00    -0.036 N 
HETATM   24  O2  UNL     1      34.851 -53.187   4.863  1.00  0.00    -0.516 OA
HETATM   25  O3  UNL     1      34.874 -55.430   5.100  1.00  0.00    -0.516 OA
ENDBRANCH  21  23
ENDBRANCH  17  21
ENDBRANCH  13  14
ENDBRANCH  11  13
ENDBRANCH   1  11
BRANCH   8  26
HETATM   26  N8  UNL     1      26.923 -56.866   7.405  1.00  0.00    -0.129 N 
ATOM     27  H8  UNL     1      26.163 -57.533   7.535  1.00  0.00     0.205 HD
BRANCH  26  28
HETATM   28  N9  UNL     1      27.881 -56.834   8.385  1.00  0.00    -0.251 N 
HETATM   29  C8  UNL     1      27.847 -57.661   9.533  1.00  0.00     0.271 C 
HETATM   30  O4  UNL     1      26.885 -58.460   9.650  1.00  0.00    -0.266 OA
ATOM     31  H9  UNL     1      28.658 -56.181   8.282  1.00  0.00     0.191 HD
BRANCH  29  32
HETATM   32  C9  UNL     1      28.852 -57.639  10.580  1.00  0.00     0.049 A 
HETATM   33  C10 UNL     1      28.693 -58.392  11.749  1.00  0.00     0.020 A 
HETATM   34  C11 UNL     1      29.627 -58.392  12.745  1.00  0.00     0.018 A 
HETATM   35  C12 UNL     1      30.768 -57.605  12.563  1.00  0.00     0.087 A 
HETATM   36  N10 UNL     1      30.924 -56.875  11.434  1.00  0.00    -0.374 N 
HETATM   37  C13 UNL     1      29.994 -56.883  10.454  1.00  0.00     0.104 A 
ATOM     38  H10 UNL     1      31.763 -56.307  11.320  1.00  0.00     0.164 HD
ENDBRANCH  29  32
ENDBRANCH  26  28
ENDBRANCH   8  26
TORSDOF 8
ENDMDL
MODEL 5
REMARK VINA RESULT: -8.672043244      1.813      2.201
REMARK  8 active torsions:
REMARK  status: ('A' for Active; 'I' for Inactive)
REMARK    1  A    between atoms: C2_2  and  O1_3 
REMARK    2  A    between atoms: C2_2  and  C5_16 
REMARK    3  A    between atoms: O1_3  and  C3_4 
REMARK    4  A    between atoms: C4_8  and  N3_9 
REMARK    5  A    between atoms: N3_9  and  N4_11 
REMARK    6  A    between atoms: C7_23  and  N8_24 
REMARK    7  A    between atoms: N8_24  and  N9_26 
REMARK       I    between atoms: N9_26  and  C8_28 
REMARK    8  A    between atoms: C8_28  and  C9_30 
ROOT
HETATM    1  C5  UNL     1      26.944 -54.125   5.958  1.00  0.00     0.128 A 
HETATM    2  N6  UNL     1      25.955 -54.929   5.515  1.00  0.00    -0.320 N 
ATOM      3  H6  UNL     1      25.273 -54.573   4.845  1.00  0.00     0.169 HD
HETATM    4  C6  UNL     1      25.863 -56.208   5.954  1.00  0.00     0.192 A 
HETATM    5  S1  UNL     1      24.635 -57.142   5.378  1.00  0.00    -0.040 SA
HETATM    6  N7  UNL     1      26.736 -56.725   6.833  1.00  0.00    -0.165 N 
ATOM      7  H7  UNL     1      26.648 -57.690   7.150  1.00  0.00     0.186 HD
HETATM    8  C7  UNL     1      27.726 -55.941   7.285  1.00  0.00     0.700 A 
HETATM    9  N11 UNL     1      27.796 -54.679   6.835  1.00  0.00    -0.176 N 
ATOM     10  H11 UNL     1      28.554 -54.095   7.187  1.00  0.00     0.185 HD
ENDROOT
BRANCH   1  11
HETATM   11  C2  UNL     1      27.092 -52.708   5.502  1.00  0.00     0.189 C 
HETATM   12  C1  UNL     1      25.699 -52.230   5.127  1.00  0.00     0.048 C 
BRANCH  11  13
HETATM   13  O1  UNL     1      27.945 -52.672   4.425  1.00  0.00    -0.338 OA
BRANCH  13  14
HETATM   14  C3  UNL     1      29.069 -51.891   4.676  1.00  0.00     0.343 A 
HETATM   15  N1  UNL     1      29.601 -51.317   3.451  1.00  0.00    -0.085 NA
HETATM   16  N2  UNL     1      30.899 -51.798   3.257  1.00  0.00    -0.270 N 
HETATM   17  C4  UNL     1      31.244 -52.581   4.230  1.00  0.00     0.214 A 
ATOM     18  H2  UNL     1      31.492 -51.564   2.461  1.00  0.00     0.185 HD
HETATM   19  N5  UNL     1      30.171 -52.670   5.152  1.00  0.00    -0.319 N 
ATOM     20  H5  UNL     1      30.181 -53.206   6.020  1.00  0.00     0.166 HD
BRANCH  17  21
HETATM   21  N3  UNL     1      32.507 -53.221   4.311  1.00  0.00    -0.210 N 
ATOM     22  H3  UNL     1      33.127 -53.194   3.500  1.00  0.00     0.196 HD
BRANCH  21  23
HETATM   23  N4  UNL     1      32.930 -53.883   5.461  1.00  0.00    -0.036 N 
HETATM   24  O2  UNL     1      32.405 -53.750   6.571  1.00  0.00    -0.516 OA
HETATM   25  O3  UNL     1      34.014 -54.750   5.346  1.00  0.00    -0.516 OA
ENDBRANCH  21  23
ENDBRANCH  17  21
ENDBRANCH  13  14
ENDBRANCH  11  13
ENDBRANCH   1  11
BRANCH   8  26
HETATM   26  N8  UNL     1      28.627 -56.320   8.127  1.00  0.00    -0.129 N 
ATOM     27  H8  UNL     1      29.587 -56.352   7.783  1.00  0.00     0.205 HD
BRANCH  26  28
HETATM   28  N9  UNL     1      28.435 -56.687   9.434  1.00  0.00    -0.251 N 
HETATM   29  C8  UNL     1      29.385 -57.418  10.184  1.00  0.00     0.271 C 
HETATM   30  O4  UNL     1      30.456 -57.745   9.614  1.00  0.00    -0.266 OA
ATOM     31  H9  UNL     1      27.562 -56.419   9.889  1.00  0.00     0.191 HD
BRANCH  29  32
HETATM   32  C9  UNL     1      29.197 -57.815  11.568  1.00  0.00     0.049 A 
HETATM   33  C10 UNL     1      30.275 -58.249  12.349  1.00  0.00     0.020 A 
HETATM   34  C11 UNL     1      30.123 -58.622  13.653  1.00  0.00     0.018 A 
HETATM   35  C12 UNL     1      28.838 -58.558  14.199  1.00  0.00     0.087 A 
HETATM   36  N10 UNL     1      27.793 -58.139  13.448  1.00  0.00    -0.374 N 
HETATM   37  C13 UNL     1      27.955 -57.771  12.158  1.00  0.00     0.104 A 
ATOM     38  H10 UNL     1      26.864 -58.099  13.865  1.00  0.00     0.164 HD
ENDBRANCH  29  32
ENDBRANCH  26  28
ENDBRANCH   8  26
TORSDOF 8
ENDMDL
