MODEL 1
REMARK VINA RESULT: -6.147542091      0.000      0.000
REMARK  0 active torsions:
REMARK  status: ('A' for Active; 'I' for Inactive)
ROOT
HETATM    1  N1  UNL     1     -31.736   8.324 -37.804  1.00  0.00    -0.366 N 
ATOM      2  H11 UNL     1     -32.318   9.150 -37.937  1.00  0.00     0.159 HD
ATOM      3  H12 UNL     1     -30.924   8.238 -37.192  1.00  0.00     0.159 HD
HETATM    4  C1  UNL     1     -32.043   7.245 -38.480  1.00  0.00     0.212 C 
HETATM    5  N2  UNL     1     -31.237   6.100 -38.296  1.00  0.00    -0.356 N 
ATOM      6  H2  UNL     1     -30.521   6.173 -37.572  1.00  0.00     0.163 HD
HETATM    7  C2  UNL     1     -31.292   4.843 -38.995  1.00  0.00     0.132 C 
HETATM    8  C3  UNL     1     -32.628   4.210 -39.089  1.00  0.00    -0.022 C 
HETATM    9  C4  UNL     1     -32.693   3.462 -40.427  1.00  0.00     0.011 C 
HETATM   10  C5  UNL     1     -31.996   2.109 -40.313  1.00  0.00     0.001 C 
HETATM   11  C6  UNL     1     -32.806   1.150 -39.468  1.00  0.00     0.000 C 
HETATM   12  C7  UNL     1     -33.614   2.031 -38.501  1.00  0.00     0.001 C 
HETATM   13  C8  UNL     1     -32.678   3.098 -38.026  1.00  0.00     0.011 C 
HETATM   14  C9  UNL     1     -33.809   5.069 -38.863  1.00  0.00     0.038 C 
HETATM   15  C10 UNL     1     -33.960   6.262 -39.725  1.00  0.00     0.179 C 
HETATM   16  O1  UNL     1     -33.167   7.364 -39.326  1.00  0.00    -0.323 OA
ENDROOT
TORSDOF 0
ENDMDL
MODEL 2
REMARK VINA RESULT: -5.668353999      1.490      2.360
REMARK  0 active torsions:
REMARK  status: ('A' for Active; 'I' for Inactive)
ROOT
HETATM    1  N1  UNL     1     -32.479   7.671 -39.175  1.00  0.00    -0.366 N 
ATOM      2  H11 UNL     1     -31.948   8.212 -38.494  1.00  0.00     0.159 HD
ATOM      3  H12 UNL     1     -32.843   8.000 -40.069  1.00  0.00     0.159 HD
HETATM    4  C1  UNL     1     -32.733   6.417 -38.896  1.00  0.00     0.212 C 
HETATM    5  N2  UNL     1     -33.469   5.667 -39.840  1.00  0.00    -0.356 N 
ATOM      6  H2  UNL     1     -33.672   6.139 -40.721  1.00  0.00     0.163 HD
HETATM    7  C2  UNL     1     -33.971   4.323 -39.722  1.00  0.00     0.132 C 
HETATM    8  C3  UNL     1     -32.994   3.301 -39.280  1.00  0.00    -0.022 C 
HETATM    9  C4  UNL     1     -33.757   2.261 -38.450  1.00  0.00     0.011 C 
HETATM   10  C5  UNL     1     -34.468   1.268 -39.366  1.00  0.00     0.001 C 
HETATM   11  C6  UNL     1     -33.476   0.348 -40.044  1.00  0.00     0.000 C 
HETATM   12  C7  UNL     1     -32.164   1.143 -40.129  1.00  0.00     0.001 C 
HETATM   13  C8  UNL     1     -32.543   2.533 -40.536  1.00  0.00     0.011 C 
HETATM   14  C9  UNL     1     -31.768   3.774 -38.606  1.00  0.00     0.038 C 
HETATM   15  C10 UNL     1     -31.933   4.604 -37.391  1.00  0.00     0.179 C 
HETATM   16  O1  UNL     1     -32.228   5.962 -37.658  1.00  0.00    -0.323 OA
ENDROOT
TORSDOF 0
ENDMDL
MODEL 3
REMARK VINA RESULT: -5.543832088      3.870      5.375
REMARK  0 active torsions:
REMARK  status: ('A' for Active; 'I' for Inactive)
ROOT
HETATM    1  N1  UNL     1     -28.355  -0.775 -37.876  1.00  0.00    -0.366 N 
ATOM      2  H11 UNL     1     -28.377  -1.633 -37.325  1.00  0.00     0.159 HD
ATOM      3  H12 UNL     1     -27.608  -0.467 -38.499  1.00  0.00     0.159 HD
HETATM    4  C1  UNL     1     -29.381   0.034 -37.790  1.00  0.00     0.212 C 
HETATM    5  N2  UNL     1     -29.349   1.222 -38.553  1.00  0.00    -0.356 N 
ATOM      6  H2  UNL     1     -28.560   1.319 -39.192  1.00  0.00     0.163 HD
HETATM    7  C2  UNL     1     -30.285   2.315 -38.548  1.00  0.00     0.132 C 
HETATM    8  C3  UNL     1     -31.713   1.949 -38.693  1.00  0.00    -0.022 C 
HETATM    9  C4  UNL     1     -32.535   2.960 -37.884  1.00  0.00     0.011 C 
HETATM   10  C5  UNL     1     -32.726   4.249 -38.679  1.00  0.00     0.001 C 
HETATM   11  C6  UNL     1     -33.681   4.038 -39.834  1.00  0.00     0.000 C 
HETATM   12  C7  UNL     1     -33.564   2.551 -40.203  1.00  0.00     0.001 C 
HETATM   13  C8  UNL     1     -32.104   2.222 -40.157  1.00  0.00     0.011 C 
HETATM   14  C9  UNL     1     -32.093   0.550 -38.404  1.00  0.00     0.038 C 
HETATM   15  C10 UNL     1     -31.761   0.015 -37.065  1.00  0.00     0.179 C 
HETATM   16  O1  UNL     1     -30.414  -0.393 -36.927  1.00  0.00    -0.323 OA
ENDROOT
TORSDOF 0
ENDMDL
MODEL 4
REMARK VINA RESULT: -5.448006353      1.981      2.855
REMARK  0 active torsions:
REMARK  status: ('A' for Active; 'I' for Inactive)
ROOT
HETATM    1  N1  UNL     1     -34.108   6.629 -39.979  1.00  0.00    -0.366 N 
ATOM      2  H11 UNL     1     -33.938   7.585 -39.666  1.00  0.00     0.159 HD
ATOM      3  H12 UNL     1     -34.637   6.339 -40.801  1.00  0.00     0.159 HD
HETATM    4  C1  UNL     1     -33.603   5.654 -39.266  1.00  0.00     0.212 C 
HETATM    5  N2  UNL     1     -33.838   4.330 -39.700  1.00  0.00    -0.356 N 
ATOM      6  H2  UNL     1     -34.313   4.235 -40.597  1.00  0.00     0.163 HD
HETATM    7  C2  UNL     1     -33.496   3.097 -39.040  1.00  0.00     0.132 C 
HETATM    8  C3  UNL     1     -32.094   2.975 -38.577  1.00  0.00    -0.022 C 
HETATM    9  C4  UNL     1     -32.103   2.135 -37.294  1.00  0.00     0.011 C 
HETATM   10  C5  UNL     1     -32.180   0.648 -37.632  1.00  0.00     0.001 C 
HETATM   11  C6  UNL     1     -30.878   0.158 -38.227  1.00  0.00     0.000 C 
HETATM   12  C7  UNL     1     -30.241   1.385 -38.900  1.00  0.00     0.001 C 
HETATM   13  C8  UNL     1     -31.353   2.099 -39.604  1.00  0.00     0.011 C 
HETATM   14  C9  UNL     1     -31.312   4.220 -38.433  1.00  0.00     0.038 C 
HETATM   15  C10 UNL     1     -31.853   5.268 -37.539  1.00  0.00     0.179 C 
HETATM   16  O1  UNL     1     -32.870   6.056 -38.128  1.00  0.00    -0.323 OA
ENDROOT
TORSDOF 0
ENDMDL
MODEL 5
REMARK VINA RESULT: -5.234972920      3.991      5.330
REMARK  0 active torsions:
REMARK  status: ('A' for Active; 'I' for Inactive)
ROOT
HETATM    1  N1  UNL     1     -28.754  -0.694 -36.450  1.00  0.00    -0.366 N 
ATOM      2  H11 UNL     1     -27.738  -0.745 -36.522  1.00  0.00     0.159 HD
ATOM      3  H12 UNL     1     -29.339  -1.116 -35.728  1.00  0.00     0.159 HD
HETATM    4  C1  UNL     1     -29.400  -0.022 -37.369  1.00  0.00     0.212 C 
HETATM    5  N2  UNL     1     -30.808   0.048 -37.269  1.00  0.00    -0.356 N 
ATOM      6  H2  UNL     1     -31.213  -0.359 -36.426  1.00  0.00     0.163 HD
HETATM    7  C2  UNL     1     -31.745   0.619 -38.200  1.00  0.00     0.132 C 
HETATM    8  C3  UNL     1     -31.446   1.995 -38.661  1.00  0.00    -0.022 C 
HETATM    9  C4  UNL     1     -31.940   2.114 -40.109  1.00  0.00     0.011 C 
HETATM   10  C5  UNL     1     -33.445   2.370 -40.138  1.00  0.00     0.001 C 
HETATM   11  C6  UNL     1     -33.767   3.769 -39.662  1.00  0.00     0.000 C 
HETATM   12  C7  UNL     1     -32.627   4.156 -38.707  1.00  0.00     0.001 C 
HETATM   13  C8  UNL     1     -32.358   2.947 -37.866  1.00  0.00     0.011 C 
HETATM   14  C9  UNL     1     -30.064   2.487 -38.493  1.00  0.00     0.038 C 
HETATM   15  C10 UNL     1     -28.977   1.699 -39.116  1.00  0.00     0.179 C 
HETATM   16  O1  UNL     1     -28.590   0.562 -38.369  1.00  0.00    -0.323 OA
ENDROOT
TORSDOF 0
ENDMDL
