MODEL 1
REMARK VINA RESULT: -5.228726674      0.000      0.000
REMARK  2 active torsions:
REMARK  status: ('A' for Active; 'I' for Inactive)
REMARK    1  A    between atoms: C3_3  and  N1_4 
REMARK    2  A    between atoms: C10_14  and  O1_15 
ROOT
HETATM    1  C1  UNL     1     -33.302   5.537 -38.594  1.00  0.00     0.020 C 
HETATM    2  C2  UNL     1     -32.983   4.288 -38.832  1.00  0.00    -0.020 C 
HETATM    3  C3  UNL     1     -31.788   3.597 -38.294  1.00  0.00     0.149 C 
HETATM    4  C4  UNL     1     -32.255   2.430 -37.468  1.00  0.00     0.048 C 
HETATM    5  C5  UNL     1     -33.120   1.547 -38.322  1.00  0.00    -0.008 C 
HETATM    6  C6  UNL     1     -32.259   1.005 -39.442  1.00  0.00     0.009 C 
HETATM    7  C7  UNL     1     -31.812   2.152 -40.322  1.00  0.00    -0.008 C 
HETATM    8  C8  UNL     1     -30.983   3.091 -39.472  1.00  0.00     0.048 C 
HETATM    9  C9  UNL     1     -32.990   2.958 -40.842  1.00  0.00     0.047 C 
HETATM   10  C10 UNL     1     -33.857   3.425 -39.711  1.00  0.00     0.084 C 
HETATM   11  C11 UNL     1     -34.329   2.284 -38.836  1.00  0.00     0.047 C 
ENDROOT
BRANCH   3  12
HETATM   12  N1  UNL     1     -30.960   4.453 -37.488  1.00  0.00    -0.066 N 
ATOM     13  H13 UNL     1     -31.507   5.215 -37.086  1.00  0.00     0.275 HD
ATOM     14  H12 UNL     1     -30.675   3.982 -36.629  1.00  0.00     0.275 HD
ATOM     15  H11 UNL     1     -30.150   4.812 -37.992  1.00  0.00     0.275 HD
ENDBRANCH   3  12
BRANCH  10  16
HETATM   16  O1  UNL     1     -34.885   4.189 -40.214  1.00  0.00    -0.385 OA
ATOM     17  H1  UNL     1     -34.534   5.011 -40.536  1.00  0.00     0.211 HD
ENDBRANCH  10  16
TORSDOF 2
ENDMDL
MODEL 2
REMARK VINA RESULT: -4.821535401      1.913      3.042
REMARK  2 active torsions:
REMARK  status: ('A' for Active; 'I' for Inactive)
REMARK    1  A    between atoms: C3_3  and  N1_4 
REMARK    2  A    between atoms: C10_14  and  O1_15 
ROOT
HETATM    1  C1  UNL     1     -33.229   5.216 -38.430  1.00  0.00     0.020 C 
HETATM    2  C2  UNL     1     -32.954   3.967 -38.719  1.00  0.00    -0.020 C 
HETATM    3  C3  UNL     1     -33.669   3.150 -39.728  1.00  0.00     0.149 C 
HETATM    4  C4  UNL     1     -32.674   2.718 -40.769  1.00  0.00     0.048 C 
HETATM    5  C5  UNL     1     -31.552   1.983 -40.093  1.00  0.00    -0.008 C 
HETATM    6  C6  UNL     1     -32.133   0.736 -39.464  1.00  0.00     0.009 C 
HETATM    7  C7  UNL     1     -33.105   1.136 -38.375  1.00  0.00    -0.008 C 
HETATM    8  C8  UNL     1     -34.221   1.930 -39.020  1.00  0.00     0.048 C 
HETATM    9  C9  UNL     1     -32.457   2.048 -37.347  1.00  0.00     0.047 C 
HETATM   10  C10 UNL     1     -31.835   3.242 -38.010  1.00  0.00     0.084 C 
HETATM   11  C11 UNL     1     -30.845   2.853 -39.087  1.00  0.00     0.047 C 
ENDROOT
BRANCH   3  12
HETATM   12  N1  UNL     1     -34.749   3.858 -40.360  1.00  0.00    -0.066 N 
ATOM     13  H13 UNL     1     -35.481   4.083 -39.687  1.00  0.00     0.275 HD
ATOM     14  H12 UNL     1     -34.464   4.803 -40.618  1.00  0.00     0.275 HD
ATOM     15  H11 UNL     1     -35.133   3.362 -41.165  1.00  0.00     0.275 HD
ENDBRANCH   3  12
BRANCH  10  16
HETATM   16  O1  UNL     1     -31.301   4.067 -37.048  1.00  0.00    -0.385 OA
ATOM     17  H1  UNL     1     -30.483   4.428 -37.366  1.00  0.00     0.211 HD
ENDBRANCH  10  16
TORSDOF 2
ENDMDL
MODEL 3
REMARK VINA RESULT: -4.704881304      2.106      3.291
REMARK  2 active torsions:
REMARK  status: ('A' for Active; 'I' for Inactive)
REMARK    1  A    between atoms: C3_3  and  N1_4 
REMARK    2  A    between atoms: C10_14  and  O1_15 
ROOT
HETATM    1  C1  UNL     1     -35.344   1.022 -39.125  1.00  0.00     0.020 C 
HETATM    2  C2  UNL     1     -34.060   1.281 -39.061  1.00  0.00    -0.020 C 
HETATM    3  C3  UNL     1     -32.996   0.269 -38.857  1.00  0.00     0.149 C 
HETATM    4  C4  UNL     1     -32.078   0.310 -40.047  1.00  0.00     0.048 C 
HETATM    5  C5  UNL     1     -31.550   1.707 -40.205  1.00  0.00    -0.008 C 
HETATM    6  C6  UNL     1     -30.728   2.028 -38.976  1.00  0.00     0.009 C 
HETATM    7  C7  UNL     1     -31.633   2.044 -37.764  1.00  0.00    -0.008 C 
HETATM    8  C8  UNL     1     -32.227   0.660 -37.612  1.00  0.00     0.048 C 
HETATM    9  C9  UNL     1     -32.798   3.002 -37.941  1.00  0.00     0.047 C 
HETATM   10  C10 UNL     1     -33.553   2.697 -39.200  1.00  0.00     0.084 C 
HETATM   11  C11 UNL     1     -32.661   2.700 -40.423  1.00  0.00     0.047 C 
ENDROOT
BRANCH   3  12
HETATM   12  N1  UNL     1     -33.513  -1.063 -38.695  1.00  0.00    -0.066 N 
ATOM     13  H13 UNL     1     -32.755  -1.739 -38.596  1.00  0.00     0.275 HD
ATOM     14  H12 UNL     1     -33.955  -1.174 -37.783  1.00  0.00     0.275 HD
ATOM     15  H11 UNL     1     -34.150  -1.336 -39.444  1.00  0.00     0.275 HD
ENDBRANCH   3  12
BRANCH  10  16
HETATM   16  O1  UNL     1     -34.626   3.552 -39.303  1.00  0.00    -0.385 OA
ATOM     17  H1  UNL     1     -34.527   4.254 -38.671  1.00  0.00     0.211 HD
ENDBRANCH  10  16
TORSDOF 2
ENDMDL
MODEL 4
REMARK VINA RESULT: -4.704521977      1.398      1.623
REMARK  2 active torsions:
REMARK  status: ('A' for Active; 'I' for Inactive)
REMARK    1  A    between atoms: C3_3  and  N1_4 
REMARK    2  A    between atoms: C10_14  and  O1_15 
ROOT
HETATM    1  C1  UNL     1     -31.947   3.965 -37.295  1.00  0.00     0.020 C 
HETATM    2  C2  UNL     1     -32.311   3.075 -38.187  1.00  0.00    -0.020 C 
HETATM    3  C3  UNL     1     -31.668   1.754 -38.384  1.00  0.00     0.149 C 
HETATM    4  C4  UNL     1     -32.704   0.690 -38.147  1.00  0.00     0.048 C 
HETATM    5  C5  UNL     1     -33.865   0.931 -39.069  1.00  0.00    -0.008 C 
HETATM    6  C6  UNL     1     -33.364   0.780 -40.488  1.00  0.00     0.009 C 
HETATM    7  C7  UNL     1     -32.353   1.869 -40.775  1.00  0.00    -0.008 C 
HETATM    8  C8  UNL     1     -31.193   1.687 -39.820  1.00  0.00     0.048 C 
HETATM    9  C9  UNL     1     -32.923   3.252 -40.512  1.00  0.00     0.047 C 
HETATM   10  C10 UNL     1     -33.469   3.348 -39.118  1.00  0.00     0.084 C 
HETATM   11  C11 UNL     1     -34.498   2.276 -38.826  1.00  0.00     0.047 C 
ENDROOT
BRANCH   3  12
HETATM   12  N1  UNL     1     -30.550   1.539 -37.505  1.00  0.00    -0.066 N 
ATOM     13  H13 UNL     1     -30.729   0.759 -36.872  1.00  0.00     0.275 HD
ATOM     14  H12 UNL     1     -29.753   1.159 -38.016  1.00  0.00     0.275 HD
ATOM     15  H11 UNL     1     -30.284   2.376 -36.987  1.00  0.00     0.275 HD
ENDBRANCH   3  12
BRANCH  10  16
HETATM   16  O1  UNL     1     -33.932   4.624 -38.900  1.00  0.00    -0.385 OA
ATOM     17  H1  UNL     1     -34.443   4.903 -39.650  1.00  0.00     0.211 HD
ENDBRANCH  10  16
TORSDOF 2
ENDMDL
MODEL 5
REMARK VINA RESULT: -4.614653626      2.055      3.105
REMARK  2 active torsions:
REMARK  status: ('A' for Active; 'I' for Inactive)
REMARK    1  A    between atoms: C3_3  and  N1_4 
REMARK    2  A    between atoms: C10_14  and  O1_15 
ROOT
HETATM    1  C1  UNL     1     -31.694   4.134 -37.382  1.00  0.00     0.020 C 
HETATM    2  C2  UNL     1     -32.201   3.277 -38.235  1.00  0.00    -0.020 C 
HETATM    3  C3  UNL     1     -33.300   3.571 -39.186  1.00  0.00     0.149 C 
HETATM    4  C4  UNL     1     -32.782   3.354 -40.580  1.00  0.00     0.048 C 
HETATM    5  C5  UNL     1     -32.258   1.951 -40.690  1.00  0.00    -0.008 C 
HETATM    6  C6  UNL     1     -33.423   1.008 -40.478  1.00  0.00     0.009 C 
HETATM    7  C7  UNL     1     -33.938   1.167 -39.064  1.00  0.00    -0.008 C 
HETATM    8  C8  UNL     1     -34.421   2.593 -38.905  1.00  0.00     0.048 C 
HETATM    9  C9  UNL     1     -32.838   0.961 -38.036  1.00  0.00     0.047 C 
HETATM   10  C10 UNL     1     -31.673   1.865 -38.313  1.00  0.00     0.084 C 
HETATM   11  C11 UNL     1     -31.135   1.699 -39.718  1.00  0.00     0.047 C 
ENDROOT
BRANCH   3  12
HETATM   12  N1  UNL     1     -33.802   4.914 -39.064  1.00  0.00    -0.066 N 
ATOM     13  H13 UNL     1     -34.017   5.136 -38.092  1.00  0.00     0.275 HD
ATOM     14  H12 UNL     1     -33.063   5.596 -39.232  1.00  0.00     0.275 HD
ATOM     15  H11 UNL     1     -34.606   5.093 -39.665  1.00  0.00     0.275 HD
ENDBRANCH   3  12
BRANCH  10  16
HETATM   16  O1  UNL     1     -30.720   1.685 -37.338  1.00  0.00    -0.385 OA
ATOM     17  H1  UNL     1     -30.868   0.853 -36.906  1.00  0.00     0.211 HD
ENDBRANCH  10  16
TORSDOF 2
ENDMDL
