MODEL 1
REMARK VINA RESULT: -1.744650032      0.000      0.000
REMARK  2 active torsions:
REMARK  status: ('A' for Active; 'I' for Inactive)
REMARK    1  A    between atoms: C3_5  and  N3_6 
REMARK    2  A    between atoms: N3_6  and  N4_7 
ROOT
HETATM    1  C1  UNL     1       8.733  61.600  46.040  1.00  0.00     0.134 C 
HETATM    2  N1  UNL     1       8.365  60.301  45.564  1.00  0.00    -0.216 NA
HETATM    3  N2  UNL     1       6.985  60.003  45.698  1.00  0.00    -0.161 NA
HETATM    4  C2  UNL     1       7.185  59.096  44.557  1.00  0.00     0.168 C 
HETATM    5  C3  UNL     1       8.183  60.168  44.144  1.00  0.00     0.203 C 
ENDROOT
BRANCH   5   6
HETATM    6  N3  UNL     1       9.335  59.613  43.487  1.00  0.00    -0.126 NA
BRANCH   6   7
HETATM    7  N4  UNL     1      10.376  60.527  43.379  1.00  0.00    -0.347 N 
ATOM      8  H42 UNL     1      10.441  61.365  43.957  1.00  0.00     0.172 HD
ATOM      9  H41 UNL     1      11.053  60.263  42.663  1.00  0.00     0.172 HD
ENDBRANCH   6   7
ENDBRANCH   5   6
TORSDOF 2
ENDMDL
MODEL 2
REMARK VINA RESULT: -1.590397845      1.016      2.021
REMARK  2 active torsions:
REMARK  status: ('A' for Active; 'I' for Inactive)
REMARK    1  A    between atoms: C3_5  and  N3_6 
REMARK    2  A    between atoms: N3_6  and  N4_7 
ROOT
HETATM    1  C1  UNL     1       7.210  59.492  43.543  1.00  0.00     0.134 C 
HETATM    2  N1  UNL     1       7.605  60.545  44.430  1.00  0.00    -0.216 NA
HETATM    3  N2  UNL     1       7.210  60.348  45.778  1.00  0.00    -0.161 NA
HETATM    4  C2  UNL     1       8.366  61.190  46.122  1.00  0.00     0.168 C 
HETATM    5  C3  UNL     1       8.964  60.512  44.897  1.00  0.00     0.203 C 
ENDROOT
BRANCH   5   6
HETATM    6  N3  UNL     1       9.827  61.392  44.157  1.00  0.00    -0.126 NA
BRANCH   6   7
HETATM    7  N4  UNL     1      10.518  60.732  43.148  1.00  0.00    -0.347 N 
ATOM      8  H42 UNL     1      11.492  60.444  43.240  1.00  0.00     0.172 HD
ATOM      9  H41 UNL     1       9.942  60.574  42.321  1.00  0.00     0.172 HD
ENDBRANCH   6   7
ENDBRANCH   5   6
TORSDOF 2
ENDMDL
MODEL 3
REMARK VINA RESULT: -0.381420935      1.526      2.251
REMARK  2 active torsions:
REMARK  status: ('A' for Active; 'I' for Inactive)
REMARK    1  A    between atoms: C3_5  and  N3_6 
REMARK    2  A    between atoms: N3_6  and  N4_7 
ROOT
HETATM    1  C1  UNL     1       6.898  59.949  45.998  1.00  0.00     0.134 C 
HETATM    2  N1  UNL     1       7.736  60.605  45.040  1.00  0.00    -0.216 NA
HETATM    3  N2  UNL     1       8.812  61.331  45.610  1.00  0.00    -0.161 NA
HETATM    4  C2  UNL     1       9.500  61.096  44.331  1.00  0.00     0.168 C 
HETATM    5  C3  UNL     1       8.724  59.789  44.389  1.00  0.00     0.203 C 
ENDROOT
BRANCH   5   6
HETATM    6  N3  UNL     1       8.308  59.347  43.086  1.00  0.00    -0.126 NA
BRANCH   6   7
HETATM    7  N4  UNL     1       7.009  59.738  42.783  1.00  0.00    -0.347 N 
ATOM      8  H42 UNL     1       6.779  60.660  42.415  1.00  0.00     0.172 HD
ATOM      9  H41 UNL     1       6.328  59.002  42.971  1.00  0.00     0.172 HD
ENDBRANCH   6   7
ENDBRANCH   5   6
TORSDOF 2
ENDMDL
MODEL 4
REMARK VINA RESULT: -0.338964414      1.362      2.556
REMARK  2 active torsions:
REMARK  status: ('A' for Active; 'I' for Inactive)
REMARK    1  A    between atoms: C3_5  and  N3_6 
REMARK    2  A    between atoms: N3_6  and  N4_7 
ROOT
HETATM    1  C1  UNL     1      10.211  59.746  43.692  1.00  0.00     0.134 C 
HETATM    2  N1  UNL     1       8.851  60.196  43.697  1.00  0.00    -0.216 NA
HETATM    3  N2  UNL     1       7.929  59.265  43.154  1.00  0.00    -0.161 NA
HETATM    4  C2  UNL     1       6.935  59.914  44.023  1.00  0.00     0.168 C 
HETATM    5  C3  UNL     1       8.140  60.068  44.940  1.00  0.00     0.203 C 
ENDROOT
BRANCH   5   6
HETATM    6  N3  UNL     1       8.100  61.296  45.685  1.00  0.00    -0.126 NA
BRANCH   6   7
HETATM    7  N4  UNL     1       9.200  61.444  46.522  1.00  0.00    -0.347 N 
ATOM      8  H42 UNL     1       9.142  61.352  47.536  1.00  0.00     0.172 HD
ATOM      9  H41 UNL     1      10.056  61.654  46.008  1.00  0.00     0.172 HD
ENDBRANCH   6   7
ENDBRANCH   5   6
TORSDOF 2
ENDMDL
MODEL 5
REMARK VINA RESULT: -0.251649242      1.759      2.279
REMARK  2 active torsions:
REMARK  status: ('A' for Active; 'I' for Inactive)
REMARK    1  A    between atoms: C3_5  and  N3_6 
REMARK    2  A    between atoms: N3_6  and  N4_7 
ROOT
HETATM    1  C1  UNL     1      10.083  61.311  43.810  1.00  0.00     0.134 C 
HETATM    2  N1  UNL     1       9.203  60.650  44.727  1.00  0.00    -0.216 NA
HETATM    3  N2  UNL     1       8.890  61.411  45.882  1.00  0.00    -0.161 NA
HETATM    4  C2  UNL     1       7.645  60.629  45.921  1.00  0.00     0.168 C 
HETATM    5  C3  UNL     1       7.802  60.687  44.408  1.00  0.00     0.203 C 
ENDROOT
BRANCH   5   6
HETATM    6  N3  UNL     1       7.346  59.484  43.769  1.00  0.00    -0.126 NA
BRANCH   6   7
HETATM    7  N4  UNL     1       6.937  59.702  42.458  1.00  0.00    -0.347 N 
ATOM      8  H42 UNL     1       7.495  59.429  41.650  1.00  0.00     0.172 HD
ATOM      9  H41 UNL     1       6.027  60.161  42.406  1.00  0.00     0.172 HD
ENDBRANCH   6   7
ENDBRANCH   5   6
TORSDOF 2
ENDMDL
