MODEL 1
REMARK VINA RESULT: -2.039437106      0.000      0.000
REMARK  2 active torsions:
REMARK  status: ('A' for Active; 'I' for Inactive)
REMARK    1  A    between atoms: O1_2  and  N1_3 
REMARK    2  A    between atoms: N1_3  and  C2_4 
ROOT
HETATM    1  C2  UNL     1       7.861  59.618  44.638  1.00  0.00     0.330 A 
HETATM    2  C3  UNL     1       7.279  59.701  43.222  1.00  0.00     0.287 A 
HETATM    3  N2  UNL     1       8.730  59.956  43.558  1.00  0.00    -0.050 N 
ATOM      4  H21 UNL     1       9.607  59.564  43.216  1.00  0.00     0.279 HD
ATOM      5  H22 UNL     1       9.362  60.737  43.385  1.00  0.00     0.279 HD
ENDROOT
BRANCH   1   6
HETATM    6  N1  UNL     1       7.326  60.636  45.514  1.00  0.00    -0.066 NA
BRANCH   6   7
HETATM    7  O1  UNL     1       8.329  61.555  45.685  1.00  0.00    -0.289 OA
HETATM    8  C1  UNL     1       9.216  61.188  46.669  1.00  0.00     0.231 C 
ENDBRANCH   6   7
ENDBRANCH   1   6
TORSDOF 2
ENDMDL
MODEL 2
REMARK VINA RESULT: -1.918459670      1.081      1.123
REMARK  2 active torsions:
REMARK  status: ('A' for Active; 'I' for Inactive)
REMARK    1  A    between atoms: O1_2  and  N1_3 
REMARK    2  A    between atoms: N1_3  and  C2_4 
ROOT
HETATM    1  C2  UNL     1       7.873  60.393  44.259  1.00  0.00     0.330 A 
HETATM    2  C3  UNL     1       8.713  59.249  43.679  1.00  0.00     0.287 A 
HETATM    3  N2  UNL     1       7.461  59.793  43.032  1.00  0.00    -0.050 N 
ATOM      4  H21 UNL     1       7.256  60.166  42.105  1.00  0.00     0.279 HD
ATOM      5  H22 UNL     1       6.590  59.364  42.719  1.00  0.00     0.279 HD
ENDROOT
BRANCH   1   6
HETATM    6  N1  UNL     1       7.249  60.036  45.513  1.00  0.00    -0.066 NA
BRANCH   6   7
HETATM    7  O1  UNL     1       7.954  60.693  46.488  1.00  0.00    -0.289 OA
HETATM    8  C1  UNL     1       9.024  61.393  45.981  1.00  0.00     0.231 C 
ENDBRANCH   6   7
ENDBRANCH   1   6
TORSDOF 2
ENDMDL
MODEL 3
REMARK VINA RESULT: -1.831009817      1.588      2.007
REMARK  2 active torsions:
REMARK  status: ('A' for Active; 'I' for Inactive)
REMARK    1  A    between atoms: O1_2  and  N1_3 
REMARK    2  A    between atoms: N1_3  and  C2_4 
ROOT
HETATM    1  C2  UNL     1       9.391  60.836  44.869  1.00  0.00     0.330 A 
HETATM    2  C3  UNL     1       9.243  59.898  43.666  1.00  0.00     0.287 A 
HETATM    3  N2  UNL     1      10.089  61.149  43.666  1.00  0.00    -0.050 N 
ATOM      4  H21 UNL     1      11.070  61.332  43.452  1.00  0.00     0.279 HD
ATOM      5  H22 UNL     1      10.120  61.975  43.067  1.00  0.00     0.279 HD
ENDROOT
BRANCH   1   6
HETATM    6  N1  UNL     1       8.150  61.497  45.208  1.00  0.00    -0.066 NA
BRANCH   6   7
HETATM    7  O1  UNL     1       7.441  60.604  45.969  1.00  0.00    -0.289 OA
HETATM    8  C1  UNL     1       7.029  59.508  45.246  1.00  0.00     0.231 C 
ENDBRANCH   6   7
ENDBRANCH   1   6
TORSDOF 2
ENDMDL
MODEL 4
REMARK VINA RESULT: -1.777533638      1.122      1.122
REMARK  2 active torsions:
REMARK  status: ('A' for Active; 'I' for Inactive)
REMARK    1  A    between atoms: O1_2  and  N1_3 
REMARK    2  A    between atoms: N1_3  and  C2_4 
ROOT
HETATM    1  C2  UNL     1       9.116  60.232  44.512  1.00  0.00     0.330 A 
HETATM    2  C3  UNL     1       8.183  59.406  43.619  1.00  0.00     0.287 A 
HETATM    3  N2  UNL     1       9.608  59.755  43.261  1.00  0.00    -0.050 N 
ATOM      4  H21 UNL     1      10.420  59.199  42.994  1.00  0.00     0.279 HD
ATOM      5  H22 UNL     1      10.037  60.213  42.456  1.00  0.00     0.279 HD
ENDROOT
BRANCH   1   6
HETATM    6  N1  UNL     1       8.665  61.596  44.669  1.00  0.00    -0.066 NA
BRANCH   6   7
HETATM    7  O1  UNL     1       8.315  61.730  45.987  1.00  0.00    -0.289 OA
HETATM    8  C1  UNL     1       9.123  60.996  46.823  1.00  0.00     0.231 C 
ENDBRANCH   6   7
ENDBRANCH   1   6
TORSDOF 2
ENDMDL
MODEL 5
REMARK VINA RESULT: -1.516266322      6.890      7.416
REMARK  2 active torsions:
REMARK  status: ('A' for Active; 'I' for Inactive)
REMARK    1  A    between atoms: O1_2  and  N1_3 
REMARK    2  A    between atoms: N1_3  and  C2_4 
ROOT
HETATM    1  C2  UNL     1       6.447  53.394  45.766  1.00  0.00     0.330 A 
HETATM    2  C3  UNL     1       5.680  54.662  46.153  1.00  0.00     0.287 A 
HETATM    3  N2  UNL     1       5.135  53.588  45.242  1.00  0.00    -0.050 N 
ATOM      4  H21 UNL     1       4.286  53.023  45.254  1.00  0.00     0.279 HD
ATOM      5  H22 UNL     1       4.752  53.598  44.296  1.00  0.00     0.279 HD
ENDROOT
BRANCH   1   6
HETATM    6  N1  UNL     1       7.621  53.680  44.972  1.00  0.00    -0.066 NA
BRANCH   6   7
HETATM    7  O1  UNL     1       7.244  53.511  43.665  1.00  0.00    -0.289 OA
HETATM    8  C1  UNL     1       8.322  53.394  42.818  1.00  0.00     0.231 C 
ENDBRANCH   6   7
ENDBRANCH   1   6
TORSDOF 2
ENDMDL
