MODEL 1
REMARK VINA RESULT: -4.384517949      0.000      0.000
REMARK  2 active torsions:
REMARK  status: ('A' for Active; 'I' for Inactive)
REMARK    1  A    between atoms: N2_4  and  N3_6 
REMARK    2  A    between atoms: N3_6  and  C1_8 
ROOT
HETATM    1  N3  UNL     1       9.624  60.195  43.560  1.00  0.00    -0.290 N 
ATOM      2  H3  UNL     1      10.380  59.968  42.914  1.00  0.00     0.184 HD
ENDROOT
BRANCH   1   3
HETATM    3  N2  UNL     1       9.583  61.417  44.220  1.00  0.00    -0.252 N 
HETATM    4  N1  UNL     1       9.298  61.442  45.447  1.00  0.00    -0.331 N 
ATOM      5  H12 UNL     1       9.102  60.568  45.934  1.00  0.00     0.178 HD
ATOM      6  H11 UNL     1       9.267  62.339  45.931  1.00  0.00     0.178 HD
ATOM      7  H2  UNL     1       9.780  62.283  43.718  1.00  0.00     0.207 HD
ENDBRANCH   1   3
BRANCH   1   8
HETATM    8  C1  UNL     1       8.552  59.256  43.825  1.00  0.00     0.325 A 
HETATM    9  C2  UNL     1       7.393  59.633  44.629  1.00  0.00     0.290 A 
HETATM   10  N4  UNL     1       7.278  59.758  43.190  1.00  0.00    -0.048 N 
ATOM     11  H42 UNL     1       7.034  60.506  42.541  1.00  0.00     0.279 HD
ATOM     12  H41 UNL     1       6.634  59.413  42.479  1.00  0.00     0.279 HD
ENDBRANCH   1   8
TORSDOF 2
ENDMDL
MODEL 2
REMARK VINA RESULT: -4.360843275      0.992      1.094
REMARK  2 active torsions:
REMARK  status: ('A' for Active; 'I' for Inactive)
REMARK    1  A    between atoms: N2_4  and  N3_6 
REMARK    2  A    between atoms: N3_6  and  C1_8 
ROOT
HETATM    1  N3  UNL     1       9.252  59.623  43.154  1.00  0.00    -0.290 N 
ATOM      2  H3  UNL     1       9.264  59.368  42.166  1.00  0.00     0.184 HD
ENDROOT
BRANCH   1   3
HETATM    3  N2  UNL     1      10.267  60.390  43.713  1.00  0.00    -0.252 N 
HETATM    4  N1  UNL     1      10.161  61.645  43.706  1.00  0.00    -0.331 N 
ATOM      5  H12 UNL     1       9.336  62.076  43.292  1.00  0.00     0.178 HD
ATOM      6  H11 UNL     1      10.907  62.207  44.116  1.00  0.00     0.178 HD
ATOM      7  H2  UNL     1      11.087  59.942  44.123  1.00  0.00     0.207 HD
ENDBRANCH   1   3
BRANCH   1   8
HETATM    8  C1  UNL     1       8.177  59.197  44.028  1.00  0.00     0.325 A 
HETATM    9  C2  UNL     1       7.546  60.125  44.963  1.00  0.00     0.290 A 
HETATM   10  N4  UNL     1       6.915  59.944  43.670  1.00  0.00    -0.048 N 
ATOM     11  H42 UNL     1       6.623  60.558  42.910  1.00  0.00     0.279 HD
ATOM     12  H41 UNL     1       5.984  59.685  43.345  1.00  0.00     0.279 HD
ENDBRANCH   1   8
TORSDOF 2
ENDMDL
MODEL 3
REMARK VINA RESULT: -4.121919412      1.214      1.832
REMARK  2 active torsions:
REMARK  status: ('A' for Active; 'I' for Inactive)
REMARK    1  A    between atoms: N2_4  and  N3_6 
REMARK    2  A    between atoms: N3_6  and  C1_8 
ROOT
HETATM    1  N3  UNL     1       8.933  61.329  44.771  1.00  0.00    -0.290 N 
ATOM      2  H3  UNL     1       9.086  61.787  45.669  1.00  0.00     0.184 HD
ENDROOT
BRANCH   1   3
HETATM    3  N2  UNL     1       9.932  61.284  43.806  1.00  0.00    -0.252 N 
HETATM    4  N1  UNL     1      10.228  60.179  43.280  1.00  0.00    -0.331 N 
ATOM      5  H12 UNL     1       9.732  59.336  43.571  1.00  0.00     0.178 HD
ATOM      6  H11 UNL     1      10.962  60.146  42.572  1.00  0.00     0.178 HD
ATOM      7  H2  UNL     1      10.419  62.136  43.527  1.00  0.00     0.207 HD
ENDBRANCH   1   3
BRANCH   1   8
HETATM    8  C1  UNL     1       7.667  60.699  44.451  1.00  0.00     0.325 A 
HETATM    9  C2  UNL     1       7.543  59.248  44.356  1.00  0.00     0.290 A 
HETATM   10  N4  UNL     1       7.213  59.865  45.625  1.00  0.00    -0.048 N 
ATOM     11  H42 UNL     1       7.513  59.745  46.592  1.00  0.00     0.279 HD
ATOM     12  H41 UNL     1       6.405  59.862  46.247  1.00  0.00     0.279 HD
ENDBRANCH   1   8
TORSDOF 2
ENDMDL
MODEL 4
REMARK VINA RESULT: -4.067246340      1.195      1.637
REMARK  2 active torsions:
REMARK  status: ('A' for Active; 'I' for Inactive)
REMARK    1  A    between atoms: N2_4  and  N3_6 
REMARK    2  A    between atoms: N3_6  and  C1_8 
ROOT
HETATM    1  N3  UNL     1       9.061  59.392  43.783  1.00  0.00    -0.290 N 
ATOM      2  H3  UNL     1       9.146  58.376  43.827  1.00  0.00     0.184 HD
ENDROOT
BRANCH   1   3
HETATM    3  N2  UNL     1      10.123  60.186  43.368  1.00  0.00    -0.252 N 
HETATM    4  N1  UNL     1      10.122  61.411  43.660  1.00  0.00    -0.331 N 
ATOM      5  H12 UNL     1       9.345  61.799  44.195  1.00  0.00     0.178 HD
ATOM      6  H11 UNL     1      10.901  61.995  43.355  1.00  0.00     0.178 HD
ATOM      7  H2  UNL     1      10.892  59.783  42.833  1.00  0.00     0.207 HD
ENDBRANCH   1   3
BRANCH   1   8
HETATM    8  C1  UNL     1       7.829  60.061  44.152  1.00  0.00     0.325 A 
HETATM    9  C2  UNL     1       7.069  59.656  45.331  1.00  0.00     0.290 A 
HETATM   10  N4  UNL     1       8.012  60.746  45.485  1.00  0.00    -0.048 N 
ATOM     11  H42 UNL     1       8.801  60.944  46.100  1.00  0.00     0.279 HD
ATOM     12  H41 UNL     1       7.964  61.707  45.822  1.00  0.00     0.279 HD
ENDBRANCH   1   8
TORSDOF 2
ENDMDL
MODEL 5
REMARK VINA RESULT: -3.128304524      1.296      2.310
REMARK  2 active torsions:
REMARK  status: ('A' for Active; 'I' for Inactive)
REMARK    1  A    between atoms: N2_4  and  N3_6 
REMARK    2  A    between atoms: N3_6  and  C1_8 
ROOT
HETATM    1  N3  UNL     1       9.614  61.313  44.159  1.00  0.00    -0.290 N 
ATOM      2  H3  UNL     1      10.203  62.143  44.231  1.00  0.00     0.184 HD
ENDROOT
BRANCH   1   3
HETATM    3  N2  UNL     1      10.054  60.173  43.497  1.00  0.00    -0.252 N 
HETATM    4  N1  UNL     1       9.207  59.406  42.968  1.00  0.00    -0.331 N 
ATOM      5  H12 UNL     1       8.215  59.633  43.033  1.00  0.00     0.178 HD
ATOM      6  H11 UNL     1       9.530  58.569  42.483  1.00  0.00     0.178 HD
ATOM      7  H2  UNL     1      11.050  59.960  43.442  1.00  0.00     0.207 HD
ENDBRANCH   1   3
BRANCH   1   8
HETATM    8  C1  UNL     1       8.288  61.278  44.742  1.00  0.00     0.325 A 
HETATM    9  C2  UNL     1       7.751  60.057  45.335  1.00  0.00     0.290 A 
HETATM   10  N4  UNL     1       8.398  61.003  46.222  1.00  0.00    -0.048 N 
ATOM     11  H42 UNL     1       9.159  60.962  46.900  1.00  0.00     0.279 HD
ATOM     12  H41 UNL     1       8.137  61.496  47.075  1.00  0.00     0.279 HD
ENDBRANCH   1   8
TORSDOF 2
ENDMDL
