MODEL 1
REMARK VINA RESULT: -4.008127229      0.000      0.000
REMARK  1 active torsions:
REMARK  status: ('A' for Active; 'I' for Inactive)
REMARK    1  A    between atoms: N2_3  and  C2_5 
ROOT
HETATM    1  C2  UNL     1       8.632  59.402  43.695  1.00  0.00     0.310 A 
HETATM    2  C3  UNL     1       7.536  59.561  44.649  1.00  0.00     0.289 A 
HETATM    3  N3  UNL     1       7.355  59.877  43.202  1.00  0.00    -0.049 N 
ATOM      4  H31 UNL     1       6.707  59.584  42.473  1.00  0.00     0.279 HD
ATOM      5  H32 UNL     1       7.041  60.691  42.672  1.00  0.00     0.279 HD
ENDROOT
BRANCH   1   6
HETATM    6  N2  UNL     1       9.734  60.298  43.789  1.00  0.00    -0.359 N 
HETATM    7  C1  UNL     1       9.712  61.236  44.672  1.00  0.00     0.186 C 
HETATM    8  N1  UNL     1       8.649  61.442  45.571  1.00  0.00    -0.097 NA
ATOM      9  H2  UNL     1      10.533  60.199  43.163  1.00  0.00     0.162 HD
ENDBRANCH   1   6
TORSDOF 1
ENDMDL
MODEL 2
REMARK VINA RESULT: -3.484891217      1.437      2.042
REMARK  1 active torsions:
REMARK  status: ('A' for Active; 'I' for Inactive)
REMARK    1  A    between atoms: N2_3  and  C2_5 
ROOT
HETATM    1  C2  UNL     1       9.463  60.149  44.454  1.00  0.00     0.310 A 
HETATM    2  C3  UNL     1       8.797  59.421  43.376  1.00  0.00     0.289 A 
HETATM    3  N3  UNL     1      10.092  60.126  43.149  1.00  0.00    -0.049 N 
ATOM      4  H31 UNL     1      11.009  59.858  42.793  1.00  0.00     0.279 HD
ATOM      5  H32 UNL     1      10.428  60.833  42.494  1.00  0.00     0.279 HD
ENDROOT
BRANCH   1   6
HETATM    6  N2  UNL     1       8.855  61.346  44.926  1.00  0.00    -0.359 N 
HETATM    7  C1  UNL     1       7.719  61.282  45.530  1.00  0.00     0.186 C 
HETATM    8  N1  UNL     1       7.019  60.082  45.760  1.00  0.00    -0.097 NA
ATOM      9  H2  UNL     1       9.315  62.246  44.788  1.00  0.00     0.162 HD
ENDBRANCH   1   6
TORSDOF 1
ENDMDL
MODEL 3
REMARK VINA RESULT: -3.457196614      1.486      2.874
REMARK  1 active torsions:
REMARK  status: ('A' for Active; 'I' for Inactive)
REMARK    1  A    between atoms: N2_3  and  C2_5 
ROOT
HETATM    1  C2  UNL     1       7.967  61.103  45.219  1.00  0.00     0.310 A 
HETATM    2  C3  UNL     1       8.963  61.326  46.266  1.00  0.00     0.289 A 
HETATM    3  N3  UNL     1       9.358  61.224  44.831  1.00  0.00    -0.049 N 
ATOM      4  H31 UNL     1       9.879  61.811  44.180  1.00  0.00     0.279 HD
ATOM      5  H32 UNL     1      10.014  60.651  44.299  1.00  0.00     0.279 HD
ENDROOT
BRANCH   1   6
HETATM    6  N2  UNL     1       7.325  59.833  45.168  1.00  0.00    -0.359 N 
HETATM    7  C1  UNL     1       7.621  59.014  44.219  1.00  0.00     0.186 C 
HETATM    8  N1  UNL     1       8.557  59.292  43.204  1.00  0.00    -0.097 NA
ATOM      9  H2  UNL     1       6.637  59.575  45.875  1.00  0.00     0.162 HD
ENDBRANCH   1   6
TORSDOF 1
ENDMDL
MODEL 4
REMARK VINA RESULT: -3.349457517      1.192      2.046
REMARK  1 active torsions:
REMARK  status: ('A' for Active; 'I' for Inactive)
REMARK    1  A    between atoms: N2_3  and  C2_5 
ROOT
HETATM    1  C2  UNL     1       9.008  59.593  44.093  1.00  0.00     0.310 A 
HETATM    2  C3  UNL     1       9.418  59.606  42.689  1.00  0.00     0.289 A 
HETATM    3  N3  UNL     1      10.109  60.452  43.706  1.00  0.00    -0.049 N 
ATOM      4  H31 UNL     1      11.074  60.573  44.011  1.00  0.00     0.279 HD
ATOM      5  H32 UNL     1      10.319  61.446  43.799  1.00  0.00     0.279 HD
ENDROOT
BRANCH   1   6
HETATM    6  N2  UNL     1       7.747  60.164  44.425  1.00  0.00    -0.359 N 
HETATM    7  C1  UNL     1       7.684  61.063  45.345  1.00  0.00     0.186 C 
HETATM    8  N1  UNL     1       8.800  61.532  46.063  1.00  0.00    -0.097 NA
ATOM      9  H2  UNL     1       6.902  59.864  43.939  1.00  0.00     0.162 HD
ENDBRANCH   1   6
TORSDOF 1
ENDMDL
MODEL 5
REMARK VINA RESULT: -3.341412822      6.818      7.218
REMARK  1 active torsions:
REMARK  status: ('A' for Active; 'I' for Inactive)
REMARK    1  A    between atoms: N2_3  and  C2_5 
ROOT
HETATM    1  C2  UNL     1       6.015  53.954  45.294  1.00  0.00     0.310 A 
HETATM    2  C3  UNL     1       5.166  53.394  46.345  1.00  0.00     0.289 A 
HETATM    3  N3  UNL     1       5.431  54.860  46.262  1.00  0.00    -0.049 N 
ATOM      4  H31 UNL     1       4.852  55.698  46.211  1.00  0.00     0.279 HD
ATOM      5  H32 UNL     1       5.792  55.569  46.901  1.00  0.00     0.279 HD
ENDROOT
BRANCH   1   6
HETATM    6  N2  UNL     1       7.410  53.671  45.341  1.00  0.00    -0.359 N 
HETATM    7  C1  UNL     1       8.039  53.417  44.246  1.00  0.00     0.186 C 
HETATM    8  N1  UNL     1       7.430  53.397  42.977  1.00  0.00    -0.097 NA
ATOM      9  H2  UNL     1       7.905  53.670  46.232  1.00  0.00     0.162 HD
ENDBRANCH   1   6
TORSDOF 1
ENDMDL
