MODEL 1
REMARK VINA RESULT: -7.029045266      0.000      0.000
REMARK  5 active torsions:
REMARK  status: ('A' for Active; 'I' for Inactive)
REMARK    1  A    between atoms: C2_2  and  C4_4 
REMARK    2  A    between atoms: C4_4  and  C5_5 
REMARK    3  A    between atoms: C4_4  and  N1_9 
REMARK    4  A    between atoms: C5_5  and  C6_6 
REMARK       I    between atoms: N1_9  and  C9_11 
REMARK    5  A    between atoms: C9_11  and  C10_13 
REMARK       I    between atoms: N2_16  and  C13_17 
ROOT
HETATM    1  N1  UNL     1       0.356  41.234 -15.697  1.00  0.00    -0.352 N 
ATOM      2  H1  UNL     1       1.092  40.680 -16.134  1.00  0.00     0.163 HD
HETATM    3  C9  UNL     1      -0.124  40.901 -14.387  1.00  0.00     0.222 C 
HETATM    4  O1  UNL     1      -1.032  41.572 -13.832  1.00  0.00    -0.273 OA
ENDROOT
BRANCH   3   5
HETATM    5  C10 UNL     1       0.426  39.752 -13.629  1.00  0.00     0.081 C 
HETATM    6  C11 UNL     1      -0.608  39.094 -12.759  1.00  0.00     0.034 C 
HETATM    7  C12 UNL     1      -0.894  37.672 -13.173  1.00  0.00     0.126 C 
HETATM    8  N2  UNL     1       0.321  36.882 -13.261  1.00  0.00    -0.356 N 
HETATM    9  C13 UNL     1       0.359  35.510 -12.900  1.00  0.00     0.183 C 
HETATM   10  C14 UNL     1       1.513  37.556 -13.737  1.00  0.00     0.126 C 
HETATM   11  N3  UNL     1       1.349  35.063 -12.222  1.00  0.00    -0.374 N 
HETATM   12  N4  UNL     1      -0.687  34.633 -13.284  1.00  0.00    -0.064 NA
ATOM     13  H32 UNL     1       2.101  35.695 -11.946  1.00  0.00     0.158 HD
ATOM     14  H31 UNL     1       1.377  34.078 -11.962  1.00  0.00     0.158 HD
HETATM   15  C15 UNL     1       1.038  38.756 -14.546  1.00  0.00     0.034 C 
ENDBRANCH   3   5
BRANCH   1  16
HETATM   16  C4  UNL     1      -0.208  42.349 -16.380  1.00  0.00     0.112 C 
BRANCH  16  17
HETATM   17  C2  UNL     1       0.645  43.574 -16.250  1.00  0.00    -0.071 C 
HETATM   18  C1  UNL     1       0.460  44.451 -15.280  1.00  0.00     0.016 C 
HETATM   19  C3  UNL     1       1.715  43.777 -17.254  1.00  0.00     0.044 C 
ENDBRANCH  16  17
BRANCH  16  20
HETATM   20  C5  UNL     1      -0.403  42.123 -17.857  1.00  0.00     0.033 C 
BRANCH  20  21
HETATM   21  C6  UNL     1      -1.820  42.372 -18.313  1.00  0.00    -0.021 C 
HETATM   22  C7  UNL     1      -2.007  41.601 -19.626  1.00  0.00     0.009 C 
HETATM   23  C8  UNL     1      -2.035  43.830 -18.664  1.00  0.00     0.009 C 
ENDBRANCH  20  21
ENDBRANCH  16  20
ENDBRANCH   1  16
TORSDOF 5
ENDMDL
MODEL 2
REMARK VINA RESULT: -6.832136754      5.100      9.205
REMARK  5 active torsions:
REMARK  status: ('A' for Active; 'I' for Inactive)
REMARK    1  A    between atoms: C2_2  and  C4_4 
REMARK    2  A    between atoms: C4_4  and  C5_5 
REMARK    3  A    between atoms: C4_4  and  N1_9 
REMARK    4  A    between atoms: C5_5  and  C6_6 
REMARK       I    between atoms: N1_9  and  C9_11 
REMARK    5  A    between atoms: C9_11  and  C10_13 
REMARK       I    between atoms: N2_16  and  C13_17 
ROOT
HETATM    1  N1  UNL     1       1.648  33.236 -16.389  1.00  0.00    -0.352 N 
ATOM      2  H1  UNL     1       1.973  33.987 -16.997  1.00  0.00     0.163 HD
HETATM    3  C9  UNL     1       0.842  33.530 -15.238  1.00  0.00     0.222 C 
HETATM    4  O1  UNL     1       0.432  32.617 -14.476  1.00  0.00    -0.273 OA
ENDROOT
BRANCH   3   5
HETATM    5  C10 UNL     1       0.459  34.920 -14.896  1.00  0.00     0.081 C 
HETATM    6  C11 UNL     1       0.809  35.277 -13.479  1.00  0.00     0.034 C 
HETATM    7  C12 UNL     1       1.839  36.377 -13.395  1.00  0.00     0.126 C 
HETATM    8  N2  UNL     1       1.444  37.543 -14.164  1.00  0.00    -0.356 N 
HETATM    9  C13 UNL     1       1.738  38.864 -13.738  1.00  0.00     0.183 C 
HETATM   10  C14 UNL     1       0.727  37.305 -15.402  1.00  0.00     0.126 C 
HETATM   11  N3  UNL     1       0.842  39.774 -13.845  1.00  0.00    -0.374 N 
HETATM   12  N4  UNL     1       3.009  39.184 -13.199  1.00  0.00    -0.064 NA
ATOM     13  H32 UNL     1      -0.072  39.544 -14.233  1.00  0.00     0.158 HD
ATOM     14  H31 UNL     1       1.053  40.724 -13.539  1.00  0.00     0.158 HD
HETATM   15  C15 UNL     1       1.076  35.888 -15.839  1.00  0.00     0.034 C 
ENDBRANCH   3   5
BRANCH   1  16
HETATM   16  C4  UNL     1       1.986  31.882 -16.672  1.00  0.00     0.112 C 
BRANCH  16  17
HETATM   17  C2  UNL     1       1.818  31.555 -18.124  1.00  0.00    -0.071 C 
HETATM   18  C1  UNL     1       2.421  32.255 -19.070  1.00  0.00     0.016 C 
HETATM   19  C3  UNL     1       0.945  30.411 -18.475  1.00  0.00     0.044 C 
ENDBRANCH  16  17
BRANCH  16  20
HETATM   20  C5  UNL     1       3.406  31.523 -16.318  1.00  0.00     0.033 C 
BRANCH  20  21
HETATM   21  C6  UNL     1       3.516  30.231 -15.545  1.00  0.00    -0.021 C 
HETATM   22  C7  UNL     1       3.750  29.116 -16.574  1.00  0.00     0.009 C 
HETATM   23  C8  UNL     1       2.210  29.887 -14.862  1.00  0.00     0.009 C 
ENDBRANCH  20  21
ENDBRANCH  16  20
ENDBRANCH   1  16
TORSDOF 5
ENDMDL
MODEL 3
REMARK VINA RESULT: -6.823659514      1.224      1.752
REMARK  5 active torsions:
REMARK  status: ('A' for Active; 'I' for Inactive)
REMARK    1  A    between atoms: C2_2  and  C4_4 
REMARK    2  A    between atoms: C4_4  and  C5_5 
REMARK    3  A    between atoms: C4_4  and  N1_9 
REMARK    4  A    between atoms: C5_5  and  C6_6 
REMARK       I    between atoms: N1_9  and  C9_11 
REMARK    5  A    between atoms: C9_11  and  C10_13 
REMARK       I    between atoms: N2_16  and  C13_17 
ROOT
HETATM    1  N1  UNL     1       0.691  41.235 -15.767  1.00  0.00    -0.352 N 
ATOM      2  H1  UNL     1       0.475  40.349 -16.224  1.00  0.00     0.163 HD
HETATM    3  C9  UNL     1       1.138  41.260 -14.404  1.00  0.00     0.222 C 
HETATM    4  O1  UNL     1       1.408  42.342 -13.823  1.00  0.00    -0.273 OA
ENDROOT
BRANCH   3   5
HETATM    5  C10 UNL     1       1.301  40.012 -13.619  1.00  0.00     0.081 C 
HETATM    6  C11 UNL     1       0.013  39.562 -12.989  1.00  0.00     0.034 C 
HETATM    7  C12 UNL     1      -0.460  38.233 -13.521  1.00  0.00     0.126 C 
HETATM    8  N2  UNL     1       0.572  37.216 -13.427  1.00  0.00    -0.356 N 
HETATM    9  C13 UNL     1       0.274  35.860 -13.137  1.00  0.00     0.183 C 
HETATM   10  C14 UNL     1       1.941  37.645 -13.641  1.00  0.00     0.126 C 
HETATM   11  N3  UNL     1       1.012  35.214 -12.313  1.00  0.00    -0.374 N 
HETATM   12  N4  UNL     1      -0.830  35.216 -13.751  1.00  0.00    -0.064 NA
ATOM     13  H32 UNL     1       1.806  35.677 -11.872  1.00  0.00     0.158 HD
ATOM     14  H31 UNL     1       0.798  34.239 -12.105  1.00  0.00     0.158 HD
HETATM   15  C15 UNL     1       1.870  38.927 -14.459  1.00  0.00     0.034 C 
ENDBRANCH   3   5
BRANCH   1  16
HETATM   16  C4  UNL     1       0.552  42.463 -16.474  1.00  0.00     0.112 C 
BRANCH  16  17
HETATM   17  C2  UNL     1       1.593  42.614 -17.541  1.00  0.00    -0.071 C 
HETATM   18  C1  UNL     1       2.224  43.758 -17.742  1.00  0.00     0.016 C 
HETATM   19  C3  UNL     1       1.898  41.430 -18.376  1.00  0.00     0.044 C 
ENDBRANCH  16  17
BRANCH  16  20
HETATM   20  C5  UNL     1      -0.781  42.626 -17.155  1.00  0.00     0.033 C 
BRANCH  20  21
HETATM   21  C6  UNL     1      -1.623  43.728 -16.558  1.00  0.00    -0.021 C 
HETATM   22  C7  UNL     1      -2.255  44.490 -17.730  1.00  0.00     0.009 C 
HETATM   23  C8  UNL     1      -0.764  44.740 -15.830  1.00  0.00     0.009 C 
ENDBRANCH  20  21
ENDBRANCH  16  20
ENDBRANCH   1  16
TORSDOF 5
ENDMDL
MODEL 4
REMARK VINA RESULT: -6.817165954      2.440      7.400
REMARK  5 active torsions:
REMARK  status: ('A' for Active; 'I' for Inactive)
REMARK    1  A    between atoms: C2_2  and  C4_4 
REMARK    2  A    between atoms: C4_4  and  C5_5 
REMARK    3  A    between atoms: C4_4  and  N1_9 
REMARK    4  A    between atoms: C5_5  and  C6_6 
REMARK       I    between atoms: N1_9  and  C9_11 
REMARK    5  A    between atoms: C9_11  and  C10_13 
REMARK       I    between atoms: N2_16  and  C13_17 
ROOT
HETATM    1  N1  UNL     1       0.572  40.155 -14.627  1.00  0.00    -0.352 N 
ATOM      2  H1  UNL     1       0.013  39.865 -15.429  1.00  0.00     0.163 HD
HETATM    3  C9  UNL     1       1.169  41.459 -14.591  1.00  0.00     0.222 C 
HETATM    4  O1  UNL     1       1.862  41.835 -13.611  1.00  0.00    -0.273 OA
ENDROOT
BRANCH   3   5
HETATM    5  C10 UNL     1       0.995  42.422 -15.705  1.00  0.00     0.081 C 
HETATM    6  C11 UNL     1       0.144  41.868 -16.811  1.00  0.00     0.034 C 
HETATM    7  C12 UNL     1      -1.143  42.634 -16.993  1.00  0.00     0.126 C 
HETATM    8  N2  UNL     1      -0.904  44.056 -17.156  1.00  0.00    -0.356 N 
HETATM    9  C13 UNL     1      -1.695  44.862 -18.016  1.00  0.00     0.183 C 
HETATM   10  C14 UNL     1       0.189  44.632 -16.398  1.00  0.00     0.126 C 
HETATM   11  N3  UNL     1      -1.125  45.733 -18.764  1.00  0.00    -0.374 N 
HETATM   12  N4  UNL     1      -3.104  44.712 -18.053  1.00  0.00    -0.064 NA
ATOM     13  H32 UNL     1      -0.112  45.840 -18.736  1.00  0.00     0.158 HD
ATOM     14  H31 UNL     1      -1.693  46.312 -19.382  1.00  0.00     0.158 HD
HETATM   15  C15 UNL     1       0.430  43.705 -15.214  1.00  0.00     0.034 C 
ENDBRANCH   3   5
BRANCH   1  16
HETATM   16  C4  UNL     1       0.771  39.270 -13.530  1.00  0.00     0.112 C 
BRANCH  16  17
HETATM   17  C2  UNL     1      -0.526  38.753 -12.987  1.00  0.00    -0.071 C 
HETATM   18  C1  UNL     1      -0.781  37.458 -12.908  1.00  0.00     0.016 C 
HETATM   19  C3  UNL     1      -1.528  39.746 -12.536  1.00  0.00     0.044 C 
ENDBRANCH  16  17
BRANCH  16  20
HETATM   20  C5  UNL     1       1.603  38.060 -13.865  1.00  0.00     0.033 C 
BRANCH  20  21
HETATM   21  C6  UNL     1       3.004  38.130 -13.309  1.00  0.00    -0.021 C 
HETATM   22  C7  UNL     1       3.860  38.866 -14.349  1.00  0.00     0.009 C 
HETATM   23  C8  UNL     1       3.615  36.750 -13.185  1.00  0.00     0.009 C 
ENDBRANCH  20  21
ENDBRANCH  16  20
ENDBRANCH   1  16
TORSDOF 5
ENDMDL
MODEL 5
REMARK VINA RESULT: -6.709682153      2.117      2.907
REMARK  5 active torsions:
REMARK  status: ('A' for Active; 'I' for Inactive)
REMARK    1  A    between atoms: C2_2  and  C4_4 
REMARK    2  A    between atoms: C4_4  and  C5_5 
REMARK    3  A    between atoms: C4_4  and  N1_9 
REMARK    4  A    between atoms: C5_5  and  C6_6 
REMARK       I    between atoms: N1_9  and  C9_11 
REMARK    5  A    between atoms: C9_11  and  C10_13 
REMARK       I    between atoms: N2_16  and  C13_17 
ROOT
HETATM    1  N1  UNL     1      -0.060  41.844 -16.374  1.00  0.00    -0.352 N 
ATOM      2  H1  UNL     1       0.457  41.535 -17.196  1.00  0.00     0.163 HD
HETATM    3  C9  UNL     1       0.035  41.118 -15.140  1.00  0.00     0.222 C 
HETATM    4  O1  UNL     1      -0.596  41.483 -14.115  1.00  0.00    -0.273 OA
ENDROOT
BRANCH   3   5
HETATM    5  C10 UNL     1       0.879  39.905 -15.018  1.00  0.00     0.081 C 
HETATM    6  C11 UNL     1       2.273  40.125 -15.534  1.00  0.00     0.034 C 
HETATM    7  C12 UNL     1       3.318  40.002 -14.453  1.00  0.00     0.126 C 
HETATM    8  N2  UNL     1       3.201  38.748 -13.730  1.00  0.00    -0.356 N 
HETATM    9  C13 UNL     1       4.334  38.043 -13.250  1.00  0.00     0.183 C 
HETATM   10  C14 UNL     1       1.862  38.234 -13.516  1.00  0.00     0.126 C 
HETATM   11  N3  UNL     1       4.386  36.770 -13.380  1.00  0.00    -0.374 N 
HETATM   12  N4  UNL     1       5.405  38.734 -12.629  1.00  0.00    -0.064 NA
ATOM     13  H32 UNL     1       3.616  36.273 -13.826  1.00  0.00     0.158 HD
ATOM     14  H31 UNL     1       5.201  36.263 -13.034  1.00  0.00     0.158 HD
HETATM   15  C15 UNL     1       0.920  39.427 -13.611  1.00  0.00     0.034 C 
ENDBRANCH   3   5
BRANCH   1  16
HETATM   16  C4  UNL     1      -0.885  43.002 -16.436  1.00  0.00     0.112 C 
BRANCH  16  17
HETATM   17  C2  UNL     1      -0.103  44.259 -16.205  1.00  0.00    -0.071 C 
HETATM   18  C1  UNL     1      -0.523  45.200 -15.378  1.00  0.00     0.016 C 
HETATM   19  C3  UNL     1       1.173  44.420 -16.941  1.00  0.00     0.044 C 
ENDBRANCH  16  17
BRANCH  16  20
HETATM   20  C5  UNL     1      -1.591  43.178 -17.755  1.00  0.00     0.033 C 
BRANCH  20  21
HETATM   21  C6  UNL     1      -1.031  42.303 -18.849  1.00  0.00    -0.021 C 
HETATM   22  C7  UNL     1      -0.620  43.235 -19.997  1.00  0.00     0.009 C 
HETATM   23  C8  UNL     1      -2.096  41.394 -19.425  1.00  0.00     0.009 C 
ENDBRANCH  20  21
ENDBRANCH  16  20
ENDBRANCH   1  16
TORSDOF 5
ENDMDL
