MODEL 1
REMARK VINA RESULT: -6.890972221      0.000      0.000
REMARK  6 active torsions:
REMARK  status: ('A' for Active; 'I' for Inactive)
REMARK       I    between atoms: C2_2  and  N1_4 
REMARK    1  A    between atoms: N1_4  and  C3_6 
REMARK    2  A    between atoms: C3_6  and  C4_7 
REMARK    3  A    between atoms: C3_6  and  C14_19 
REMARK    4  A    between atoms: C4_7  and  N2_8 
REMARK    5  A    between atoms: C9_13  and  C10_14 
REMARK    6  A    between atoms: C14_19  and  N4_21 
ROOT
HETATM    1  C3  UNL     1       0.678  36.247 -14.128  1.00  0.00     0.142 C 
ENDROOT
BRANCH   1   2
HETATM    2  N1  UNL     1       1.121  34.827 -14.500  1.00  0.00    -0.353 N 
HETATM    3  C2  UNL     1       1.420  34.491 -15.814  1.00  0.00     0.214 C 
HETATM    4  C1  UNL     1       1.850  33.186 -16.306  1.00  0.00     0.117 C 
HETATM    5  O1  UNL     1       1.311  35.415 -16.695  1.00  0.00    -0.274 OA
ATOM      6  H1  UNL     1       1.197  34.117 -13.772  1.00  0.00     0.163 HD
ENDBRANCH   1   2
BRANCH   1   7
HETATM    7  C4  UNL     1       1.851  36.833 -13.443  1.00  0.00     0.287 C 
BRANCH   7   8
HETATM    8  N2  UNL     1       2.313  38.131 -13.659  1.00  0.00     0.009 N 
HETATM    9  C5  UNL     1       3.727  38.215 -13.231  1.00  0.00     0.297 C 
HETATM   10  C6  UNL     1       2.462  38.255 -15.152  1.00  0.00     0.260 C 
HETATM   11  C7  UNL     1       2.786  39.659 -15.528  1.00  0.00     0.031 C 
HETATM   12  C8  UNL     1       1.597  40.556 -15.240  1.00  0.00     0.025 C 
HETATM   13  C9  UNL     1       0.794  39.852 -14.166  1.00  0.00     0.114 C 
HETATM   14  N3  UNL     1       1.604  39.200 -13.192  1.00  0.00    -0.041 NA
BRANCH  13  15
HETATM   15  C10 UNL     1      -0.158  40.842 -13.545  1.00  0.00    -0.032 C 
HETATM   16  C11 UNL     1      -1.338  40.216 -12.890  1.00  0.00     0.016 C 
HETATM   17  C12 UNL     1      -0.568  41.876 -14.560  1.00  0.00     0.016 C 
HETATM   18  C13 UNL     1       0.634  41.578 -12.460  1.00  0.00     0.016 C 
ENDBRANCH  13  15
ENDBRANCH   7   8
ENDBRANCH   1   7
BRANCH   1  19
HETATM   19  C14 UNL     1      -0.538  35.923 -13.317  1.00  0.00     0.203 C 
HETATM   20  C15 UNL     1      -0.755  34.566 -12.808  1.00  0.00     0.042 C 
BRANCH  19  21
HETATM   21  N4  UNL     1      -0.576  36.817 -12.127  1.00  0.00    -0.073 N 
ATOM     22  H43 UNL     1       0.129  36.571 -11.432  1.00  0.00     0.274 HD
ATOM     23  H42 UNL     1      -0.246  37.759 -12.338  1.00  0.00     0.274 HD
ATOM     24  H41 UNL     1      -1.520  36.813 -11.741  1.00  0.00     0.274 HD
ENDBRANCH  19  21
ENDBRANCH   1  19
TORSDOF 6
ENDMDL
MODEL 2
REMARK VINA RESULT: -6.655180439      1.944      4.411
REMARK  6 active torsions:
REMARK  status: ('A' for Active; 'I' for Inactive)
REMARK       I    between atoms: C2_2  and  N1_4 
REMARK    1  A    between atoms: N1_4  and  C3_6 
REMARK    2  A    between atoms: C3_6  and  C4_7 
REMARK    3  A    between atoms: C3_6  and  C14_19 
REMARK    4  A    between atoms: C4_7  and  N2_8 
REMARK    5  A    between atoms: C9_13  and  C10_14 
REMARK    6  A    between atoms: C14_19  and  N4_21 
ROOT
HETATM    1  C3  UNL     1       4.011  38.206 -14.081  1.00  0.00     0.142 C 
ENDROOT
BRANCH   1   2
HETATM    2  N1  UNL     1       3.406  39.571 -14.432  1.00  0.00    -0.353 N 
HETATM    3  C2  UNL     1       3.202  39.945 -15.754  1.00  0.00     0.214 C 
HETATM    4  C1  UNL     1       2.640  41.206 -16.227  1.00  0.00     0.117 C 
HETATM    5  O1  UNL     1       3.540  39.105 -16.660  1.00  0.00    -0.274 OA
ATOM      6  H1  UNL     1       3.149  40.214 -13.683  1.00  0.00     0.163 HD
ENDBRANCH   1   2
BRANCH   1   7
HETATM    7  C4  UNL     1       2.921  37.485 -13.387  1.00  0.00     0.287 C 
BRANCH   7   8
HETATM    8  N2  UNL     1       1.602  37.446 -13.836  1.00  0.00     0.009 N 
HETATM    9  C5  UNL     1       1.542  36.653 -15.083  1.00  0.00     0.297 C 
HETATM   10  C6  UNL     1       0.885  36.528 -12.883  1.00  0.00     0.260 C 
HETATM   11  C7  UNL     1      -0.580  36.538 -13.151  1.00  0.00     0.031 C 
HETATM   12  C8  UNL     1      -1.158  37.895 -12.799  1.00  0.00     0.025 C 
HETATM   13  C9  UNL     1      -0.008  38.874 -12.888  1.00  0.00     0.114 C 
HETATM   14  N3  UNL     1       0.884  38.602 -13.965  1.00  0.00    -0.041 NA
BRANCH  13  15
HETATM   15  C10 UNL     1      -0.565  40.274 -12.951  1.00  0.00    -0.032 C 
HETATM   16  C11 UNL     1      -1.928  40.409 -12.371  1.00  0.00     0.016 C 
HETATM   17  C12 UNL     1      -0.508  40.792 -14.363  1.00  0.00     0.016 C 
HETATM   18  C13 UNL     1       0.378  41.150 -12.121  1.00  0.00     0.016 C 
ENDBRANCH  13  15
ENDBRANCH   7   8
ENDBRANCH   1   7
BRANCH   1  19
HETATM   19  C14 UNL     1       5.194  38.658 -13.281  1.00  0.00     0.203 C 
HETATM   20  C15 UNL     1       6.405  39.140 -13.950  1.00  0.00     0.042 C 
BRANCH  19  21
HETATM   21  N4  UNL     1       4.768  39.751 -12.365  1.00  0.00    -0.073 N 
ATOM     22  H43 UNL     1       4.496  40.596 -12.868  1.00  0.00     0.274 HD
ATOM     23  H42 UNL     1       3.872  39.557 -11.917  1.00  0.00     0.274 HD
ATOM     24  H41 UNL     1       5.512  39.924 -11.688  1.00  0.00     0.274 HD
ENDBRANCH  19  21
ENDBRANCH   1  19
TORSDOF 6
ENDMDL
MODEL 3
REMARK VINA RESULT: -6.653779366      1.950      3.472
REMARK  6 active torsions:
REMARK  status: ('A' for Active; 'I' for Inactive)
REMARK       I    between atoms: C2_2  and  N1_4 
REMARK    1  A    between atoms: N1_4  and  C3_6 
REMARK    2  A    between atoms: C3_6  and  C4_7 
REMARK    3  A    between atoms: C3_6  and  C14_19 
REMARK    4  A    between atoms: C4_7  and  N2_8 
REMARK    5  A    between atoms: C9_13  and  C10_14 
REMARK    6  A    between atoms: C14_19  and  N4_21 
ROOT
HETATM    1  C3  UNL     1       0.402  37.698 -13.579  1.00  0.00     0.142 C 
ENDROOT
BRANCH   1   2
HETATM    2  N1  UNL     1       1.642  36.960 -13.060  1.00  0.00    -0.353 N 
HETATM    3  C2  UNL     1       2.893  37.181 -13.621  1.00  0.00     0.214 C 
HETATM    4  C1  UNL     1       4.150  36.550 -13.228  1.00  0.00     0.117 C 
HETATM    5  O1  UNL     1       2.964  38.023 -14.583  1.00  0.00    -0.274 OA
ATOM      6  H1  UNL     1       1.547  36.296 -12.292  1.00  0.00     0.163 HD
ENDBRANCH   1   2
BRANCH   1   7
HETATM    7  C4  UNL     1       0.315  38.912 -12.737  1.00  0.00     0.287 C 
BRANCH   7   8
HETATM    8  N2  UNL     1      -0.143  40.147 -13.194  1.00  0.00     0.009 N 
HETATM    9  C5  UNL     1      -1.440  40.447 -12.549  1.00  0.00     0.297 C 
HETATM   10  C6  UNL     1       0.744  41.168 -12.532  1.00  0.00     0.260 C 
HETATM   11  C7  UNL     1       0.469  42.527 -13.076  1.00  0.00     0.031 C 
HETATM   12  C8  UNL     1       0.908  42.600 -14.526  1.00  0.00     0.025 C 
HETATM   13  C9  UNL     1       0.890  41.176 -15.039  1.00  0.00     0.114 C 
HETATM   14  N3  UNL     1      -0.199  40.407 -14.534  1.00  0.00    -0.041 NA
BRANCH  13  15
HETATM   15  C10 UNL     1       0.916  41.202 -16.546  1.00  0.00    -0.032 C 
HETATM   16  C11 UNL     1       2.187  41.719 -17.120  1.00  0.00     0.016 C 
HETATM   17  C12 UNL     1      -0.278  41.952 -17.073  1.00  0.00     0.016 C 
HETATM   18  C13 UNL     1       0.762  39.749 -17.004  1.00  0.00     0.016 C 
ENDBRANCH  13  15
ENDBRANCH   7   8
ENDBRANCH   1   7
BRANCH   1  19
HETATM   19  C14 UNL     1      -0.623  36.622 -13.393  1.00  0.00     0.203 C 
HETATM   20  C15 UNL     1      -0.338  35.243 -13.798  1.00  0.00     0.042 C 
BRANCH  19  21
HETATM   21  N4  UNL     1      -0.999  36.557 -11.954  1.00  0.00    -0.073 N 
ATOM     22  H43 UNL     1      -1.897  37.003 -11.765  1.00  0.00     0.274 HD
ATOM     23  H42 UNL     1      -1.245  35.612 -11.658  1.00  0.00     0.274 HD
ATOM     24  H41 UNL     1      -0.243  36.955 -11.396  1.00  0.00     0.274 HD
ENDBRANCH  19  21
ENDBRANCH   1  19
TORSDOF 6
ENDMDL
MODEL 4
REMARK VINA RESULT: -6.592046772      2.458      4.374
REMARK  6 active torsions:
REMARK  status: ('A' for Active; 'I' for Inactive)
REMARK       I    between atoms: C2_2  and  N1_4 
REMARK    1  A    between atoms: N1_4  and  C3_6 
REMARK    2  A    between atoms: C3_6  and  C4_7 
REMARK    3  A    between atoms: C3_6  and  C14_19 
REMARK    4  A    between atoms: C4_7  and  N2_8 
REMARK    5  A    between atoms: C9_13  and  C10_14 
REMARK    6  A    between atoms: C14_19  and  N4_21 
ROOT
HETATM    1  C3  UNL     1       0.135  37.221 -13.426  1.00  0.00     0.142 C 
ENDROOT
BRANCH   1   2
HETATM    2  N1  UNL     1      -1.141  37.978 -13.038  1.00  0.00    -0.353 N 
HETATM    3  C2  UNL     1      -1.080  39.266 -12.523  1.00  0.00     0.214 C 
HETATM    4  C1  UNL     1      -2.208  40.097 -12.114  1.00  0.00     0.117 C 
HETATM    5  O1  UNL     1       0.082  39.789 -12.386  1.00  0.00    -0.274 OA
ATOM      6  H1  UNL     1      -2.048  37.529 -13.161  1.00  0.00     0.163 HD
ENDBRANCH   1   2
BRANCH   1   7
HETATM    7  C4  UNL     1       0.183  37.307 -14.902  1.00  0.00     0.287 C 
BRANCH   7   8
HETATM    8  N2  UNL     1       1.270  37.806 -15.619  1.00  0.00     0.009 N 
HETATM    9  C5  UNL     1       1.197  37.308 -17.010  1.00  0.00     0.297 C 
HETATM   10  C6  UNL     1       0.972  39.267 -15.827  1.00  0.00     0.260 C 
HETATM   11  C7  UNL     1       2.144  39.957 -16.433  1.00  0.00     0.031 C 
HETATM   12  C8  UNL     1       3.290  39.993 -15.441  1.00  0.00     0.025 C 
HETATM   13  C9  UNL     1       3.053  38.841 -14.488  1.00  0.00     0.114 C 
HETATM   14  N3  UNL     1       2.538  37.676 -15.126  1.00  0.00    -0.041 NA
BRANCH  13  15
HETATM   15  C10 UNL     1       4.330  38.561 -13.737  1.00  0.00    -0.032 C 
HETATM   16  C11 UNL     1       5.563  38.790 -14.535  1.00  0.00     0.016 C 
HETATM   17  C12 UNL     1       4.295  37.174 -13.153  1.00  0.00     0.016 C 
HETATM   18  C13 UNL     1       4.357  39.536 -12.556  1.00  0.00     0.016 C 
ENDBRANCH  13  15
ENDBRANCH   7   8
ENDBRANCH   1   7
BRANCH   1  19
HETATM   19  C14 UNL     1      -0.162  35.895 -12.795  1.00  0.00     0.203 C 
HETATM   20  C15 UNL     1      -0.827  34.838 -13.562  1.00  0.00     0.042 C 
BRANCH  19  21
HETATM   21  N4  UNL     1       1.109  35.302 -12.296  1.00  0.00    -0.073 N 
ATOM     22  H43 UNL     1       0.973  34.743 -11.454  1.00  0.00     0.274 HD
ATOM     23  H42 UNL     1       1.458  34.561 -12.905  1.00  0.00     0.274 HD
ATOM     24  H41 UNL     1       1.791  36.048 -12.161  1.00  0.00     0.274 HD
ENDBRANCH  19  21
ENDBRANCH   1  19
TORSDOF 6
ENDMDL
MODEL 5
REMARK VINA RESULT: -6.586145770      1.919      2.936
REMARK  6 active torsions:
REMARK  status: ('A' for Active; 'I' for Inactive)
REMARK       I    between atoms: C2_2  and  N1_4 
REMARK    1  A    between atoms: N1_4  and  C3_6 
REMARK    2  A    between atoms: C3_6  and  C4_7 
REMARK    3  A    between atoms: C3_6  and  C14_19 
REMARK    4  A    between atoms: C4_7  and  N2_8 
REMARK    5  A    between atoms: C9_13  and  C10_14 
REMARK    6  A    between atoms: C14_19  and  N4_21 
ROOT
HETATM    1  C3  UNL     1       0.448  38.473 -13.557  1.00  0.00     0.142 C 
ENDROOT
BRANCH   1   2
HETATM    2  N1  UNL     1       0.354  37.101 -12.879  1.00  0.00    -0.353 N 
HETATM    3  C2  UNL     1      -0.019  35.972 -13.597  1.00  0.00     0.214 C 
HETATM    4  C1  UNL     1      -0.149  34.613 -13.081  1.00  0.00     0.117 C 
HETATM    5  O1  UNL     1      -0.279  36.128 -14.842  1.00  0.00    -0.274 OA
ATOM      6  H1  UNL     1       0.568  37.016 -11.886  1.00  0.00     0.163 HD
ENDBRANCH   1   2
BRANCH   1   7
HETATM    7  C4  UNL     1       1.899  38.696 -13.743  1.00  0.00     0.287 C 
BRANCH   7   8
HETATM    8  N2  UNL     1       2.445  39.450 -14.781  1.00  0.00     0.009 N 
HETATM    9  C5  UNL     1       3.915  39.278 -14.777  1.00  0.00     0.297 C 
HETATM   10  C6  UNL     1       2.079  38.713 -16.042  1.00  0.00     0.260 C 
HETATM   11  C7  UNL     1       2.458  39.511 -17.241  1.00  0.00     0.031 C 
HETATM   12  C8  UNL     1       1.595  40.755 -17.324  1.00  0.00     0.025 C 
HETATM   13  C9  UNL     1       1.122  41.031 -15.912  1.00  0.00     0.114 C 
HETATM   14  N3  UNL     1       2.114  40.767 -14.923  1.00  0.00    -0.041 NA
BRANCH  13  15
HETATM   15  C10 UNL     1       0.608  42.446 -15.839  1.00  0.00    -0.032 C 
HETATM   16  C11 UNL     1       0.726  43.064 -14.492  1.00  0.00     0.016 C 
HETATM   17  C12 UNL     1      -0.802  42.514 -16.361  1.00  0.00     0.016 C 
HETATM   18  C13 UNL     1       1.474  43.268 -16.800  1.00  0.00     0.016 C 
ENDBRANCH  13  15
ENDBRANCH   7   8
ENDBRANCH   1   7
BRANCH   1  19
HETATM   19  C14 UNL     1      -0.280  39.301 -12.544  1.00  0.00     0.203 C 
HETATM   20  C15 UNL     1      -1.270  40.296 -12.966  1.00  0.00     0.042 C 
BRANCH  19  21
HETATM   21  N4  UNL     1      -0.988  38.395 -11.599  1.00  0.00    -0.073 N 
ATOM     22  H43 UNL     1      -0.363  38.001 -10.895  1.00  0.00     0.274 HD
ATOM     23  H42 UNL     1      -1.611  38.900 -10.968  1.00  0.00     0.274 HD
ATOM     24  H41 UNL     1      -1.475  37.675 -12.132  1.00  0.00     0.274 HD
ENDBRANCH  19  21
ENDBRANCH   1  19
TORSDOF 6
ENDMDL
