MODEL 1
REMARK VINA RESULT: -6.405532099      0.000      0.000
REMARK  8 active torsions:
REMARK  status: ('A' for Active; 'I' for Inactive)
REMARK    1  A    between atoms: C2_2  and  C3_3 
REMARK    2  A    between atoms: C3_3  and  N1_4 
REMARK    3  A    between atoms: N1_4  and  C4_6 
REMARK    4  A    between atoms: C4_6  and  N2_8 
REMARK    5  A    between atoms: C8_12  and  C9_13 
REMARK    6  A    between atoms: C9_13  and  C10_14 
REMARK    7  A    between atoms: C10_14  and  N3_15 
REMARK    8  A    between atoms: N3_15  and  C11_17 
ROOT
HETATM    1  N2  UNL     1       1.059  40.142 -12.927  1.00  0.00    -0.354 N 
HETATM    2  C5  UNL     1       0.212  41.221 -12.343  1.00  0.00     0.126 C 
HETATM    3  C6  UNL     1      -1.100  40.902 -13.018  1.00  0.00     0.022 C 
HETATM    4  C7  UNL     1      -1.150  39.396 -12.953  1.00  0.00     0.027 C 
HETATM    5  C8  UNL     1       0.291  38.952 -12.763  1.00  0.00     0.088 C 
ENDROOT
BRANCH   1   6
HETATM    6  C4  UNL     1       2.310  40.417 -13.470  1.00  0.00     0.170 C 
HETATM    7  S1  UNL     1       2.470  40.912 -15.036  1.00  0.00    -0.041 SA
BRANCH   6   8
HETATM    8  N1  UNL     1       3.521  40.297 -12.739  1.00  0.00    -0.364 N 
ATOM      9  H1  UNL     1       3.498  40.383 -11.723  1.00  0.00     0.162 HD
BRANCH   8  10
HETATM   10  C3  UNL     1       4.803  40.054 -13.407  1.00  0.00     0.148 C 
BRANCH  10  11
HETATM   11  C2  UNL     1       5.273  38.670 -13.211  1.00  0.00    -0.018 C 
HETATM   12  C1  UNL     1       4.489  37.610 -13.274  1.00  0.00     0.008 C 
ENDBRANCH  10  11
ENDBRANCH   8  10
ENDBRANCH   6   8
ENDBRANCH   1   6
BRANCH   5  13
HETATM   13  C9  UNL     1       0.531  37.821 -13.690  1.00  0.00     0.045 C 
BRANCH  13  14
HETATM   14  C10 UNL     1      -0.565  36.776 -13.364  1.00  0.00     0.123 C 
BRANCH  14  15
HETATM   15  N3  UNL     1      -0.058  35.839 -12.375  1.00  0.00    -0.369 N 
ATOM     16  H3  UNL     1       0.066  36.136 -11.407  1.00  0.00     0.161 HD
BRANCH  15  17
HETATM   17  C11 UNL     1       0.263  34.523 -12.751  1.00  0.00     0.180 C 
HETATM   18  N4  UNL     1       0.751  33.550 -11.843  1.00  0.00    -0.070 NA
HETATM   19  S2  UNL     1       0.073  34.076 -14.304  1.00  0.00    -0.044 SA
ENDBRANCH  15  17
ENDBRANCH  14  15
ENDBRANCH  13  14
ENDBRANCH   5  13
TORSDOF 8
ENDMDL
MODEL 2
REMARK VINA RESULT: -6.191296489      1.131      3.697
REMARK  8 active torsions:
REMARK  status: ('A' for Active; 'I' for Inactive)
REMARK    1  A    between atoms: C2_2  and  C3_3 
REMARK    2  A    between atoms: C3_3  and  N1_4 
REMARK    3  A    between atoms: N1_4  and  C4_6 
REMARK    4  A    between atoms: C4_6  and  N2_8 
REMARK    5  A    between atoms: C8_12  and  C9_13 
REMARK    6  A    between atoms: C9_13  and  C10_14 
REMARK    7  A    between atoms: C10_14  and  N3_15 
REMARK    8  A    between atoms: N3_15  and  C11_17 
ROOT
HETATM    1  N2  UNL     1       2.922  39.897 -13.759  1.00  0.00    -0.354 N 
HETATM    2  C5  UNL     1       4.380  40.213 -13.747  1.00  0.00     0.126 C 
HETATM    3  C6  UNL     1       4.870  39.092 -12.863  1.00  0.00     0.022 C 
HETATM    4  C7  UNL     1       4.071  37.910 -13.349  1.00  0.00     0.027 C 
HETATM    5  C8  UNL     1       2.857  38.502 -14.048  1.00  0.00     0.088 C 
ENDROOT
BRANCH   1   6
HETATM    6  C4  UNL     1       1.966  40.880 -13.524  1.00  0.00     0.170 C 
HETATM    7  S1  UNL     1       1.551  41.964 -14.697  1.00  0.00    -0.041 SA
BRANCH   6   8
HETATM    8  N1  UNL     1       1.286  41.026 -12.287  1.00  0.00    -0.364 N 
ATOM      9  H1  UNL     1       1.789  40.842 -11.419  1.00  0.00     0.162 HD
BRANCH   8  10
HETATM   10  C3  UNL     1      -0.121  41.435 -12.225  1.00  0.00     0.148 C 
BRANCH  10  11
HETATM   11  C2  UNL     1      -0.993  40.525 -12.990  1.00  0.00    -0.018 C 
HETATM   12  C1  UNL     1      -1.474  39.393 -12.514  1.00  0.00     0.008 C 
ENDBRANCH  10  11
ENDBRANCH   8  10
ENDBRANCH   6   8
ENDBRANCH   1   6
BRANCH   5  13
HETATM   13  C9  UNL     1       1.670  37.740 -13.594  1.00  0.00     0.045 C 
BRANCH  13  14
HETATM   14  C10 UNL     1       2.125  36.261 -13.530  1.00  0.00     0.123 C 
BRANCH  14  15
HETATM   15  N3  UNL     1       1.507  35.616 -12.383  1.00  0.00    -0.369 N 
ATOM     16  H3  UNL     1       1.716  35.945 -11.440  1.00  0.00     0.161 HD
BRANCH  15  17
HETATM   17  C11 UNL     1       0.623  34.540 -12.572  1.00  0.00     0.180 C 
HETATM   18  N4  UNL     1       0.778  33.283 -11.933  1.00  0.00    -0.070 NA
HETATM   19  S2  UNL     1      -0.648  34.727 -13.570  1.00  0.00    -0.044 SA
ENDBRANCH  15  17
ENDBRANCH  14  15
ENDBRANCH  13  14
ENDBRANCH   5  13
TORSDOF 8
ENDMDL
MODEL 3
REMARK VINA RESULT: -6.091689227      1.743      2.511
REMARK  8 active torsions:
REMARK  status: ('A' for Active; 'I' for Inactive)
REMARK    1  A    between atoms: C2_2  and  C3_3 
REMARK    2  A    between atoms: C3_3  and  N1_4 
REMARK    3  A    between atoms: N1_4  and  C4_6 
REMARK    4  A    between atoms: C4_6  and  N2_8 
REMARK    5  A    between atoms: C8_12  and  C9_13 
REMARK    6  A    between atoms: C9_13  and  C10_14 
REMARK    7  A    between atoms: C10_14  and  N3_15 
REMARK    8  A    between atoms: N3_15  and  C11_17 
ROOT
HETATM    1  N2  UNL     1       1.174  39.860 -13.159  1.00  0.00    -0.354 N 
HETATM    2  C5  UNL     1       0.691  41.085 -12.459  1.00  0.00     0.126 C 
HETATM    3  C6  UNL     1      -0.723  41.133 -12.987  1.00  0.00     0.022 C 
HETATM    4  C7  UNL     1      -1.142  39.685 -12.948  1.00  0.00     0.027 C 
HETATM    5  C8  UNL     1       0.154  38.890 -12.933  1.00  0.00     0.088 C 
ENDROOT
BRANCH   1   6
HETATM    6  C4  UNL     1       2.389  39.844 -13.835  1.00  0.00     0.170 C 
HETATM    7  S1  UNL     1       3.673  38.978 -13.262  1.00  0.00    -0.041 SA
BRANCH   6   8
HETATM    8  N1  UNL     1       2.619  40.552 -15.044  1.00  0.00    -0.364 N 
ATOM      9  H1  UNL     1       3.012  41.493 -15.001  1.00  0.00     0.162 HD
BRANCH   8  10
HETATM   10  C3  UNL     1       2.307  39.966 -16.351  1.00  0.00     0.148 C 
BRANCH  10  11
HETATM   11  C2  UNL     1       0.899  40.186 -16.731  1.00  0.00    -0.018 C 
HETATM   12  C1  UNL     1       0.247  41.314 -16.522  1.00  0.00     0.008 C 
ENDBRANCH  10  11
ENDBRANCH   8  10
ENDBRANCH   6   8
ENDBRANCH   1   6
BRANCH   5  13
HETATM   13  C9  UNL     1       0.004  37.781 -13.904  1.00  0.00     0.045 C 
BRANCH  13  14
HETATM   14  C10 UNL     1      -0.793  36.681 -13.160  1.00  0.00     0.123 C 
BRANCH  14  15
HETATM   15  N3  UNL     1       0.128  35.853 -12.396  1.00  0.00    -0.369 N 
ATOM     16  H3  UNL     1       0.626  36.248 -11.599  1.00  0.00     0.161 HD
BRANCH  15  17
HETATM   17  C11 UNL     1       0.331  34.510 -12.757  1.00  0.00     0.180 C 
HETATM   18  N4  UNL     1       0.738  33.510 -11.837  1.00  0.00    -0.070 NA
HETATM   19  S2  UNL     1       0.095  34.062 -14.303  1.00  0.00    -0.044 SA
ENDBRANCH  15  17
ENDBRANCH  14  15
ENDBRANCH  13  14
ENDBRANCH   5  13
TORSDOF 8
ENDMDL
MODEL 4
REMARK VINA RESULT: -6.090315800      1.431      2.035
REMARK  8 active torsions:
REMARK  status: ('A' for Active; 'I' for Inactive)
REMARK    1  A    between atoms: C2_2  and  C3_3 
REMARK    2  A    between atoms: C3_3  and  N1_4 
REMARK    3  A    between atoms: N1_4  and  C4_6 
REMARK    4  A    between atoms: C4_6  and  N2_8 
REMARK    5  A    between atoms: C8_12  and  C9_13 
REMARK    6  A    between atoms: C9_13  and  C10_14 
REMARK    7  A    between atoms: C10_14  and  N3_15 
REMARK    8  A    between atoms: N3_15  and  C11_17 
ROOT
HETATM    1  N2  UNL     1       1.145  39.741 -14.406  1.00  0.00    -0.354 N 
HETATM    2  C5  UNL     1       1.339  40.077 -15.846  1.00  0.00     0.126 C 
HETATM    3  C6  UNL     1       1.894  38.762 -16.336  1.00  0.00     0.022 C 
HETATM    4  C7  UNL     1       1.039  37.751 -15.614  1.00  0.00     0.027 C 
HETATM    5  C8  UNL     1       0.465  38.489 -14.415  1.00  0.00     0.088 C 
ENDROOT
BRANCH   1   6
HETATM    6  C4  UNL     1       1.592  40.590 -13.397  1.00  0.00     0.170 C 
HETATM    7  S1  UNL     1       0.728  41.927 -12.963  1.00  0.00    -0.041 SA
BRANCH   6   8
HETATM    8  N1  UNL     1       2.797  40.379 -12.678  1.00  0.00    -0.364 N 
ATOM      9  H1  UNL     1       2.769  40.354 -11.658  1.00  0.00     0.162 HD
BRANCH   8  10
HETATM   10  C3  UNL     1       4.081  40.197 -13.363  1.00  0.00     0.148 C 
BRANCH  10  11
HETATM   11  C2  UNL     1       4.741  38.939 -12.970  1.00  0.00    -0.018 C 
HETATM   12  C1  UNL     1       4.302  37.741 -13.306  1.00  0.00     0.008 C 
ENDBRANCH  10  11
ENDBRANCH   8  10
ENDBRANCH   6   8
ENDBRANCH   1   6
BRANCH   5  13
HETATM   13  C9  UNL     1       0.604  37.598 -13.239  1.00  0.00     0.045 C 
BRANCH  13  14
HETATM   14  C10 UNL     1      -0.706  36.774 -13.185  1.00  0.00     0.123 C 
BRANCH  14  15
HETATM   15  N3  UNL     1      -0.530  35.649 -12.281  1.00  0.00    -0.369 N 
ATOM     16  H3  UNL     1      -0.861  35.712 -11.318  1.00  0.00     0.161 HD
BRANCH  15  17
HETATM   17  C11 UNL     1       0.096  34.474 -12.732  1.00  0.00     0.180 C 
HETATM   18  N4  UNL     1       0.746  33.556 -11.868  1.00  0.00    -0.070 NA
HETATM   19  S2  UNL     1       0.085  34.133 -14.323  1.00  0.00    -0.044 SA
ENDBRANCH  15  17
ENDBRANCH  14  15
ENDBRANCH  13  14
ENDBRANCH   5  13
TORSDOF 8
ENDMDL
MODEL 5
REMARK VINA RESULT: -6.086472721      1.075      1.333
REMARK  8 active torsions:
REMARK  status: ('A' for Active; 'I' for Inactive)
REMARK    1  A    between atoms: C2_2  and  C3_3 
REMARK    2  A    between atoms: C3_3  and  N1_4 
REMARK    3  A    between atoms: N1_4  and  C4_6 
REMARK    4  A    between atoms: C4_6  and  N2_8 
REMARK    5  A    between atoms: C8_12  and  C9_13 
REMARK    6  A    between atoms: C9_13  and  C10_14 
REMARK    7  A    between atoms: C10_14  and  N3_15 
REMARK    8  A    between atoms: N3_15  and  C11_17 
ROOT
HETATM    1  N2  UNL     1       1.301  39.493 -13.695  1.00  0.00    -0.354 N 
HETATM    2  C5  UNL     1       1.252  40.861 -13.103  1.00  0.00     0.126 C 
HETATM    3  C6  UNL     1      -0.208  41.175 -13.322  1.00  0.00     0.022 C 
HETATM    4  C7  UNL     1      -0.884  39.872 -12.976  1.00  0.00     0.027 C 
HETATM    5  C8  UNL     1       0.194  38.808 -13.114  1.00  0.00     0.088 C 
ENDROOT
BRANCH   1   6
HETATM    6  C4  UNL     1       2.293  39.132 -14.602  1.00  0.00     0.170 C 
HETATM    7  S1  UNL     1       2.408  39.864 -16.076  1.00  0.00    -0.041 SA
BRANCH   6   8
HETATM    8  N1  UNL     1       3.262  38.128 -14.339  1.00  0.00    -0.364 N 
ATOM      9  H1  UNL     1       3.307  37.310 -14.946  1.00  0.00     0.162 HD
BRANCH   8  10
HETATM   10  C3  UNL     1       4.199  38.238 -13.216  1.00  0.00     0.148 C 
BRANCH  10  11
HETATM   11  C2  UNL     1       5.491  38.815 -13.631  1.00  0.00    -0.018 C 
HETATM   12  C1  UNL     1       5.701  40.107 -13.796  1.00  0.00     0.008 C 
ENDBRANCH  10  11
ENDBRANCH   8  10
ENDBRANCH   6   8
ENDBRANCH   1   6
BRANCH   5  13
HETATM   13  C9  UNL     1      -0.400  37.670 -13.853  1.00  0.00     0.045 C 
BRANCH  13  14
HETATM   14  C10 UNL     1      -0.790  36.631 -12.772  1.00  0.00     0.123 C 
BRANCH  14  15
HETATM   15  N3  UNL     1       0.378  35.838 -12.423  1.00  0.00    -0.369 N 
ATOM     16  H3  UNL     1       1.165  36.274 -11.943  1.00  0.00     0.161 HD
BRANCH  15  17
HETATM   17  C11 UNL     1       0.423  34.471 -12.747  1.00  0.00     0.180 C 
HETATM   18  N4  UNL     1       0.774  33.461 -11.815  1.00  0.00    -0.070 NA
HETATM   19  S2  UNL     1       0.058  34.005 -14.262  1.00  0.00    -0.044 SA
ENDBRANCH  15  17
ENDBRANCH  14  15
ENDBRANCH  13  14
ENDBRANCH   5  13
TORSDOF 8
ENDMDL
