MODEL 1
REMARK VINA RESULT: -7.543386783      0.000      0.000
REMARK  5 active torsions:
REMARK  status: ('A' for Active; 'I' for Inactive)
REMARK    1  A    between atoms: N3_4  and  C2_6 
REMARK    2  A    between atoms: C2_6  and  C3_7 
REMARK    3  A    between atoms: C3_7  and  C4_8 
REMARK    4  A    between atoms: C4_8  and  C5_9 
REMARK    5  A    between atoms: C5_9  and  N4_10 
ROOT
HETATM    1  N4  UNL     1       1.919  39.020 -14.886  1.00  0.00    -0.268 N 
HETATM    2  C6  UNL     1       2.296  39.003 -13.493  1.00  0.00     0.326 C 
HETATM    3  O1  UNL     1       2.738  40.002 -12.869  1.00  0.00    -0.247 OA
HETATM    4  N5  UNL     1       2.078  37.703 -12.994  1.00  0.00    -0.324 N 
ATOM      5  H5  UNL     1       2.487  37.302 -12.150  1.00  0.00     0.165 HD
HETATM    6  C7  UNL     1       1.158  37.039 -13.910  1.00  0.00     0.116 C 
HETATM    7  C8  UNL     1       1.557  35.615 -14.047  1.00  0.00     0.041 C 
HETATM    8  C9  UNL     1       0.400  34.784 -14.539  1.00  0.00     0.003 C 
HETATM    9  C10 UNL     1      -0.766  34.809 -13.583  1.00  0.00     0.000 C 
HETATM   10  C11 UNL     1      -0.949  36.130 -12.895  1.00  0.00     0.003 C 
HETATM   11  C12 UNL     1      -0.274  37.271 -13.611  1.00  0.00     0.041 C 
HETATM   12  C13 UNL     1       1.480  37.733 -15.217  1.00  0.00     0.256 C 
HETATM   13  O2  UNL     1       1.353  37.194 -16.330  1.00  0.00    -0.270 OA
ENDROOT
BRANCH   1  14
HETATM   14  C5  UNL     1       2.026  40.182 -15.732  1.00  0.00     0.137 C 
BRANCH  14  15
HETATM   15  C4  UNL     1       0.759  40.622 -16.380  1.00  0.00     0.022 C 
BRANCH  15  16
HETATM   16  C3  UNL     1       0.190  41.877 -15.840  1.00  0.00     0.021 C 
BRANCH  16  17
HETATM   17  C2  UNL     1       0.241  41.947 -14.333  1.00  0.00     0.122 C 
BRANCH  17  18
HETATM   18  N3  UNL     1      -0.759  41.039 -13.786  1.00  0.00    -0.367 N 
HETATM   19  C1  UNL     1      -0.953  41.043 -12.514  1.00  0.00     0.196 C 
HETATM   20  N1  UNL     1      -0.228  41.895 -11.658  1.00  0.00    -0.067 NA
HETATM   21  N2  UNL     1      -1.948  40.135 -11.997  1.00  0.00    -0.067 NA
ATOM     22  H3  UNL     1      -1.290  40.417 -14.396  1.00  0.00     0.161 HD
ENDBRANCH  17  18
ENDBRANCH  16  17
ENDBRANCH  15  16
ENDBRANCH  14  15
ENDBRANCH   1  14
TORSDOF 5
ENDMDL
MODEL 2
REMARK VINA RESULT: -7.518153670      2.232      4.980
REMARK  5 active torsions:
REMARK  status: ('A' for Active; 'I' for Inactive)
REMARK    1  A    between atoms: N3_4  and  C2_6 
REMARK    2  A    between atoms: C2_6  and  C3_7 
REMARK    3  A    between atoms: C3_7  and  C4_8 
REMARK    4  A    between atoms: C4_8  and  C5_9 
REMARK    5  A    between atoms: C5_9  and  N4_10 
ROOT
HETATM    1  N4  UNL     1       2.997  39.621 -14.555  1.00  0.00    -0.268 N 
HETATM    2  C6  UNL     1       2.262  39.086 -15.677  1.00  0.00     0.326 C 
HETATM    3  O1  UNL     1       2.775  38.383 -16.586  1.00  0.00    -0.247 OA
HETATM    4  N5  UNL     1       0.918  39.490 -15.555  1.00  0.00    -0.324 N 
ATOM      5  H5  UNL     1       0.222  39.509 -16.301  1.00  0.00     0.165 HD
HETATM    6  C7  UNL     1       0.707  39.875 -14.165  1.00  0.00     0.116 C 
HETATM    7  C8  UNL     1      -0.196  41.052 -14.120  1.00  0.00     0.041 C 
HETATM    8  C9  UNL     1      -0.846  41.173 -12.766  1.00  0.00     0.003 C 
HETATM    9  C10 UNL     1      -1.694  39.973 -12.432  1.00  0.00     0.000 C 
HETATM   10  C11 UNL     1      -1.138  38.681 -12.954  1.00  0.00     0.003 C 
HETATM   11  C12 UNL     1       0.333  38.753 -13.271  1.00  0.00     0.041 C 
HETATM   12  C13 UNL     1       2.092  40.344 -13.769  1.00  0.00     0.256 C 
HETATM   13  O2  UNL     1       2.302  41.210 -12.902  1.00  0.00    -0.270 OA
ENDROOT
BRANCH   1  14
HETATM   14  C5  UNL     1       4.411  39.429 -14.357  1.00  0.00     0.137 C 
BRANCH  14  15
HETATM   15  C4  UNL     1       4.785  38.565 -13.203  1.00  0.00     0.022 C 
BRANCH  15  16
HETATM   16  C3  UNL     1       4.691  37.111 -13.461  1.00  0.00     0.021 C 
BRANCH  16  17
HETATM   17  C2  UNL     1       3.339  36.536 -13.111  1.00  0.00     0.122 C 
BRANCH  17  18
HETATM   18  N3  UNL     1       2.692  36.080 -14.334  1.00  0.00    -0.367 N 
HETATM   19  C1  UNL     1       1.570  35.457 -14.232  1.00  0.00     0.196 C 
HETATM   20  N1  UNL     1       0.970  35.214 -12.980  1.00  0.00    -0.067 NA
HETATM   21  N2  UNL     1       0.949  35.016 -15.457  1.00  0.00    -0.067 NA
ATOM     22  H3  UNL     1       3.116  36.250 -15.245  1.00  0.00     0.161 HD
ENDBRANCH  17  18
ENDBRANCH  16  17
ENDBRANCH  15  16
ENDBRANCH  14  15
ENDBRANCH   1  14
TORSDOF 5
ENDMDL
MODEL 3
REMARK VINA RESULT: -7.367103943      2.388      5.380
REMARK  5 active torsions:
REMARK  status: ('A' for Active; 'I' for Inactive)
REMARK    1  A    between atoms: N3_4  and  C2_6 
REMARK    2  A    between atoms: C2_6  and  C3_7 
REMARK    3  A    between atoms: C3_7  and  C4_8 
REMARK    4  A    between atoms: C4_8  and  C5_9 
REMARK    5  A    between atoms: C5_9  and  N4_10 
ROOT
HETATM    1  N4  UNL     1       1.219  40.557 -13.839  1.00  0.00    -0.268 N 
HETATM    2  C6  UNL     1       2.654  40.456 -13.720  1.00  0.00     0.326 C 
HETATM    3  O1  UNL     1       3.251  40.078 -12.679  1.00  0.00    -0.247 OA
HETATM    4  N5  UNL     1       3.226  40.848 -14.946  1.00  0.00    -0.324 N 
ATOM      5  H5  UNL     1       4.191  41.143 -15.098  1.00  0.00     0.165 HD
HETATM    6  C7  UNL     1       2.181  40.754 -15.958  1.00  0.00     0.116 C 
HETATM    7  C8  UNL     1       2.328  41.884 -16.912  1.00  0.00     0.041 C 
HETATM    8  C9  UNL     1       1.643  41.570 -18.217  1.00  0.00     0.003 C 
HETATM    9  C10 UNL     1       2.236  40.362 -18.895  1.00  0.00     0.000 C 
HETATM   10  C11 UNL     1       2.687  39.297 -17.938  1.00  0.00     0.003 C 
HETATM   11  C12 UNL     1       2.050  39.415 -16.578  1.00  0.00     0.041 C 
HETATM   12  C13 UNL     1       0.938  41.010 -15.133  1.00  0.00     0.256 C 
HETATM   13  O2  UNL     1      -0.096  41.528 -15.590  1.00  0.00    -0.270 OA
ENDROOT
BRANCH   1  14
HETATM   14  C5  UNL     1       0.302  40.254 -12.769  1.00  0.00     0.137 C 
BRANCH  14  15
HETATM   15  C4  UNL     1      -0.760  39.263 -13.097  1.00  0.00     0.022 C 
BRANCH  15  16
HETATM   16  C3  UNL     1      -0.265  37.902 -13.402  1.00  0.00     0.021 C 
BRANCH  16  17
HETATM   17  C2  UNL     1      -1.150  36.813 -12.843  1.00  0.00     0.122 C 
BRANCH  17  18
HETATM   18  N3  UNL     1      -0.312  35.817 -12.189  1.00  0.00    -0.367 N 
HETATM   19  C1  UNL     1      -0.181  34.667 -12.754  1.00  0.00     0.196 C 
HETATM   20  N1  UNL     1      -0.823  34.364 -13.971  1.00  0.00    -0.067 NA
HETATM   21  N2  UNL     1       0.654  33.698 -12.087  1.00  0.00    -0.067 NA
ATOM     22  H3  UNL     1       0.158  36.025 -11.308  1.00  0.00     0.161 HD
ENDBRANCH  17  18
ENDBRANCH  16  17
ENDBRANCH  15  16
ENDBRANCH  14  15
ENDBRANCH   1  14
TORSDOF 5
ENDMDL
MODEL 4
REMARK VINA RESULT: -7.351224124      2.680      5.292
REMARK  5 active torsions:
REMARK  status: ('A' for Active; 'I' for Inactive)
REMARK    1  A    between atoms: N3_4  and  C2_6 
REMARK    2  A    between atoms: C2_6  and  C3_7 
REMARK    3  A    between atoms: C3_7  and  C4_8 
REMARK    4  A    between atoms: C4_8  and  C5_9 
REMARK    5  A    between atoms: C5_9  and  N4_10 
ROOT
HETATM    1  N4  UNL     1       1.480  40.317 -13.673  1.00  0.00    -0.268 N 
HETATM    2  C6  UNL     1       1.728  41.171 -14.810  1.00  0.00     0.326 C 
HETATM    3  O1  UNL     1       0.965  42.103 -15.172  1.00  0.00    -0.247 OA
HETATM    4  N5  UNL     1       2.941  40.771 -15.405  1.00  0.00    -0.324 N 
ATOM      5  H5  UNL     1       3.249  40.983 -16.354  1.00  0.00     0.165 HD
HETATM    6  C7  UNL     1       3.673  39.995 -14.411  1.00  0.00     0.116 C 
HETATM    7  C8  UNL     1       4.367  38.871 -15.089  1.00  0.00     0.041 C 
HETATM    8  C9  UNL     1       5.510  38.365 -14.247  1.00  0.00     0.003 C 
HETATM    9  C10 UNL     1       6.553  39.426 -14.006  1.00  0.00     0.000 C 
HETATM   10  C11 UNL     1       5.982  40.806 -13.857  1.00  0.00     0.003 C 
HETATM   11  C12 UNL     1       4.518  40.807 -13.504  1.00  0.00     0.041 C 
HETATM   12  C13 UNL     1       2.542  39.408 -13.593  1.00  0.00     0.256 C 
HETATM   13  O2  UNL     1       2.619  38.321 -12.994  1.00  0.00    -0.270 OA
ENDROOT
BRANCH   1  14
HETATM   14  C5  UNL     1       0.315  40.420 -12.830  1.00  0.00     0.137 C 
BRANCH  14  15
HETATM   15  C4  UNL     1      -0.844  39.576 -13.234  1.00  0.00     0.022 C 
BRANCH  15  16
HETATM   16  C3  UNL     1      -0.915  38.259 -12.564  1.00  0.00     0.021 C 
BRANCH  16  17
HETATM   17  C2  UNL     1      -0.466  37.121 -13.450  1.00  0.00     0.122 C 
BRANCH  17  18
HETATM   18  N3  UNL     1       0.205  36.123 -12.628  1.00  0.00    -0.367 N 
HETATM   19  C1  UNL     1      -0.066  34.882 -12.836  1.00  0.00     0.196 C 
HETATM   20  N1  UNL     1      -0.984  34.482 -13.827  1.00  0.00    -0.067 NA
HETATM   21  N2  UNL     1       0.612  33.913 -12.009  1.00  0.00    -0.067 NA
ATOM     22  H3  UNL     1       0.872  36.400 -11.907  1.00  0.00     0.161 HD
ENDBRANCH  17  18
ENDBRANCH  16  17
ENDBRANCH  15  16
ENDBRANCH  14  15
ENDBRANCH   1  14
TORSDOF 5
ENDMDL
MODEL 5
REMARK VINA RESULT: -7.346759076      1.024      1.230
REMARK  5 active torsions:
REMARK  status: ('A' for Active; 'I' for Inactive)
REMARK    1  A    between atoms: N3_4  and  C2_6 
REMARK    2  A    between atoms: C2_6  and  C3_7 
REMARK    3  A    between atoms: C3_7  and  C4_8 
REMARK    4  A    between atoms: C4_8  and  C5_9 
REMARK    5  A    between atoms: C5_9  and  N4_10 
ROOT
HETATM    1  N4  UNL     1       2.525  39.462 -14.955  1.00  0.00    -0.268 N 
HETATM    2  C6  UNL     1       2.706  39.769 -13.556  1.00  0.00     0.326 C 
HETATM    3  O1  UNL     1       3.195  40.846 -13.127  1.00  0.00    -0.247 OA
HETATM    4  N5  UNL     1       2.246  38.672 -12.801  1.00  0.00    -0.324 N 
ATOM      5  H5  UNL     1       2.480  38.465 -11.830  1.00  0.00     0.165 HD
HETATM    6  C7  UNL     1       1.374  37.888 -13.667  1.00  0.00     0.116 C 
HETATM    7  C8  UNL     1       1.586  36.445 -13.390  1.00  0.00     0.041 C 
HETATM    8  C9  UNL     1       0.401  35.635 -13.849  1.00  0.00     0.003 C 
HETATM    9  C10 UNL     1      -0.866  36.024 -13.133  1.00  0.00     0.000 C 
HETATM   10  C11 UNL     1      -0.955  37.490 -12.823  1.00  0.00     0.003 C 
HETATM   11  C12 UNL     1      -0.040  38.332 -13.672  1.00  0.00     0.041 C 
HETATM   12  C13 UNL     1       1.960  38.184 -15.032  1.00  0.00     0.256 C 
HETATM   13  O2  UNL     1       1.909  37.390 -15.988  1.00  0.00    -0.270 OA
ENDROOT
BRANCH   1  14
HETATM   14  C5  UNL     1       2.903  40.348 -16.027  1.00  0.00     0.137 C 
BRANCH  14  15
HETATM   15  C4  UNL     1       2.010  41.521 -16.234  1.00  0.00     0.022 C 
BRANCH  15  16
HETATM   16  C3  UNL     1       0.565  41.202 -16.273  1.00  0.00     0.021 C 
BRANCH  16  17
HETATM   17  C2  UNL     1      -0.275  42.171 -15.476  1.00  0.00     0.122 C 
BRANCH  17  18
HETATM   18  N3  UNL     1      -0.574  41.577 -14.179  1.00  0.00    -0.367 N 
HETATM   19  C1  UNL     1      -0.081  42.133 -13.128  1.00  0.00     0.196 C 
HETATM   20  N1  UNL     1       0.727  43.285 -13.211  1.00  0.00    -0.067 NA
HETATM   21  N2  UNL     1      -0.391  41.527 -11.857  1.00  0.00    -0.067 NA
ATOM     22  H3  UNL     1      -1.157  40.744 -14.107  1.00  0.00     0.161 HD
ENDBRANCH  17  18
ENDBRANCH  16  17
ENDBRANCH  15  16
ENDBRANCH  14  15
ENDBRANCH   1  14
TORSDOF 5
ENDMDL
