MODEL 1
REMARK VINA RESULT: -6.301195194      0.000      0.000
REMARK  7 active torsions:
REMARK  status: ('A' for Active; 'I' for Inactive)
REMARK    1  A    between atoms: C2_2  and  C3_3 
REMARK    2  A    between atoms: C3_3  and  N1_4 
REMARK    3  A    between atoms: N1_4  and  C4_6 
REMARK    4  A    between atoms: C4_6  and  N2_8 
REMARK    5  A    between atoms: N2_8  and  C5_10 
REMARK    6  A    between atoms: C5_10  and  C6_11 
REMARK    7  A    between atoms: C6_11  and  N3_12 
REMARK       I    between atoms: N3_12  and  C7_14 
REMARK       I    between atoms: C7_14  and  N4_16 
ROOT
HETATM    1  C6  UNL     1       4.378  37.794 -13.344  1.00  0.00     0.144 C 
ENDROOT
BRANCH   1   2
HETATM    2  C5  UNL     1       3.578  36.566 -13.105  1.00  0.00     0.141 C 
BRANCH   2   3
HETATM    3  N2  UNL     1       2.670  36.173 -14.125  1.00  0.00    -0.366 N 
ATOM      4  H2  UNL     1       3.003  36.044 -15.080  1.00  0.00     0.161 HD
BRANCH   3   5
HETATM    5  C4  UNL     1       1.275  35.956 -13.809  1.00  0.00     0.167 C 
HETATM    6  S1  UNL     1       0.418  34.818 -14.603  1.00  0.00    -0.041 SA
BRANCH   5   7
HETATM    7  N1  UNL     1       0.634  36.719 -12.817  1.00  0.00    -0.364 N 
ATOM      8  H1  UNL     1       1.122  36.875 -11.935  1.00  0.00     0.162 HD
BRANCH   7   9
HETATM    9  C3  UNL     1      -0.664  37.284 -12.983  1.00  0.00     0.148 C 
BRANCH   9  10
HETATM   10  C2  UNL     1      -0.609  38.677 -13.495  1.00  0.00    -0.018 C 
HETATM   11  C1  UNL     1      -1.207  39.673 -12.861  1.00  0.00     0.008 C 
ENDBRANCH   9  10
ENDBRANCH   7   9
ENDBRANCH   5   7
ENDBRANCH   3   5
ENDBRANCH   2   3
ENDBRANCH   1   2
BRANCH   1  12
HETATM   12  N3  UNL     1       3.656  38.605 -14.352  1.00  0.00    -0.341 N 
HETATM   13  C7  UNL     1       2.916  39.732 -13.975  1.00  0.00     0.318 C 
HETATM   14  O1  UNL     1       2.890  40.028 -12.729  1.00  0.00    -0.247 OA
HETATM   15  N4  UNL     1       2.208  40.554 -14.852  1.00  0.00    -0.334 N 
HETATM   16  C8  UNL     1       1.503  41.694 -14.225  1.00  0.00     0.127 C 
HETATM   17  C13 UNL     1       2.175  40.293 -16.253  1.00  0.00     0.127 C 
HETATM   18  C9  UNL     1       1.012  42.679 -15.254  1.00  0.00     0.020 C 
HETATM   19  C10 UNL     1      -0.263  42.088 -15.842  1.00  0.00     0.002 C 
HETATM   20  C11 UNL     1       0.004  41.252 -17.060  1.00  0.00     0.002 C 
HETATM   21  C12 UNL     1       0.770  40.000 -16.756  1.00  0.00     0.020 C 
ATOM     22  H3  UNL     1       3.698  38.338 -15.335  1.00  0.00     0.164 HD
ENDBRANCH   1  12
TORSDOF 7
ENDMDL
MODEL 2
REMARK VINA RESULT: -6.206299965      3.243      5.586
REMARK  7 active torsions:
REMARK  status: ('A' for Active; 'I' for Inactive)
REMARK    1  A    between atoms: C2_2  and  C3_3 
REMARK    2  A    between atoms: C3_3  and  N1_4 
REMARK    3  A    between atoms: N1_4  and  C4_6 
REMARK    4  A    between atoms: C4_6  and  N2_8 
REMARK    5  A    between atoms: N2_8  and  C5_10 
REMARK    6  A    between atoms: C5_10  and  C6_11 
REMARK    7  A    between atoms: C6_11  and  N3_12 
REMARK       I    between atoms: N3_12  and  C7_14 
REMARK       I    between atoms: C7_14  and  N4_16 
ROOT
HETATM    1  C6  UNL     1      -0.487  35.706 -12.828  1.00  0.00     0.144 C 
ENDROOT
BRANCH   1   2
HETATM    2  C5  UNL     1      -0.609  34.736 -13.946  1.00  0.00     0.141 C 
BRANCH   2   3
HETATM    3  N2  UNL     1       0.127  33.526 -13.840  1.00  0.00    -0.366 N 
ATOM      4  H2  UNL     1       0.179  33.038 -12.945  1.00  0.00     0.161 HD
BRANCH   3   5
HETATM    5  C4  UNL     1       0.802  32.983 -14.999  1.00  0.00     0.167 C 
HETATM    6  S1  UNL     1       1.572  33.971 -16.041  1.00  0.00    -0.041 SA
BRANCH   5   7
HETATM    7  N1  UNL     1       0.807  31.598 -15.246  1.00  0.00    -0.364 N 
ATOM      8  H1  UNL     1       0.318  31.252 -16.072  1.00  0.00     0.162 HD
BRANCH   7   9
HETATM    9  C3  UNL     1       1.461  30.657 -14.400  1.00  0.00     0.148 C 
BRANCH   9  10
HETATM   10  C2  UNL     1       2.518  29.896 -15.115  1.00  0.00    -0.018 C 
HETATM   11  C1  UNL     1       3.448  30.508 -15.830  1.00  0.00     0.008 C 
ENDBRANCH   9  10
ENDBRANCH   7   9
ENDBRANCH   5   7
ENDBRANCH   3   5
ENDBRANCH   2   3
ENDBRANCH   1   2
BRANCH   1  12
HETATM   12  N3  UNL     1       0.451  36.767 -13.263  1.00  0.00    -0.341 N 
HETATM   13  C7  UNL     1       1.835  36.609 -13.118  1.00  0.00     0.318 C 
HETATM   14  O1  UNL     1       2.250  35.515 -12.596  1.00  0.00    -0.247 OA
HETATM   15  N4  UNL     1       2.791  37.550 -13.500  1.00  0.00    -0.334 N 
HETATM   16  C8  UNL     1       4.198  37.161 -13.255  1.00  0.00     0.127 C 
HETATM   17  C13 UNL     1       2.417  38.797 -14.080  1.00  0.00     0.127 C 
HETATM   18  C9  UNL     1       5.161  38.091 -13.947  1.00  0.00     0.020 C 
HETATM   19  C10 UNL     1       5.253  39.339 -13.080  1.00  0.00     0.002 C 
HETATM   20  C11 UNL     1       4.259  40.389 -13.484  1.00  0.00     0.002 C 
HETATM   21  C12 UNL     1       2.840  39.984 -13.227  1.00  0.00     0.020 C 
ATOM     22  H3  UNL     1       0.084  37.625 -13.673  1.00  0.00     0.164 HD
ENDBRANCH   1  12
TORSDOF 7
ENDMDL
MODEL 3
REMARK VINA RESULT: -6.065099721      5.357      7.998
REMARK  7 active torsions:
REMARK  status: ('A' for Active; 'I' for Inactive)
REMARK    1  A    between atoms: C2_2  and  C3_3 
REMARK    2  A    between atoms: C3_3  and  N1_4 
REMARK    3  A    between atoms: N1_4  and  C4_6 
REMARK    4  A    between atoms: C4_6  and  N2_8 
REMARK    5  A    between atoms: N2_8  and  C5_10 
REMARK    6  A    between atoms: C5_10  and  C6_11 
REMARK    7  A    between atoms: C6_11  and  N3_12 
REMARK       I    between atoms: N3_12  and  C7_14 
REMARK       I    between atoms: C7_14  and  N4_16 
ROOT
HETATM    1  C6  UNL     1       0.761  33.972 -14.856  1.00  0.00     0.144 C 
ENDROOT
BRANCH   1   2
HETATM    2  C5  UNL     1       1.205  35.369 -15.094  1.00  0.00     0.141 C 
BRANCH   2   3
HETATM    3  N2  UNL     1       2.252  35.867 -14.273  1.00  0.00    -0.366 N 
ATOM      4  H2  UNL     1       3.103  35.319 -14.145  1.00  0.00     0.161 HD
BRANCH   3   5
HETATM    5  C4  UNL     1       2.112  37.150 -13.619  1.00  0.00     0.167 C 
HETATM    6  S1  UNL     1       3.403  38.129 -13.441  1.00  0.00    -0.041 SA
BRANCH   5   7
HETATM    7  N1  UNL     1       0.865  37.574 -13.125  1.00  0.00    -0.364 N 
ATOM      8  H1  UNL     1       0.443  37.050 -12.359  1.00  0.00     0.162 HD
BRANCH   7   9
HETATM    9  C3  UNL     1       0.163  38.701 -13.644  1.00  0.00     0.148 C 
BRANCH   9  10
HETATM   10  C2  UNL     1      -1.115  38.947 -12.926  1.00  0.00    -0.018 C 
HETATM   11  C1  UNL     1      -1.491  40.166 -12.580  1.00  0.00     0.008 C 
ENDBRANCH   9  10
ENDBRANCH   7   9
ENDBRANCH   5   7
ENDBRANCH   3   5
ENDBRANCH   2   3
ENDBRANCH   1   2
BRANCH   1  12
HETATM   12  N3  UNL     1       1.156  33.174 -16.040  1.00  0.00    -0.341 N 
HETATM   13  C7  UNL     1       1.511  31.826 -15.915  1.00  0.00     0.318 C 
HETATM   14  O1  UNL     1       1.480  31.316 -14.739  1.00  0.00    -0.247 OA
HETATM   15  N4  UNL     1       1.893  30.998 -16.970  1.00  0.00    -0.334 N 
HETATM   16  C8  UNL     1       2.219  29.603 -16.598  1.00  0.00     0.127 C 
HETATM   17  C13 UNL     1       1.965  31.484 -18.308  1.00  0.00     0.127 C 
HETATM   18  C9  UNL     1       2.340  28.717 -17.811  1.00  0.00     0.020 C 
HETATM   19  C10 UNL     1       3.717  28.982 -18.403  1.00  0.00     0.002 C 
HETATM   20  C11 UNL     1       3.692  30.065 -19.443  1.00  0.00     0.002 C 
HETATM   21  C12 UNL     1       3.374  31.416 -18.876  1.00  0.00     0.020 C 
ATOM     22  H3  UNL     1       1.170  33.613 -16.960  1.00  0.00     0.164 HD
ENDBRANCH   1  12
TORSDOF 7
ENDMDL
MODEL 4
REMARK VINA RESULT: -5.990165983      3.820      5.527
REMARK  7 active torsions:
REMARK  status: ('A' for Active; 'I' for Inactive)
REMARK    1  A    between atoms: C2_2  and  C3_3 
REMARK    2  A    between atoms: C3_3  and  N1_4 
REMARK    3  A    between atoms: N1_4  and  C4_6 
REMARK    4  A    between atoms: C4_6  and  N2_8 
REMARK    5  A    between atoms: N2_8  and  C5_10 
REMARK    6  A    between atoms: C5_10  and  C6_11 
REMARK    7  A    between atoms: C6_11  and  N3_12 
REMARK       I    between atoms: N3_12  and  C7_14 
REMARK       I    between atoms: C7_14  and  N4_16 
ROOT
HETATM    1  C6  UNL     1       0.323  34.620 -12.980  1.00  0.00     0.144 C 
ENDROOT
BRANCH   1   2
HETATM    2  C5  UNL     1       0.251  34.065 -14.356  1.00  0.00     0.141 C 
BRANCH   2   3
HETATM    3  N2  UNL     1       0.373  32.658 -14.497  1.00  0.00    -0.366 N 
ATOM      4  H2  UNL     1      -0.124  32.037 -13.858  1.00  0.00     0.161 HD
BRANCH   3   5
HETATM    5  C4  UNL     1       1.203  32.102 -15.545  1.00  0.00     0.167 C 
HETATM    6  S1  UNL     1       1.982  33.085 -16.586  1.00  0.00    -0.041 SA
BRANCH   5   7
HETATM    7  N1  UNL     1       1.350  30.710 -15.684  1.00  0.00    -0.364 N 
ATOM      8  H1  UNL     1       0.798  30.233 -16.396  1.00  0.00     0.162 HD
BRANCH   7   9
HETATM    9  C3  UNL     1       2.235  29.935 -14.879  1.00  0.00     0.148 C 
BRANCH   9  10
HETATM   10  C2  UNL     1       3.523  29.657 -15.566  1.00  0.00    -0.018 C 
HETATM   11  C1  UNL     1       3.570  29.347 -16.851  1.00  0.00     0.008 C 
ENDBRANCH   9  10
ENDBRANCH   7   9
ENDBRANCH   5   7
ENDBRANCH   3   5
ENDBRANCH   2   3
ENDBRANCH   1   2
BRANCH   1  12
HETATM   12  N3  UNL     1       0.706  36.046 -13.097  1.00  0.00    -0.341 N 
HETATM   13  C7  UNL     1      -0.261  37.058 -13.065  1.00  0.00     0.318 C 
HETATM   14  O1  UNL     1      -1.483  36.698 -12.933  1.00  0.00    -0.247 OA
HETATM   15  N4  UNL     1       0.007  38.423 -13.165  1.00  0.00    -0.334 N 
HETATM   16  C8  UNL     1      -1.178  39.309 -13.100  1.00  0.00     0.127 C 
HETATM   17  C13 UNL     1       1.336  38.911 -13.324  1.00  0.00     0.127 C 
HETATM   18  C9  UNL     1      -0.784  40.753 -12.928  1.00  0.00     0.020 C 
HETATM   19  C10 UNL     1      -0.364  41.253 -14.303  1.00  0.00     0.002 C 
HETATM   20  C11 UNL     1       1.108  41.087 -14.546  1.00  0.00     0.002 C 
HETATM   21  C12 UNL     1       1.530  39.652 -14.638  1.00  0.00     0.020 C 
ATOM     22  H3  UNL     1       1.690  36.295 -13.202  1.00  0.00     0.164 HD
ENDBRANCH   1  12
TORSDOF 7
ENDMDL
MODEL 5
REMARK VINA RESULT: -5.954460913      3.987      5.561
REMARK  7 active torsions:
REMARK  status: ('A' for Active; 'I' for Inactive)
REMARK    1  A    between atoms: C2_2  and  C3_3 
REMARK    2  A    between atoms: C3_3  and  N1_4 
REMARK    3  A    between atoms: N1_4  and  C4_6 
REMARK    4  A    between atoms: C4_6  and  N2_8 
REMARK    5  A    between atoms: N2_8  and  C5_10 
REMARK    6  A    between atoms: C5_10  and  C6_11 
REMARK    7  A    between atoms: C6_11  and  N3_12 
REMARK       I    between atoms: N3_12  and  C7_14 
REMARK       I    between atoms: C7_14  and  N4_16 
ROOT
HETATM    1  C6  UNL     1       0.795  33.995 -15.262  1.00  0.00     0.144 C 
ENDROOT
BRANCH   1   2
HETATM    2  C5  UNL     1       1.834  33.598 -16.247  1.00  0.00     0.141 C 
BRANCH   2   3
HETATM    3  N2  UNL     1       1.527  32.517 -17.115  1.00  0.00    -0.366 N 
ATOM      4  H2  UNL     1       0.974  32.682 -17.957  1.00  0.00     0.161 HD
BRANCH   3   5
HETATM    5  C4  UNL     1       1.997  31.183 -16.808  1.00  0.00     0.167 C 
HETATM    6  S1  UNL     1       1.617  29.932 -17.780  1.00  0.00    -0.041 SA
BRANCH   5   7
HETATM    7  N1  UNL     1       2.786  30.944 -15.668  1.00  0.00    -0.364 N 
ATOM      8  H1  UNL     1       3.641  31.486 -15.548  1.00  0.00     0.162 HD
BRANCH   7   9
HETATM    9  C3  UNL     1       2.448  29.980 -14.674  1.00  0.00     0.148 C 
BRANCH   9  10
HETATM   10  C2  UNL     1       1.228  30.358 -13.915  1.00  0.00    -0.018 C 
HETATM   11  C1  UNL     1       0.996  29.891 -12.699  1.00  0.00     0.008 C 
ENDBRANCH   9  10
ENDBRANCH   7   9
ENDBRANCH   5   7
ENDBRANCH   3   5
ENDBRANCH   2   3
ENDBRANCH   1   2
BRANCH   1  12
HETATM   12  N3  UNL     1       0.990  35.434 -14.968  1.00  0.00    -0.341 N 
HETATM   13  C7  UNL     1       0.068  36.142 -14.188  1.00  0.00     0.318 C 
HETATM   14  O1  UNL     1      -0.944  35.495 -13.743  1.00  0.00    -0.247 OA
HETATM   15  N4  UNL     1       0.171  37.493 -13.859  1.00  0.00    -0.334 N 
HETATM   16  C8  UNL     1      -0.922  38.026 -13.014  1.00  0.00     0.127 C 
HETATM   17  C13 UNL     1       1.259  38.291 -14.318  1.00  0.00     0.127 C 
HETATM   18  C9  UNL     1      -0.592  39.393 -12.474  1.00  0.00     0.020 C 
HETATM   19  C10 UNL     1      -0.855  40.379 -13.605  1.00  0.00     0.002 C 
HETATM   20  C11 UNL     1       0.369  40.631 -14.438  1.00  0.00     0.002 C 
HETATM   21  C12 UNL     1       0.805  39.429 -15.219  1.00  0.00     0.020 C 
ATOM     22  H3  UNL     1       1.807  35.916 -15.340  1.00  0.00     0.164 HD
ENDBRANCH   1  12
TORSDOF 7
ENDMDL
