MODEL 1
REMARK VINA RESULT: -8.838192856      0.000      0.000
REMARK  9 active torsions:
REMARK  status: ('A' for Active; 'I' for Inactive)
REMARK    1  A    between atoms: N1_2  and  C3_4 
REMARK    2  A    between atoms: C4_7  and  N3_8 
REMARK    3  A    between atoms: N4_11  and  C7_12 
REMARK    4  A    between atoms: C7_12  and  C8_13 
REMARK    5  A    between atoms: C8_13  and  C9_15 
REMARK    6  A    between atoms: C9_15  and  O2_16 
REMARK    7  A    between atoms: O2_16  and  C10_17 
REMARK    8  A    between atoms: C12_21  and  N6_22 
REMARK    9  A    between atoms: C15_32  and  N9_33 
ROOT
HETATM    1  N3  UNL     1      41.521 267.299 157.095  1.00  0.00    -0.188 N 
HETATM    2  C5  UNL     1      42.616 268.111 156.590  1.00  0.00     0.173 C 
HETATM    3  C6  UNL     1      43.691 267.915 157.604  1.00  0.00     0.295 C 
HETATM    4  N4  UNL     1      42.987 267.658 158.854  1.00  0.00     0.115 N 
HETATM    5  C14 UNL     1      41.873 266.810 158.407  1.00  0.00     0.414 C 
ENDROOT
BRANCH   4   6
HETATM    6  C7  UNL     1      42.441 268.893 159.407  1.00  0.00     0.354 C 
BRANCH   6   7
HETATM    7  C8  UNL     1      42.712 268.890 160.857  1.00  0.00     0.179 C 
HETATM    8  O1  UNL     1      43.640 268.252 161.291  1.00  0.00    -0.294 OA
BRANCH   7   9
HETATM    9  C9  UNL     1      41.850 269.653 161.769  1.00  0.00     0.256 C 
BRANCH   9  10
HETATM   10  O2  UNL     1      41.458 270.921 161.245  1.00  0.00    -0.337 OA
BRANCH  10  11
HETATM   11  C10 UNL     1      40.071 271.045 161.025  1.00  0.00     0.153 A 
HETATM   12  C11 UNL     1      39.418 270.387 160.016  1.00  0.00     0.148 A 
HETATM   13  N5  UNL     1      38.092 270.576 159.892  1.00  0.00    -0.199 N 
HETATM   14  C12 UNL     1      37.410 271.385 160.721  1.00  0.00     0.678 A 
ATOM     15  H5  UNL     1      37.590 270.093 159.147  1.00  0.00     0.183 HD
HETATM   16  N7  UNL     1      38.024 272.047 161.724  1.00  0.00    -0.154 N 
HETATM   17  C13 UNL     1      39.369 271.869 161.869  1.00  0.00     0.294 A 
ATOM     18  H7  UNL     1      37.501 272.658 162.351  1.00  0.00     0.187 HD
HETATM   19  O3  UNL     1      39.945 272.481 162.799  1.00  0.00    -0.265 OA
BRANCH  14  20
HETATM   20  N6  UNL     1      36.142 271.495 160.512  1.00  0.00    -0.234 N 
ATOM     21  H62 UNL     1      35.551 270.678 160.356  1.00  0.00     0.174 HD
ATOM     22  H61 UNL     1      35.757 272.439 160.507  1.00  0.00     0.174 HD
ENDBRANCH  14  20
ENDBRANCH  10  11
ENDBRANCH   9  10
ENDBRANCH   7   9
ENDBRANCH   6   7
ENDBRANCH   4   6
BRANCH   1  23
HETATM   23  C4  UNL     1      40.313 267.030 156.407  1.00  0.00     0.711 A 
HETATM   24  N2  UNL     1      40.286 266.505 155.169  1.00  0.00    -0.021 N 
HETATM   25  C3  UNL     1      39.161 266.248 154.500  1.00  0.00     0.708 A 
ATOM     26  H2  UNL     1      41.175 266.291 154.716  1.00  0.00     0.203 HD
HETATM   27  N10 UNL     1      38.006 266.528 155.094  1.00  0.00    -0.022 N 
HETATM   28  C15 UNL     1      37.954 267.059 156.341  1.00  0.00     0.705 A 
ATOM     29  H10 UNL     1      37.134 266.340 154.599  1.00  0.00     0.203 HD
HETATM   30  N8  UNL     1      39.108 267.303 156.982  1.00  0.00    -0.021 N 
ATOM     31  H8  UNL     1      39.083 267.700 157.921  1.00  0.00     0.203 HD
BRANCH  25  32
HETATM   32  N1  UNL     1      39.244 265.678 153.202  1.00  0.00    -0.225 N 
HETATM   33  C1  UNL     1      38.861 264.270 153.011  1.00  0.00     0.168 C 
HETATM   34  C2  UNL     1      39.704 266.435 152.082  1.00  0.00     0.168 C 
ENDBRANCH  25  32
BRANCH  28  35
HETATM   35  N9  UNL     1      36.837 267.329 156.910  1.00  0.00    -0.234 N 
ATOM     36  H92 UNL     1      36.786 267.950 157.717  1.00  0.00     0.174 HD
ATOM     37  H91 UNL     1      35.974 266.918 156.556  1.00  0.00     0.174 HD
ENDBRANCH  28  35
ENDBRANCH   1  23
TORSDOF 9
ENDMDL
MODEL 2
REMARK VINA RESULT: -8.667989785      2.292      2.777
REMARK  9 active torsions:
REMARK  status: ('A' for Active; 'I' for Inactive)
REMARK    1  A    between atoms: N1_2  and  C3_4 
REMARK    2  A    between atoms: C4_7  and  N3_8 
REMARK    3  A    between atoms: N4_11  and  C7_12 
REMARK    4  A    between atoms: C7_12  and  C8_13 
REMARK    5  A    between atoms: C8_13  and  C9_15 
REMARK    6  A    between atoms: C9_15  and  O2_16 
REMARK    7  A    between atoms: O2_16  and  C10_17 
REMARK    8  A    between atoms: C12_21  and  N6_22 
REMARK    9  A    between atoms: C15_32  and  N9_33 
ROOT
HETATM    1  N3  UNL     1      41.321 267.337 157.166  1.00  0.00    -0.188 N 
HETATM    2  C5  UNL     1      42.477 268.065 156.671  1.00  0.00     0.173 C 
HETATM    3  C6  UNL     1      43.465 267.944 157.781  1.00  0.00     0.295 C 
HETATM    4  N4  UNL     1      42.661 267.832 158.990  1.00  0.00     0.115 N 
HETATM    5  C14 UNL     1      41.556 266.973 158.543  1.00  0.00     0.414 C 
ENDROOT
BRANCH   4   6
HETATM    6  C7  UNL     1      42.117 269.130 159.375  1.00  0.00     0.354 C 
BRANCH   6   7
HETATM    7  C8  UNL     1      42.151 269.209 160.848  1.00  0.00     0.179 C 
HETATM    8  O1  UNL     1      41.224 268.782 161.492  1.00  0.00    -0.294 OA
BRANCH   7   9
HETATM    9  C9  UNL     1      43.306 269.812 161.527  1.00  0.00     0.256 C 
BRANCH   9  10
HETATM   10  O2  UNL     1      43.268 271.238 161.543  1.00  0.00    -0.337 OA
BRANCH  10  11
HETATM   11  C10 UNL     1      42.651 271.782 162.688  1.00  0.00     0.153 A 
HETATM   12  C11 UNL     1      42.523 271.088 163.862  1.00  0.00     0.148 A 
HETATM   13  N5  UNL     1      41.915 271.700 164.895  1.00  0.00    -0.199 N 
HETATM   14  C12 UNL     1      41.439 272.953 164.797  1.00  0.00     0.678 A 
ATOM     15  H5  UNL     1      41.812 271.198 165.777  1.00  0.00     0.183 HD
HETATM   16  N7  UNL     1      41.550 273.662 163.654  1.00  0.00    -0.154 N 
HETATM   17  C13 UNL     1      42.164 273.062 162.593  1.00  0.00     0.294 A 
ATOM     18  H7  UNL     1      41.188 274.613 163.586  1.00  0.00     0.187 HD
HETATM   19  O3  UNL     1      42.270 273.716 161.530  1.00  0.00    -0.265 OA
BRANCH  14  20
HETATM   20  N6  UNL     1      40.874 273.443 165.848  1.00  0.00    -0.234 N 
ATOM     21  H62 UNL     1      41.204 273.221 166.787  1.00  0.00     0.174 HD
ATOM     22  H61 UNL     1      40.079 274.064 165.695  1.00  0.00     0.174 HD
ENDBRANCH  14  20
ENDBRANCH  10  11
ENDBRANCH   9  10
ENDBRANCH   7   9
ENDBRANCH   6   7
ENDBRANCH   4   6
BRANCH   1  23
HETATM   23  C4  UNL     1      40.160 267.031 156.415  1.00  0.00     0.711 A 
HETATM   24  N2  UNL     1      40.214 266.536 155.165  1.00  0.00    -0.021 N 
HETATM   25  C3  UNL     1      39.134 266.246 154.439  1.00  0.00     0.708 A 
ATOM     26  H2  UNL     1      41.132 266.373 154.751  1.00  0.00     0.203 HD
HETATM   27  N10 UNL     1      37.941 266.459 154.983  1.00  0.00    -0.022 N 
HETATM   28  C15 UNL     1      37.807 266.956 156.238  1.00  0.00     0.705 A 
ATOM     29  H10 UNL     1      37.103 266.244 154.443  1.00  0.00     0.203 HD
HETATM   30  N8  UNL     1      38.918 267.235 156.938  1.00  0.00    -0.021 N 
ATOM     31  H8  UNL     1      38.831 267.608 157.884  1.00  0.00     0.203 HD
BRANCH  25  32
HETATM   32  N1  UNL     1      39.304 265.712 153.134  1.00  0.00    -0.225 N 
HETATM   33  C1  UNL     1      38.950 264.306 152.881  1.00  0.00     0.168 C 
HETATM   34  C2  UNL     1      39.823 266.504 152.065  1.00  0.00     0.168 C 
ENDBRANCH  25  32
BRANCH  28  35
HETATM   35  N9  UNL     1      36.654 267.162 156.759  1.00  0.00    -0.234 N 
ATOM     36  H92 UNL     1      36.271 268.102 156.853  1.00  0.00     0.174 HD
ATOM     37  H91 UNL     1      36.098 266.374 157.091  1.00  0.00     0.174 HD
ENDBRANCH  28  35
ENDBRANCH   1  23
TORSDOF 9
ENDMDL
MODEL 3
REMARK VINA RESULT: -8.408366241      4.417      6.770
REMARK  9 active torsions:
REMARK  status: ('A' for Active; 'I' for Inactive)
REMARK    1  A    between atoms: N1_2  and  C3_4 
REMARK    2  A    between atoms: C4_7  and  N3_8 
REMARK    3  A    between atoms: N4_11  and  C7_12 
REMARK    4  A    between atoms: C7_12  and  C8_13 
REMARK    5  A    between atoms: C8_13  and  C9_15 
REMARK    6  A    between atoms: C9_15  and  O2_16 
REMARK    7  A    between atoms: O2_16  and  C10_17 
REMARK    8  A    between atoms: C12_21  and  N6_22 
REMARK    9  A    between atoms: C15_32  and  N9_33 
ROOT
HETATM    1  N3  UNL     1      43.437 269.554 161.379  1.00  0.00    -0.188 N 
HETATM    2  C5  UNL     1      44.624 270.004 162.087  1.00  0.00     0.173 C 
HETATM    3  C6  UNL     1      44.121 270.298 163.459  1.00  0.00     0.295 C 
HETATM    4  N4  UNL     1      42.728 270.684 163.274  1.00  0.00     0.115 N 
HETATM    5  C14 UNL     1      42.288 269.747 162.232  1.00  0.00     0.414 C 
ENDROOT
BRANCH   4   6
HETATM    6  C7  UNL     1      42.630 272.043 162.752  1.00  0.00     0.354 C 
BRANCH   6   7
HETATM    7  C8  UNL     1      41.423 272.659 163.336  1.00  0.00     0.179 C 
HETATM    8  O1  UNL     1      40.955 273.651 162.832  1.00  0.00    -0.294 OA
BRANCH   7   9
HETATM    9  C9  UNL     1      40.800 272.072 164.530  1.00  0.00     0.256 C 
BRANCH   9  10
HETATM   10  O2  UNL     1      40.692 272.989 165.617  1.00  0.00    -0.337 OA
BRANCH  10  11
HETATM   11  C10 UNL     1      41.383 272.584 166.778  1.00  0.00     0.153 A 
HETATM   12  C11 UNL     1      42.542 271.854 166.735  1.00  0.00     0.148 A 
HETATM   13  N5  UNL     1      43.121 271.518 167.902  1.00  0.00    -0.199 N 
HETATM   14  C12 UNL     1      42.593 271.876 169.085  1.00  0.00     0.678 A 
ATOM     15  H5  UNL     1      43.985 270.976 167.888  1.00  0.00     0.183 HD
HETATM   16  N7  UNL     1      41.454 272.594 169.160  1.00  0.00    -0.154 N 
HETATM   17  C13 UNL     1      40.849 272.947 167.988  1.00  0.00     0.294 A 
ATOM     18  H7  UNL     1      41.059 272.864 170.061  1.00  0.00     0.187 HD
HETATM   19  O3  UNL     1      39.790 273.615 168.053  1.00  0.00    -0.265 OA
BRANCH  14  20
HETATM   20  N6  UNL     1      43.230 271.500 170.142  1.00  0.00    -0.234 N 
ATOM     21  H62 UNL     1      42.780 270.947 170.871  1.00  0.00     0.174 HD
ATOM     22  H61 UNL     1      44.207 271.785 170.215  1.00  0.00     0.174 HD
ENDBRANCH  14  20
ENDBRANCH  10  11
ENDBRANCH   9  10
ENDBRANCH   7   9
ENDBRANCH   6   7
ENDBRANCH   4   6
BRANCH   1  23
HETATM   23  C4  UNL     1      43.417 269.011 160.072  1.00  0.00     0.711 A 
HETATM   24  N2  UNL     1      44.441 269.155 159.211  1.00  0.00    -0.021 N 
HETATM   25  C3  UNL     1      44.441 268.657 157.974  1.00  0.00     0.708 A 
ATOM     26  H2  UNL     1      45.262 269.676 159.521  1.00  0.00     0.203 HD
HETATM   27  N10 UNL     1      43.370 267.980 157.575  1.00  0.00    -0.022 N 
HETATM   28  C15 UNL     1      42.300 267.792 158.387  1.00  0.00     0.705 A 
ATOM     29  H10 UNL     1      43.351 267.591 156.632  1.00  0.00     0.203 HD
HETATM   30  N8  UNL     1      42.338 268.309 159.625  1.00  0.00    -0.021 N 
ATOM     31  H8  UNL     1      41.540 268.174 160.246  1.00  0.00     0.203 HD
BRANCH  25  32
HETATM   32  N1  UNL     1      45.581 268.854 157.150  1.00  0.00    -0.225 N 
HETATM   33  C1  UNL     1      46.742 269.577 157.693  1.00  0.00     0.168 C 
HETATM   34  C2  UNL     1      45.621 268.381 155.804  1.00  0.00     0.168 C 
ENDBRANCH  25  32
BRANCH  28  35
HETATM   35  N9  UNL     1      41.268 267.139 157.998  1.00  0.00    -0.234 N 
ATOM     36  H92 UNL     1      40.489 266.948 158.627  1.00  0.00     0.174 HD
ATOM     37  H91 UNL     1      41.214 266.798 157.038  1.00  0.00     0.174 HD
ENDBRANCH  28  35
ENDBRANCH   1  23
TORSDOF 9
ENDMDL
MODEL 4
REMARK VINA RESULT: -8.337635177      4.364      6.620
REMARK  9 active torsions:
REMARK  status: ('A' for Active; 'I' for Inactive)
REMARK    1  A    between atoms: N1_2  and  C3_4 
REMARK    2  A    between atoms: C4_7  and  N3_8 
REMARK    3  A    between atoms: N4_11  and  C7_12 
REMARK    4  A    between atoms: C7_12  and  C8_13 
REMARK    5  A    between atoms: C8_13  and  C9_15 
REMARK    6  A    between atoms: C9_15  and  O2_16 
REMARK    7  A    between atoms: O2_16  and  C10_17 
REMARK    8  A    between atoms: C12_21  and  N6_22 
REMARK    9  A    between atoms: C15_32  and  N9_33 
ROOT
HETATM    1  N3  UNL     1      43.704 269.729 161.349  1.00  0.00    -0.188 N 
HETATM    2  C5  UNL     1      44.892 270.265 161.991  1.00  0.00     0.173 C 
HETATM    3  C6  UNL     1      44.448 270.519 163.391  1.00  0.00     0.295 C 
HETATM    4  N4  UNL     1      43.022 270.800 163.288  1.00  0.00     0.115 N 
HETATM    5  C14 UNL     1      42.594 269.835 162.267  1.00  0.00     0.414 C 
ENDROOT
BRANCH   4   6
HETATM    6  C7  UNL     1      42.794 272.149 162.780  1.00  0.00     0.354 C 
BRANCH   6   7
HETATM    7  C8  UNL     1      41.446 272.565 163.211  1.00  0.00     0.179 C 
HETATM    8  O1  UNL     1      40.825 273.361 162.549  1.00  0.00    -0.294 OA
BRANCH   7   9
HETATM    9  C9  UNL     1      40.865 272.019 164.445  1.00  0.00     0.256 C 
BRANCH   9  10
HETATM   10  O2  UNL     1      40.762 272.982 165.493  1.00  0.00    -0.337 OA
BRANCH  10  11
HETATM   11  C10 UNL     1      41.388 272.590 166.694  1.00  0.00     0.153 A 
HETATM   12  C11 UNL     1      42.546 271.858 166.722  1.00  0.00     0.148 A 
HETATM   13  N5  UNL     1      43.061 271.536 167.922  1.00  0.00    -0.199 N 
HETATM   14  C12 UNL     1      42.471 271.909 169.071  1.00  0.00     0.678 A 
ATOM     15  H5  UNL     1      43.924 270.992 167.962  1.00  0.00     0.183 HD
HETATM   16  N7  UNL     1      41.331 272.630 169.076  1.00  0.00    -0.154 N 
HETATM   17  C13 UNL     1      40.791 272.970 167.870  1.00  0.00     0.294 A 
ATOM     18  H7  UNL     1      40.889 272.912 169.951  1.00  0.00     0.187 HD
HETATM   19  O3  UNL     1      39.732 273.640 167.869  1.00  0.00    -0.265 OA
BRANCH  14  20
HETATM   20  N6  UNL     1      43.050 271.545 170.165  1.00  0.00    -0.234 N 
ATOM     21  H62 UNL     1      44.065 271.489 170.242  1.00  0.00     0.174 HD
ATOM     22  H61 UNL     1      42.442 271.315 170.952  1.00  0.00     0.174 HD
ENDBRANCH  14  20
ENDBRANCH  10  11
ENDBRANCH   9  10
ENDBRANCH   7   9
ENDBRANCH   6   7
ENDBRANCH   4   6
BRANCH   1  23
HETATM   23  C4  UNL     1      43.649 269.188 160.042  1.00  0.00     0.711 A 
HETATM   24  N2  UNL     1      42.528 268.656 159.524  1.00  0.00    -0.021 N 
HETATM   25  C3  UNL     1      42.456 268.136 158.298  1.00  0.00     0.708 A 
ATOM     26  H2  UNL     1      41.686 268.649 160.101  1.00  0.00     0.203 HD
HETATM   27  N10 UNL     1      43.554 268.147 157.550  1.00  0.00    -0.022 N 
HETATM   28  C15 UNL     1      44.722 268.668 158.005  1.00  0.00     0.705 A 
ATOM     29  H10 UNL     1      43.519 267.754 156.610  1.00  0.00     0.203 HD
HETATM   30  N8  UNL     1      44.754 269.182 159.244  1.00  0.00    -0.021 N 
ATOM     31  H8  UNL     1      45.626 269.577 159.597  1.00  0.00     0.203 HD
BRANCH  25  32
HETATM   32  N1  UNL     1      41.216 267.613 157.842  1.00  0.00    -0.225 N 
HETATM   33  C1  UNL     1      41.154 266.957 156.526  1.00  0.00     0.168 C 
HETATM   34  C2  UNL     1      40.027 267.722 158.625  1.00  0.00     0.168 C 
ENDBRANCH  25  32
BRANCH  28  35
HETATM   35  N9  UNL     1      45.780 268.675 157.281  1.00  0.00    -0.234 N 
ATOM     36  H92 UNL     1      46.615 268.157 157.552  1.00  0.00     0.174 HD
ATOM     37  H91 UNL     1      45.798 269.210 156.413  1.00  0.00     0.174 HD
ENDBRANCH  28  35
ENDBRANCH   1  23
TORSDOF 9
ENDMDL
MODEL 5
REMARK VINA RESULT: -8.269785417      4.455      6.380
REMARK  9 active torsions:
REMARK  status: ('A' for Active; 'I' for Inactive)
REMARK    1  A    between atoms: N1_2  and  C3_4 
REMARK    2  A    between atoms: C4_7  and  N3_8 
REMARK    3  A    between atoms: N4_11  and  C7_12 
REMARK    4  A    between atoms: C7_12  and  C8_13 
REMARK    5  A    between atoms: C8_13  and  C9_15 
REMARK    6  A    between atoms: C9_15  and  O2_16 
REMARK    7  A    between atoms: O2_16  and  C10_17 
REMARK    8  A    between atoms: C12_21  and  N6_22 
REMARK    9  A    between atoms: C15_32  and  N9_33 
ROOT
HETATM    1  N3  UNL     1      42.961 270.042 161.796  1.00  0.00    -0.188 N 
HETATM    2  C5  UNL     1      44.404 270.128 161.646  1.00  0.00     0.173 C 
HETATM    3  C6  UNL     1      44.875 270.481 163.016  1.00  0.00     0.295 C 
HETATM    4  N4  UNL     1      43.776 271.230 163.611  1.00  0.00     0.115 N 
HETATM    5  C14 UNL     1      42.604 270.492 163.121  1.00  0.00     0.414 C 
ENDROOT
BRANCH   4   6
HETATM    6  C7  UNL     1      43.727 272.589 163.082  1.00  0.00     0.354 C 
BRANCH   6   7
HETATM    7  C8  UNL     1      42.348 273.085 163.255  1.00  0.00     0.179 C 
HETATM    8  O1  UNL     1      41.592 273.090 162.314  1.00  0.00    -0.294 OA
BRANCH   7   9
HETATM    9  C9  UNL     1      41.901 273.579 164.564  1.00  0.00     0.256 C 
BRANCH   9  10
HETATM   10  O2  UNL     1      41.133 272.624 165.294  1.00  0.00    -0.337 OA
BRANCH  10  11
HETATM   11  C10 UNL     1      41.580 272.419 166.615  1.00  0.00     0.153 A 
HETATM   12  C11 UNL     1      42.708 271.700 166.913  1.00  0.00     0.148 A 
HETATM   13  N5  UNL     1      43.047 271.562 168.208  1.00  0.00    -0.199 N 
HETATM   14  C12 UNL     1      42.312 272.104 169.194  1.00  0.00     0.678 A 
ATOM     15  H5  UNL     1      43.884 271.031 168.448  1.00  0.00     0.183 HD
HETATM   16  N7  UNL     1      41.197 272.818 168.934  1.00  0.00    -0.154 N 
HETATM   17  C13 UNL     1      40.835 272.971 167.627  1.00  0.00     0.294 A 
ATOM     18  H7  UNL     1      40.645 273.228 169.686  1.00  0.00     0.187 HD
HETATM   19  O3  UNL     1      39.800 273.633 167.379  1.00  0.00    -0.265 OA
BRANCH  14  20
HETATM   20  N6  UNL     1      42.727 271.911 170.401  1.00  0.00    -0.234 N 
ATOM     21  H62 UNL     1      43.721 271.862 170.624  1.00  0.00     0.174 HD
ATOM     22  H61 UNL     1      42.013 271.807 171.121  1.00  0.00     0.174 HD
ENDBRANCH  14  20
ENDBRANCH  10  11
ENDBRANCH   9  10
ENDBRANCH   7   9
ENDBRANCH   6   7
ENDBRANCH   4   6
BRANCH   1  23
HETATM   23  C4  UNL     1      42.058 269.585 160.806  1.00  0.00     0.711 A 
HETATM   24  N2  UNL     1      42.464 268.933 159.701  1.00  0.00    -0.021 N 
HETATM   25  C3  UNL     1      41.632 268.498 158.753  1.00  0.00     0.708 A 
ATOM     26  H2  UNL     1      43.462 268.762 159.581  1.00  0.00     0.203 HD
HETATM   27  N10 UNL     1      40.332 268.723 158.914  1.00  0.00    -0.022 N 
HETATM   28  C15 UNL     1      39.849 269.373 160.002  1.00  0.00     0.705 A 
ATOM     29  H10 UNL     1      39.680 268.398 158.199  1.00  0.00     0.203 HD
HETATM   30  N8  UNL     1      40.718 269.795 160.934  1.00  0.00    -0.021 N 
ATOM     31  H8  UNL     1      40.366 270.283 161.758  1.00  0.00     0.203 HD
BRANCH  25  32
HETATM   32  N1  UNL     1      42.164 267.806 157.633  1.00  0.00    -0.225 N 
HETATM   33  C1  UNL     1      43.550 268.072 157.216  1.00  0.00     0.168 C 
HETATM   34  C2  UNL     1      41.380 266.870 156.893  1.00  0.00     0.168 C 
ENDBRANCH  25  32
BRANCH  28  35
HETATM   35  N9  UNL     1      38.594 269.588 160.152  1.00  0.00    -0.234 N 
ATOM     36  H92 UNL     1      38.249 270.297 160.798  1.00  0.00     0.174 HD
ATOM     37  H91 UNL     1      37.917 269.043 159.619  1.00  0.00     0.174 HD
ENDBRANCH  28  35
ENDBRANCH   1  23
TORSDOF 9
ENDMDL
