MODEL 1
REMARK VINA RESULT: -6.819667438      0.000      0.000
REMARK  8 active torsions:
REMARK  status: ('A' for Active; 'I' for Inactive)
REMARK    1  A    between atoms: C2_2  and  O1_3 
REMARK    2  A    between atoms: O1_3  and  C3_4 
REMARK       I    between atoms: C3_4  and  N1_6 
REMARK    3  A    between atoms: N1_6  and  C4_8 
REMARK    4  A    between atoms: C4_8  and  C6_10 
REMARK    5  A    between atoms: C6_10  and  C7_11 
REMARK       I    between atoms: C7_11  and  N2_13 
REMARK    6  A    between atoms: N2_13  and  N3_14 
REMARK    7  A    between atoms: N3_14  and  C8_16 
REMARK    8  A    between atoms: C8_16  and  N4_18 
REMARK       I    between atoms: N4_18  and  C9_20 
ROOT
HETATM    1  C7  UNL     1     -24.197  -1.900 -22.769  1.00  0.00     0.314 C 
HETATM    2  O3  UNL     1     -23.493  -2.816 -22.173  1.00  0.00    -0.255 OA
HETATM    3  N2  UNL     1     -24.049  -0.606 -22.683  1.00  0.00    -0.285 NA
ENDROOT
BRANCH   1   4
HETATM    4  C6  UNL     1     -25.324  -2.438 -23.666  1.00  0.00     0.146 C 
BRANCH   4   5
HETATM    5  C4  UNL     1     -24.808  -2.921 -24.969  1.00  0.00     0.092 C 
HETATM    6  C5  UNL     1     -24.999  -4.437 -25.109  1.00  0.00     0.032 C 
BRANCH   5   7
HETATM    7  N1  UNL     1     -25.392  -2.228 -26.099  1.00  0.00    -0.332 N 
HETATM    8  C3  UNL     1     -24.994  -0.976 -26.599  1.00  0.00     0.360 C 
HETATM    9  O2  UNL     1     -24.077  -0.289 -26.143  1.00  0.00    -0.239 OA
ATOM     10  H1  UNL     1     -26.165  -2.692 -26.576  1.00  0.00     0.165 HD
BRANCH   8  11
HETATM   11  O1  UNL     1     -25.698  -0.481 -27.697  1.00  0.00    -0.304 OA
BRANCH  11  12
HETATM   12  C2  UNL     1     -25.322  -0.554 -29.039  1.00  0.00     0.176 C 
HETATM   13  C1  UNL     1     -26.617  -0.481 -29.861  1.00  0.00     0.034 C 
ENDBRANCH  11  12
ENDBRANCH   8  11
ENDBRANCH   5   7
ENDBRANCH   4   5
ENDBRANCH   1   4
BRANCH   3  14
HETATM   14  N3  UNL     1     -23.888   0.761 -22.587  1.00  0.00    -0.205 N 
ATOM     15  H3  UNL     1     -24.659   1.366 -22.306  1.00  0.00     0.204 HD
BRANCH  14  16
HETATM   16  C8  UNL     1     -22.604   1.294 -22.895  1.00  0.00     0.203 C 
HETATM   17  S1  UNL     1     -21.490   0.365 -23.594  1.00  0.00    -0.038 SA
BRANCH  16  18
HETATM   18  N4  UNL     1     -22.290   2.665 -22.570  1.00  0.00    -0.302 N 
HETATM   19  C9  UNL     1     -23.309   3.589 -22.292  1.00  0.00     0.219 C 
HETATM   20  C10 UNL     1     -22.909   4.992 -21.953  1.00  0.00     0.117 C 
HETATM   21  O4  UNL     1     -24.517   3.299 -22.310  1.00  0.00    -0.274 OA
ATOM     22  H4  UNL     1     -21.316   2.967 -22.543  1.00  0.00     0.171 HD
ENDBRANCH  16  18
ENDBRANCH  14  16
ENDBRANCH   3  14
TORSDOF 8
ENDMDL
MODEL 2
REMARK VINA RESULT: -6.693335334      2.218      3.166
REMARK  8 active torsions:
REMARK  status: ('A' for Active; 'I' for Inactive)
REMARK    1  A    between atoms: C2_2  and  O1_3 
REMARK    2  A    between atoms: O1_3  and  C3_4 
REMARK       I    between atoms: C3_4  and  N1_6 
REMARK    3  A    between atoms: N1_6  and  C4_8 
REMARK    4  A    between atoms: C4_8  and  C6_10 
REMARK    5  A    between atoms: C6_10  and  C7_11 
REMARK       I    between atoms: C7_11  and  N2_13 
REMARK    6  A    between atoms: N2_13  and  N3_14 
REMARK    7  A    between atoms: N3_14  and  C8_16 
REMARK    8  A    between atoms: C8_16  and  N4_18 
REMARK       I    between atoms: N4_18  and  C9_20 
ROOT
HETATM    1  C7  UNL     1     -24.710  -1.490 -25.331  1.00  0.00     0.314 C 
HETATM    2  O3  UNL     1     -25.306  -2.591 -25.679  1.00  0.00    -0.255 OA
HETATM    3  N2  UNL     1     -24.313  -1.149 -24.135  1.00  0.00    -0.285 NA
ENDROOT
BRANCH   1   4
HETATM    4  C6  UNL     1     -24.464  -0.500 -26.480  1.00  0.00     0.146 C 
BRANCH   4   5
HETATM    5  C4  UNL     1     -25.542  -0.554 -27.496  1.00  0.00     0.092 C 
HETATM    6  C5  UNL     1     -26.732   0.322 -27.082  1.00  0.00     0.032 C 
BRANCH   5   7
HETATM    7  N1  UNL     1     -25.086  -0.199 -28.823  1.00  0.00    -0.332 N 
HETATM    8  C3  UNL     1     -25.710  -0.545 -30.035  1.00  0.00     0.360 C 
HETATM    9  O2  UNL     1     -26.748  -1.203 -30.134  1.00  0.00    -0.239 OA
ATOM     10  H1  UNL     1     -24.231   0.355 -28.886  1.00  0.00     0.165 HD
BRANCH   8  11
HETATM   11  O1  UNL     1     -25.099  -0.107 -31.209  1.00  0.00    -0.304 OA
BRANCH  11  12
HETATM   12  C2  UNL     1     -24.091  -0.755 -31.925  1.00  0.00     0.176 C 
HETATM   13  C1  UNL     1     -23.665   0.203 -33.047  1.00  0.00     0.034 C 
ENDBRANCH  11  12
ENDBRANCH   8  11
ENDBRANCH   5   7
ENDBRANCH   4   5
ENDBRANCH   1   4
BRANCH   3  14
HETATM   14  N3  UNL     1     -23.896  -0.794 -22.868  1.00  0.00    -0.205 N 
ATOM     15  H3  UNL     1     -24.239  -1.283 -22.041  1.00  0.00     0.204 HD
BRANCH  14  16
HETATM   16  C8  UNL     1     -22.967   0.280 -22.759  1.00  0.00     0.203 C 
HETATM   17  S1  UNL     1     -21.569   0.223 -23.555  1.00  0.00    -0.038 SA
BRANCH  16  18
HETATM   18  N4  UNL     1     -23.269   1.419 -21.925  1.00  0.00    -0.302 N 
HETATM   19  C9  UNL     1     -24.497   2.089 -22.041  1.00  0.00     0.219 C 
HETATM   20  C10 UNL     1     -24.746   3.257 -21.137  1.00  0.00     0.117 C 
HETATM   21  O4  UNL     1     -25.381   1.760 -22.850  1.00  0.00    -0.274 OA
ATOM     22  H4  UNL     1     -22.583   1.741 -21.243  1.00  0.00     0.171 HD
ENDBRANCH  16  18
ENDBRANCH  14  16
ENDBRANCH   3  14
TORSDOF 8
ENDMDL
MODEL 3
REMARK VINA RESULT: -6.626400256      2.697      6.778
REMARK  8 active torsions:
REMARK  status: ('A' for Active; 'I' for Inactive)
REMARK    1  A    between atoms: C2_2  and  O1_3 
REMARK    2  A    between atoms: O1_3  and  C3_4 
REMARK       I    between atoms: C3_4  and  N1_6 
REMARK    3  A    between atoms: N1_6  and  C4_8 
REMARK    4  A    between atoms: C4_8  and  C6_10 
REMARK    5  A    between atoms: C6_10  and  C7_11 
REMARK       I    between atoms: C7_11  and  N2_13 
REMARK    6  A    between atoms: N2_13  and  N3_14 
REMARK    7  A    between atoms: N3_14  and  C8_16 
REMARK    8  A    between atoms: C8_16  and  N4_18 
REMARK       I    between atoms: N4_18  and  C9_20 
ROOT
HETATM    1  C7  UNL     1     -24.843  -2.035 -25.742  1.00  0.00     0.314 C 
HETATM    2  O3  UNL     1     -25.672  -2.796 -25.092  1.00  0.00    -0.255 OA
HETATM    3  N2  UNL     1     -24.930  -1.651 -26.986  1.00  0.00    -0.285 NA
ENDROOT
BRANCH   1   4
HETATM    4  C6  UNL     1     -23.634  -1.554 -24.923  1.00  0.00     0.146 C 
BRANCH   4   5
HETATM    5  C4  UNL     1     -23.982  -1.341 -23.498  1.00  0.00     0.092 C 
HETATM    6  C5  UNL     1     -23.373  -2.437 -22.613  1.00  0.00     0.032 C 
BRANCH   5   7
HETATM    7  N1  UNL     1     -23.605  -0.029 -23.016  1.00  0.00    -0.332 N 
HETATM    8  C3  UNL     1     -22.299   0.488 -22.954  1.00  0.00     0.360 C 
HETATM    9  O2  UNL     1     -21.282  -0.110 -23.314  1.00  0.00    -0.239 OA
ATOM     10  H1  UNL     1     -24.358   0.577 -22.689  1.00  0.00     0.165 HD
BRANCH   8  11
HETATM   11  O1  UNL     1     -22.153   1.778 -22.446  1.00  0.00    -0.304 OA
BRANCH  11  12
HETATM   12  C2  UNL     1     -23.168   2.625 -21.996  1.00  0.00     0.176 C 
HETATM   13  C1  UNL     1     -22.758   4.050 -22.393  1.00  0.00     0.034 C 
ENDBRANCH  11  12
ENDBRANCH   8  11
ENDBRANCH   5   7
ENDBRANCH   4   5
ENDBRANCH   1   4
BRANCH   3  14
HETATM   14  N3  UNL     1     -25.028  -1.248 -28.303  1.00  0.00    -0.205 N 
ATOM     15  H3  UNL     1     -24.289  -1.454 -28.975  1.00  0.00     0.204 HD
BRANCH  14  16
HETATM   16  C8  UNL     1     -26.200  -0.536 -28.687  1.00  0.00     0.203 C 
HETATM   17  S1  UNL     1     -27.107   0.186 -27.570  1.00  0.00    -0.038 SA
BRANCH  16  18
HETATM   18  N4  UNL     1     -26.586  -0.468 -30.076  1.00  0.00    -0.302 N 
HETATM   19  C9  UNL     1     -25.629  -0.243 -31.077  1.00  0.00     0.219 C 
HETATM   20  C10 UNL     1     -26.101  -0.195 -32.499  1.00  0.00     0.117 C 
HETATM   21  O4  UNL     1     -24.419  -0.087 -30.843  1.00  0.00    -0.274 OA
ATOM     22  H4  UNL     1     -27.566  -0.585 -30.333  1.00  0.00     0.171 HD
ENDBRANCH  16  18
ENDBRANCH  14  16
ENDBRANCH   3  14
TORSDOF 8
ENDMDL
MODEL 4
REMARK VINA RESULT: -6.604724925      2.215      3.274
REMARK  8 active torsions:
REMARK  status: ('A' for Active; 'I' for Inactive)
REMARK    1  A    between atoms: C2_2  and  O1_3 
REMARK    2  A    between atoms: O1_3  and  C3_4 
REMARK       I    between atoms: C3_4  and  N1_6 
REMARK    3  A    between atoms: N1_6  and  C4_8 
REMARK    4  A    between atoms: C4_8  and  C6_10 
REMARK    5  A    between atoms: C6_10  and  C7_11 
REMARK       I    between atoms: C7_11  and  N2_13 
REMARK    6  A    between atoms: N2_13  and  N3_14 
REMARK    7  A    between atoms: N3_14  and  C8_16 
REMARK    8  A    between atoms: C8_16  and  N4_18 
REMARK       I    between atoms: N4_18  and  C9_20 
ROOT
HETATM    1  C7  UNL     1     -24.853  -1.080 -25.841  1.00  0.00     0.314 C 
HETATM    2  O3  UNL     1     -24.935  -2.373 -25.941  1.00  0.00    -0.255 OA
HETATM    3  N2  UNL     1     -24.723  -0.376 -24.750  1.00  0.00    -0.285 NA
ENDROOT
BRANCH   1   4
HETATM    4  C6  UNL     1     -24.922  -0.327 -27.180  1.00  0.00     0.146 C 
BRANCH   4   5
HETATM    5  C4  UNL     1     -26.049  -0.797 -28.020  1.00  0.00     0.092 C 
HETATM    6  C5  UNL     1     -27.392  -0.583 -27.309  1.00  0.00     0.032 C 
BRANCH   5   7
HETATM    7  N1  UNL     1     -26.066  -0.188 -29.333  1.00  0.00    -0.332 N 
HETATM    8  C3  UNL     1     -26.469  -0.808 -30.529  1.00  0.00     0.360 C 
HETATM    9  O2  UNL     1     -26.873  -1.969 -30.624  1.00  0.00    -0.239 OA
ATOM     10  H1  UNL     1     -25.758   0.782 -29.397  1.00  0.00     0.165 HD
BRANCH   8  11
HETATM   11  O1  UNL     1     -26.401  -0.042 -31.693  1.00  0.00    -0.304 OA
BRANCH  11  12
HETATM   12  C2  UNL     1     -25.544  -0.234 -32.777  1.00  0.00     0.176 C 
HETATM   13  C1  UNL     1     -24.117  -0.034 -32.248  1.00  0.00     0.034 C 
ENDBRANCH  11  12
ENDBRANCH   8  11
ENDBRANCH   5   7
ENDBRANCH   4   5
ENDBRANCH   1   4
BRANCH   3  14
HETATM   14  N3  UNL     1     -24.587   0.362 -23.592  1.00  0.00    -0.205 N 
ATOM     15  H3  UNL     1     -25.402   0.716 -23.091  1.00  0.00     0.204 HD
BRANCH  14  16
HETATM   16  C8  UNL     1     -23.265   0.612 -23.124  1.00  0.00     0.203 C 
HETATM   17  S1  UNL     1     -22.267  -0.616 -22.830  1.00  0.00    -0.038 SA
BRANCH  16  18
HETATM   18  N4  UNL     1     -22.818   1.966 -22.899  1.00  0.00    -0.302 N 
HETATM   19  C9  UNL     1     -23.620   2.879 -22.196  1.00  0.00     0.219 C 
HETATM   20  C10 UNL     1     -23.088   4.265 -21.992  1.00  0.00     0.117 C 
HETATM   21  O4  UNL     1     -24.738   2.594 -21.737  1.00  0.00    -0.274 OA
ATOM     22  H4  UNL     1     -21.910   2.263 -23.255  1.00  0.00     0.171 HD
ENDBRANCH  16  18
ENDBRANCH  14  16
ENDBRANCH   3  14
TORSDOF 8
ENDMDL
MODEL 5
REMARK VINA RESULT: -6.554812890      2.556      3.772
REMARK  8 active torsions:
REMARK  status: ('A' for Active; 'I' for Inactive)
REMARK    1  A    between atoms: C2_2  and  O1_3 
REMARK    2  A    between atoms: O1_3  and  C3_4 
REMARK       I    between atoms: C3_4  and  N1_6 
REMARK    3  A    between atoms: N1_6  and  C4_8 
REMARK    4  A    between atoms: C4_8  and  C6_10 
REMARK    5  A    between atoms: C6_10  and  C7_11 
REMARK       I    between atoms: C7_11  and  N2_13 
REMARK    6  A    between atoms: N2_13  and  N3_14 
REMARK    7  A    between atoms: N3_14  and  C8_16 
REMARK    8  A    between atoms: C8_16  and  N4_18 
REMARK       I    between atoms: N4_18  and  C9_20 
ROOT
HETATM    1  C7  UNL     1     -24.853  -1.507 -26.448  1.00  0.00     0.314 C 
HETATM    2  O3  UNL     1     -25.564  -2.552 -26.144  1.00  0.00    -0.255 OA
HETATM    3  N2  UNL     1     -24.103  -0.800 -25.647  1.00  0.00    -0.285 NA
ENDROOT
BRANCH   1   4
HETATM    4  C6  UNL     1     -24.931  -1.083 -27.923  1.00  0.00     0.146 C 
BRANCH   4   5
HETATM    5  C4  UNL     1     -26.294  -0.638 -28.299  1.00  0.00     0.092 C 
HETATM    6  C5  UNL     1     -26.828   0.399 -27.302  1.00  0.00     0.032 C 
BRANCH   5   7
HETATM    7  N1  UNL     1     -26.369  -0.130 -29.652  1.00  0.00    -0.332 N 
HETATM    8  C3  UNL     1     -26.593  -0.891 -30.813  1.00  0.00     0.360 C 
HETATM    9  O2  UNL     1     -26.763  -2.112 -30.837  1.00  0.00    -0.239 OA
ATOM     10  H1  UNL     1     -26.249   0.876 -29.775  1.00  0.00     0.165 HD
BRANCH   8  11
HETATM   11  O1  UNL     1     -26.621  -0.203 -32.025  1.00  0.00    -0.304 OA
BRANCH  11  12
HETATM   12  C2  UNL     1     -25.672  -0.260 -33.047  1.00  0.00     0.176 C 
HETATM   13  C1  UNL     1     -24.303  -0.041 -32.388  1.00  0.00     0.034 C 
ENDBRANCH  11  12
ENDBRANCH   8  11
ENDBRANCH   5   7
ENDBRANCH   4   5
ENDBRANCH   1   4
BRANCH   3  14
HETATM   14  N3  UNL     1     -23.311  -0.056 -24.796  1.00  0.00    -0.205 N 
ATOM     15  H3  UNL     1     -22.531   0.499 -25.148  1.00  0.00     0.204 HD
BRANCH  14  16
HETATM   16  C8  UNL     1     -23.626  -0.092 -23.407  1.00  0.00     0.203 C 
HETATM   17  S1  UNL     1     -23.669  -1.499 -22.625  1.00  0.00    -0.038 SA
BRANCH  16  18
HETATM   18  N4  UNL     1     -23.920   1.130 -22.697  1.00  0.00    -0.302 N 
HETATM   19  C9  UNL     1     -22.925   2.099 -22.495  1.00  0.00     0.219 C 
HETATM   20  C10 UNL     1     -23.304   3.348 -21.757  1.00  0.00     0.117 C 
HETATM   21  O4  UNL     1     -21.757   1.974 -22.897  1.00  0.00    -0.274 OA
ATOM     22  H4  UNL     1     -24.860   1.291 -22.338  1.00  0.00     0.171 HD
ENDBRANCH  16  18
ENDBRANCH  14  16
ENDBRANCH   3  14
TORSDOF 8
ENDMDL
