MODEL 1
REMARK VINA RESULT: -10.159773940      0.000      0.000
REMARK  10 active torsions:
REMARK  status: ('A' for Active; 'I' for Inactive)
REMARK    1  A    between atoms: C6_9  and  O1_10 
REMARK    2  A    between atoms: O1_10  and  C7_11 
REMARK    3  A    between atoms: C7_11  and  C8_12 
REMARK    4  A    between atoms: C7_11  and  C24_35 
REMARK    5  A    between atoms: C8_12  and  C9_13 
REMARK    6  A    between atoms: C9_13  and  N1_14 
REMARK       I    between atoms: N1_14  and  C10_16 
REMARK    7  A    between atoms: C10_16  and  C11_18 
REMARK    8  A    between atoms: C11_18  and  C13_20 
REMARK    9  A    between atoms: C16_24  and  N2_25 
REMARK       I    between atoms: C24_35  and  N4_37 
REMARK   10  A    between atoms: N4_37  and  C25_39 
ROOT
HETATM    1  C9  UNL     1      -3.367  27.179  15.468  1.00  0.00     0.125 C 
ENDROOT
BRANCH   1   2
HETATM    2  C8  UNL     1      -2.119  27.729  14.851  1.00  0.00     0.062 C 
BRANCH   2   3
HETATM    3  C7  UNL     1      -1.051  26.748  14.536  1.00  0.00     0.222 C 
BRANCH   3   4
HETATM    4  O1  UNL     1      -0.880  25.739  15.447  1.00  0.00    -0.331 OA
BRANCH   4   5
HETATM    5  C6  UNL     1       0.106  24.795  15.596  1.00  0.00     0.134 A 
HETATM    6  C5  UNL     1       1.419  25.175  15.666  1.00  0.00     0.193 A 
HETATM    7  C4  UNL     1       2.389  24.182  15.836  1.00  0.00     0.196 A 
HETATM    8  F3  UNL     1       1.857  26.477  15.496  1.00  0.00    -0.200 F 
HETATM    9  C3  UNL     1       2.041  22.850  15.928  1.00  0.00     0.165 A 
HETATM   10  F2  UNL     1       3.701  24.572  15.914  1.00  0.00    -0.199 F 
HETATM   11  C2  UNL     1       0.705  22.480  15.853  1.00  0.00     0.004 A 
HETATM   12  F1  UNL     1       2.975  21.881  16.094  1.00  0.00    -0.202 F 
HETATM   13  C1  UNL     1       0.324  21.025  15.957  1.00  0.00     0.053 C 
HETATM   14  C28 UNL     1      -0.237  23.450  15.688  1.00  0.00     0.079 A 
HETATM   15 CL1  UNL     1      -1.947  22.967  15.599  1.00  0.00    -0.081 Cl
ENDBRANCH   4   5
ENDBRANCH   3   4
BRANCH   3  16
HETATM   16  C24 UNL     1      -1.106  26.361  13.087  1.00  0.00     0.247 C 
HETATM   17  O3  UNL     1      -0.615  25.307  12.622  1.00  0.00    -0.271 OA
HETATM   18  N4  UNL     1      -1.743  27.187  12.097  1.00  0.00    -0.354 N 
ATOM     19  H4  UNL     1      -2.170  28.065  12.387  1.00  0.00     0.162 HD
BRANCH  18  20
HETATM   20  C25 UNL     1      -1.795  26.811  10.710  1.00  0.00     0.084 A 
HETATM   21  C26 UNL     1      -3.042  27.274   9.953  1.00  0.00     0.027 A 
HETATM   22  C27 UNL     1      -2.809  25.852  10.206  1.00  0.00     0.027 A 
ENDBRANCH  18  20
ENDBRANCH   3  16
ENDBRANCH   2   3
ENDBRANCH   1   2
BRANCH   1  23
HETATM   23  N1  UNL     1      -3.892  26.000  14.861  1.00  0.00    -0.360 N 
HETATM   24  C10 UNL     1      -4.681  26.143  13.669  1.00  0.00     0.226 C 
HETATM   25  O2  UNL     1      -4.937  27.257  13.173  1.00  0.00    -0.273 OA
ATOM     26  H1  UNL     1      -3.713  25.079  15.263  1.00  0.00     0.162 HD
BRANCH  24  27
HETATM   27  C11 UNL     1      -5.209  24.936  12.987  1.00  0.00     0.110 C 
HETATM   28  C12 UNL     1      -4.168  23.818  13.070  1.00  0.00     0.025 C 
BRANCH  27  29
HETATM   29  C13 UNL     1      -6.479  24.521  13.563  1.00  0.00    -0.004 A 
HETATM   30  C14 UNL     1      -6.486  23.810  14.759  1.00  0.00     0.055 A 
HETATM   31  C15 UNL     1      -7.695  23.380  15.319  1.00  0.00     0.143 A 
HETATM   32  F4  UNL     1      -7.555  22.687  16.474  1.00  0.00    -0.204 F 
HETATM   33  C16 UNL     1      -8.902  23.643  14.714  1.00  0.00     0.072 A 
HETATM   34  C22 UNL     1      -8.854  24.354  13.525  1.00  0.00     0.075 A 
HETATM   35  C23 UNL     1      -7.669  24.786  12.959  1.00  0.00     0.125 A 
HETATM   36  F5  UNL     1      -7.740  25.485  11.781  1.00  0.00    -0.205 F 
BRANCH  33  37
HETATM   37  N2  UNL     1     -10.110  23.217  15.293  1.00  0.00    -0.372 N 
HETATM   38  C17 UNL     1     -10.766  24.041  16.340  1.00  0.00     0.167 C 
HETATM   39  C18 UNL     1     -12.223  24.177  15.973  1.00  0.00     0.077 C 
HETATM   40  N3  UNL     1     -12.619  23.639  14.739  1.00  0.00    -0.394 N 
HETATM   41  C19 UNL     1     -12.885  24.527  13.665  1.00  0.00     0.148 C 
HETATM   42  C20 UNL     1     -12.178  22.330  14.406  1.00  0.00     0.141 C 
HETATM   43  C21 UNL     1     -10.825  22.000  14.999  1.00  0.00     0.143 C 
ENDBRANCH  33  37
ENDBRANCH  27  29
ENDBRANCH  24  27
ENDBRANCH   1  23
TORSDOF 10
ENDMDL
MODEL 2
REMARK VINA RESULT: -10.088918131      3.027      5.089
REMARK  10 active torsions:
REMARK  status: ('A' for Active; 'I' for Inactive)
REMARK    1  A    between atoms: C6_9  and  O1_10 
REMARK    2  A    between atoms: O1_10  and  C7_11 
REMARK    3  A    between atoms: C7_11  and  C8_12 
REMARK    4  A    between atoms: C7_11  and  C24_35 
REMARK    5  A    between atoms: C8_12  and  C9_13 
REMARK    6  A    between atoms: C9_13  and  N1_14 
REMARK       I    between atoms: N1_14  and  C10_16 
REMARK    7  A    between atoms: C10_16  and  C11_18 
REMARK    8  A    between atoms: C11_18  and  C13_20 
REMARK    9  A    between atoms: C16_24  and  N2_25 
REMARK       I    between atoms: C24_35  and  N4_37 
REMARK   10  A    between atoms: N4_37  and  C25_39 
ROOT
HETATM    1  C9  UNL     1      -2.309  27.285  15.619  1.00  0.00     0.125 C 
ENDROOT
BRANCH   1   2
HETATM    2  C8  UNL     1      -1.429  26.416  14.775  1.00  0.00     0.062 C 
BRANCH   2   3
HETATM    3  C7  UNL     1      -1.876  25.015  14.579  1.00  0.00     0.222 C 
BRANCH   3   4
HETATM    4  O1  UNL     1      -2.271  24.688  13.309  1.00  0.00    -0.331 OA
BRANCH   4   5
HETATM    5  C6  UNL     1      -1.858  25.132  12.077  1.00  0.00     0.134 A 
HETATM    6  C5  UNL     1      -0.623  24.787  11.598  1.00  0.00     0.193 A 
HETATM    7  C4  UNL     1      -0.250  25.247  10.331  1.00  0.00     0.196 A 
HETATM    8  F3  UNL     1       0.317  24.077  12.326  1.00  0.00    -0.200 F 
HETATM    9  C3  UNL     1      -1.097  26.031   9.577  1.00  0.00     0.165 A 
HETATM   10  F2  UNL     1       0.985  24.888   9.856  1.00  0.00    -0.199 F 
HETATM   11  C2  UNL     1      -2.345  26.376  10.077  1.00  0.00     0.004 A 
HETATM   12  F1  UNL     1      -0.744  26.481   8.347  1.00  0.00    -0.202 F 
HETATM   13  C1  UNL     1      -3.273  27.231   9.252  1.00  0.00     0.053 C 
HETATM   14  C28 UNL     1      -2.706  25.926  11.311  1.00  0.00     0.079 A 
HETATM   15 CL1  UNL     1      -4.310  26.366  11.940  1.00  0.00    -0.081 Cl
ENDBRANCH   4   5
ENDBRANCH   3   4
BRANCH   3  16
HETATM   16  C24 UNL     1      -0.944  24.065  15.273  1.00  0.00     0.247 C 
HETATM   17  O3  UNL     1      -1.255  22.903  15.619  1.00  0.00    -0.271 OA
HETATM   18  N4  UNL     1       0.409  24.422  15.601  1.00  0.00    -0.354 N 
ATOM     19  H4  UNL     1       0.748  25.352  15.355  1.00  0.00     0.162 HD
BRANCH  18  20
HETATM   20  C25 UNL     1       1.300  23.509  16.265  1.00  0.00     0.084 A 
HETATM   21  C26 UNL     1       2.772  23.928  16.285  1.00  0.00     0.027 A 
HETATM   22  C27 UNL     1       2.339  22.762  15.515  1.00  0.00     0.027 A 
ENDBRANCH  18  20
ENDBRANCH   3  16
ENDBRANCH   2   3
ENDBRANCH   1   2
BRANCH   1  23
HETATM   23  N1  UNL     1      -3.464  27.814  14.971  1.00  0.00    -0.360 N 
HETATM   24  C10 UNL     1      -4.451  28.477  15.777  1.00  0.00     0.226 C 
HETATM   25  O2  UNL     1      -4.338  28.579  17.015  1.00  0.00    -0.273 OA
ATOM     26  H1  UNL     1      -3.587  27.723  13.963  1.00  0.00     0.162 HD
BRANCH  24  27
HETATM   27  C11 UNL     1      -5.646  29.076  15.133  1.00  0.00     0.110 C 
HETATM   28  C12 UNL     1      -5.329  29.367  13.665  1.00  0.00     0.025 C 
BRANCH  27  29
HETATM   29  C13 UNL     1      -6.804  28.205  15.262  1.00  0.00    -0.004 A 
HETATM   30  C14 UNL     1      -7.032  27.226  14.300  1.00  0.00     0.055 A 
HETATM   31  C15 UNL     1      -8.153  26.392  14.391  1.00  0.00     0.143 A 
HETATM   32  F4  UNL     1      -8.261  25.496  13.382  1.00  0.00    -0.204 F 
HETATM   33  C16 UNL     1      -9.054  26.509  15.423  1.00  0.00     0.072 A 
HETATM   34  C22 UNL     1      -8.792  27.495  16.362  1.00  0.00     0.075 A 
HETATM   35  C23 UNL     1      -7.691  28.327  16.286  1.00  0.00     0.125 A 
HETATM   36  F5  UNL     1      -7.528  29.265  17.273  1.00  0.00    -0.205 F 
BRANCH  33  37
HETATM   37  N2  UNL     1     -10.169  25.658  15.512  1.00  0.00    -0.372 N 
HETATM   38  C17 UNL     1     -11.211  25.683  14.454  1.00  0.00     0.167 C 
HETATM   39  C18 UNL     1     -11.491  24.257  14.049  1.00  0.00     0.077 C 
HETATM   40  N3  UNL     1     -10.682  23.264  14.624  1.00  0.00    -0.394 N 
HETATM   41  C19 UNL     1      -9.677  22.661  13.826  1.00  0.00     0.148 C 
HETATM   42  C20 UNL     1     -10.456  23.312  16.026  1.00  0.00     0.141 C 
HETATM   43  C21 UNL     1     -10.459  24.724  16.571  1.00  0.00     0.143 C 
ENDBRANCH  33  37
ENDBRANCH  27  29
ENDBRANCH  24  27
ENDBRANCH   1  23
TORSDOF 10
ENDMDL
MODEL 3
REMARK VINA RESULT: -10.022106330      2.756      5.153
REMARK  10 active torsions:
REMARK  status: ('A' for Active; 'I' for Inactive)
REMARK    1  A    between atoms: C6_9  and  O1_10 
REMARK    2  A    between atoms: O1_10  and  C7_11 
REMARK    3  A    between atoms: C7_11  and  C8_12 
REMARK    4  A    between atoms: C7_11  and  C24_35 
REMARK    5  A    between atoms: C8_12  and  C9_13 
REMARK    6  A    between atoms: C9_13  and  N1_14 
REMARK       I    between atoms: N1_14  and  C10_16 
REMARK    7  A    between atoms: C10_16  and  C11_18 
REMARK    8  A    between atoms: C11_18  and  C13_20 
REMARK    9  A    between atoms: C16_24  and  N2_25 
REMARK       I    between atoms: C24_35  and  N4_37 
REMARK   10  A    between atoms: N4_37  and  C25_39 
ROOT
HETATM    1  C9  UNL     1      -2.794  27.920  16.502  1.00  0.00     0.125 C 
ENDROOT
BRANCH   1   2
HETATM    2  C8  UNL     1      -1.557  27.553  15.743  1.00  0.00     0.062 C 
BRANCH   2   3
HETATM    3  C7  UNL     1      -1.347  26.108  15.481  1.00  0.00     0.222 C 
BRANCH   3   4
HETATM    4  O1  UNL     1      -1.815  25.646  14.279  1.00  0.00    -0.331 OA
BRANCH   4   5
HETATM    5  C6  UNL     1      -2.989  25.026  13.929  1.00  0.00     0.134 A 
HETATM    6  C5  UNL     1      -3.283  23.781  14.415  1.00  0.00     0.193 A 
HETATM    7  C4  UNL     1      -4.497  23.194  14.046  1.00  0.00     0.196 A 
HETATM    8  F3  UNL     1      -2.414  23.027  15.186  1.00  0.00    -0.200 F 
HETATM    9  C3  UNL     1      -5.382  23.844  13.211  1.00  0.00     0.165 A 
HETATM   10  F2  UNL     1      -4.788  21.951  14.545  1.00  0.00    -0.199 F 
HETATM   11  C2  UNL     1      -5.068  25.106  12.723  1.00  0.00     0.004 A 
HETATM   12  F1  UNL     1      -6.562  23.283  12.849  1.00  0.00    -0.202 F 
HETATM   13  C1  UNL     1      -6.037  25.819  11.813  1.00  0.00     0.053 C 
HETATM   14  C28 UNL     1      -3.885  25.674  13.085  1.00  0.00     0.079 A 
HETATM   15 CL1  UNL     1      -3.495  27.294  12.461  1.00  0.00    -0.081 Cl
ENDBRANCH   4   5
ENDBRANCH   3   4
BRANCH   3  16
HETATM   16  C24 UNL     1       0.042  25.699  15.878  1.00  0.00     0.247 C 
HETATM   17  O3  UNL     1       0.870  26.463  16.422  1.00  0.00    -0.271 OA
HETATM   18  N4  UNL     1       0.540  24.368  15.659  1.00  0.00    -0.354 N 
ATOM     19  H4  UNL     1      -0.069  23.678  15.220  1.00  0.00     0.162 HD
BRANCH  18  20
HETATM   20  C25 UNL     1       1.871  23.980  16.041  1.00  0.00     0.084 A 
HETATM   21  C26 UNL     1       2.793  23.580  14.887  1.00  0.00     0.027 A 
HETATM   22  C27 UNL     1       2.350  22.587  15.865  1.00  0.00     0.027 A 
ENDBRANCH  18  20
ENDBRANCH   3  16
ENDBRANCH   2   3
ENDBRANCH   1   2
BRANCH   1  23
HETATM   23  N1  UNL     1      -3.966  28.124  15.716  1.00  0.00    -0.360 N 
HETATM   24  C10 UNL     1      -5.111  28.721  16.345  1.00  0.00     0.226 C 
HETATM   25  O2  UNL     1      -5.115  29.038  17.551  1.00  0.00    -0.273 OA
ATOM     26  H1  UNL     1      -3.992  27.853  14.732  1.00  0.00     0.162 HD
BRANCH  24  27
HETATM   27  C11 UNL     1      -6.334  28.987  15.549  1.00  0.00     0.110 C 
HETATM   28  C12 UNL     1      -5.952  29.112  14.072  1.00  0.00     0.025 C 
BRANCH  27  29
HETATM   29  C13 UNL     1      -7.329  27.946  15.752  1.00  0.00    -0.004 A 
HETATM   30  C14 UNL     1      -7.457  26.931  14.808  1.00  0.00     0.055 A 
HETATM   31  C15 UNL     1      -8.424  25.931  14.970  1.00  0.00     0.143 A 
HETATM   32  F4  UNL     1      -8.449  25.017  13.973  1.00  0.00    -0.204 F 
HETATM   33  C16 UNL     1      -9.268  25.918  16.056  1.00  0.00     0.072 A 
HETATM   34  C22 UNL     1      -9.110  26.944  16.974  1.00  0.00     0.075 A 
HETATM   35  C23 UNL     1      -8.161  27.938  16.828  1.00  0.00     0.125 A 
HETATM   36  F5  UNL     1      -8.090  28.903  17.800  1.00  0.00    -0.205 F 
BRANCH  33  37
HETATM   37  N2  UNL     1     -10.227  24.902  16.215  1.00  0.00    -0.372 N 
HETATM   38  C17 UNL     1     -11.545  25.009  15.542  1.00  0.00     0.167 C 
HETATM   39  C18 UNL     1     -11.821  23.694  14.856  1.00  0.00     0.077 C 
HETATM   40  N3  UNL     1     -10.794  22.737  14.884  1.00  0.00    -0.394 N 
HETATM   41  C19 UNL     1     -10.044  22.510  13.702  1.00  0.00     0.148 C 
HETATM   42  C20 UNL     1     -10.146  22.486  16.123  1.00  0.00     0.141 C 
HETATM   43  C21 UNL     1     -10.093  23.708  17.014  1.00  0.00     0.143 C 
ENDBRANCH  33  37
ENDBRANCH  27  29
ENDBRANCH  24  27
ENDBRANCH   1  23
TORSDOF 10
ENDMDL
MODEL 4
REMARK VINA RESULT: -9.986004866      3.703      9.712
REMARK  10 active torsions:
REMARK  status: ('A' for Active; 'I' for Inactive)
REMARK    1  A    between atoms: C6_9  and  O1_10 
REMARK    2  A    between atoms: O1_10  and  C7_11 
REMARK    3  A    between atoms: C7_11  and  C8_12 
REMARK    4  A    between atoms: C7_11  and  C24_35 
REMARK    5  A    between atoms: C8_12  and  C9_13 
REMARK    6  A    between atoms: C9_13  and  N1_14 
REMARK       I    between atoms: N1_14  and  C10_16 
REMARK    7  A    between atoms: C10_16  and  C11_18 
REMARK    8  A    between atoms: C11_18  and  C13_20 
REMARK    9  A    between atoms: C16_24  and  N2_25 
REMARK       I    between atoms: C24_35  and  N4_37 
REMARK   10  A    between atoms: N4_37  and  C25_39 
ROOT
HETATM    1  C9  UNL     1      -7.679  23.146  14.775  1.00  0.00     0.125 C 
ENDROOT
BRANCH   1   2
HETATM    2  C8  UNL     1      -8.695  23.185  15.874  1.00  0.00     0.062 C 
BRANCH   2   3
HETATM    3  C7  UNL     1      -9.629  24.338  15.869  1.00  0.00     0.222 C 
BRANCH   3   4
HETATM    4  O1  UNL     1      -9.206  25.444  15.179  1.00  0.00    -0.331 OA
BRANCH   4   5
HETATM    5  C6  UNL     1      -8.598  26.605  15.589  1.00  0.00     0.134 A 
HETATM    6  C5  UNL     1      -8.905  27.151  16.807  1.00  0.00     0.193 A 
HETATM    7  C4  UNL     1      -8.249  28.325  17.191  1.00  0.00     0.196 A 
HETATM    8  F3  UNL     1      -9.888  26.659  17.648  1.00  0.00    -0.200 F 
HETATM    9  C3  UNL     1      -7.317  28.926  16.372  1.00  0.00     0.165 A 
HETATM   10  F2  UNL     1      -8.556  28.860  18.416  1.00  0.00    -0.199 F 
HETATM   11  C2  UNL     1      -7.018  28.361  15.139  1.00  0.00     0.004 A 
HETATM   12  F1  UNL     1      -6.675  30.063  16.738  1.00  0.00    -0.202 F 
HETATM   13  C1  UNL     1      -5.996  29.016  14.243  1.00  0.00     0.053 C 
HETATM   14  C28 UNL     1      -7.658  27.218  14.767  1.00  0.00     0.079 A 
HETATM   15 CL1  UNL     1      -7.263  26.498  13.189  1.00  0.00    -0.081 Cl
ENDBRANCH   4   5
ENDBRANCH   3   4
BRANCH   3  16
HETATM   16  C24 UNL     1     -11.035  23.875  15.624  1.00  0.00     0.247 C 
HETATM   17  O3  UNL     1     -11.817  23.497  16.526  1.00  0.00    -0.271 OA
HETATM   18  N4  UNL     1     -11.607  23.826  14.306  1.00  0.00    -0.354 N 
ATOM     19  H4  UNL     1     -11.039  24.116  13.510  1.00  0.00     0.162 HD
BRANCH  18  20
HETATM   20  C25 UNL     1     -12.954  23.382  14.075  1.00  0.00     0.084 A 
HETATM   21  C26 UNL     1     -13.627  23.954  12.825  1.00  0.00     0.027 A 
HETATM   22  C27 UNL     1     -14.102  24.319  14.159  1.00  0.00     0.027 A 
ENDBRANCH  18  20
ENDBRANCH   3  16
ENDBRANCH   2   3
ENDBRANCH   1   2
BRANCH   1  23
HETATM   23  N1  UNL     1      -6.376  23.613  15.118  1.00  0.00    -0.360 N 
HETATM   24  C10 UNL     1      -5.392  23.707  14.076  1.00  0.00     0.226 C 
HETATM   25  O2  UNL     1      -5.636  23.371  12.901  1.00  0.00    -0.273 OA
ATOM     26  H1  UNL     1      -6.148  23.874  16.078  1.00  0.00     0.162 HD
BRANCH  24  27
HETATM   27  C11 UNL     1      -4.038  24.228  14.387  1.00  0.00     0.110 C 
HETATM   28  C12 UNL     1      -3.142  23.065  14.819  1.00  0.00     0.025 C 
BRANCH  27  29
HETATM   29  C13 UNL     1      -3.473  24.935  13.248  1.00  0.00    -0.004 A 
HETATM   30  C14 UNL     1      -2.942  24.208  12.188  1.00  0.00     0.055 A 
HETATM   31  C15 UNL     1      -2.371  24.868  11.092  1.00  0.00     0.143 A 
HETATM   32  F4  UNL     1      -1.879  24.040  10.141  1.00  0.00    -0.204 F 
HETATM   33  C16 UNL     1      -2.320  26.241  11.027  1.00  0.00     0.072 A 
HETATM   34  C22 UNL     1      -2.861  26.930  12.102  1.00  0.00     0.075 A 
HETATM   35  C23 UNL     1      -3.427  26.294  13.190  1.00  0.00     0.125 A 
HETATM   36  F5  UNL     1      -3.935  27.075  14.196  1.00  0.00    -0.205 F 
BRANCH  33  37
HETATM   37  N2  UNL     1      -1.757  26.893   9.916  1.00  0.00    -0.372 N 
HETATM   38  C17 UNL     1      -0.564  27.760  10.087  1.00  0.00     0.167 C 
HETATM   39  C18 UNL     1       0.439  27.376   9.028  1.00  0.00     0.077 C 
HETATM   40  N3  UNL     1       0.121  26.270   8.224  1.00  0.00    -0.394 N 
HETATM   41  C19 UNL     1       0.795  25.044   8.456  1.00  0.00     0.148 C 
HETATM   42  C20 UNL     1      -1.186  26.198   7.671  1.00  0.00     0.141 C 
HETATM   43  C21 UNL     1      -2.232  26.842   8.556  1.00  0.00     0.143 C 
ENDBRANCH  33  37
ENDBRANCH  27  29
ENDBRANCH  24  27
ENDBRANCH   1  23
TORSDOF 10
ENDMDL
MODEL 5
REMARK VINA RESULT: -9.971881489      2.486      4.497
REMARK  10 active torsions:
REMARK  status: ('A' for Active; 'I' for Inactive)
REMARK    1  A    between atoms: C6_9  and  O1_10 
REMARK    2  A    between atoms: O1_10  and  C7_11 
REMARK    3  A    between atoms: C7_11  and  C8_12 
REMARK    4  A    between atoms: C7_11  and  C24_35 
REMARK    5  A    between atoms: C8_12  and  C9_13 
REMARK    6  A    between atoms: C9_13  and  N1_14 
REMARK       I    between atoms: N1_14  and  C10_16 
REMARK    7  A    between atoms: C10_16  and  C11_18 
REMARK    8  A    between atoms: C11_18  and  C13_20 
REMARK    9  A    between atoms: C16_24  and  N2_25 
REMARK       I    between atoms: C24_35  and  N4_37 
REMARK   10  A    between atoms: N4_37  and  C25_39 
ROOT
HETATM    1  C9  UNL     1      -3.377  27.160  14.288  1.00  0.00     0.125 C 
ENDROOT
BRANCH   1   2
HETATM    2  C8  UNL     1      -1.904  27.196  14.551  1.00  0.00     0.062 C 
BRANCH   2   3
HETATM    3  C7  UNL     1      -1.109  26.066  14.011  1.00  0.00     0.222 C 
BRANCH   3   4
HETATM    4  O1  UNL     1      -0.665  26.211  12.722  1.00  0.00    -0.331 OA
BRANCH   4   5
HETATM    5  C6  UNL     1      -0.972  25.538  11.566  1.00  0.00     0.134 A 
HETATM    6  C5  UNL     1      -1.155  24.182  11.584  1.00  0.00     0.193 A 
HETATM    7  C4  UNL     1      -1.483  23.540  10.386  1.00  0.00     0.196 A 
HETATM    8  F3  UNL     1      -0.952  23.390  12.702  1.00  0.00    -0.200 F 
HETATM    9  C3  UNL     1      -1.620  24.246   9.210  1.00  0.00     0.165 A 
HETATM   10  F2  UNL     1      -1.672  22.182  10.416  1.00  0.00    -0.199 F 
HETATM   11  C2  UNL     1      -1.429  25.622   9.206  1.00  0.00     0.004 A 
HETATM   12  F1  UNL     1      -1.939  23.632   8.044  1.00  0.00    -0.202 F 
HETATM   13  C1  UNL     1      -1.581  26.396   7.920  1.00  0.00     0.053 C 
HETATM   14  C28 UNL     1      -1.110  26.244  10.374  1.00  0.00     0.079 A 
HETATM   15 CL1  UNL     1      -0.875  28.007  10.361  1.00  0.00    -0.081 Cl
ENDBRANCH   4   5
ENDBRANCH   3   4
BRANCH   3  16
HETATM   16  C24 UNL     1      -0.112  25.593  15.029  1.00  0.00     0.247 C 
HETATM   17  O3  UNL     1       0.149  26.200  16.092  1.00  0.00    -0.271 OA
HETATM   18  N4  UNL     1       0.637  24.377  14.860  1.00  0.00    -0.354 N 
ATOM     19  H4  UNL     1       0.487  23.817  14.021  1.00  0.00     0.162 HD
BRANCH  18  20
HETATM   20  C25 UNL     1       1.590  23.926  15.837  1.00  0.00     0.084 A 
HETATM   21  C26 UNL     1       3.012  23.710  15.314  1.00  0.00     0.027 A 
HETATM   22  C27 UNL     1       2.201  22.576  15.755  1.00  0.00     0.027 A 
ENDBRANCH  18  20
ENDBRANCH   3  16
ENDBRANCH   2   3
ENDBRANCH   1   2
BRANCH   1  23
HETATM   23  N1  UNL     1      -3.974  25.865  14.276  1.00  0.00    -0.360 N 
HETATM   24  C10 UNL     1      -4.480  25.361  13.030  1.00  0.00     0.226 C 
HETATM   25  O2  UNL     1      -4.435  26.028  11.977  1.00  0.00    -0.273 OA
ATOM     26  H1  UNL     1      -4.040  25.311  15.130  1.00  0.00     0.162 HD
BRANCH  24  27
HETATM   27  C11 UNL     1      -5.070  24.002  12.970  1.00  0.00     0.110 C 
HETATM   28  C12 UNL     1      -4.091  23.004  13.592  1.00  0.00     0.025 C 
BRANCH  27  29
HETATM   29  C13 UNL     1      -6.363  23.961  13.637  1.00  0.00    -0.004 A 
HETATM   30  C14 UNL     1      -6.453  23.424  14.918  1.00  0.00     0.055 A 
HETATM   31  C15 UNL     1      -7.691  23.353  15.570  1.00  0.00     0.143 A 
HETATM   32  F4  UNL     1      -7.637  22.795  16.802  1.00  0.00    -0.204 F 
HETATM   33  C16 UNL     1      -8.844  23.807  14.974  1.00  0.00     0.072 A 
HETATM   34  C22 UNL     1      -8.713  24.336  13.699  1.00  0.00     0.075 A 
HETATM   35  C23 UNL     1      -7.500  24.413  13.042  1.00  0.00     0.125 A 
HETATM   36  F5  UNL     1      -7.486  24.959  11.784  1.00  0.00    -0.205 F 
BRANCH  33  37
HETATM   37  N2  UNL     1     -10.078  23.743  15.643  1.00  0.00    -0.372 N 
HETATM   38  C17 UNL     1     -10.716  24.983  16.152  1.00  0.00     0.167 C 
HETATM   39  C18 UNL     1     -12.159  24.973  15.715  1.00  0.00     0.077 C 
HETATM   40  N3  UNL     1     -12.557  23.926  14.869  1.00  0.00    -0.394 N 
HETATM   41  C19 UNL     1     -12.769  24.206  13.495  1.00  0.00     0.148 C 
HETATM   42  C20 UNL     1     -12.168  22.603  15.210  1.00  0.00     0.141 C 
HETATM   43  C21 UNL     1     -10.840  22.553  15.935  1.00  0.00     0.143 C 
ENDBRANCH  33  37
ENDBRANCH  27  29
ENDBRANCH  24  27
ENDBRANCH   1  23
TORSDOF 10
ENDMDL
