MODEL 1
REMARK VINA RESULT: -9.821338548      0.000      0.000
REMARK  13 active torsions:
REMARK  status: ('A' for Active; 'I' for Inactive)
REMARK    1  A    between atoms: C1_2  and  N1_3 
REMARK    2  A    between atoms: N1_3  and  O2_4 
REMARK    3  A    between atoms: N1_3  and  C2_6 
REMARK    4  A    between atoms: C2_6  and  C3_7 
REMARK    5  A    between atoms: C2_6  and  C10_17 
REMARK    6  A    between atoms: C3_7  and  C4_8 
REMARK    7  A    between atoms: C10_17  and  O3_18 
REMARK    8  A    between atoms: C10_17  and  N2_20 
REMARK    9  A    between atoms: C12_22  and  C13_23 
REMARK   10  A    between atoms: C13_23  and  N3_24 
REMARK   11  A    between atoms: C19_30  and  N4_31 
REMARK   12  A    between atoms: N4_31  and  C20_34 
REMARK   13  A    between atoms: C20_34  and  C21_35 
ROOT
HETATM    1  N2  UNL     1      -4.818  25.130  14.411  1.00  0.00    -0.332 N 
HETATM    2  C11 UNL     1      -3.486  24.985  14.852  1.00  0.00     0.133 C 
HETATM    3  C12 UNL     1      -2.987  23.855  13.931  1.00  0.00     0.036 C 
HETATM    4  C18 UNL     1      -4.282  23.072  13.687  1.00  0.00     0.062 C 
HETATM    5  C19 UNL     1      -5.293  23.743  14.642  1.00  0.00     0.288 C 
ENDROOT
BRANCH   1   6
HETATM    6  C10 UNL     1      -5.576  26.138  13.870  1.00  0.00     0.166 C 
BRANCH   6   7
HETATM    7  C2  UNL     1      -6.597  27.036  14.415  1.00  0.00     0.098 C 
BRANCH   7   8
HETATM    8  N1  UNL     1      -7.951  26.861  14.019  1.00  0.00    -0.198 N 
BRANCH   8   9
HETATM    9  C1  UNL     1      -9.018  27.623  14.677  1.00  0.00     0.381 C 
HETATM   10  O1  UNL     1     -10.187  27.339  14.363  1.00  0.00    -0.281 OA
ENDBRANCH   8   9
BRANCH   8  11
HETATM   11  O2  UNL     1      -8.447  26.029  13.078  1.00  0.00    -0.280 OA
ATOM     12  H2  UNL     1      -8.870  25.274  13.469  1.00  0.00     0.245 HD
ENDBRANCH   8  11
ENDBRANCH   7   8
BRANCH   7  13
HETATM   13  C3  UNL     1      -6.118  28.462  14.524  1.00  0.00     0.109 C 
BRANCH  13  14
HETATM   14  C4  UNL     1      -5.449  28.705  15.803  1.00  0.00     0.025 A 
HETATM   15  C5  UNL     1      -6.059  29.013  16.982  1.00  0.00     0.129 A 
HETATM   16  F1  UNL     1      -7.385  29.226  17.036  1.00  0.00    -0.205 F 
HETATM   17  C6  UNL     1      -5.369  29.177  18.191  1.00  0.00     0.085 A 
HETATM   18  C7  UNL     1      -4.009  29.021  18.193  1.00  0.00     0.122 A 
HETATM   19  F2  UNL     1      -3.374  29.185  19.386  1.00  0.00    -0.206 F 
HETATM   20  C8  UNL     1      -3.340  28.711  17.037  1.00  0.00     0.085 A 
HETATM   21  C9  UNL     1      -4.045  28.560  15.878  1.00  0.00     0.129 A 
HETATM   22  F3  UNL     1      -3.386  28.257  14.747  1.00  0.00    -0.205 F 
ENDBRANCH  13  14
ENDBRANCH   7  13
ENDBRANCH   6   7
BRANCH   6  23
HETATM   23  O3  UNL     1      -5.386  26.402  12.572  1.00  0.00    -0.345 OA
ATOM     24  H3  UNL     1      -5.984  25.883  12.048  1.00  0.00     0.219 HD
ENDBRANCH   6  23
ENDBRANCH   1   6
BRANCH   5  25
HETATM   25  N4  UNL     1      -6.643  23.513  14.298  1.00  0.00    -0.050 N 
ATOM     26  H42 UNL     1      -7.010  24.174  13.614  1.00  0.00     0.280 HD
ATOM     27  H41 UNL     1      -6.787  22.670  13.741  1.00  0.00     0.280 HD
BRANCH  25  28
HETATM   28  C20 UNL     1      -7.386  23.511  15.583  1.00  0.00     0.273 C 
BRANCH  28  29
HETATM   29  C21 UNL     1      -8.838  23.474  15.388  1.00  0.00    -0.028 A 
HETATM   30  C22 UNL     1      -9.671  24.247  16.155  1.00  0.00     0.052 A 
HETATM   31  C23 UNL     1     -11.049  24.181  15.934  1.00  0.00     0.140 A 
HETATM   32  F4  UNL     1     -11.890  24.943  16.690  1.00  0.00    -0.204 F 
HETATM   33  C24 UNL     1     -11.590  23.355  14.965  1.00  0.00     0.094 A 
HETATM   34 CL1  UNL     1     -13.326  23.251  14.673  1.00  0.00    -0.079 Cl
HETATM   35  C25 UNL     1     -10.732  22.583  14.202  1.00  0.00     0.059 A 
HETATM   36 CL2  UNL     1     -11.433  21.547  12.974  1.00  0.00    -0.082 Cl
HETATM   37  C26 UNL     1      -9.371  22.644  14.415  1.00  0.00     0.034 A 
ENDBRANCH  28  29
ENDBRANCH  25  28
ENDBRANCH   5  25
BRANCH   3  38
HETATM   38  C13 UNL     1      -1.986  22.998  14.669  1.00  0.00     0.278 C 
BRANCH  38  39
HETATM   39  N3  UNL     1      -0.937  23.851  15.170  1.00  0.00     0.088 N 
HETATM   40  C14 UNL     1      -0.315  23.371  16.368  1.00  0.00     0.272 C 
HETATM   41  C15 UNL     1       0.971  22.708  15.856  1.00  0.00     0.032 C 
HETATM   42  C16 UNL     1       1.414  23.733  14.812  1.00  0.00     0.032 C 
HETATM   43  C17 UNL     1       0.098  24.073  14.177  1.00  0.00     0.272 C 
ENDBRANCH  38  39
ENDBRANCH   3  38
TORSDOF 13
ENDMDL
MODEL 2
REMARK VINA RESULT: -9.738320052      0.938      1.381
REMARK  13 active torsions:
REMARK  status: ('A' for Active; 'I' for Inactive)
REMARK    1  A    between atoms: C1_2  and  N1_3 
REMARK    2  A    between atoms: N1_3  and  O2_4 
REMARK    3  A    between atoms: N1_3  and  C2_6 
REMARK    4  A    between atoms: C2_6  and  C3_7 
REMARK    5  A    between atoms: C2_6  and  C10_17 
REMARK    6  A    between atoms: C3_7  and  C4_8 
REMARK    7  A    between atoms: C10_17  and  O3_18 
REMARK    8  A    between atoms: C10_17  and  N2_20 
REMARK    9  A    between atoms: C12_22  and  C13_23 
REMARK   10  A    between atoms: C13_23  and  N3_24 
REMARK   11  A    between atoms: C19_30  and  N4_31 
REMARK   12  A    between atoms: N4_31  and  C20_34 
REMARK   13  A    between atoms: C20_34  and  C21_35 
ROOT
HETATM    1  N2  UNL     1      -4.747  25.132  14.383  1.00  0.00    -0.332 N 
HETATM    2  C11 UNL     1      -3.436  24.985  14.883  1.00  0.00     0.133 C 
HETATM    3  C12 UNL     1      -2.885  23.884  13.957  1.00  0.00     0.036 C 
HETATM    4  C18 UNL     1      -4.159  23.099  13.630  1.00  0.00     0.062 C 
HETATM    5  C19 UNL     1      -5.221  23.735  14.554  1.00  0.00     0.288 C 
ENDROOT
BRANCH   1   6
HETATM    6  C10 UNL     1      -5.488  26.149  13.834  1.00  0.00     0.166 C 
BRANCH   6   7
HETATM    7  C2  UNL     1      -6.520  27.044  14.362  1.00  0.00     0.098 C 
BRANCH   7   8
HETATM    8  N1  UNL     1      -7.866  26.868  13.940  1.00  0.00    -0.198 N 
BRANCH   8   9
HETATM    9  C1  UNL     1      -8.953  27.576  14.625  1.00  0.00     0.381 C 
HETATM   10  O1  UNL     1     -10.114  27.231  14.342  1.00  0.00    -0.281 OA
ENDBRANCH   8   9
BRANCH   8  11
HETATM   11  O2  UNL     1      -8.336  26.080  12.949  1.00  0.00    -0.280 OA
ATOM     12  H2  UNL     1      -7.629  25.663  12.471  1.00  0.00     0.245 HD
ENDBRANCH   8  11
ENDBRANCH   7   8
BRANCH   7  13
HETATM   13  C3  UNL     1      -6.045  28.470  14.485  1.00  0.00     0.109 C 
BRANCH  13  14
HETATM   14  C4  UNL     1      -5.397  28.709  15.775  1.00  0.00     0.025 A 
HETATM   15  C5  UNL     1      -6.025  29.017  16.944  1.00  0.00     0.129 A 
HETATM   16  F1  UNL     1      -7.351  29.233  16.977  1.00  0.00    -0.205 F 
HETATM   17  C6  UNL     1      -5.355  29.176  18.165  1.00  0.00     0.085 A 
HETATM   18  C7  UNL     1      -3.995  29.016  18.189  1.00  0.00     0.122 A 
HETATM   19  F2  UNL     1      -3.379  29.177  19.393  1.00  0.00    -0.206 F 
HETATM   20  C8  UNL     1      -3.308  28.707  17.043  1.00  0.00     0.085 A 
HETATM   21  C9  UNL     1      -3.995  28.559  15.873  1.00  0.00     0.129 A 
HETATM   22  F3  UNL     1      -3.318  28.257  14.752  1.00  0.00    -0.205 F 
ENDBRANCH  13  14
ENDBRANCH   7  13
ENDBRANCH   6   7
BRANCH   6  23
HETATM   23  O3  UNL     1      -5.262  26.428  12.545  1.00  0.00    -0.345 OA
ATOM     24  H3  UNL     1      -5.148  27.364  12.435  1.00  0.00     0.219 HD
ENDBRANCH   6  23
ENDBRANCH   1   6
BRANCH   5  25
HETATM   25  N4  UNL     1      -6.551  23.505  14.140  1.00  0.00    -0.050 N 
ATOM     26  H42 UNL     1      -6.884  24.171  13.443  1.00  0.00     0.280 HD
ATOM     27  H41 UNL     1      -6.663  22.666  13.570  1.00  0.00     0.280 HD
BRANCH  25  28
HETATM   28  C20 UNL     1      -7.358  23.492  15.385  1.00  0.00     0.273 C 
BRANCH  28  29
HETATM   29  C21 UNL     1      -8.797  23.414  15.117  1.00  0.00    -0.028 A 
HETATM   30  C22 UNL     1      -9.276  22.686  14.059  1.00  0.00     0.052 A 
HETATM   31  C23 UNL     1     -10.655  22.638  13.841  1.00  0.00     0.140 A 
HETATM   32  F4  UNL     1     -11.148  21.919  12.792  1.00  0.00    -0.204 F 
HETATM   33  C24 UNL     1     -11.545  23.306  14.665  1.00  0.00     0.094 A 
HETATM   34 CL1  UNL     1     -13.288  23.264  14.405  1.00  0.00    -0.079 Cl
HETATM   35  C25 UNL     1     -11.039  24.034  15.727  1.00  0.00     0.059 A 
HETATM   36 CL2  UNL     1     -12.179  24.870  16.764  1.00  0.00    -0.082 Cl
HETATM   37  C26 UNL     1      -9.679  24.087  15.947  1.00  0.00     0.034 A 
ENDBRANCH  28  29
ENDBRANCH  25  28
ENDBRANCH   5  25
BRANCH   3  38
HETATM   38  C13 UNL     1      -1.912  23.015  14.718  1.00  0.00     0.278 C 
BRANCH  38  39
HETATM   39  N3  UNL     1      -0.854  23.852  15.226  1.00  0.00     0.088 N 
HETATM   40  C14 UNL     1      -0.220  23.341  16.405  1.00  0.00     0.272 C 
HETATM   41  C15 UNL     1       1.057  22.685  15.862  1.00  0.00     0.032 C 
HETATM   42  C16 UNL     1       1.492  23.732  14.838  1.00  0.00     0.032 C 
HETATM   43  C17 UNL     1       0.170  24.093  14.226  1.00  0.00     0.272 C 
ENDBRANCH  38  39
ENDBRANCH   3  38
TORSDOF 13
ENDMDL
MODEL 3
REMARK VINA RESULT: -9.677090802      0.935      1.115
REMARK  13 active torsions:
REMARK  status: ('A' for Active; 'I' for Inactive)
REMARK    1  A    between atoms: C1_2  and  N1_3 
REMARK    2  A    between atoms: N1_3  and  O2_4 
REMARK    3  A    between atoms: N1_3  and  C2_6 
REMARK    4  A    between atoms: C2_6  and  C3_7 
REMARK    5  A    between atoms: C2_6  and  C10_17 
REMARK    6  A    between atoms: C3_7  and  C4_8 
REMARK    7  A    between atoms: C10_17  and  O3_18 
REMARK    8  A    between atoms: C10_17  and  N2_20 
REMARK    9  A    between atoms: C12_22  and  C13_23 
REMARK   10  A    between atoms: C13_23  and  N3_24 
REMARK   11  A    between atoms: C19_30  and  N4_31 
REMARK   12  A    between atoms: N4_31  and  C20_34 
REMARK   13  A    between atoms: C20_34  and  C21_35 
ROOT
HETATM    1  N2  UNL     1      -5.396  25.195  14.366  1.00  0.00    -0.332 N 
HETATM    2  C11 UNL     1      -4.125  25.082  14.966  1.00  0.00     0.133 C 
HETATM    3  C12 UNL     1      -3.400  24.167  13.961  1.00  0.00     0.036 C 
HETATM    4  C18 UNL     1      -4.567  23.339  13.412  1.00  0.00     0.062 C 
HETATM    5  C19 UNL     1      -5.755  23.757  14.305  1.00  0.00     0.288 C 
ENDROOT
BRANCH   1   6
HETATM    6  C10 UNL     1      -6.175  26.219  13.887  1.00  0.00     0.166 C 
BRANCH   6   7
HETATM    7  C2  UNL     1      -6.893  27.324  14.525  1.00  0.00     0.098 C 
BRANCH   7   8
HETATM    8  N1  UNL     1      -8.290  27.461  14.298  1.00  0.00    -0.198 N 
BRANCH   8   9
HETATM    9  C1  UNL     1      -9.157  28.016  15.344  1.00  0.00     0.381 C 
HETATM   10  O1  UNL     1      -9.189  27.408  16.428  1.00  0.00    -0.281 OA
ENDBRANCH   8   9
BRANCH   8  11
HETATM   11  O2  UNL     1      -8.996  27.120  13.199  1.00  0.00    -0.280 OA
ATOM     12  H2  UNL     1      -8.425  26.908  12.471  1.00  0.00     0.245 HD
ENDBRANCH   8  11
ENDBRANCH   7   8
BRANCH   7  13
HETATM   13  C3  UNL     1      -6.095  28.604  14.540  1.00  0.00     0.109 C 
BRANCH  13  14
HETATM   14  C4  UNL     1      -5.375  28.771  15.803  1.00  0.00     0.025 A 
HETATM   15  C5  UNL     1      -5.925  29.122  17.000  1.00  0.00     0.129 A 
HETATM   16  F1  UNL     1      -7.224  29.453  17.090  1.00  0.00    -0.205 F 
HETATM   17  C6  UNL     1      -5.193  29.209  18.192  1.00  0.00     0.085 A 
HETATM   18  C7  UNL     1      -3.853  28.929  18.158  1.00  0.00     0.122 A 
HETATM   19  F2  UNL     1      -3.176  29.023  19.335  1.00  0.00    -0.206 F 
HETATM   20  C8  UNL     1      -3.244  28.573  16.981  1.00  0.00     0.085 A 
HETATM   21  C9  UNL     1      -3.989  28.499  15.840  1.00  0.00     0.129 A 
HETATM   22  F3  UNL     1      -3.389  28.149  14.690  1.00  0.00    -0.205 F 
ENDBRANCH  13  14
ENDBRANCH   7  13
ENDBRANCH   6   7
BRANCH   6  23
HETATM   23  O3  UNL     1      -6.353  26.269  12.562  1.00  0.00    -0.345 OA
ATOM     24  H3  UNL     1      -6.012  25.478  12.162  1.00  0.00     0.219 HD
ENDBRANCH   6  23
ENDBRANCH   1   6
BRANCH   5  25
HETATM   25  N4  UNL     1      -7.020  23.484  13.738  1.00  0.00    -0.050 N 
ATOM     26  H42 UNL     1      -7.401  24.259  13.195  1.00  0.00     0.280 HD
ATOM     27  H41 UNL     1      -6.990  22.806  12.977  1.00  0.00     0.280 HD
BRANCH  25  28
HETATM   28  C20 UNL     1      -7.883  23.070  14.872  1.00  0.00     0.273 C 
BRANCH  28  29
HETATM   29  C21 UNL     1      -9.305  23.309  14.607  1.00  0.00    -0.028 A 
HETATM   30  C22 UNL     1      -9.950  24.389  15.153  1.00  0.00     0.052 A 
HETATM   31  C23 UNL     1     -11.305  24.579  14.873  1.00  0.00     0.140 A 
HETATM   32  F4  UNL     1     -11.961  25.648  15.409  1.00  0.00    -0.204 F 
HETATM   33  C24 UNL     1     -12.009  23.706  14.062  1.00  0.00     0.094 A 
HETATM   34 CL1  UNL     1     -13.721  23.923  13.701  1.00  0.00    -0.079 Cl
HETATM   35  C25 UNL     1     -11.339  22.623  13.522  1.00  0.00     0.059 A 
HETATM   36 CL2  UNL     1     -12.243  21.529  12.492  1.00  0.00    -0.082 Cl
HETATM   37  C26 UNL     1     -10.000  22.429  13.794  1.00  0.00     0.034 A 
ENDBRANCH  28  29
ENDBRANCH  25  28
ENDBRANCH   5  25
BRANCH   3  38
HETATM   38  C13 UNL     1      -2.421  23.277  14.691  1.00  0.00     0.278 C 
BRANCH  38  39
HETATM   39  N3  UNL     1      -1.084  23.718  14.378  1.00  0.00     0.088 N 
HETATM   40  C14 UNL     1      -0.976  25.124  14.128  1.00  0.00     0.272 C 
HETATM   41  C15 UNL     1      -0.455  25.680  15.460  1.00  0.00     0.032 C 
HETATM   42  C16 UNL     1       0.588  24.619  15.814  1.00  0.00     0.032 C 
HETATM   43  C17 UNL     1      -0.143  23.367  15.426  1.00  0.00     0.272 C 
ENDBRANCH  38  39
ENDBRANCH   3  38
TORSDOF 13
ENDMDL
MODEL 4
REMARK VINA RESULT: -9.675511903      0.945      1.903
REMARK  13 active torsions:
REMARK  status: ('A' for Active; 'I' for Inactive)
REMARK    1  A    between atoms: C1_2  and  N1_3 
REMARK    2  A    between atoms: N1_3  and  O2_4 
REMARK    3  A    between atoms: N1_3  and  C2_6 
REMARK    4  A    between atoms: C2_6  and  C3_7 
REMARK    5  A    between atoms: C2_6  and  C10_17 
REMARK    6  A    between atoms: C3_7  and  C4_8 
REMARK    7  A    between atoms: C10_17  and  O3_18 
REMARK    8  A    between atoms: C10_17  and  N2_20 
REMARK    9  A    between atoms: C12_22  and  C13_23 
REMARK   10  A    between atoms: C13_23  and  N3_24 
REMARK   11  A    between atoms: C19_30  and  N4_31 
REMARK   12  A    between atoms: N4_31  and  C20_34 
REMARK   13  A    between atoms: C20_34  and  C21_35 
ROOT
HETATM    1  N2  UNL     1      -4.773  25.177  14.415  1.00  0.00    -0.332 N 
HETATM    2  C11 UNL     1      -3.463  25.004  14.910  1.00  0.00     0.133 C 
HETATM    3  C12 UNL     1      -2.918  23.931  13.949  1.00  0.00     0.036 C 
HETATM    4  C18 UNL     1      -4.198  23.166  13.596  1.00  0.00     0.062 C 
HETATM    5  C19 UNL     1      -5.255  23.779  14.539  1.00  0.00     0.288 C 
ENDROOT
BRANCH   1   6
HETATM    6  C10 UNL     1      -5.506  26.216  13.900  1.00  0.00     0.166 C 
BRANCH   6   7
HETATM    7  C2  UNL     1      -6.554  27.080  14.447  1.00  0.00     0.098 C 
BRANCH   7   8
HETATM    8  N1  UNL     1      -7.891  26.913  13.994  1.00  0.00    -0.198 N 
BRANCH   8   9
HETATM    9  C1  UNL     1      -8.993  27.604  14.674  1.00  0.00     0.381 C 
HETATM   10  O1  UNL     1     -10.147  27.282  14.342  1.00  0.00    -0.281 OA
ENDBRANCH   8   9
BRANCH   8  11
HETATM   11  O2  UNL     1      -8.340  26.150  12.975  1.00  0.00    -0.280 OA
ATOM     12  H2  UNL     1      -7.666  25.561  12.658  1.00  0.00     0.245 HD
ENDBRANCH   8  11
ENDBRANCH   7   8
BRANCH   7  13
HETATM   13  C3  UNL     1      -6.092  28.503  14.640  1.00  0.00     0.109 C 
BRANCH  13  14
HETATM   14  C4  UNL     1      -5.328  28.654  15.878  1.00  0.00     0.025 A 
HETATM   15  C5  UNL     1      -3.975  28.549  16.005  1.00  0.00     0.129 A 
HETATM   16  F1  UNL     1      -3.213  28.180  14.961  1.00  0.00    -0.205 F 
HETATM   17  C6  UNL     1      -3.290  28.763  17.209  1.00  0.00     0.085 A 
HETATM   18  C7  UNL     1      -4.016  29.096  18.322  1.00  0.00     0.122 A 
HETATM   19  F2  UNL     1      -3.317  29.298  19.472  1.00  0.00    -0.206 F 
HETATM   20  C8  UNL     1      -5.380  29.215  18.256  1.00  0.00     0.085 A 
HETATM   21  C9  UNL     1      -6.013  28.998  17.066  1.00  0.00     0.129 A 
HETATM   22  F3  UNL     1      -7.350  29.116  17.006  1.00  0.00    -0.205 F 
ENDBRANCH  13  14
ENDBRANCH   7  13
ENDBRANCH   6   7
BRANCH   6  23
HETATM   23  O3  UNL     1      -5.254  26.558  12.631  1.00  0.00    -0.345 OA
ATOM     24  H3  UNL     1      -4.341  26.392  12.429  1.00  0.00     0.219 HD
ENDBRANCH   6  23
ENDBRANCH   1   6
BRANCH   5  25
HETATM   25  N4  UNL     1      -6.587  23.571  14.118  1.00  0.00    -0.050 N 
ATOM     26  H42 UNL     1      -6.919  24.267  13.450  1.00  0.00     0.280 HD
ATOM     27  H41 UNL     1      -6.703  22.757  13.514  1.00  0.00     0.280 HD
BRANCH  25  28
HETATM   28  C20 UNL     1      -7.393  23.508  15.362  1.00  0.00     0.273 C 
BRANCH  28  29
HETATM   29  C21 UNL     1      -8.831  23.424  15.093  1.00  0.00    -0.028 A 
HETATM   30  C22 UNL     1      -9.307  22.683  14.042  1.00  0.00     0.052 A 
HETATM   31  C23 UNL     1     -10.686  22.630  13.822  1.00  0.00     0.140 A 
HETATM   32  F4  UNL     1     -11.175  21.898  12.781  1.00  0.00    -0.204 F 
HETATM   33  C24 UNL     1     -11.578  23.305  14.637  1.00  0.00     0.094 A 
HETATM   34 CL1  UNL     1     -13.321  23.257  14.374  1.00  0.00    -0.079 Cl
HETATM   35  C25 UNL     1     -11.076  24.047  15.691  1.00  0.00     0.059 A 
HETATM   36 CL2  UNL     1     -12.219  24.892  16.717  1.00  0.00    -0.082 Cl
HETATM   37  C26 UNL     1      -9.716  24.104  15.914  1.00  0.00     0.034 A 
ENDBRANCH  28  29
ENDBRANCH  25  28
ENDBRANCH   5  25
BRANCH   3  38
HETATM   38  C13 UNL     1      -1.952  23.031  14.681  1.00  0.00     0.278 C 
BRANCH  38  39
HETATM   39  N3  UNL     1      -0.891  23.844  15.223  1.00  0.00     0.088 N 
HETATM   40  C14 UNL     1      -0.276  23.298  16.395  1.00  0.00     0.272 C 
HETATM   41  C15 UNL     1       1.000  22.643  15.852  1.00  0.00     0.032 C 
HETATM   42  C16 UNL     1       1.458  23.710  14.858  1.00  0.00     0.032 C 
HETATM   43  C17 UNL     1       0.147  24.100  14.240  1.00  0.00     0.272 C 
ENDBRANCH  38  39
ENDBRANCH   3  38
TORSDOF 13
ENDMDL
MODEL 5
REMARK VINA RESULT: -9.611006360      4.473      7.397
REMARK  13 active torsions:
REMARK  status: ('A' for Active; 'I' for Inactive)
REMARK    1  A    between atoms: C1_2  and  N1_3 
REMARK    2  A    between atoms: N1_3  and  O2_4 
REMARK    3  A    between atoms: N1_3  and  C2_6 
REMARK    4  A    between atoms: C2_6  and  C3_7 
REMARK    5  A    between atoms: C2_6  and  C10_17 
REMARK    6  A    between atoms: C3_7  and  C4_8 
REMARK    7  A    between atoms: C10_17  and  O3_18 
REMARK    8  A    between atoms: C10_17  and  N2_20 
REMARK    9  A    between atoms: C12_22  and  C13_23 
REMARK   10  A    between atoms: C13_23  and  N3_24 
REMARK   11  A    between atoms: C19_30  and  N4_31 
REMARK   12  A    between atoms: N4_31  and  C20_34 
REMARK   13  A    between atoms: C20_34  and  C21_35 
ROOT
HETATM    1  N2  UNL     1      -3.802  25.867  12.446  1.00  0.00    -0.332 N 
HETATM    2  C11 UNL     1      -3.544  26.610  11.275  1.00  0.00     0.133 C 
HETATM    3  C12 UNL     1      -2.187  26.023  10.842  1.00  0.00     0.036 C 
HETATM    4  C18 UNL     1      -1.583  25.631  12.195  1.00  0.00     0.062 C 
HETATM    5  C19 UNL     1      -2.582  26.214  13.217  1.00  0.00     0.288 C 
ENDROOT
BRANCH   1   6
HETATM    6  C10 UNL     1      -4.786  25.013  12.878  1.00  0.00     0.166 C 
BRANCH   6   7
HETATM    7  C2  UNL     1      -6.115  25.215  13.458  1.00  0.00     0.098 C 
BRANCH   7   8
HETATM    8  N1  UNL     1      -6.945  24.085  13.690  1.00  0.00    -0.198 N 
BRANCH   8   9
HETATM    9  C1  UNL     1      -7.175  23.606  15.058  1.00  0.00     0.381 C 
HETATM   10  O1  UNL     1      -8.227  23.973  15.612  1.00  0.00    -0.281 OA
ENDBRANCH   8   9
BRANCH   8  11
HETATM   11  O2  UNL     1      -7.585  23.316  12.784  1.00  0.00    -0.280 OA
ATOM     12  H2  UNL     1      -8.166  23.833  12.238  1.00  0.00     0.245 HD
ENDBRANCH   8  11
ENDBRANCH   7   8
BRANCH   7  13
HETATM   13  C3  UNL     1      -6.805  26.443  12.918  1.00  0.00     0.109 C 
BRANCH  13  14
HETATM   14  C4  UNL     1      -7.414  27.230  13.990  1.00  0.00     0.025 A 
HETATM   15  C5  UNL     1      -6.779  28.146  14.774  1.00  0.00     0.129 A 
HETATM   16  F1  UNL     1      -5.452  28.331  14.679  1.00  0.00    -0.205 F 
HETATM   17  C6  UNL     1      -7.430  28.915  15.749  1.00  0.00     0.085 A 
HETATM   18  C7  UNL     1      -8.776  28.739  15.929  1.00  0.00     0.122 A 
HETATM   19  F2  UNL     1      -9.373  29.504  16.883  1.00  0.00    -0.206 F 
HETATM   20  C8  UNL     1      -9.468  27.830  15.171  1.00  0.00     0.085 A 
HETATM   21  C9  UNL     1      -8.801  27.099  14.230  1.00  0.00     0.129 A 
HETATM   22  F3  UNL     1      -9.483  26.209  13.490  1.00  0.00    -0.205 F 
ENDBRANCH  13  14
ENDBRANCH   7  13
ENDBRANCH   6   7
BRANCH   6  23
HETATM   23  O3  UNL     1      -4.533  23.703  12.771  1.00  0.00    -0.345 OA
ATOM     24  H3  UNL     1      -3.665  23.515  13.109  1.00  0.00     0.219 HD
ENDBRANCH   6  23
ENDBRANCH   1   6
BRANCH   5  25
HETATM   25  N4  UNL     1      -2.501  25.623  14.497  1.00  0.00    -0.050 N 
ATOM     26  H42 UNL     1      -3.393  25.592  14.991  1.00  0.00     0.280 HD
ATOM     27  H41 UNL     1      -2.341  24.616  14.474  1.00  0.00     0.280 HD
BRANCH  25  28
HETATM   28  C20 UNL     1      -1.446  26.378  15.217  1.00  0.00     0.273 C 
BRANCH  28  29
HETATM   29  C21 UNL     1      -0.283  25.544  15.537  1.00  0.00    -0.028 A 
HETATM   30  C22 UNL     1       0.949  26.108  15.749  1.00  0.00     0.052 A 
HETATM   31  C23 UNL     1       2.029  25.275  16.052  1.00  0.00     0.140 A 
HETATM   32  F4  UNL     1       3.261  25.820  16.264  1.00  0.00    -0.204 F 
HETATM   33  C24 UNL     1       1.885  23.902  16.143  1.00  0.00     0.094 A 
HETATM   34 CL1  UNL     1       3.236  22.832  16.518  1.00  0.00    -0.079 Cl
HETATM   35  C25 UNL     1       0.633  23.355  15.926  1.00  0.00     0.059 A 
HETATM   36 CL2  UNL     1       0.467  21.614  16.049  1.00  0.00    -0.082 Cl
HETATM   37  C26 UNL     1      -0.438  24.170  15.625  1.00  0.00     0.034 A 
ENDBRANCH  28  29
ENDBRANCH  25  28
ENDBRANCH   5  25
BRANCH   3  38
HETATM   38  C13 UNL     1      -1.351  27.095  10.183  1.00  0.00     0.278 C 
BRANCH  38  39
HETATM   39  N3  UNL     1      -0.867  26.586   8.924  1.00  0.00     0.088 N 
HETATM   40  C14 UNL     1       0.562  26.544   8.821  1.00  0.00     0.272 C 
HETATM   41  C15 UNL     1       0.894  25.077   9.124  1.00  0.00     0.032 C 
HETATM   42  C16 UNL     1      -0.211  24.374   8.335  1.00  0.00     0.032 C 
HETATM   43  C17 UNL     1      -1.383  25.259   8.645  1.00  0.00     0.272 C 
ENDBRANCH  38  39
ENDBRANCH   3  38
TORSDOF 13
ENDMDL
