MODEL 1
REMARK VINA RESULT: -10.275539069      0.000      0.000
REMARK  11 active torsions:
REMARK  status: ('A' for Active; 'I' for Inactive)
REMARK       I    between atoms: C1_2  and  N1_3 
REMARK    1  A    between atoms: C1_2  and  C17_30 
REMARK    2  A    between atoms: N1_3  and  C2_5 
REMARK    3  A    between atoms: C2_5  and  C3_6 
REMARK    4  A    between atoms: C2_5  and  C11_24 
REMARK       I    between atoms: C3_6  and  N2_8 
REMARK    5  A    between atoms: N2_8  and  C4_10 
REMARK    6  A    between atoms: N3_14  and  S1_15 
REMARK    7  A    between atoms: S1_15  and  C8_18 
REMARK    8  A    between atoms: C8_18  and  C9_19 
REMARK    9  A    between atoms: C20_33  and  O5_34 
REMARK   10  A    between atoms: O5_34  and  C21_35 
REMARK   11  A    between atoms: C21_35  and  C22_36 
ROOT
HETATM    1  C2  UNL     1      -6.339  28.926  15.530  1.00  0.00     0.181 C 
ENDROOT
BRANCH   1   2
HETATM    2  N1  UNL     1      -7.258  27.832  15.440  1.00  0.00    -0.343 N 
HETATM    3  C1  UNL     1      -8.638  27.866  15.537  1.00  0.00     0.252 C 
HETATM    4  O1  UNL     1      -9.215  28.958  15.724  1.00  0.00    -0.268 OA
ATOM      5  H1  UNL     1      -6.843  26.913  15.286  1.00  0.00     0.163 HD
BRANCH   3   6
HETATM    6  C17 UNL     1      -9.450  26.674  15.428  1.00  0.00     0.033 A 
HETATM    7  C18 UNL     1     -10.431  26.547  14.430  1.00  0.00     0.020 A 
HETATM    8  C19 UNL     1     -11.225  25.435  14.300  1.00  0.00     0.039 A 
HETATM    9  C20 UNL     1     -11.081  24.377  15.168  1.00  0.00     0.090 A 
HETATM   10  C23 UNL     1     -10.132  24.466  16.157  1.00  0.00     0.068 A 
HETATM   11 CL1  UNL     1      -9.958  23.119  17.259  1.00  0.00    -0.081 Cl
HETATM   12  C24 UNL     1      -9.339  25.587  16.279  1.00  0.00     0.043 A 
BRANCH   9  13
HETATM   13  O5  UNL     1     -11.893  23.245  15.030  1.00  0.00    -0.344 OA
BRANCH  13  14
HETATM   14  C21 UNL     1     -12.534  22.997  13.795  1.00  0.00     0.246 C 
BRANCH  14  15
HETATM   15  C22 UNL     1     -12.038  21.712  13.194  1.00  0.00     0.377 C 
HETATM   16  F4  UNL     1     -10.692  21.676  12.985  1.00  0.00    -0.212 F 
HETATM   17  F5  UNL     1     -12.650  21.488  11.953  1.00  0.00    -0.212 F 
ENDBRANCH  14  15
ENDBRANCH  13  14
ENDBRANCH   9  13
ENDBRANCH   3   6
ENDBRANCH   1   2
BRANCH   1  18
HETATM   18  C3  UNL     1      -5.290  28.718  14.509  1.00  0.00     0.241 C 
HETATM   19  O2  UNL     1      -4.753  29.669  13.924  1.00  0.00    -0.271 OA
HETATM   20  N2  UNL     1      -4.869  27.414  14.176  1.00  0.00    -0.353 N 
ATOM     21  H2  UNL     1      -5.306  26.625  14.652  1.00  0.00     0.163 HD
BRANCH  20  22
HETATM   22  C4  UNL     1      -3.848  27.144  13.192  1.00  0.00     0.103 C 
HETATM   23  C5  UNL     1      -4.321  26.270  12.065  1.00  0.00     0.028 C 
HETATM   24  C6  UNL     1      -3.202  26.208  11.047  1.00  0.00     0.023 C 
HETATM   25  C7  UNL     1      -1.841  25.972  11.706  1.00  0.00     0.135 C 
HETATM   26  N3  UNL     1      -1.940  25.611  13.054  1.00  0.00    -0.309 N 
HETATM   27  C10 UNL     1      -2.711  26.419  13.926  1.00  0.00     0.160 C 
BRANCH  26  28
HETATM   28  S1  UNL     1      -1.120  24.314  13.691  1.00  0.00     0.236 S 
HETATM   29  O3  UNL     1      -0.498  23.445  12.595  1.00  0.00    -0.205 OA
HETATM   30  O4  UNL     1      -2.177  23.368  14.301  1.00  0.00    -0.205 OA
BRANCH  28  31
HETATM   31  C8  UNL     1       0.042  24.600  14.949  1.00  0.00     0.280 C 
BRANCH  31  32
HETATM   32  C9  UNL     1       0.391  23.504  15.873  1.00  0.00     0.402 C 
HETATM   33  F1  UNL     1      -0.480  23.310  16.913  1.00  0.00    -0.170 F 
HETATM   34  F2  UNL     1       1.589  23.948  16.547  1.00  0.00    -0.170 F 
HETATM   35  F3  UNL     1       0.785  22.349  15.271  1.00  0.00    -0.170 F 
ENDBRANCH  31  32
ENDBRANCH  28  31
ENDBRANCH  26  28
ENDBRANCH  20  22
ENDBRANCH   1  18
BRANCH   1  36
HETATM   36  C11 UNL     1      -5.714  29.170  16.840  1.00  0.00     0.018 C 
HETATM   37  C12 UNL     1      -4.318  28.667  17.005  1.00  0.00     0.007 C 
HETATM   38  C13 UNL     1      -3.942  28.672  18.451  1.00  0.00     0.000 C 
HETATM   39  C14 UNL     1      -4.704  29.656  19.288  1.00  0.00     0.000 C 
HETATM   40  C15 UNL     1      -6.188  29.516  19.209  1.00  0.00     0.000 C 
HETATM   41  C16 UNL     1      -6.505  28.632  18.016  1.00  0.00     0.007 C 
ENDBRANCH   1  36
TORSDOF 11
ENDMDL
MODEL 2
REMARK VINA RESULT: -10.103741583      0.661      1.091
REMARK  11 active torsions:
REMARK  status: ('A' for Active; 'I' for Inactive)
REMARK       I    between atoms: C1_2  and  N1_3 
REMARK    1  A    between atoms: C1_2  and  C17_30 
REMARK    2  A    between atoms: N1_3  and  C2_5 
REMARK    3  A    between atoms: C2_5  and  C3_6 
REMARK    4  A    between atoms: C2_5  and  C11_24 
REMARK       I    between atoms: C3_6  and  N2_8 
REMARK    5  A    between atoms: N2_8  and  C4_10 
REMARK    6  A    between atoms: N3_14  and  S1_15 
REMARK    7  A    between atoms: S1_15  and  C8_18 
REMARK    8  A    between atoms: C8_18  and  C9_19 
REMARK    9  A    between atoms: C20_33  and  O5_34 
REMARK   10  A    between atoms: O5_34  and  C21_35 
REMARK   11  A    between atoms: C21_35  and  C22_36 
ROOT
HETATM    1  C2  UNL     1      -6.502  28.539  15.659  1.00  0.00     0.181 C 
ENDROOT
BRANCH   1   2
HETATM    2  N1  UNL     1      -7.470  27.493  15.524  1.00  0.00    -0.343 N 
HETATM    3  C1  UNL     1      -8.849  27.594  15.576  1.00  0.00     0.252 C 
HETATM    4  O1  UNL     1      -9.378  28.712  15.759  1.00  0.00    -0.268 OA
ATOM      5  H1  UNL     1      -7.096  26.557  15.371  1.00  0.00     0.163 HD
BRANCH   3   6
HETATM    6  C17 UNL     1      -9.714  26.446  15.424  1.00  0.00     0.033 A 
HETATM    7  C18 UNL     1     -10.611  26.343  14.348  1.00  0.00     0.020 A 
HETATM    8  C19 UNL     1     -11.452  25.273  14.174  1.00  0.00     0.039 A 
HETATM    9  C20 UNL     1     -11.444  24.234  15.076  1.00  0.00     0.090 A 
HETATM   10  C23 UNL     1     -10.580  24.300  16.143  1.00  0.00     0.068 A 
HETATM   11 CL1  UNL     1     -10.578  22.976  17.287  1.00  0.00    -0.081 Cl
HETATM   12  C24 UNL     1      -9.739  25.378  16.307  1.00  0.00     0.043 A 
BRANCH   9  13
HETATM   13  O5  UNL     1     -12.303  23.144  14.895  1.00  0.00    -0.344 OA
BRANCH  13  14
HETATM   14  C21 UNL     1     -12.838  22.888  13.611  1.00  0.00     0.246 C 
BRANCH  14  15
HETATM   15  C22 UNL     1     -12.226  21.648  13.024  1.00  0.00     0.377 C 
HETATM   16  F4  UNL     1     -10.873  21.709  12.874  1.00  0.00    -0.212 F 
HETATM   17  F5  UNL     1     -12.767  21.392  11.756  1.00  0.00    -0.212 F 
ENDBRANCH  14  15
ENDBRANCH  13  14
ENDBRANCH   9  13
ENDBRANCH   3   6
ENDBRANCH   1   2
BRANCH   1  18
HETATM   18  C3  UNL     1      -5.534  28.403  14.549  1.00  0.00     0.241 C 
HETATM   19  O2  UNL     1      -5.320  29.330  13.755  1.00  0.00    -0.271 OA
HETATM   20  N2  UNL     1      -4.821  27.200  14.369  1.00  0.00    -0.353 N 
ATOM     21  H2  UNL     1      -4.992  26.432  15.018  1.00  0.00     0.163 HD
BRANCH  20  22
HETATM   22  C4  UNL     1      -3.862  27.005  13.309  1.00  0.00     0.103 C 
HETATM   23  C5  UNL     1      -4.396  26.197  12.160  1.00  0.00     0.028 C 
HETATM   24  C6  UNL     1      -3.343  26.213  11.074  1.00  0.00     0.023 C 
HETATM   25  C7  UNL     1      -1.941  25.953  11.631  1.00  0.00     0.135 C 
HETATM   26  N3  UNL     1      -1.953  25.508  12.956  1.00  0.00    -0.309 N 
HETATM   27  C10 UNL     1      -2.675  26.250  13.924  1.00  0.00     0.160 C 
BRANCH  26  28
HETATM   28  S1  UNL     1      -1.084  24.183  13.459  1.00  0.00     0.236 S 
HETATM   29  O3  UNL     1      -0.781  23.233  12.297  1.00  0.00    -0.205 OA
HETATM   30  O4  UNL     1      -2.025  23.334  14.341  1.00  0.00    -0.205 OA
BRANCH  28  31
HETATM   31  C8  UNL     1       0.350  24.438  14.403  1.00  0.00     0.280 C 
BRANCH  31  32
HETATM   32  C9  UNL     1       0.222  24.788  15.831  1.00  0.00     0.402 C 
HETATM   33  F1  UNL     1      -0.427  25.967  16.093  1.00  0.00    -0.170 F 
HETATM   34  F2  UNL     1       1.570  25.070  16.270  1.00  0.00    -0.170 F 
HETATM   35  F3  UNL     1      -0.160  23.765  16.642  1.00  0.00    -0.170 F 
ENDBRANCH  31  32
ENDBRANCH  28  31
ENDBRANCH  26  28
ENDBRANCH  20  22
ENDBRANCH   1  18
BRANCH   1  36
HETATM   36  C11 UNL     1      -5.779  28.622  16.938  1.00  0.00     0.018 C 
HETATM   37  C12 UNL     1      -6.484  29.332  18.046  1.00  0.00     0.007 C 
HETATM   38  C13 UNL     1      -5.523  29.639  19.148  1.00  0.00     0.000 C 
HETATM   39  C14 UNL     1      -4.334  28.727  19.208  1.00  0.00     0.000 C 
HETATM   40  C15 UNL     1      -3.552  28.648  17.938  1.00  0.00     0.000 C 
HETATM   41  C16 UNL     1      -4.403  29.251  16.834  1.00  0.00     0.007 C 
ENDBRANCH   1  36
TORSDOF 11
ENDMDL
MODEL 3
REMARK VINA RESULT: -10.079927496      1.361      1.770
REMARK  11 active torsions:
REMARK  status: ('A' for Active; 'I' for Inactive)
REMARK       I    between atoms: C1_2  and  N1_3 
REMARK    1  A    between atoms: C1_2  and  C17_30 
REMARK    2  A    between atoms: N1_3  and  C2_5 
REMARK    3  A    between atoms: C2_5  and  C3_6 
REMARK    4  A    between atoms: C2_5  and  C11_24 
REMARK       I    between atoms: C3_6  and  N2_8 
REMARK    5  A    between atoms: N2_8  and  C4_10 
REMARK    6  A    between atoms: N3_14  and  S1_15 
REMARK    7  A    between atoms: S1_15  and  C8_18 
REMARK    8  A    between atoms: C8_18  and  C9_19 
REMARK    9  A    between atoms: C20_33  and  O5_34 
REMARK   10  A    between atoms: O5_34  and  C21_35 
REMARK   11  A    between atoms: C21_35  and  C22_36 
ROOT
HETATM    1  C2  UNL     1      -6.235  28.064  15.298  1.00  0.00     0.181 C 
ENDROOT
BRANCH   1   2
HETATM    2  N1  UNL     1      -7.308  27.118  15.254  1.00  0.00    -0.343 N 
HETATM    3  C1  UNL     1      -8.667  27.365  15.323  1.00  0.00     0.252 C 
HETATM    4  O1  UNL     1      -9.075  28.541  15.436  1.00  0.00    -0.268 OA
ATOM      5  H1  UNL     1      -7.036  26.139  15.160  1.00  0.00     0.163 HD
BRANCH   3   6
HETATM    6  C17 UNL     1      -9.650  26.305  15.267  1.00  0.00     0.033 A 
HETATM    7  C18 UNL     1     -10.674  26.308  14.306  1.00  0.00     0.020 A 
HETATM    8  C19 UNL     1     -11.628  25.324  14.226  1.00  0.00     0.039 A 
HETATM    9  C20 UNL     1     -11.611  24.271  15.112  1.00  0.00     0.090 A 
HETATM   10  C23 UNL     1     -10.623  24.235  16.067  1.00  0.00     0.068 A 
HETATM   11 CL1  UNL     1     -10.610  22.896  17.192  1.00  0.00    -0.081 Cl
HETATM   12  C24 UNL     1      -9.670  25.228  16.138  1.00  0.00     0.043 A 
BRANCH   9  13
HETATM   13  O5  UNL     1     -12.585  23.270  15.026  1.00  0.00    -0.344 OA
BRANCH  13  14
HETATM   14  C21 UNL     1     -13.003  22.815  13.754  1.00  0.00     0.246 C 
BRANCH  14  15
HETATM   15  C22 UNL     1     -12.084  21.737  13.253  1.00  0.00     0.377 C 
HETATM   16  F4  UNL     1     -10.795  22.141  13.071  1.00  0.00    -0.212 F 
HETATM   17  F5  UNL     1     -12.537  21.247  12.020  1.00  0.00    -0.212 F 
ENDBRANCH  14  15
ENDBRANCH  13  14
ENDBRANCH   9  13
ENDBRANCH   3   6
ENDBRANCH   1   2
BRANCH   1  18
HETATM   18  C3  UNL     1      -5.168  27.578  14.397  1.00  0.00     0.241 C 
HETATM   19  O2  UNL     1      -4.685  28.298  13.512  1.00  0.00    -0.271 OA
HETATM   20  N2  UNL     1      -4.668  26.266  14.528  1.00  0.00    -0.353 N 
ATOM     21  H2  UNL     1      -5.060  25.666  15.253  1.00  0.00     0.163 HD
BRANCH  20  22
HETATM   22  C4  UNL     1      -3.626  25.733  13.683  1.00  0.00     0.103 C 
HETATM   23  C5  UNL     1      -3.882  24.320  13.239  1.00  0.00     0.028 C 
HETATM   24  C6  UNL     1      -2.798  23.961  12.245  1.00  0.00     0.023 C 
HETATM   25  C7  UNL     1      -1.411  24.393  12.729  1.00  0.00     0.135 C 
HETATM   26  N3  UNL     1      -1.398  24.787  14.070  1.00  0.00    -0.309 N 
HETATM   27  C10 UNL     1      -2.334  25.756  14.511  1.00  0.00     0.160 C 
BRANCH  26  28
HETATM   28  S1  UNL     1      -0.271  24.223  15.154  1.00  0.00     0.236 S 
HETATM   29  O3  UNL     1      -0.815  23.052  15.977  1.00  0.00    -0.205 OA
HETATM   30  O4  UNL     1      -0.085  25.320  16.224  1.00  0.00    -0.205 OA
BRANCH  28  31
HETATM   31  C8  UNL     1       1.323  23.848  14.577  1.00  0.00     0.280 C 
BRANCH  31  32
HETATM   32  C9  UNL     1       2.484  24.086  15.456  1.00  0.00     0.402 C 
HETATM   33  F1  UNL     1       2.836  25.400  15.624  1.00  0.00    -0.170 F 
HETATM   34  F2  UNL     1       3.616  23.548  14.737  1.00  0.00    -0.170 F 
HETATM   35  F3  UNL     1       2.484  23.371  16.614  1.00  0.00    -0.170 F 
ENDBRANCH  31  32
ENDBRANCH  28  31
ENDBRANCH  26  28
ENDBRANCH  20  22
ENDBRANCH   1  18
BRANCH   1  36
HETATM   36  C11 UNL     1      -5.664  28.369  16.620  1.00  0.00     0.018 C 
HETATM   37  C12 UNL     1      -6.509  29.205  17.523  1.00  0.00     0.007 C 
HETATM   38  C13 UNL     1      -5.688  29.715  18.662  1.00  0.00     0.000 C 
HETATM   39  C14 UNL     1      -4.490  28.875  18.989  1.00  0.00     0.000 C 
HETATM   40  C15 UNL     1      -3.567  28.641  17.839  1.00  0.00     0.000 C 
HETATM   41  C16 UNL     1      -4.303  29.034  16.570  1.00  0.00     0.007 C 
ENDBRANCH   1  36
TORSDOF 11
ENDMDL
MODEL 4
REMARK VINA RESULT: -10.018042496      1.653      1.839
REMARK  11 active torsions:
REMARK  status: ('A' for Active; 'I' for Inactive)
REMARK       I    between atoms: C1_2  and  N1_3 
REMARK    1  A    between atoms: C1_2  and  C17_30 
REMARK    2  A    between atoms: N1_3  and  C2_5 
REMARK    3  A    between atoms: C2_5  and  C3_6 
REMARK    4  A    between atoms: C2_5  and  C11_24 
REMARK       I    between atoms: C3_6  and  N2_8 
REMARK    5  A    between atoms: N2_8  and  C4_10 
REMARK    6  A    between atoms: N3_14  and  S1_15 
REMARK    7  A    between atoms: S1_15  and  C8_18 
REMARK    8  A    between atoms: C8_18  and  C9_19 
REMARK    9  A    between atoms: C20_33  and  O5_34 
REMARK   10  A    between atoms: O5_34  and  C21_35 
REMARK   11  A    between atoms: C21_35  and  C22_36 
ROOT
HETATM    1  C2  UNL     1      -6.410  28.963  15.525  1.00  0.00     0.181 C 
ENDROOT
BRANCH   1   2
HETATM    2  N1  UNL     1      -7.314  27.857  15.435  1.00  0.00    -0.343 N 
HETATM    3  C1  UNL     1      -8.695  27.874  15.519  1.00  0.00     0.252 C 
HETATM    4  O1  UNL     1      -9.288  28.961  15.692  1.00  0.00    -0.268 OA
ATOM      5  H1  UNL     1      -6.887  26.942  15.292  1.00  0.00     0.163 HD
BRANCH   3   6
HETATM    6  C17 UNL     1      -9.491  26.672  15.412  1.00  0.00     0.033 A 
HETATM    7  C18 UNL     1     -10.494  26.543  14.438  1.00  0.00     0.020 A 
HETATM    8  C19 UNL     1     -11.275  25.421  14.310  1.00  0.00     0.039 A 
HETATM    9  C20 UNL     1     -11.093  24.353  15.158  1.00  0.00     0.090 A 
HETATM   10  C23 UNL     1     -10.121  24.443  16.125  1.00  0.00     0.068 A 
HETATM   11 CL1  UNL     1      -9.899  23.082  17.203  1.00  0.00    -0.081 Cl
HETATM   12  C24 UNL     1      -9.343  25.574  16.244  1.00  0.00     0.043 A 
BRANCH   9  13
HETATM   13  O5  UNL     1     -11.891  23.211  15.024  1.00  0.00    -0.344 OA
BRANCH  13  14
HETATM   14  C21 UNL     1     -12.673  23.044  13.858  1.00  0.00     0.246 C 
BRANCH  14  15
HETATM   15  C22 UNL     1     -12.196  21.857  13.070  1.00  0.00     0.377 C 
HETATM   16  F4  UNL     1     -10.844  21.798  12.910  1.00  0.00    -0.212 F 
HETATM   17  F5  UNL     1     -12.760  21.867  11.787  1.00  0.00    -0.212 F 
ENDBRANCH  14  15
ENDBRANCH  13  14
ENDBRANCH   9  13
ENDBRANCH   3   6
ENDBRANCH   1   2
BRANCH   1  18
HETATM   18  C3  UNL     1      -5.381  28.789  14.477  1.00  0.00     0.241 C 
HETATM   19  O2  UNL     1      -4.795  29.758  13.973  1.00  0.00    -0.271 OA
HETATM   20  N2  UNL     1      -5.037  27.499  14.023  1.00  0.00    -0.353 N 
ATOM     21  H2  UNL     1      -5.514  26.696  14.432  1.00  0.00     0.163 HD
BRANCH  20  22
HETATM   22  C4  UNL     1      -4.040  27.263  13.006  1.00  0.00     0.103 C 
HETATM   23  C5  UNL     1      -4.543  26.435  11.858  1.00  0.00     0.028 C 
HETATM   24  C6  UNL     1      -3.448  26.407  10.813  1.00  0.00     0.023 C 
HETATM   25  C7  UNL     1      -2.073  26.139  11.431  1.00  0.00     0.135 C 
HETATM   26  N3  UNL     1      -2.145  25.728  12.766  1.00  0.00    -0.309 N 
HETATM   27  C10 UNL     1      -2.891  26.505  13.686  1.00  0.00     0.160 C 
BRANCH  26  28
HETATM   28  S1  UNL     1      -1.318  24.403  13.334  1.00  0.00     0.236 S 
HETATM   29  O3  UNL     1      -0.082  24.811  14.141  1.00  0.00    -0.205 OA
HETATM   30  O4  UNL     1      -0.694  23.700  12.109  1.00  0.00    -0.205 OA
BRANCH  28  31
HETATM   31  C8  UNL     1      -2.200  23.174  14.187  1.00  0.00     0.280 C 
BRANCH  31  32
HETATM   32  C9  UNL     1      -3.669  23.122  14.063  1.00  0.00     0.402 C 
HETATM   33  F1  UNL     1      -4.367  23.807  15.023  1.00  0.00    -0.170 F 
HETATM   34  F2  UNL     1      -4.021  21.748  14.342  1.00  0.00    -0.170 F 
HETATM   35  F3  UNL     1      -4.146  23.313  12.803  1.00  0.00    -0.170 F 
ENDBRANCH  31  32
ENDBRANCH  28  31
ENDBRANCH  26  28
ENDBRANCH  20  22
ENDBRANCH   1  18
BRANCH   1  36
HETATM   36  C11 UNL     1      -5.758  29.192  16.824  1.00  0.00     0.018 C 
HETATM   37  C12 UNL     1      -4.368  28.668  16.964  1.00  0.00     0.007 C 
HETATM   38  C13 UNL     1      -3.967  28.662  18.403  1.00  0.00     0.000 C 
HETATM   39  C14 UNL     1      -4.699  29.655  19.256  1.00  0.00     0.000 C 
HETATM   40  C15 UNL     1      -6.186  29.537  19.203  1.00  0.00     0.000 C 
HETATM   41  C16 UNL     1      -6.537  28.662  18.012  1.00  0.00     0.007 C 
ENDBRANCH   1  36
TORSDOF 11
ENDMDL
MODEL 5
REMARK VINA RESULT: -9.989925662      0.980      1.220
REMARK  11 active torsions:
REMARK  status: ('A' for Active; 'I' for Inactive)
REMARK       I    between atoms: C1_2  and  N1_3 
REMARK    1  A    between atoms: C1_2  and  C17_30 
REMARK    2  A    between atoms: N1_3  and  C2_5 
REMARK    3  A    between atoms: C2_5  and  C3_6 
REMARK    4  A    between atoms: C2_5  and  C11_24 
REMARK       I    between atoms: C3_6  and  N2_8 
REMARK    5  A    between atoms: N2_8  and  C4_10 
REMARK    6  A    between atoms: N3_14  and  S1_15 
REMARK    7  A    between atoms: S1_15  and  C8_18 
REMARK    8  A    between atoms: C8_18  and  C9_19 
REMARK    9  A    between atoms: C20_33  and  O5_34 
REMARK   10  A    between atoms: O5_34  and  C21_35 
REMARK   11  A    between atoms: C21_35  and  C22_36 
ROOT
HETATM    1  C2  UNL     1      -6.248  28.821  15.564  1.00  0.00     0.181 C 
ENDROOT
BRANCH   1   2
HETATM    2  N1  UNL     1      -7.204  27.759  15.473  1.00  0.00    -0.343 N 
HETATM    3  C1  UNL     1      -8.583  27.845  15.532  1.00  0.00     0.252 C 
HETATM    4  O1  UNL     1      -9.125  28.962  15.681  1.00  0.00    -0.268 OA
ATOM      5  H1  UNL     1      -6.819  26.823  15.349  1.00  0.00     0.163 HD
BRANCH   3   6
HETATM    6  C17 UNL     1      -9.436  26.682  15.427  1.00  0.00     0.033 A 
HETATM    7  C18 UNL     1     -10.434  26.593  14.443  1.00  0.00     0.020 A 
HETATM    8  C19 UNL     1     -11.266  25.509  14.316  1.00  0.00     0.039 A 
HETATM    9  C20 UNL     1     -11.145  24.441  15.175  1.00  0.00     0.090 A 
HETATM   10  C23 UNL     1     -10.179  24.492  16.152  1.00  0.00     0.068 A 
HETATM   11 CL1  UNL     1     -10.034  23.132  17.242  1.00  0.00    -0.081 Cl
HETATM   12  C24 UNL     1      -9.349  25.585  16.269  1.00  0.00     0.043 A 
BRANCH   9  13
HETATM   13  O5  UNL     1     -11.995  23.338  15.042  1.00  0.00    -0.344 OA
BRANCH  13  14
HETATM   14  C21 UNL     1     -12.598  23.072  13.790  1.00  0.00     0.246 C 
BRANCH  14  15
HETATM   15  C22 UNL     1     -12.058  21.798  13.206  1.00  0.00     0.377 C 
HETATM   16  F4  UNL     1     -10.709  21.798  13.013  1.00  0.00    -0.212 F 
HETATM   17  F5  UNL     1     -12.649  21.546  11.960  1.00  0.00    -0.212 F 
ENDBRANCH  14  15
ENDBRANCH  13  14
ENDBRANCH   9  13
ENDBRANCH   3   6
ENDBRANCH   1   2
BRANCH   1  18
HETATM   18  C3  UNL     1      -5.131  28.501  14.650  1.00  0.00     0.241 C 
HETATM   19  O2  UNL     1      -4.550  29.381  13.998  1.00  0.00    -0.271 OA
HETATM   20  N2  UNL     1      -4.693  27.169  14.499  1.00  0.00    -0.353 N 
ATOM     21  H2  UNL     1      -5.165  26.439  15.031  1.00  0.00     0.163 HD
BRANCH  20  22
HETATM   22  C4  UNL     1      -3.607  26.791  13.627  1.00  0.00     0.103 C 
HETATM   23  C5  UNL     1      -3.920  25.603  12.763  1.00  0.00     0.028 C 
HETATM   24  C6  UNL     1      -2.762  25.429  11.804  1.00  0.00     0.023 C 
HETATM   25  C7  UNL     1      -1.409  25.550  12.512  1.00  0.00     0.135 C 
HETATM   26  N3  UNL     1      -1.519  25.538  13.906  1.00  0.00    -0.309 N 
HETATM   27  C10 UNL     1      -2.420  26.435  14.533  1.00  0.00     0.160 C 
BRANCH  26  28
HETATM   28  S1  UNL     1      -0.571  24.567  14.865  1.00  0.00     0.236 S 
HETATM   29  O3  UNL     1      -1.361  23.379  15.423  1.00  0.00    -0.205 OA
HETATM   30  O4  UNL     1      -0.245  25.373  16.141  1.00  0.00    -0.205 OA
BRANCH  28  31
HETATM   31  C8  UNL     1       0.957  24.021  14.245  1.00  0.00     0.280 C 
BRANCH  31  32
HETATM   32  C9  UNL     1       2.103  23.887  15.165  1.00  0.00     0.402 C 
HETATM   33  F1  UNL     1       2.703  25.063  15.534  1.00  0.00    -0.170 F 
HETATM   34  F2  UNL     1       3.134  23.240  14.387  1.00  0.00    -0.170 F 
HETATM   35  F3  UNL     1       1.911  23.025  16.201  1.00  0.00    -0.170 F 
ENDBRANCH  31  32
ENDBRANCH  28  31
ENDBRANCH  26  28
ENDBRANCH  20  22
ENDBRANCH   1  18
BRANCH   1  36
HETATM   36  C11 UNL     1      -5.719  29.134  16.901  1.00  0.00     0.018 C 
HETATM   37  C12 UNL     1      -4.321  28.690  17.175  1.00  0.00     0.007 C 
HETATM   38  C13 UNL     1      -4.041  28.760  18.641  1.00  0.00     0.000 C 
HETATM   39  C14 UNL     1      -4.890  29.743  19.389  1.00  0.00     0.000 C 
HETATM   40  C15 UNL     1      -6.360  29.545  19.220  1.00  0.00     0.000 C 
HETATM   41  C16 UNL     1      -6.567  28.608  18.043  1.00  0.00     0.007 C 
ENDBRANCH   1  36
TORSDOF 11
ENDMDL
