MODEL 1
REMARK VINA RESULT: -7.886932921      0.000      0.000
REMARK  6 active torsions:
REMARK  status: ('A' for Active; 'I' for Inactive)
REMARK    1  A    between atoms: O1_2  and  N1_3 
REMARK    2  A    between atoms: N1_3  and  C2_4 
REMARK    3  A    between atoms: C7_9  and  C8_10 
REMARK    4  A    between atoms: N2_11  and  N3_13 
REMARK       I    between atoms: N3_13  and  C9_15 
REMARK    5  A    between atoms: C9_15  and  C10_17 
REMARK       I    between atoms: C10_17  and  N4_19 
REMARK    6  A    between atoms: N4_19  and  C11_21 
ROOT
HETATM    1  N3  UNL     1      13.024  45.574 -36.330  1.00  0.00    -0.262 N 
ATOM      2  H3  UNL     1      13.879  46.065 -36.067  1.00  0.00     0.190 HD
HETATM    3  C9  UNL     1      13.036  44.695 -37.426  1.00  0.00     0.327 C 
HETATM    4  O2  UNL     1      11.965  44.080 -37.756  1.00  0.00    -0.261 OA
ENDROOT
BRANCH   1   5
HETATM    5  N2  UNL     1      11.863  45.781 -35.600  1.00  0.00    -0.312 N 
HETATM    6  C8  UNL     1      11.270  46.911 -35.665  1.00  0.00     0.086 C 
ATOM      7  H2  UNL     1      11.484  45.036 -35.015  1.00  0.00     0.185 HD
BRANCH   6   8
HETATM    8  C7  UNL     1      10.033  47.091 -34.871  1.00  0.00     0.047 C 
HETATM    9  C2  UNL     1      10.363  47.689 -33.508  1.00  0.00     0.115 C 
HETATM   10  C3  UNL     1      11.267  48.850 -33.778  1.00  0.00     0.024 C 
HETATM   11  C4  UNL     1      10.662  49.891 -34.640  1.00  0.00     0.002 C 
HETATM   12  C5  UNL     1       9.780  49.434 -35.727  1.00  0.00     0.001 C 
HETATM   13  C6  UNL     1       9.154  48.089 -35.560  1.00  0.00     0.011 C 
BRANCH   9  14
HETATM   14  N1  UNL     1      10.999  46.710 -32.679  1.00  0.00    -0.096 NA
BRANCH  14  15
HETATM   15  O1  UNL     1      10.365  45.538 -32.681  1.00  0.00    -0.291 OA
HETATM   16  C1  UNL     1      11.186  44.436 -32.601  1.00  0.00     0.231 C 
ENDBRANCH  14  15
ENDBRANCH   9  14
ENDBRANCH   6   8
ENDBRANCH   1   5
BRANCH   3  17
HETATM   17  C10 UNL     1      14.227  44.435 -38.233  1.00  0.00     0.311 C 
HETATM   18  O3  UNL     1      14.053  43.973 -39.387  1.00  0.00    -0.262 OA
HETATM   19  N4  UNL     1      15.530  44.689 -37.754  1.00  0.00    -0.347 N 
ATOM     20  H4  UNL     1      15.659  45.066 -36.815  1.00  0.00     0.163 HD
BRANCH  19  21
HETATM   21  C11 UNL     1      16.662  44.423 -38.568  1.00  0.00     0.099 C 
HETATM   22  C12 UNL     1      17.068  42.954 -38.574  1.00  0.00     0.041 C 
HETATM   23  C13 UNL     1      18.124  42.955 -39.688  1.00  0.00     0.142 C 
HETATM   24  S1  UNL     1      19.168  44.277 -39.052  1.00  0.00     0.146 S 
HETATM   25  O4  UNL     1      19.694  45.131 -40.137  1.00  0.00    -0.228 OA
HETATM   26  O5  UNL     1      20.218  43.687 -38.178  1.00  0.00    -0.228 OA
HETATM   27  C14 UNL     1      17.926  45.129 -38.067  1.00  0.00     0.165 C 
ENDBRANCH  19  21
ENDBRANCH   3  17
TORSDOF 6
ENDMDL
MODEL 2
REMARK VINA RESULT: -7.034874928      1.106      1.503
REMARK  6 active torsions:
REMARK  status: ('A' for Active; 'I' for Inactive)
REMARK    1  A    between atoms: O1_2  and  N1_3 
REMARK    2  A    between atoms: N1_3  and  C2_4 
REMARK    3  A    between atoms: C7_9  and  C8_10 
REMARK    4  A    between atoms: N2_11  and  N3_13 
REMARK       I    between atoms: N3_13  and  C9_15 
REMARK    5  A    between atoms: C9_15  and  C10_17 
REMARK       I    between atoms: C10_17  and  N4_19 
REMARK    6  A    between atoms: N4_19  and  C11_21 
ROOT
HETATM    1  N3  UNL     1      12.591  44.994 -36.381  1.00  0.00    -0.262 N 
ATOM      2  H3  UNL     1      13.235  44.637 -35.676  1.00  0.00     0.190 HD
HETATM    3  C9  UNL     1      12.944  44.934 -37.740  1.00  0.00     0.327 C 
HETATM    4  O2  UNL     1      12.138  45.382 -38.624  1.00  0.00    -0.261 OA
ENDROOT
BRANCH   1   5
HETATM    5  N2  UNL     1      11.375  45.534 -35.989  1.00  0.00    -0.312 N 
HETATM    6  C8  UNL     1      11.313  46.763 -35.644  1.00  0.00     0.086 C 
ATOM      7  H2  UNL     1      10.536  44.955 -35.977  1.00  0.00     0.185 HD
BRANCH   6   8
HETATM    8  C7  UNL     1       9.995  47.301 -35.232  1.00  0.00     0.047 C 
HETATM    9  C2  UNL     1       9.903  47.364 -33.711  1.00  0.00     0.115 C 
HETATM   10  C3  UNL     1      11.168  48.018 -33.251  1.00  0.00     0.024 C 
HETATM   11  C4  UNL     1      11.365  49.383 -33.790  1.00  0.00     0.002 C 
HETATM   12  C5  UNL     1      10.923  49.630 -35.173  1.00  0.00     0.001 C 
HETATM   13  C6  UNL     1       9.876  48.714 -35.714  1.00  0.00     0.011 C 
BRANCH   9  14
HETATM   14  N1  UNL     1       9.766  46.046 -33.169  1.00  0.00    -0.096 NA
BRANCH  14  15
HETATM   15  O1  UNL     1      10.764  45.715 -32.351  1.00  0.00    -0.291 OA
HETATM   16  C1  UNL     1      11.380  44.520 -32.644  1.00  0.00     0.231 C 
ENDBRANCH  14  15
ENDBRANCH   9  14
ENDBRANCH   6   8
ENDBRANCH   1   5
BRANCH   3  17
HETATM   17  C10 UNL     1      14.210  44.377 -38.215  1.00  0.00     0.311 C 
HETATM   18  O3  UNL     1      14.190  43.737 -39.294  1.00  0.00    -0.262 OA
HETATM   19  N4  UNL     1      15.419  44.543 -37.505  1.00  0.00    -0.347 N 
ATOM     20  H4  UNL     1      15.423  45.066 -36.630  1.00  0.00     0.163 HD
BRANCH  19  21
HETATM   21  C11 UNL     1      16.627  43.986 -38.000  1.00  0.00     0.099 C 
HETATM   22  C12 UNL     1      17.750  45.007 -38.137  1.00  0.00     0.041 C 
HETATM   23  C13 UNL     1      18.938  44.086 -38.448  1.00  0.00     0.142 C 
HETATM   24  S1  UNL     1      18.218  43.201 -39.842  1.00  0.00     0.146 S 
HETATM   25  O4  UNL     1      18.596  41.773 -39.840  1.00  0.00    -0.228 OA
HETATM   26  O5  UNL     1      18.558  43.920 -41.099  1.00  0.00    -0.228 OA
HETATM   27  C14 UNL     1      16.483  43.438 -39.424  1.00  0.00     0.165 C 
ENDBRANCH  19  21
ENDBRANCH   3  17
TORSDOF 6
ENDMDL
MODEL 3
REMARK VINA RESULT: -7.012937059      1.426      1.736
REMARK  6 active torsions:
REMARK  status: ('A' for Active; 'I' for Inactive)
REMARK    1  A    between atoms: O1_2  and  N1_3 
REMARK    2  A    between atoms: N1_3  and  C2_4 
REMARK    3  A    between atoms: C7_9  and  C8_10 
REMARK    4  A    between atoms: N2_11  and  N3_13 
REMARK       I    between atoms: N3_13  and  C9_15 
REMARK    5  A    between atoms: C9_15  and  C10_17 
REMARK       I    between atoms: C10_17  and  N4_19 
REMARK    6  A    between atoms: N4_19  and  C11_21 
ROOT
HETATM    1  N3  UNL     1      13.103  45.537 -36.146  1.00  0.00    -0.262 N 
ATOM      2  H3  UNL     1      13.826  45.959 -35.562  1.00  0.00     0.190 HD
HETATM    3  C9  UNL     1      13.471  44.781 -37.272  1.00  0.00     0.327 C 
HETATM    4  O2  UNL     1      12.566  44.253 -38.003  1.00  0.00    -0.261 OA
ENDROOT
BRANCH   1   5
HETATM    5  N2  UNL     1      11.767  45.716 -35.818  1.00  0.00    -0.312 N 
HETATM    6  C8  UNL     1      11.268  46.892 -35.822  1.00  0.00     0.086 C 
ATOM      7  H2  UNL     1      11.186  44.913 -35.576  1.00  0.00     0.185 HD
BRANCH   6   8
HETATM    8  C7  UNL     1       9.838  47.039 -35.466  1.00  0.00     0.047 C 
HETATM    9  C2  UNL     1       9.663  46.994 -33.953  1.00  0.00     0.115 C 
HETATM   10  C3  UNL     1      10.684  47.933 -33.393  1.00  0.00     0.024 C 
HETATM   11  C4  UNL     1      10.535  49.329 -33.866  1.00  0.00     0.002 C 
HETATM   12  C5  UNL     1      10.107  49.524 -35.261  1.00  0.00     0.001 C 
HETATM   13  C6  UNL     1       9.367  48.394 -35.898  1.00  0.00     0.011 C 
BRANCH   9  14
HETATM   14  N1  UNL     1       9.857  45.659 -33.472  1.00  0.00    -0.096 NA
BRANCH  14  15
HETATM   15  O1  UNL     1      10.866  45.561 -32.608  1.00  0.00    -0.291 OA
HETATM   16  C1  UNL     1      11.553  44.369 -32.653  1.00  0.00     0.231 C 
ENDBRANCH  14  15
ENDBRANCH   9  14
ENDBRANCH   6   8
ENDBRANCH   1   5
BRANCH   3  17
HETATM   17  C10 UNL     1      14.860  44.557 -37.668  1.00  0.00     0.311 C 
HETATM   18  O3  UNL     1      15.578  45.570 -37.852  1.00  0.00    -0.262 OA
HETATM   19  N4  UNL     1      15.394  43.262 -37.840  1.00  0.00    -0.347 N 
ATOM     20  H4  UNL     1      14.801  42.446 -37.686  1.00  0.00     0.163 HD
BRANCH  19  21
HETATM   21  C11 UNL     1      16.748  43.086 -38.226  1.00  0.00     0.099 C 
HETATM   22  C12 UNL     1      16.992  43.349 -39.707  1.00  0.00     0.041 C 
HETATM   23  C13 UNL     1      18.526  43.315 -39.755  1.00  0.00     0.142 C 
HETATM   24  S1  UNL     1      18.771  41.711 -38.973  1.00  0.00     0.146 S 
HETATM   25  O4  UNL     1      19.949  41.709 -38.081  1.00  0.00    -0.228 OA
HETATM   26  O5  UNL     1      18.802  40.660 -40.025  1.00  0.00    -0.228 OA
HETATM   27  C14 UNL     1      17.227  41.641 -38.050  1.00  0.00     0.165 C 
ENDBRANCH  19  21
ENDBRANCH   3  17
TORSDOF 6
ENDMDL
MODEL 4
REMARK VINA RESULT: -6.614625322      2.931      9.223
REMARK  6 active torsions:
REMARK  status: ('A' for Active; 'I' for Inactive)
REMARK    1  A    between atoms: O1_2  and  N1_3 
REMARK    2  A    between atoms: N1_3  and  C2_4 
REMARK    3  A    between atoms: C7_9  and  C8_10 
REMARK    4  A    between atoms: N2_11  and  N3_13 
REMARK       I    between atoms: N3_13  and  C9_15 
REMARK    5  A    between atoms: C9_15  and  C10_17 
REMARK       I    between atoms: C10_17  and  N4_19 
REMARK    6  A    between atoms: N4_19  and  C11_21 
ROOT
HETATM    1  N3  UNL     1      15.507  44.031 -38.093  1.00  0.00    -0.262 N 
ATOM      2  H3  UNL     1      15.710  44.436 -37.179  1.00  0.00     0.190 HD
HETATM    3  C9  UNL     1      14.212  44.137 -38.629  1.00  0.00     0.327 C 
HETATM    4  O2  UNL     1      13.957  43.629 -39.773  1.00  0.00    -0.261 OA
ENDROOT
BRANCH   1   5
HETATM    5  N2  UNL     1      16.513  43.381 -38.794  1.00  0.00    -0.312 N 
HETATM    6  C8  UNL     1      17.192  42.465 -38.219  1.00  0.00     0.086 C 
ATOM      7  H2  UNL     1      16.707  43.633 -39.763  1.00  0.00     0.185 HD
BRANCH   6   8
HETATM    8  C7  UNL     1      18.257  41.796 -39.003  1.00  0.00     0.047 C 
HETATM    9  C2  UNL     1      19.519  42.651 -39.016  1.00  0.00     0.115 C 
HETATM   10  C3  UNL     1      19.760  43.048 -37.594  1.00  0.00     0.024 C 
HETATM   11  C4  UNL     1      19.951  41.901 -36.677  1.00  0.00     0.002 C 
HETATM   12  C5  UNL     1      19.143  40.697 -36.930  1.00  0.00     0.001 C 
HETATM   13  C6  UNL     1      18.630  40.516 -38.321  1.00  0.00     0.011 C 
BRANCH   9  14
HETATM   14  N1  UNL     1      19.333  43.795 -39.857  1.00  0.00    -0.096 NA
BRANCH  14  15
HETATM   15  O1  UNL     1      18.892  43.478 -41.073  1.00  0.00    -0.291 OA
HETATM   16  C1  UNL     1      19.862  43.439 -42.049  1.00  0.00     0.231 C 
ENDBRANCH  14  15
ENDBRANCH   9  14
ENDBRANCH   6   8
ENDBRANCH   1   5
BRANCH   3  17
HETATM   17  C10 UNL     1      13.112  44.809 -37.939  1.00  0.00     0.311 C 
HETATM   18  O3  UNL     1      12.316  45.480 -38.639  1.00  0.00    -0.262 OA
HETATM   19  N4  UNL     1      12.933  44.717 -36.542  1.00  0.00    -0.347 N 
ATOM     20  H4  UNL     1      13.585  44.167 -35.983  1.00  0.00     0.163 HD
BRANCH  19  21
HETATM   21  C11 UNL     1      11.852  45.385 -35.909  1.00  0.00     0.099 C 
HETATM   22  C12 UNL     1      12.184  46.814 -35.498  1.00  0.00     0.041 C 
HETATM   23  C13 UNL     1      10.795  47.321 -35.082  1.00  0.00     0.142 C 
HETATM   24  S1  UNL     1      10.386  46.016 -33.911  1.00  0.00     0.146 S 
HETATM   25  O4  UNL     1       8.958  45.644 -33.982  1.00  0.00    -0.228 OA
HETATM   26  O5  UNL     1      10.844  46.421 -32.555  1.00  0.00    -0.228 OA
HETATM   27  C14 UNL     1      11.450  44.729 -34.584  1.00  0.00     0.165 C 
ENDBRANCH  19  21
ENDBRANCH   3  17
TORSDOF 6
ENDMDL
MODEL 5
REMARK VINA RESULT: -6.596125593      2.814      9.074
REMARK  6 active torsions:
REMARK  status: ('A' for Active; 'I' for Inactive)
REMARK    1  A    between atoms: O1_2  and  N1_3 
REMARK    2  A    between atoms: N1_3  and  C2_4 
REMARK    3  A    between atoms: C7_9  and  C8_10 
REMARK    4  A    between atoms: N2_11  and  N3_13 
REMARK       I    between atoms: N3_13  and  C9_15 
REMARK    5  A    between atoms: C9_15  and  C10_17 
REMARK       I    between atoms: C10_17  and  N4_19 
REMARK    6  A    between atoms: N4_19  and  C11_21 
ROOT
HETATM    1  N3  UNL     1      15.500  44.843 -37.891  1.00  0.00    -0.262 N 
ATOM      2  H3  UNL     1      15.627  45.428 -37.064  1.00  0.00     0.190 HD
HETATM    3  C9  UNL     1      14.206  44.449 -38.272  1.00  0.00     0.327 C 
HETATM    4  O2  UNL     1      14.047  43.716 -39.306  1.00  0.00    -0.261 OA
ENDROOT
BRANCH   1   5
HETATM    5  N2  UNL     1      16.607  44.445 -38.626  1.00  0.00    -0.312 N 
HETATM    6  C8  UNL     1      17.217  43.366 -38.315  1.00  0.00     0.086 C 
ATOM      7  H2  UNL     1      16.932  45.009 -39.410  1.00  0.00     0.185 HD
BRANCH   6   8
HETATM    8  C7  UNL     1      18.394  42.976 -39.125  1.00  0.00     0.047 C 
HETATM    9  C2  UNL     1      19.681  43.385 -38.417  1.00  0.00     0.115 C 
HETATM   10  C3  UNL     1      19.540  42.909 -37.005  1.00  0.00     0.024 C 
HETATM   11  C4  UNL     1      19.353  41.445 -36.883  1.00  0.00     0.002 C 
HETATM   12  C5  UNL     1      18.544  40.782 -37.920  1.00  0.00     0.001 C 
HETATM   13  C6  UNL     1      18.436  41.483 -39.234  1.00  0.00     0.011 C 
BRANCH   9  14
HETATM   14  N1  UNL     1      19.850  44.805 -38.478  1.00  0.00    -0.096 NA
BRANCH  14  15
HETATM   15  O1  UNL     1      19.594  45.306 -39.685  1.00  0.00    -0.291 OA
HETATM   16  C1  UNL     1      20.690  45.815 -40.345  1.00  0.00     0.231 C 
ENDBRANCH  14  15
ENDBRANCH   9  14
ENDBRANCH   6   8
ENDBRANCH   1   5
BRANCH   3  17
HETATM   17  C10 UNL     1      13.002  44.836 -37.539  1.00  0.00     0.311 C 
HETATM   18  O3  UNL     1      11.935  44.240 -37.825  1.00  0.00    -0.262 OA
HETATM   19  N4  UNL     1      13.017  45.837 -36.543  1.00  0.00    -0.347 N 
ATOM     20  H4  UNL     1      13.890  46.314 -36.318  1.00  0.00     0.163 HD
BRANCH  19  21
HETATM   21  C11 UNL     1      11.826  46.184 -35.854  1.00  0.00     0.099 C 
HETATM   22  C12 UNL     1      11.876  47.572 -35.225  1.00  0.00     0.041 C 
HETATM   23  C13 UNL     1      10.415  47.738 -34.783  1.00  0.00     0.142 C 
HETATM   24  S1  UNL     1      10.259  46.217 -33.833  1.00  0.00     0.146 S 
HETATM   25  O4  UNL     1       8.929  45.597 -34.004  1.00  0.00    -0.228 OA
HETATM   26  O5  UNL     1      10.627  46.491 -32.418  1.00  0.00    -0.228 OA
HETATM   27  C14 UNL     1      11.552  45.271 -34.654  1.00  0.00     0.165 C 
ENDBRANCH  19  21
ENDBRANCH   3  17
TORSDOF 6
ENDMDL
