MODEL 1
REMARK VINA RESULT: -5.799577106      0.000      0.000
REMARK  8 active torsions:
REMARK  status: ('A' for Active; 'I' for Inactive)
REMARK    1  A    between atoms: C2_2  and  O1_3 
REMARK    2  A    between atoms: O1_3  and  C3_4 
REMARK    3  A    between atoms: C3_4  and  C4_6 
REMARK    4  A    between atoms: N3_12  and  C6_14 
REMARK    5  A    between atoms: C6_14  and  C7_15 
REMARK    6  A    between atoms: C6_14  and  C10_26 
REMARK       I    between atoms: C7_15  and  N4_17 
REMARK    7  A    between atoms: N4_17  and  N5_19 
REMARK       I    between atoms: N5_19  and  C8_21 
REMARK       I    between atoms: C8_21  and  N6_23 
REMARK    8  A    between atoms: C10_26  and  C12_28 
ROOT
HETATM    1  C6  UNL     1      17.934  42.932 -38.737  1.00  0.00     0.181 C 
ENDROOT
BRANCH   1   2
HETATM    2  N3  UNL     1      17.495  41.686 -38.224  1.00  0.00    -0.356 N 
HETATM    3  C5  UNL     1      18.020  41.120 -37.184  1.00  0.00     0.162 A 
HETATM    4  N2  UNL     1      19.020  41.522 -36.395  1.00  0.00    -0.279 N 
HETATM    5  S1  UNL     1      17.603  39.611 -36.443  1.00  0.00    -0.028 SA
HETATM    6  N1  UNL     1      19.368  40.786 -35.418  1.00  0.00    -0.287 N 
ATOM      7  H2  UNL     1      19.497  42.406 -36.572  1.00  0.00     0.189 HD
HETATM    8  C4  UNL     1      18.757  39.644 -35.186  1.00  0.00     0.168 A 
ATOM      9  H1  UNL     1      20.128  41.084 -34.808  1.00  0.00     0.188 HD
ATOM     10  H3  UNL     1      16.727  41.211 -38.697  1.00  0.00     0.162 HD
BRANCH   8  11
HETATM   11  C3  UNL     1      19.012  38.658 -34.112  1.00  0.00     0.318 C 
HETATM   12  O2  UNL     1      18.249  38.556 -33.140  1.00  0.00    -0.257 OA
BRANCH  11  13
HETATM   13  O1  UNL     1      20.107  37.836 -34.177  1.00  0.00    -0.316 OA
BRANCH  13  14
HETATM   14  C2  UNL     1      21.435  38.260 -34.039  1.00  0.00     0.175 C 
HETATM   15  C1  UNL     1      21.714  38.870 -32.683  1.00  0.00     0.034 C 
ENDBRANCH  13  14
ENDBRANCH  11  13
ENDBRANCH   8  11
ENDBRANCH   1   2
BRANCH   1  16
HETATM   16  C7  UNL     1      18.735  42.657 -39.961  1.00  0.00     0.259 C 
HETATM   17  O3  UNL     1      19.089  41.494 -40.286  1.00  0.00    -0.269 OA
HETATM   18  N4  UNL     1      19.097  43.767 -40.774  1.00  0.00    -0.264 N 
ATOM     19  H4  UNL     1      18.810  44.710 -40.513  1.00  0.00     0.190 HD
BRANCH  18  20
HETATM   20  N5  UNL     1      19.851  43.556 -41.936  1.00  0.00    -0.249 N 
HETATM   21  C8  UNL     1      20.351  44.623 -42.713  1.00  0.00     0.334 C 
HETATM   22  O4  UNL     1      20.125  45.832 -42.370  1.00  0.00    -0.246 OA
HETATM   23  N6  UNL     1      21.106  44.410 -43.879  1.00  0.00    -0.346 N 
HETATM   24  C9  UNL     1      21.620  45.501 -44.677  1.00  0.00     0.151 C 
ATOM     25  H6  UNL     1      21.298  43.452 -44.172  1.00  0.00     0.163 HD
ATOM     26  H5  UNL     1      20.045  42.599 -42.231  1.00  0.00     0.192 HD
ENDBRANCH  18  20
ENDBRANCH   1  16
BRANCH   1  27
HETATM   27  C10 UNL     1      16.832  43.917 -38.992  1.00  0.00     0.013 C 
HETATM   28  C11 UNL     1      15.592  43.288 -39.542  1.00  0.00     0.012 C 
BRANCH  27  29
HETATM   29  C12 UNL     1      16.482  44.769 -37.816  1.00  0.00     0.002 C 
HETATM   30  C13 UNL     1      14.959  44.712 -37.639  1.00  0.00     0.005 C 
ENDBRANCH  27  29
ENDBRANCH   1  27
TORSDOF 8
ENDMDL
MODEL 2
REMARK VINA RESULT: -5.796751223      1.362      2.035
REMARK  8 active torsions:
REMARK  status: ('A' for Active; 'I' for Inactive)
REMARK    1  A    between atoms: C2_2  and  O1_3 
REMARK    2  A    between atoms: O1_3  and  C3_4 
REMARK    3  A    between atoms: C3_4  and  C4_6 
REMARK    4  A    between atoms: N3_12  and  C6_14 
REMARK    5  A    between atoms: C6_14  and  C7_15 
REMARK    6  A    between atoms: C6_14  and  C10_26 
REMARK       I    between atoms: C7_15  and  N4_17 
REMARK    7  A    between atoms: N4_17  and  N5_19 
REMARK       I    between atoms: N5_19  and  C8_21 
REMARK       I    between atoms: C8_21  and  N6_23 
REMARK    8  A    between atoms: C10_26  and  C12_28 
ROOT
HETATM    1  C6  UNL     1      18.742  43.302 -39.448  1.00  0.00     0.181 C 
ENDROOT
BRANCH   1   2
HETATM    2  N3  UNL     1      18.581  41.932 -39.126  1.00  0.00    -0.356 N 
HETATM    3  C5  UNL     1      18.826  41.442 -37.953  1.00  0.00     0.162 A 
HETATM    4  N2  UNL     1      19.256  42.043 -36.840  1.00  0.00    -0.279 N 
HETATM    5  S1  UNL     1      18.684  39.805 -37.408  1.00  0.00    -0.028 SA
HETATM    6  N1  UNL     1      19.429  41.345 -35.791  1.00  0.00    -0.287 N 
ATOM      7  H2  UNL     1      19.443  43.046 -36.831  1.00  0.00     0.189 HD
HETATM    8  C4  UNL     1      19.192  40.051 -35.797  1.00  0.00     0.168 A 
ATOM      9  H1  UNL     1      19.756  41.794 -34.935  1.00  0.00     0.188 HD
ATOM     10  H3  UNL     1      18.255  41.298 -39.856  1.00  0.00     0.162 HD
BRANCH   8  11
HETATM   11  C3  UNL     1      19.330  39.078 -34.691  1.00  0.00     0.318 C 
HETATM   12  O2  UNL     1      20.437  38.614 -34.379  1.00  0.00    -0.257 OA
BRANCH  11  13
HETATM   13  O1  UNL     1      18.226  38.672 -33.989  1.00  0.00    -0.316 OA
BRANCH  13  14
HETATM   14  C2  UNL     1      16.979  39.310 -34.019  1.00  0.00     0.175 C 
HETATM   15  C1  UNL     1      15.960  38.559 -34.847  1.00  0.00     0.034 C 
ENDBRANCH  13  14
ENDBRANCH  11  13
ENDBRANCH   8  11
ENDBRANCH   1   2
BRANCH   1  16
HETATM   16  C7  UNL     1      19.407  43.376 -40.778  1.00  0.00     0.259 C 
HETATM   17  O3  UNL     1      19.816  42.352 -41.384  1.00  0.00    -0.269 OA
HETATM   18  N4  UNL     1      19.570  44.663 -41.362  1.00  0.00    -0.264 N 
ATOM     19  H4  UNL     1      19.238  45.494 -40.873  1.00  0.00     0.190 HD
BRANCH  18  20
HETATM   20  N5  UNL     1      20.190  44.782 -42.613  1.00  0.00    -0.249 N 
HETATM   21  C8  UNL     1      20.687  46.012 -43.093  1.00  0.00     0.334 C 
HETATM   22  O4  UNL     1      20.582  47.070 -42.386  1.00  0.00    -0.246 OA
HETATM   23  N6  UNL     1      21.308  46.129 -44.348  1.00  0.00    -0.346 N 
HETATM   24  C9  UNL     1      21.818  47.389 -44.843  1.00  0.00     0.151 C 
ATOM     25  H6  UNL     1      21.402  45.296 -44.930  1.00  0.00     0.163 HD
ATOM     26  H5  UNL     1      20.286  43.950 -43.196  1.00  0.00     0.192 HD
ENDBRANCH  18  20
ENDBRANCH   1  16
BRANCH   1  27
HETATM   27  C10 UNL     1      17.472  44.100 -39.406  1.00  0.00     0.013 C 
HETATM   28  C11 UNL     1      16.254  43.290 -39.718  1.00  0.00     0.012 C 
BRANCH  27  29
HETATM   29  C12 UNL     1      17.260  44.854 -38.134  1.00  0.00     0.002 C 
HETATM   30  C13 UNL     1      15.759  44.815 -37.817  1.00  0.00     0.005 C 
ENDBRANCH  27  29
ENDBRANCH   1  27
TORSDOF 8
ENDMDL
MODEL 3
REMARK VINA RESULT: -5.735626978      4.223      4.834
REMARK  8 active torsions:
REMARK  status: ('A' for Active; 'I' for Inactive)
REMARK    1  A    between atoms: C2_2  and  O1_3 
REMARK    2  A    between atoms: O1_3  and  C3_4 
REMARK    3  A    between atoms: C3_4  and  C4_6 
REMARK    4  A    between atoms: N3_12  and  C6_14 
REMARK    5  A    between atoms: C6_14  and  C7_15 
REMARK    6  A    between atoms: C6_14  and  C10_26 
REMARK       I    between atoms: C7_15  and  N4_17 
REMARK    7  A    between atoms: N4_17  and  N5_19 
REMARK       I    between atoms: N5_19  and  C8_21 
REMARK       I    between atoms: C8_21  and  N6_23 
REMARK    8  A    between atoms: C10_26  and  C12_28 
ROOT
HETATM    1  C6  UNL     1      17.773  44.088 -38.565  1.00  0.00     0.181 C 
ENDROOT
BRANCH   1   2
HETATM    2  N3  UNL     1      18.593  43.787 -37.448  1.00  0.00    -0.356 N 
HETATM    3  C5  UNL     1      19.447  44.621 -36.947  1.00  0.00     0.162 A 
HETATM    4  N2  UNL     1      19.753  45.868 -37.315  1.00  0.00    -0.279 N 
HETATM    5  S1  UNL     1      20.514  44.405 -35.600  1.00  0.00    -0.028 SA
HETATM    6  N1  UNL     1      20.641  46.502 -36.662  1.00  0.00    -0.287 N 
ATOM      7  H2  UNL     1      19.283  46.305 -38.107  1.00  0.00     0.189 HD
HETATM    8  C4  UNL     1      21.253  45.942 -35.640  1.00  0.00     0.168 A 
ATOM      9  H1  UNL     1      20.882  47.455 -36.933  1.00  0.00     0.188 HD
ATOM     10  H3  UNL     1      18.505  42.867 -37.018  1.00  0.00     0.162 HD
BRANCH   8  11
HETATM   11  C3  UNL     1      22.302  46.510 -34.763  1.00  0.00     0.318 C 
HETATM   12  O2  UNL     1      23.025  47.441 -35.148  1.00  0.00    -0.257 OA
BRANCH  11  13
HETATM   13  O1  UNL     1      22.490  46.010 -33.502  1.00  0.00    -0.316 OA
BRANCH  13  14
HETATM   14  C2  UNL     1      22.774  46.782 -32.369  1.00  0.00     0.175 C 
HETATM   15  C1  UNL     1      22.390  46.090 -31.080  1.00  0.00     0.034 C 
ENDBRANCH  13  14
ENDBRANCH  11  13
ENDBRANCH   8  11
ENDBRANCH   1   2
BRANCH   1  16
HETATM   16  C7  UNL     1      18.429  43.513 -39.771  1.00  0.00     0.259 C 
HETATM   17  O3  UNL     1      18.356  42.290 -40.059  1.00  0.00    -0.269 OA
HETATM   18  N4  UNL     1      19.156  44.402 -40.612  1.00  0.00    -0.264 N 
ATOM     19  H4  UNL     1      19.216  45.393 -40.380  1.00  0.00     0.190 HD
BRANCH  18  20
HETATM   20  N5  UNL     1      19.790  43.906 -41.758  1.00  0.00    -0.249 N 
HETATM   21  C8  UNL     1      20.317  44.756 -42.754  1.00  0.00     0.334 C 
HETATM   22  O4  UNL     1      20.228  46.024 -42.633  1.00  0.00    -0.246 OA
HETATM   23  N6  UNL     1      20.952  44.258 -43.904  1.00  0.00    -0.346 N 
HETATM   24  C9  UNL     1      21.493  45.126 -44.926  1.00  0.00     0.151 C 
ATOM     25  H6  UNL     1      21.034  43.248 -44.021  1.00  0.00     0.163 HD
ATOM     26  H5  UNL     1      19.874  42.897 -41.878  1.00  0.00     0.192 HD
ENDBRANCH  18  20
ENDBRANCH   1  16
BRANCH   1  27
HETATM   27  C10 UNL     1      16.350  43.636 -38.426  1.00  0.00     0.013 C 
HETATM   28  C11 UNL     1      15.532  44.520 -37.540  1.00  0.00     0.012 C 
BRANCH  27  29
HETATM   29  C12 UNL     1      15.639  43.431 -39.724  1.00  0.00     0.002 C 
HETATM   30  C13 UNL     1      14.140  43.640 -39.469  1.00  0.00     0.005 C 
ENDBRANCH  27  29
ENDBRANCH   1  27
TORSDOF 8
ENDMDL
MODEL 4
REMARK VINA RESULT: -5.717658975      3.372      7.364
REMARK  8 active torsions:
REMARK  status: ('A' for Active; 'I' for Inactive)
REMARK    1  A    between atoms: C2_2  and  O1_3 
REMARK    2  A    between atoms: O1_3  and  C3_4 
REMARK    3  A    between atoms: C3_4  and  C4_6 
REMARK    4  A    between atoms: N3_12  and  C6_14 
REMARK    5  A    between atoms: C6_14  and  C7_15 
REMARK    6  A    between atoms: C6_14  and  C10_26 
REMARK       I    between atoms: C7_15  and  N4_17 
REMARK    7  A    between atoms: N4_17  and  N5_19 
REMARK       I    between atoms: N5_19  and  C8_21 
REMARK       I    between atoms: C8_21  and  N6_23 
REMARK    8  A    between atoms: C10_26  and  C12_28 
ROOT
HETATM    1  C6  UNL     1      19.182  43.920 -39.305  1.00  0.00     0.181 C 
ENDROOT
BRANCH   1   2
HETATM    2  N3  UNL     1      17.883  43.462 -39.640  1.00  0.00    -0.356 N 
HETATM    3  C5  UNL     1      16.803  43.923 -39.095  1.00  0.00     0.162 A 
HETATM    4  N2  UNL     1      16.641  44.863 -38.160  1.00  0.00    -0.279 N 
HETATM    5  S1  UNL     1      15.158  43.469 -39.391  1.00  0.00    -0.028 SA
HETATM    6  N1  UNL     1      15.465  45.151 -37.773  1.00  0.00    -0.287 N 
ATOM      7  H2  UNL     1      17.449  45.342 -37.762  1.00  0.00     0.189 HD
HETATM    8  C4  UNL     1      14.420  44.534 -38.281  1.00  0.00     0.168 A 
ATOM      9  H1  UNL     1      15.330  45.868 -37.061  1.00  0.00     0.188 HD
ATOM     10  H3  UNL     1      17.794  42.732 -40.347  1.00  0.00     0.162 HD
BRANCH   8  11
HETATM   11  C3  UNL     1      12.986  44.727 -37.966  1.00  0.00     0.318 C 
HETATM   12  O2  UNL     1      12.241  45.358 -38.730  1.00  0.00    -0.257 OA
BRANCH  11  13
HETATM   13  O1  UNL     1      12.458  44.205 -36.815  1.00  0.00    -0.316 OA
BRANCH  13  14
HETATM   14  C2  UNL     1      12.136  44.949 -35.673  1.00  0.00     0.175 C 
HETATM   15  C1  UNL     1      11.347  44.150 -34.659  1.00  0.00     0.034 C 
ENDBRANCH  13  14
ENDBRANCH  11  13
ENDBRANCH   8  11
ENDBRANCH   1   2
BRANCH   1  16
HETATM   16  C7  UNL     1      19.796  42.907 -38.403  1.00  0.00     0.259 C 
HETATM   17  O3  UNL     1      20.599  42.033 -38.821  1.00  0.00    -0.269 OA
HETATM   18  N4  UNL     1      19.446  42.953 -37.025  1.00  0.00    -0.264 N 
ATOM     19  H4  UNL     1      18.796  43.662 -36.684  1.00  0.00     0.190 HD
BRANCH  18  20
HETATM   20  N5  UNL     1      20.000  42.021 -36.138  1.00  0.00    -0.249 N 
HETATM   21  C8  UNL     1      19.346  40.814 -35.810  1.00  0.00     0.334 C 
HETATM   22  O4  UNL     1      18.211  40.535 -36.324  1.00  0.00    -0.246 OA
HETATM   23  N6  UNL     1      19.903  39.880 -34.921  1.00  0.00    -0.346 N 
HETATM   24  C9  UNL     1      19.235  38.642 -34.582  1.00  0.00     0.151 C 
ATOM     25  H6  UNL     1      20.810  40.082 -34.499  1.00  0.00     0.163 HD
ATOM     26  H5  UNL     1      20.907  42.220 -35.716  1.00  0.00     0.192 HD
ENDBRANCH  18  20
ENDBRANCH   1  16
BRANCH   1  27
HETATM   27  C10 UNL     1      20.052  44.227 -40.486  1.00  0.00     0.013 C 
HETATM   28  C11 UNL     1      19.497  43.719 -41.779  1.00  0.00     0.012 C 
BRANCH  27  29
HETATM   29  C12 UNL     1      20.412  45.669 -40.629  1.00  0.00     0.002 C 
HETATM   30  C13 UNL     1      20.573  45.961 -42.126  1.00  0.00     0.005 C 
ENDBRANCH  27  29
ENDBRANCH   1  27
TORSDOF 8
ENDMDL
MODEL 5
REMARK VINA RESULT: -5.690715840      1.937      2.702
REMARK  8 active torsions:
REMARK  status: ('A' for Active; 'I' for Inactive)
REMARK    1  A    between atoms: C2_2  and  O1_3 
REMARK    2  A    between atoms: O1_3  and  C3_4 
REMARK    3  A    between atoms: C3_4  and  C4_6 
REMARK    4  A    between atoms: N3_12  and  C6_14 
REMARK    5  A    between atoms: C6_14  and  C7_15 
REMARK    6  A    between atoms: C6_14  and  C10_26 
REMARK       I    between atoms: C7_15  and  N4_17 
REMARK    7  A    between atoms: N4_17  and  N5_19 
REMARK       I    between atoms: N5_19  and  C8_21 
REMARK       I    between atoms: C8_21  and  N6_23 
REMARK    8  A    between atoms: C10_26  and  C12_28 
ROOT
HETATM    1  C6  UNL     1      19.236  43.758 -38.969  1.00  0.00     0.181 C 
ENDROOT
BRANCH   1   2
HETATM    2  N3  UNL     1      18.527  42.562 -38.692  1.00  0.00    -0.356 N 
HETATM    3  C5  UNL     1      18.709  41.858 -37.621  1.00  0.00     0.162 A 
HETATM    4  N2  UNL     1      19.535  42.055 -36.589  1.00  0.00    -0.279 N 
HETATM    5  S1  UNL     1      17.932  40.386 -37.143  1.00  0.00    -0.028 SA
HETATM    6  N1  UNL     1      19.539  41.215 -35.635  1.00  0.00    -0.287 N 
ATOM      7  H2  UNL     1      20.152  42.867 -36.567  1.00  0.00     0.189 HD
HETATM    8  C4  UNL     1      18.746  40.165 -35.660  1.00  0.00     0.168 A 
ATOM      9  H1  UNL     1      20.164  41.355 -34.842  1.00  0.00     0.188 HD
ATOM     10  H3  UNL     1      17.839  42.238 -39.372  1.00  0.00     0.162 HD
BRANCH   8  11
HETATM   11  C3  UNL     1      18.605  39.086 -34.656  1.00  0.00     0.318 C 
HETATM   12  O2  UNL     1      19.534  38.298 -34.426  1.00  0.00    -0.257 OA
BRANCH  11  13
HETATM   13  O1  UNL     1      17.433  38.941 -33.961  1.00  0.00    -0.316 OA
BRANCH  13  14
HETATM   14  C2  UNL     1      16.154  39.127 -34.501  1.00  0.00     0.175 C 
HETATM   15  C1  UNL     1      15.175  38.062 -34.061  1.00  0.00     0.034 C 
ENDBRANCH  13  14
ENDBRANCH  11  13
ENDBRANCH   8  11
ENDBRANCH   1   2
BRANCH   1  16
HETATM   16  C7  UNL     1      19.428  43.835 -40.443  1.00  0.00     0.259 C 
HETATM   17  O3  UNL     1      19.187  42.862 -41.205  1.00  0.00    -0.269 OA
HETATM   18  N4  UNL     1      19.901  45.063 -40.983  1.00  0.00    -0.264 N 
ATOM     19  H4  UNL     1      20.096  45.853 -40.367  1.00  0.00     0.190 HD
BRANCH  18  20
HETATM   20  N5  UNL     1      20.097  45.183 -42.365  1.00  0.00    -0.249 N 
HETATM   21  C8  UNL     1      20.412  46.415 -42.976  1.00  0.00     0.334 C 
HETATM   22  O4  UNL     1      20.530  47.473 -42.272  1.00  0.00    -0.246 OA
HETATM   23  N6  UNL     1      20.607  46.532 -44.363  1.00  0.00    -0.346 N 
HETATM   24  C9  UNL     1      20.931  47.794 -44.993  1.00  0.00     0.151 C 
ATOM     25  H6  UNL     1      20.518  45.699 -44.945  1.00  0.00     0.163 HD
ATOM     26  H5  UNL     1      20.009  44.351 -42.948  1.00  0.00     0.192 HD
ENDBRANCH  18  20
ENDBRANCH   1  16
BRANCH   1  27
HETATM   27  C10 UNL     1      18.596  44.996 -38.418  1.00  0.00     0.013 C 
HETATM   28  C11 UNL     1      17.114  44.874 -38.254  1.00  0.00     0.012 C 
BRANCH  27  29
HETATM   29  C12 UNL     1      19.201  45.488 -37.143  1.00  0.00     0.002 C 
HETATM   30  C13 UNL     1      20.725  45.386 -37.284  1.00  0.00     0.005 C 
ENDBRANCH  27  29
ENDBRANCH   1  27
TORSDOF 8
ENDMDL
