MODEL 1
REMARK VINA RESULT: -7.790762024      0.000      0.000
REMARK  11 active torsions:
REMARK  status: ('A' for Active; 'I' for Inactive)
REMARK    1  A    between atoms: N1_1  and  C1_5 
REMARK    2  A    between atoms: C1_5  and  N2_6 
REMARK    3  A    between atoms: C1_5  and  C2_10 
REMARK    4  A    between atoms: C2_10  and  C3_11 
REMARK    5  A    between atoms: C3_11  and  C4_12 
REMARK    6  A    between atoms: C3_11  and  N3_18 
REMARK    7  A    between atoms: C4_12  and  C5_13 
REMARK       I    between atoms: N3_18  and  C10_20 
REMARK    8  A    between atoms: C10_20  and  C11_22 
REMARK    9  A    between atoms: C11_22  and  N4_23 
REMARK   10  A    between atoms: C11_22  and  C12_27 
REMARK   11  A    between atoms: C12_27  and  C13_28 
ROOT
HETATM    1  C3  UNL     1      -7.510  18.941 -23.388  1.00  0.00     0.088 C 
ENDROOT
BRANCH   1   2
HETATM    2  C2  UNL     1      -6.387  17.963 -23.374  1.00  0.00     0.087 C 
BRANCH   2   3
HETATM    3  C1  UNL     1      -6.591  16.598 -23.885  1.00  0.00     0.380 C 
BRANCH   3   4
HETATM    4  N1  UNL     1      -5.881  16.407 -25.178  1.00  0.00    -0.050 N 
ATOM      5  H13 UNL     1      -4.928  16.768 -25.212  1.00  0.00     0.276 HD
ATOM      6  H12 UNL     1      -5.620  15.446 -25.396  1.00  0.00     0.276 HD
ATOM      7  H11 UNL     1      -6.537  16.841 -25.828  1.00  0.00     0.276 HD
ENDBRANCH   3   4
BRANCH   3   8
HETATM    8  N2  UNL     1      -8.004  16.464 -24.313  1.00  0.00    -0.050 N 
ATOM      9  H23 UNL     1      -8.394  15.525 -24.246  1.00  0.00     0.276 HD
ATOM     10  H22 UNL     1      -8.691  16.890 -23.692  1.00  0.00     0.276 HD
ATOM     11  H21 UNL     1      -7.962  16.855 -25.254  1.00  0.00     0.276 HD
ENDBRANCH   3   8
ENDBRANCH   2   3
ENDBRANCH   1   2
BRANCH   1  12
HETATM   12  C4  UNL     1      -7.809  19.523 -22.082  1.00  0.00     0.029 C 
BRANCH  12  13
HETATM   13  C5  UNL     1      -8.619  20.779 -22.053  1.00  0.00    -0.013 C 
HETATM   14  C6  UNL     1      -9.883  20.768 -21.328  1.00  0.00     0.005 C 
HETATM   15  C7  UNL     1      -9.814  21.810 -20.221  1.00  0.00     0.000 C 
HETATM   16  C8  UNL     1      -8.324  21.841 -19.958  1.00  0.00     0.000 C 
HETATM   17  C9  UNL     1      -7.808  21.884 -21.400  1.00  0.00     0.005 C 
ENDBRANCH  12  13
ENDBRANCH   1  12
BRANCH   1  18
HETATM   18  N3  UNL     1      -7.175  19.937 -24.414  1.00  0.00    -0.355 N 
HETATM   19  C10 UNL     1      -7.327  19.695 -25.795  1.00  0.00     0.248 C 
HETATM   20  O1  UNL     1      -7.769  18.579 -26.170  1.00  0.00    -0.271 OA
ATOM     21  H3  UNL     1      -6.816  20.843 -24.115  1.00  0.00     0.162 HD
BRANCH  19  22
HETATM   22  C11 UNL     1      -7.001  20.671 -26.850  1.00  0.00     0.275 C 
BRANCH  22  23
HETATM   23  N4  UNL     1      -7.725  20.462 -28.073  1.00  0.00    -0.066 N 
ATOM     24  H43 UNL     1      -7.608  19.504 -28.403  1.00  0.00     0.275 HD
ATOM     25  H42 UNL     1      -8.731  20.461 -27.901  1.00  0.00     0.275 HD
ATOM     26  H41 UNL     1      -7.487  21.127 -28.809  1.00  0.00     0.275 HD
ENDBRANCH  22  23
BRANCH  22  27
HETATM   27  C12 UNL     1      -5.515  20.633 -27.129  1.00  0.00     0.047 C 
BRANCH  27  28
HETATM   28  C13 UNL     1      -4.778  21.741 -26.441  1.00  0.00    -0.012 A 
HETATM   29  C14 UNL     1      -4.020  22.656 -27.374  1.00  0.00     0.005 A 
HETATM   30  C15 UNL     1      -3.289  21.751 -26.460  1.00  0.00     0.005 A 
ENDBRANCH  27  28
ENDBRANCH  22  27
ENDBRANCH  19  22
ENDBRANCH   1  18
TORSDOF 11
ENDMDL
MODEL 2
REMARK VINA RESULT: -7.619073357      1.156      1.651
REMARK  11 active torsions:
REMARK  status: ('A' for Active; 'I' for Inactive)
REMARK    1  A    between atoms: N1_1  and  C1_5 
REMARK    2  A    between atoms: C1_5  and  N2_6 
REMARK    3  A    between atoms: C1_5  and  C2_10 
REMARK    4  A    between atoms: C2_10  and  C3_11 
REMARK    5  A    between atoms: C3_11  and  C4_12 
REMARK    6  A    between atoms: C3_11  and  N3_18 
REMARK    7  A    between atoms: C4_12  and  C5_13 
REMARK       I    between atoms: N3_18  and  C10_20 
REMARK    8  A    between atoms: C10_20  and  C11_22 
REMARK    9  A    between atoms: C11_22  and  N4_23 
REMARK   10  A    between atoms: C11_22  and  C12_27 
REMARK   11  A    between atoms: C12_27  and  C13_28 
ROOT
HETATM    1  C3  UNL     1      -7.750  19.777 -23.495  1.00  0.00     0.088 C 
ENDROOT
BRANCH   1   2
HETATM    2  C2  UNL     1      -6.473  19.330 -22.873  1.00  0.00     0.087 C 
BRANCH   2   3
HETATM    3  C1  UNL     1      -6.153  17.896 -22.792  1.00  0.00     0.380 C 
BRANCH   3   4
HETATM    4  N1  UNL     1      -5.372  17.461 -23.979  1.00  0.00    -0.050 N 
ATOM      5  H13 UNL     1      -4.624  18.092 -24.267  1.00  0.00     0.276 HD
ATOM      6  H12 UNL     1      -4.759  16.659 -23.830  1.00  0.00     0.276 HD
ATOM      7  H11 UNL     1      -6.115  17.323 -24.663  1.00  0.00     0.276 HD
ENDBRANCH   3   4
BRANCH   3   8
HETATM    8  N2  UNL     1      -7.406  17.126 -22.977  1.00  0.00    -0.050 N 
ATOM      9  H23 UNL     1      -8.202  17.445 -22.424  1.00  0.00     0.276 HD
ATOM     10  H22 UNL     1      -7.868  17.252 -23.877  1.00  0.00     0.276 HD
ATOM     11  H21 UNL     1      -7.086  16.178 -22.777  1.00  0.00     0.276 HD
ENDBRANCH   3   8
ENDBRANCH   2   3
ENDBRANCH   1   2
BRANCH   1  12
HETATM   12  C4  UNL     1      -8.471  20.781 -22.718  1.00  0.00     0.029 C 
BRANCH  12  13
HETATM   13  C5  UNL     1      -8.529  20.599 -21.235  1.00  0.00    -0.013 C 
HETATM   14  C6  UNL     1      -8.028  21.674 -20.389  1.00  0.00     0.005 C 
HETATM   15  C7  UNL     1      -9.166  22.165 -19.506  1.00  0.00     0.000 C 
HETATM   16  C8  UNL     1     -10.359  21.832 -20.377  1.00  0.00     0.000 C 
HETATM   17  C9  UNL     1      -9.975  20.413 -20.809  1.00  0.00     0.005 C 
ENDBRANCH  12  13
ENDBRANCH   1  12
BRANCH   1  18
HETATM   18  N3  UNL     1      -7.411  20.216 -24.855  1.00  0.00    -0.355 N 
HETATM   19  C10 UNL     1      -7.460  19.356 -25.972  1.00  0.00     0.248 C 
HETATM   20  O1  UNL     1      -7.807  18.159 -25.802  1.00  0.00    -0.271 OA
ATOM     21  H3  UNL     1      -7.130  21.185 -24.999  1.00  0.00     0.162 HD
BRANCH  19  22
HETATM   22  C11 UNL     1      -7.128  19.763 -27.349  1.00  0.00     0.275 C 
BRANCH  22  23
HETATM   23  N4  UNL     1      -5.974  19.097 -27.885  1.00  0.00    -0.066 N 
ATOM     24  H43 UNL     1      -6.209  18.605 -28.747  1.00  0.00     0.275 HD
ATOM     25  H42 UNL     1      -5.306  19.774 -28.253  1.00  0.00     0.275 HD
ATOM     26  H41 UNL     1      -5.520  18.466 -27.224  1.00  0.00     0.275 HD
ENDBRANCH  22  23
BRANCH  22  27
HETATM   27  C12 UNL     1      -6.914  21.260 -27.393  1.00  0.00     0.047 C 
BRANCH  27  28
HETATM   28  C13 UNL     1      -5.637  21.632 -28.083  1.00  0.00    -0.012 A 
HETATM   29  C14 UNL     1      -4.628  22.319 -27.193  1.00  0.00     0.005 A 
HETATM   30  C15 UNL     1      -5.301  23.070 -28.275  1.00  0.00     0.005 A 
ENDBRANCH  27  28
ENDBRANCH  22  27
ENDBRANCH  19  22
ENDBRANCH   1  18
TORSDOF 11
ENDMDL
MODEL 3
REMARK VINA RESULT: -7.330338773      1.719      6.134
REMARK  11 active torsions:
REMARK  status: ('A' for Active; 'I' for Inactive)
REMARK    1  A    between atoms: N1_1  and  C1_5 
REMARK    2  A    between atoms: C1_5  and  N2_6 
REMARK    3  A    between atoms: C1_5  and  C2_10 
REMARK    4  A    between atoms: C2_10  and  C3_11 
REMARK    5  A    between atoms: C3_11  and  C4_12 
REMARK    6  A    between atoms: C3_11  and  N3_18 
REMARK    7  A    between atoms: C4_12  and  C5_13 
REMARK       I    between atoms: N3_18  and  C10_20 
REMARK    8  A    between atoms: C10_20  and  C11_22 
REMARK    9  A    between atoms: C11_22  and  N4_23 
REMARK   10  A    between atoms: C11_22  and  C12_27 
REMARK   11  A    between atoms: C12_27  and  C13_28 
ROOT
HETATM    1  C3  UNL     1      -7.217  19.512 -24.919  1.00  0.00     0.088 C 
ENDROOT
BRANCH   1   2
HETATM    2  C2  UNL     1      -7.822  18.162 -24.756  1.00  0.00     0.087 C 
BRANCH   2   3
HETATM    3  C1  UNL     1      -6.974  16.960 -24.818  1.00  0.00     0.380 C 
BRANCH   3   4
HETATM    4  N1  UNL     1      -7.626  15.817 -24.125  1.00  0.00    -0.050 N 
ATOM      5  H13 UNL     1      -7.062  14.971 -24.051  1.00  0.00     0.276 HD
ATOM      6  H12 UNL     1      -7.751  15.928 -23.119  1.00  0.00     0.276 HD
ATOM      7  H11 UNL     1      -8.486  15.724 -24.666  1.00  0.00     0.276 HD
ENDBRANCH   3   4
BRANCH   3   8
HETATM    8  N2  UNL     1      -5.789  17.179 -23.955  1.00  0.00    -0.050 N 
ATOM      9  H23 UNL     1      -4.931  17.429 -24.445  1.00  0.00     0.276 HD
ATOM     10  H22 UNL     1      -5.814  18.022 -23.382  1.00  0.00     0.276 HD
ATOM     11  H21 UNL     1      -5.757  16.300 -23.438  1.00  0.00     0.276 HD
ENDBRANCH   3   8
ENDBRANCH   2   3
ENDBRANCH   1   2
BRANCH   1  12
HETATM   12  C4  UNL     1      -7.304  20.043 -26.277  1.00  0.00     0.029 C 
BRANCH  12  13
HETATM   13  C5  UNL     1      -6.032  20.182 -27.049  1.00  0.00    -0.013 C 
HETATM   14  C6  UNL     1      -5.819  21.405 -27.813  1.00  0.00     0.005 C 
HETATM   15  C7  UNL     1      -4.566  22.092 -27.287  1.00  0.00     0.000 C 
HETATM   16  C8  UNL     1      -4.557  21.599 -25.856  1.00  0.00     0.000 C 
HETATM   17  C9  UNL     1      -4.855  20.114 -26.091  1.00  0.00     0.005 C 
ENDBRANCH  12  13
ENDBRANCH   1  12
BRANCH   1  18
HETATM   18  N3  UNL     1      -7.850  20.370 -23.909  1.00  0.00    -0.355 N 
HETATM   19  C10 UNL     1      -7.533  20.301 -22.537  1.00  0.00     0.248 C 
HETATM   20  O1  UNL     1      -6.671  19.469 -22.155  1.00  0.00    -0.271 OA
ATOM     21  H3  UNL     1      -8.549  21.047 -24.214  1.00  0.00     0.162 HD
BRANCH  19  22
HETATM   22  C11 UNL     1      -8.148  21.147 -21.499  1.00  0.00     0.275 C 
BRANCH  22  23
HETATM   23  N4  UNL     1      -7.435  21.138 -20.251  1.00  0.00    -0.066 N 
ATOM     24  H43 UNL     1      -6.528  20.684 -20.356  1.00  0.00     0.275 HD
ATOM     25  H42 UNL     1      -7.128  22.079 -20.005  1.00  0.00     0.275 HD
ATOM     26  H41 UNL     1      -7.959  20.719 -19.483  1.00  0.00     0.275 HD
ENDBRANCH  22  23
BRANCH  22  27
HETATM   27  C12 UNL     1      -9.575  20.704 -21.269  1.00  0.00     0.047 C 
BRANCH  27  28
HETATM   28  C13 UNL     1     -10.383  21.737 -20.544  1.00  0.00    -0.012 A 
HETATM   29  C14 UNL     1     -11.091  21.221 -19.313  1.00  0.00     0.005 A 
HETATM   30  C15 UNL     1     -11.867  21.615 -20.510  1.00  0.00     0.005 A 
ENDBRANCH  27  28
ENDBRANCH  22  27
ENDBRANCH  19  22
ENDBRANCH   1  18
TORSDOF 11
ENDMDL
MODEL 4
REMARK VINA RESULT: -7.294525006      1.422      1.674
REMARK  11 active torsions:
REMARK  status: ('A' for Active; 'I' for Inactive)
REMARK    1  A    between atoms: N1_1  and  C1_5 
REMARK    2  A    between atoms: C1_5  and  N2_6 
REMARK    3  A    between atoms: C1_5  and  C2_10 
REMARK    4  A    between atoms: C2_10  and  C3_11 
REMARK    5  A    between atoms: C3_11  and  C4_12 
REMARK    6  A    between atoms: C3_11  and  N3_18 
REMARK    7  A    between atoms: C4_12  and  C5_13 
REMARK       I    between atoms: N3_18  and  C10_20 
REMARK    8  A    between atoms: C10_20  and  C11_22 
REMARK    9  A    between atoms: C11_22  and  N4_23 
REMARK   10  A    between atoms: C11_22  and  C12_27 
REMARK   11  A    between atoms: C12_27  and  C13_28 
ROOT
HETATM    1  C3  UNL     1      -7.258  19.015 -23.473  1.00  0.00     0.088 C 
ENDROOT
BRANCH   1   2
HETATM    2  C2  UNL     1      -7.078  17.539 -23.407  1.00  0.00     0.087 C 
BRANCH   2   3
HETATM    3  C1  UNL     1      -6.915  16.759 -24.644  1.00  0.00     0.380 C 
BRANCH   3   4
HETATM    4  N1  UNL     1      -8.071  16.967 -25.556  1.00  0.00    -0.050 N 
ATOM      5  H13 UNL     1      -8.918  16.453 -25.313  1.00  0.00     0.276 HD
ATOM      6  H12 UNL     1      -8.508  17.887 -25.507  1.00  0.00     0.276 HD
ATOM      7  H11 UNL     1      -7.657  16.726 -26.456  1.00  0.00     0.276 HD
ENDBRANCH   3   4
BRANCH   3   8
HETATM    8  N2  UNL     1      -7.066  15.322 -24.315  1.00  0.00    -0.050 N 
ATOM      9  H23 UNL     1      -7.122  15.104 -23.320  1.00  0.00     0.276 HD
ATOM     10  H22 UNL     1      -7.971  14.912 -24.546  1.00  0.00     0.276 HD
ATOM     11  H21 UNL     1      -6.267  14.922 -24.806  1.00  0.00     0.276 HD
ENDBRANCH   3   8
ENDBRANCH   2   3
ENDBRANCH   1   2
BRANCH   1  12
HETATM   12  C4  UNL     1      -7.406  19.656 -22.169  1.00  0.00     0.029 C 
BRANCH  12  13
HETATM   13  C5  UNL     1      -8.266  20.876 -22.091  1.00  0.00    -0.013 C 
HETATM   14  C6  UNL     1      -9.598  20.746 -21.515  1.00  0.00     0.005 C 
HETATM   15  C7  UNL     1      -9.689  21.657 -20.298  1.00  0.00     0.000 C 
HETATM   16  C8  UNL     1      -8.237  21.701 -19.872  1.00  0.00     0.000 C 
HETATM   17  C9  UNL     1      -7.574  21.923 -21.235  1.00  0.00     0.005 C 
ENDBRANCH  12  13
ENDBRANCH   1  12
BRANCH   1  18
HETATM   18  N3  UNL     1      -6.129  19.531 -24.259  1.00  0.00    -0.355 N 
HETATM   19  C10 UNL     1      -6.266  19.997 -25.582  1.00  0.00     0.248 C 
HETATM   20  O1  UNL     1      -7.403  19.973 -26.119  1.00  0.00    -0.271 OA
ATOM     21  H3  UNL     1      -5.205  19.554 -23.827  1.00  0.00     0.162 HD
BRANCH  19  22
HETATM   22  C11 UNL     1      -5.156  20.521 -26.397  1.00  0.00     0.275 C 
BRANCH  22  23
HETATM   23  N4  UNL     1      -4.183  21.261 -25.640  1.00  0.00    -0.066 N 
ATOM     24  H43 UNL     1      -4.637  21.970 -25.065  1.00  0.00     0.275 HD
ATOM     25  H42 UNL     1      -3.780  20.678 -24.907  1.00  0.00     0.275 HD
ATOM     26  H41 UNL     1      -3.450  21.678 -26.213  1.00  0.00     0.275 HD
ENDBRANCH  22  23
BRANCH  22  27
HETATM   27  C12 UNL     1      -5.710  21.396 -27.500  1.00  0.00     0.047 C 
BRANCH  27  28
HETATM   28  C13 UNL     1      -4.884  22.627 -27.719  1.00  0.00    -0.012 A 
HETATM   29  C14 UNL     1      -5.685  23.856 -28.081  1.00  0.00     0.005 A 
HETATM   30  C15 UNL     1      -4.802  23.219 -29.083  1.00  0.00     0.005 A 
ENDBRANCH  27  28
ENDBRANCH  22  27
ENDBRANCH  19  22
ENDBRANCH   1  18
TORSDOF 11
ENDMDL
MODEL 5
REMARK VINA RESULT: -7.088824791      2.272      6.424
REMARK  11 active torsions:
REMARK  status: ('A' for Active; 'I' for Inactive)
REMARK    1  A    between atoms: N1_1  and  C1_5 
REMARK    2  A    between atoms: C1_5  and  N2_6 
REMARK    3  A    between atoms: C1_5  and  C2_10 
REMARK    4  A    between atoms: C2_10  and  C3_11 
REMARK    5  A    between atoms: C3_11  and  C4_12 
REMARK    6  A    between atoms: C3_11  and  N3_18 
REMARK    7  A    between atoms: C4_12  and  C5_13 
REMARK       I    between atoms: N3_18  and  C10_20 
REMARK    8  A    between atoms: C10_20  and  C11_22 
REMARK    9  A    between atoms: C11_22  and  N4_23 
REMARK   10  A    between atoms: C11_22  and  C12_27 
REMARK   11  A    between atoms: C12_27  and  C13_28 
ROOT
HETATM    1  C3  UNL     1      -7.527  19.516 -23.398  1.00  0.00     0.088 C 
ENDROOT
BRANCH   1   2
HETATM    2  C2  UNL     1      -7.899  18.091 -23.616  1.00  0.00     0.087 C 
BRANCH   2   3
HETATM    3  C1  UNL     1      -6.977  17.017 -23.212  1.00  0.00     0.380 C 
BRANCH   3   4
HETATM    4  N1  UNL     1      -5.564  17.421 -23.437  1.00  0.00    -0.050 N 
ATOM      5  H13 UNL     1      -5.116  17.902 -22.657  1.00  0.00     0.276 HD
ATOM      6  H12 UNL     1      -4.890  16.657 -23.469  1.00  0.00     0.276 HD
ATOM      7  H11 UNL     1      -5.650  17.965 -24.296  1.00  0.00     0.276 HD
ENDBRANCH   3   4
BRANCH   3   8
HETATM    8  N2  UNL     1      -7.111  15.898 -24.175  1.00  0.00    -0.050 N 
ATOM      9  H23 UNL     1      -6.384  15.844 -24.887  1.00  0.00     0.276 HD
ATOM     10  H22 UNL     1      -6.931  14.969 -23.794  1.00  0.00     0.276 HD
ATOM     11  H21 UNL     1      -8.057  16.052 -24.525  1.00  0.00     0.276 HD
ENDBRANCH   3   8
ENDBRANCH   2   3
ENDBRANCH   1   2
BRANCH   1  12
HETATM   12  C4  UNL     1      -7.514  20.321 -24.617  1.00  0.00     0.029 C 
BRANCH  12  13
HETATM   13  C5  UNL     1      -6.952  19.696 -25.853  1.00  0.00    -0.013 C 
HETATM   14  C6  UNL     1      -7.410  20.189 -27.145  1.00  0.00     0.005 C 
HETATM   15  C7  UNL     1      -6.209  20.727 -27.911  1.00  0.00     0.000 C 
HETATM   16  C8  UNL     1      -5.306  21.132 -26.765  1.00  0.00     0.000 C 
HETATM   17  C9  UNL     1      -5.446  19.893 -25.874  1.00  0.00     0.005 C 
ENDBRANCH  12  13
ENDBRANCH   1  12
BRANCH   1  18
HETATM   18  N3  UNL     1      -8.440  20.025 -22.366  1.00  0.00    -0.355 N 
HETATM   19  C10 UNL     1      -8.099  21.079 -21.494  1.00  0.00     0.248 C 
HETATM   20  O1  UNL     1      -6.964  21.610 -21.599  1.00  0.00    -0.271 OA
ATOM     21  H3  UNL     1      -9.361  19.597 -22.277  1.00  0.00     0.162 HD
BRANCH  19  22
HETATM   22  C11 UNL     1      -8.990  21.613 -20.449  1.00  0.00     0.275 C 
BRANCH  22  23
HETATM   23  N4  UNL     1      -8.478  21.452 -19.116  1.00  0.00    -0.066 N 
ATOM     24  H43 UNL     1      -7.767  20.721 -19.088  1.00  0.00     0.275 HD
ATOM     25  H42 UNL     1      -7.908  22.254 -18.850  1.00  0.00     0.275 HD
ATOM     26  H41 UNL     1      -9.201  21.276 -18.418  1.00  0.00     0.275 HD
ENDBRANCH  22  23
BRANCH  22  27
HETATM   27  C12 UNL     1     -10.344  20.949 -20.554  1.00  0.00     0.047 C 
BRANCH  27  28
HETATM   28  C13 UNL     1     -11.466  21.942 -20.583  1.00  0.00    -0.012 A 
HETATM   29  C14 UNL     1     -12.184  22.108 -19.264  1.00  0.00     0.005 A 
HETATM   30  C15 UNL     1     -12.867  21.469 -20.411  1.00  0.00     0.005 A 
ENDBRANCH  27  28
ENDBRANCH  22  27
ENDBRANCH  19  22
ENDBRANCH   1  18
TORSDOF 11
ENDMDL
