MODEL 1
REMARK VINA RESULT: -7.642979652      0.000      0.000
REMARK  9 active torsions:
REMARK  status: ('A' for Active; 'I' for Inactive)
REMARK    1  A    between atoms: C1_2  and  C2_4 
REMARK    2  A    between atoms: C2_4  and  C3_5 
REMARK    3  A    between atoms: C2_4  and  N2_9 
REMARK    4  A    between atoms: C3_5  and  C4_6 
REMARK    5  A    between atoms: N2_9  and  O4_10 
REMARK    6  A    between atoms: O4_10  and  C5_11 
REMARK    7  A    between atoms: C5_11  and  C6_12 
REMARK    8  A    between atoms: C6_12  and  O5_13 
REMARK    9  A    between atoms: C6_12  and  C7_15 
ROOT
HETATM    1  O4  UNL     1      -7.642  19.397 -23.351  1.00  0.00    -0.283 OA
ENDROOT
BRANCH   1   2
HETATM    2  N2  UNL     1      -6.716  19.847 -24.254  1.00  0.00    -0.086 NA
BRANCH   2   3
HETATM    3  C2  UNL     1      -6.826  19.008 -25.454  1.00  0.00     0.205 C 
BRANCH   3   4
HETATM    4  C1  UNL     1      -6.269  17.701 -25.157  1.00  0.00     0.253 C 
HETATM    5  N1  UNL     1      -6.891  16.449 -25.302  1.00  0.00    -0.061 NA
HETATM    6  O1  UNL     1      -5.068  17.647 -24.704  1.00  0.00    -0.275 OA
ENDBRANCH   3   4
BRANCH   3   7
HETATM    7  C3  UNL     1      -6.139  19.744 -26.551  1.00  0.00     0.146 C 
BRANCH   7   8
HETATM    8  C4  UNL     1      -6.944  20.217 -27.670  1.00  0.00     0.174 C 
HETATM    9  O2  UNL     1      -8.045  19.772 -28.011  1.00  0.00    -0.648 OA
HETATM   10  O3  UNL     1      -6.404  21.281 -28.426  1.00  0.00    -0.648 OA
ENDBRANCH   7   8
ENDBRANCH   3   7
ENDBRANCH   2   3
ENDBRANCH   1   2
BRANCH   1  11
HETATM   11  C5  UNL     1      -7.320  19.822 -22.067  1.00  0.00     0.227 C 
BRANCH  11  12
HETATM   12  C6  UNL     1      -8.061  21.096 -21.811  1.00  0.00     0.148 C 
BRANCH  12  13
HETATM   13  O5  UNL     1      -8.781  21.478 -22.949  1.00  0.00    -0.393 OA
ATOM     14  H5  UNL     1      -9.713  21.366 -22.803  1.00  0.00     0.210 HD
ENDBRANCH  12  13
BRANCH  12  15
HETATM   15  C7  UNL     1      -9.033  20.948 -20.633  1.00  0.00     0.017 C 
HETATM   16  C8  UNL     1      -8.649  21.924 -19.562  1.00  0.00     0.007 C 
HETATM   17  C9  UNL     1      -9.679  21.711 -18.441  1.00  0.00     0.000 C 
HETATM   18  C10 UNL     1     -10.965  22.272 -18.950  1.00  0.00     0.000 C 
HETATM   19  C11 UNL     1     -11.373  21.839 -20.298  1.00  0.00     0.000 C 
HETATM   20  C12 UNL     1     -10.442  21.016 -21.078  1.00  0.00     0.007 C 
ENDBRANCH  12  15
ENDBRANCH  11  12
ENDBRANCH   1  11
TORSDOF 9
ENDMDL
MODEL 2
REMARK VINA RESULT: -7.621791011      0.717      1.345
REMARK  9 active torsions:
REMARK  status: ('A' for Active; 'I' for Inactive)
REMARK    1  A    between atoms: C1_2  and  C2_4 
REMARK    2  A    between atoms: C2_4  and  C3_5 
REMARK    3  A    between atoms: C2_4  and  N2_9 
REMARK    4  A    between atoms: C3_5  and  C4_6 
REMARK    5  A    between atoms: N2_9  and  O4_10 
REMARK    6  A    between atoms: O4_10  and  C5_11 
REMARK    7  A    between atoms: C5_11  and  C6_12 
REMARK    8  A    between atoms: C6_12  and  O5_13 
REMARK    9  A    between atoms: C6_12  and  C7_15 
ROOT
HETATM    1  O4  UNL     1      -7.772  20.313 -23.732  1.00  0.00    -0.283 OA
ENDROOT
BRANCH   1   2
HETATM    2  N2  UNL     1      -6.550  19.891 -24.185  1.00  0.00    -0.086 NA
BRANCH   2   3
HETATM    3  C2  UNL     1      -6.779  19.092 -25.395  1.00  0.00     0.205 C 
BRANCH   3   4
HETATM    4  C1  UNL     1      -6.285  17.747 -25.162  1.00  0.00     0.253 C 
HETATM    5  N1  UNL     1      -6.966  16.535 -25.364  1.00  0.00    -0.061 NA
HETATM    6  O1  UNL     1      -5.087  17.615 -24.717  1.00  0.00    -0.275 OA
ENDBRANCH   3   4
BRANCH   3   7
HETATM    7  C3  UNL     1      -6.115  19.816 -26.514  1.00  0.00     0.146 C 
BRANCH   7   8
HETATM    8  C4  UNL     1      -6.938  20.248 -27.636  1.00  0.00     0.174 C 
HETATM    9  O2  UNL     1      -8.014  19.749 -27.982  1.00  0.00    -0.648 OA
HETATM   10  O3  UNL     1      -6.448  21.338 -28.390  1.00  0.00    -0.648 OA
ENDBRANCH   7   8
ENDBRANCH   3   7
ENDBRANCH   2   3
ENDBRANCH   1   2
BRANCH   1  11
HETATM   11  C5  UNL     1      -8.080  19.708 -22.518  1.00  0.00     0.227 C 
BRANCH  11  12
HETATM   12  C6  UNL     1      -7.664  20.642 -21.426  1.00  0.00     0.148 C 
BRANCH  12  13
HETATM   13  O5  UNL     1      -6.602  21.448 -21.852  1.00  0.00    -0.393 OA
ATOM     14  H5  UNL     1      -6.245  21.121 -22.669  1.00  0.00     0.210 HD
ENDBRANCH  12  13
BRANCH  12  15
HETATM   15  C7  UNL     1      -8.828  21.542 -20.991  1.00  0.00     0.017 C 
HETATM   16  C8  UNL     1     -10.103  20.759 -21.070  1.00  0.00     0.007 C 
HETATM   17  C9  UNL     1     -11.199  21.732 -20.606  1.00  0.00     0.000 C 
HETATM   18  C10 UNL     1     -11.008  21.899 -19.135  1.00  0.00     0.000 C 
HETATM   19  C11 UNL     1      -9.636  22.204 -18.690  1.00  0.00     0.000 C 
HETATM   20  C12 UNL     1      -8.560  22.188 -19.688  1.00  0.00     0.007 C 
ENDBRANCH  12  15
ENDBRANCH  11  12
ENDBRANCH   1  11
TORSDOF 9
ENDMDL
MODEL 3
REMARK VINA RESULT: -7.491510663      1.711      2.350
REMARK  9 active torsions:
REMARK  status: ('A' for Active; 'I' for Inactive)
REMARK    1  A    between atoms: C1_2  and  C2_4 
REMARK    2  A    between atoms: C2_4  and  C3_5 
REMARK    3  A    between atoms: C2_4  and  N2_9 
REMARK    4  A    between atoms: C3_5  and  C4_6 
REMARK    5  A    between atoms: N2_9  and  O4_10 
REMARK    6  A    between atoms: O4_10  and  C5_11 
REMARK    7  A    between atoms: C5_11  and  C6_12 
REMARK    8  A    between atoms: C6_12  and  O5_13 
REMARK    9  A    between atoms: C6_12  and  C7_15 
ROOT
HETATM    1  O4  UNL     1      -6.590  20.497 -23.798  1.00  0.00    -0.283 OA
ENDROOT
BRANCH   1   2
HETATM    2  N2  UNL     1      -6.106  19.670 -24.778  1.00  0.00    -0.086 NA
BRANCH   2   3
HETATM    3  C2  UNL     1      -6.442  20.275 -26.072  1.00  0.00     0.205 C 
BRANCH   3   4
HETATM    4  C1  UNL     1      -7.200  19.312 -26.851  1.00  0.00     0.253 C 
HETATM    5  N1  UNL     1      -7.969  19.553 -28.002  1.00  0.00    -0.061 NA
HETATM    6  O1  UNL     1      -7.190  18.086 -26.467  1.00  0.00    -0.275 OA
ENDBRANCH   3   4
BRANCH   3   7
HETATM    7  C3  UNL     1      -5.155  20.700 -26.688  1.00  0.00     0.146 C 
BRANCH   7   8
HETATM    8  C4  UNL     1      -5.153  21.899 -27.516  1.00  0.00     0.174 C 
HETATM    9  O2  UNL     1      -5.792  22.061 -28.561  1.00  0.00    -0.648 OA
HETATM   10  O3  UNL     1      -4.341  22.966 -27.072  1.00  0.00    -0.648 OA
ENDBRANCH   7   8
ENDBRANCH   3   7
ENDBRANCH   2   3
ENDBRANCH   1   2
BRANCH   1  11
HETATM   11  C5  UNL     1      -7.935  20.238 -23.560  1.00  0.00     0.227 C 
BRANCH  11  12
HETATM   12  C6  UNL     1      -8.105  20.037 -22.087  1.00  0.00     0.148 C 
BRANCH  12  13
HETATM   13  O5  UNL     1      -6.856  19.960 -21.458  1.00  0.00    -0.393 OA
ATOM     14  H5  UNL     1      -6.819  19.201 -20.889  1.00  0.00     0.210 HD
ENDBRANCH  12  13
BRANCH  12  15
HETATM   15  C7  UNL     1      -8.910  21.182 -21.458  1.00  0.00     0.017 C 
HETATM   16  C8  UNL     1     -10.242  20.655 -21.020  1.00  0.00     0.007 C 
HETATM   17  C9  UNL     1     -10.962  21.861 -20.396  1.00  0.00     0.000 C 
HETATM   18  C10 UNL     1     -10.274  22.128 -19.099  1.00  0.00     0.000 C 
HETATM   19  C11 UNL     1      -8.803  22.205 -19.150  1.00  0.00     0.000 C 
HETATM   20  C12 UNL     1      -8.131  21.886 -20.415  1.00  0.00     0.007 C 
ENDBRANCH  12  15
ENDBRANCH  11  12
ENDBRANCH   1  11
TORSDOF 9
ENDMDL
MODEL 4
REMARK VINA RESULT: -7.439967383      1.261      2.763
REMARK  9 active torsions:
REMARK  status: ('A' for Active; 'I' for Inactive)
REMARK    1  A    between atoms: C1_2  and  C2_4 
REMARK    2  A    between atoms: C2_4  and  C3_5 
REMARK    3  A    between atoms: C2_4  and  N2_9 
REMARK    4  A    between atoms: C3_5  and  C4_6 
REMARK    5  A    between atoms: N2_9  and  O4_10 
REMARK    6  A    between atoms: O4_10  and  C5_11 
REMARK    7  A    between atoms: C5_11  and  C6_12 
REMARK    8  A    between atoms: C6_12  and  O5_13 
REMARK    9  A    between atoms: C6_12  and  C7_15 
ROOT
HETATM    1  O4  UNL     1      -6.720  20.124 -23.907  1.00  0.00    -0.283 OA
ENDROOT
BRANCH   1   2
HETATM    2  N2  UNL     1      -7.497  20.154 -25.036  1.00  0.00    -0.086 NA
BRANCH   2   3
HETATM    3  C2  UNL     1      -6.828  19.336 -26.054  1.00  0.00     0.205 C 
BRANCH   3   4
HETATM    4  C1  UNL     1      -7.083  19.920 -27.359  1.00  0.00     0.253 C 
HETATM    5  N1  UNL     1      -6.359  20.938 -28.001  1.00  0.00    -0.061 NA
HETATM    6  O1  UNL     1      -8.085  19.477 -28.030  1.00  0.00    -0.275 OA
ENDBRANCH   3   4
BRANCH   3   7
HETATM    7  C3  UNL     1      -7.334  17.946 -25.883  1.00  0.00     0.146 C 
BRANCH   7   8
HETATM    8  C4  UNL     1      -6.460  16.971 -25.244  1.00  0.00     0.174 C 
HETATM    9  O2  UNL     1      -6.728  15.783 -25.035  1.00  0.00    -0.648 OA
HETATM   10  O3  UNL     1      -5.194  17.441 -24.831  1.00  0.00    -0.648 OA
ENDBRANCH   7   8
ENDBRANCH   3   7
ENDBRANCH   2   3
ENDBRANCH   1   2
BRANCH   1  11
HETATM   11  C5  UNL     1      -7.495  19.845 -22.787  1.00  0.00     0.227 C 
BRANCH  11  12
HETATM   12  C6  UNL     1      -8.040  21.141 -22.277  1.00  0.00     0.148 C 
BRANCH  12  13
HETATM   13  O5  UNL     1      -8.961  21.674 -23.187  1.00  0.00    -0.393 OA
ATOM     14  H5  UNL     1      -8.774  22.591 -23.348  1.00  0.00     0.210 HD
ENDBRANCH  12  13
BRANCH  12  15
HETATM   15  C7  UNL     1      -8.730  20.958 -20.919  1.00  0.00     0.017 C 
HETATM   16  C8  UNL     1      -8.250  22.026 -19.983  1.00  0.00     0.007 C 
HETATM   17  C9  UNL     1      -9.001  21.770 -18.667  1.00  0.00     0.000 C 
HETATM   18  C10 UNL     1     -10.418  22.166 -18.916  1.00  0.00     0.000 C 
HETATM   19  C11 UNL     1     -11.040  21.620 -20.135  1.00  0.00     0.000 C 
HETATM   20  C12 UNL     1     -10.199  20.855 -21.064  1.00  0.00     0.007 C 
ENDBRANCH  12  15
ENDBRANCH  11  12
ENDBRANCH   1  11
TORSDOF 9
ENDMDL
MODEL 5
REMARK VINA RESULT: -7.412203574      1.590      3.335
REMARK  9 active torsions:
REMARK  status: ('A' for Active; 'I' for Inactive)
REMARK    1  A    between atoms: C1_2  and  C2_4 
REMARK    2  A    between atoms: C2_4  and  C3_5 
REMARK    3  A    between atoms: C2_4  and  N2_9 
REMARK    4  A    between atoms: C3_5  and  C4_6 
REMARK    5  A    between atoms: N2_9  and  O4_10 
REMARK    6  A    between atoms: O4_10  and  C5_11 
REMARK    7  A    between atoms: C5_11  and  C6_12 
REMARK    8  A    between atoms: C6_12  and  O5_13 
REMARK    9  A    between atoms: C6_12  and  C7_15 
ROOT
HETATM    1  O4  UNL     1      -6.915  20.389 -24.907  1.00  0.00    -0.283 OA
ENDROOT
BRANCH   1   2
HETATM    2  N2  UNL     1      -5.881  19.750 -25.539  1.00  0.00    -0.086 NA
BRANCH   2   3
HETATM    3  C2  UNL     1      -6.445  19.023 -26.682  1.00  0.00     0.205 C 
BRANCH   3   4
HETATM    4  C1  UNL     1      -6.963  19.988 -27.636  1.00  0.00     0.253 C 
HETATM    5  N1  UNL     1      -6.324  21.141 -28.122  1.00  0.00    -0.061 NA
HETATM    6  O1  UNL     1      -8.142  19.795 -28.108  1.00  0.00    -0.275 OA
ENDBRANCH   3   4
BRANCH   3   7
HETATM    7  C3  UNL     1      -7.462  18.086 -26.129  1.00  0.00     0.146 C 
BRANCH   7   8
HETATM    8  C4  UNL     1      -6.999  16.985 -25.295  1.00  0.00     0.174 C 
HETATM    9  O2  UNL     1      -5.971  16.323 -25.471  1.00  0.00    -0.648 OA
HETATM   10  O3  UNL     1      -7.810  16.654 -24.186  1.00  0.00    -0.648 OA
ENDBRANCH   7   8
ENDBRANCH   3   7
ENDBRANCH   2   3
ENDBRANCH   1   2
BRANCH   1  11
HETATM   11  C5  UNL     1      -6.733  20.369 -23.528  1.00  0.00     0.227 C 
BRANCH  11  12
HETATM   12  C6  UNL     1      -8.012  19.904 -22.908  1.00  0.00     0.148 C 
BRANCH  12  13
HETATM   13  O5  UNL     1      -7.777  18.812 -22.065  1.00  0.00    -0.393 OA
ATOM     14  H5  UNL     1      -7.013  18.328 -22.356  1.00  0.00     0.210 HD
ENDBRANCH  12  13
BRANCH  12  15
HETATM   15  C7  UNL     1      -8.677  21.025 -22.097  1.00  0.00     0.017 C 
HETATM   16  C8  UNL     1      -9.766  20.434 -21.255  1.00  0.00     0.007 C 
HETATM   17  C9  UNL     1     -10.357  21.619 -20.476  1.00  0.00     0.000 C 
HETATM   18  C10 UNL     1      -9.331  22.003 -19.463  1.00  0.00     0.000 C 
HETATM   19  C11 UNL     1      -7.956  22.176 -19.966  1.00  0.00     0.000 C 
HETATM   20  C12 UNL     1      -7.678  21.835 -21.367  1.00  0.00     0.007 C 
ENDBRANCH  12  15
ENDBRANCH  11  12
ENDBRANCH   1  11
TORSDOF 9
ENDMDL
