MODEL 1
REMARK VINA RESULT: -7.306871127      0.000      0.000
REMARK  8 active torsions:
REMARK  status: ('A' for Active; 'I' for Inactive)
REMARK    1  A    between atoms: C6_6  and  C7_7 
REMARK    2  A    between atoms: C7_7  and  C10_10 
REMARK    3  A    between atoms: C10_10  and  C11_11 
REMARK    4  A    between atoms: C11_11  and  N1_12 
REMARK    5  A    between atoms: N2_15  and  C14_16 
REMARK    6  A    between atoms: C14_16  and  C15_17 
REMARK    7  A    between atoms: C16_21  and  C17_22 
REMARK    8  A    between atoms: C21_26  and  O2_27 
ROOT
HETATM    1  C14 UNL     1      -3.902 -22.112  34.358  1.00  0.00     0.200 C 
ENDROOT
BRANCH   1   2
HETATM    2  N2  UNL     1      -4.973 -22.732  35.065  1.00  0.00    -0.383 N 
HETATM    3  C13 UNL     1      -4.755 -24.129  35.214  1.00  0.00     0.152 C 
HETATM    4  C12 UNL     1      -5.615 -24.850  34.199  1.00  0.00     0.292 C 
HETATM    5  N1  UNL     1      -6.987 -24.636  34.629  1.00  0.00     0.094 N 
HETATM    6  C27 UNL     1      -7.306 -23.269  34.377  1.00  0.00     0.316 C 
HETATM    7  C26 UNL     1      -6.279 -22.288  34.788  1.00  0.00     0.088 C 
BRANCH   5   8
HETATM    8  C11 UNL     1      -7.863 -25.544  33.928  1.00  0.00     0.274 C 
BRANCH   8   9
HETATM    9  C10 UNL     1      -8.361 -24.984  32.620  1.00  0.00     0.046 C 
BRANCH   9  10
HETATM   10  C7  UNL     1      -9.830 -25.293  32.408  1.00  0.00     0.004 C 
HETATM   11  C8  UNL     1     -10.094 -26.754  32.261  1.00  0.00     0.022 C 
HETATM   12  C9  UNL     1     -10.560 -24.815  33.654  1.00  0.00     0.022 C 
BRANCH  10  13
HETATM   13  C6  UNL     1     -10.363 -24.543  31.243  1.00  0.00     0.067 A 
HETATM   14  C4  UNL     1      -9.901 -24.654  29.955  1.00  0.00    -0.029 A 
HETATM   15  C3  UNL     1     -10.674 -23.784  29.186  1.00  0.00     0.041 A 
HETATM   16  C5  UNL     1      -8.827 -25.485  29.411  1.00  0.00     0.050 C 
HETATM   17  C2  UNL     1     -11.551 -23.203  30.059  1.00  0.00     0.050 A 
HETATM   18  C1  UNL     1     -12.567 -22.190  29.617  1.00  0.00     0.076 C 
HETATM   19  O3  UNL     1     -11.350 -23.662  31.247  1.00  0.00    -0.319 OA
ENDBRANCH  10  13
ENDBRANCH   9  10
ENDBRANCH   8   9
ENDBRANCH   5   8
ENDBRANCH   1   2
BRANCH   1  20
HETATM   20  C15 UNL     1      -4.146 -21.756  32.967  1.00  0.00     0.122 A 
HETATM   21  N3  UNL     1      -4.281 -20.508  32.486  1.00  0.00    -0.245 N 
HETATM   22  O1  UNL     1      -4.490 -20.535  31.213  1.00  0.00    -0.217 OA
ATOM     23  H3  UNL     1      -4.227 -19.659  33.049  1.00  0.00     0.196 HD
HETATM   24  C16 UNL     1      -4.502 -21.800  30.782  1.00  0.00     0.182 A 
HETATM   25  N4  UNL     1      -4.289 -22.533  31.877  1.00  0.00    -0.321 N 
ATOM     26  H4  UNL     1      -4.242 -23.552  31.886  1.00  0.00     0.169 HD
BRANCH  24  27
HETATM   27  C17 UNL     1      -4.716 -22.165  29.387  1.00  0.00     0.024 A 
HETATM   28  C18 UNL     1      -3.640 -22.372  28.534  1.00  0.00     0.026 A 
HETATM   29  C19 UNL     1      -3.832 -22.720  27.206  1.00  0.00    -0.027 A 
HETATM   30  C20 UNL     1      -2.687 -22.943  26.287  1.00  0.00     0.051 C 
HETATM   31  C21 UNL     1      -5.111 -22.866  26.715  1.00  0.00     0.078 A 
HETATM   32  C22 UNL     1      -6.180 -22.663  27.551  1.00  0.00    -0.021 A 
HETATM   33  C23 UNL     1      -7.587 -22.804  27.082  1.00  0.00     0.052 C 
HETATM   34  C24 UNL     1      -5.985 -22.313  28.885  1.00  0.00    -0.039 A 
HETATM   35  C25 UNL     1      -7.187 -22.104  29.751  1.00  0.00     0.050 C 
BRANCH  31  36
HETATM   36  O2  UNL     1      -5.373 -23.214  25.388  1.00  0.00    -0.360 OA
ATOM     37  H2  UNL     1      -6.226 -23.511  25.095  1.00  0.00     0.217 HD
ENDBRANCH  31  36
ENDBRANCH  24  27
ENDBRANCH   1  20
TORSDOF 8
ENDMDL
MODEL 2
REMARK VINA RESULT: -7.266167261      1.149      2.125
REMARK  8 active torsions:
REMARK  status: ('A' for Active; 'I' for Inactive)
REMARK    1  A    between atoms: C6_6  and  C7_7 
REMARK    2  A    between atoms: C7_7  and  C10_10 
REMARK    3  A    between atoms: C10_10  and  C11_11 
REMARK    4  A    between atoms: C11_11  and  N1_12 
REMARK    5  A    between atoms: N2_15  and  C14_16 
REMARK    6  A    between atoms: C14_16  and  C15_17 
REMARK    7  A    between atoms: C16_21  and  C17_22 
REMARK    8  A    between atoms: C21_26  and  O2_27 
ROOT
HETATM    1  C14 UNL     1      -3.517 -22.672  33.941  1.00  0.00     0.200 C 
ENDROOT
BRANCH   1   2
HETATM    2  N2  UNL     1      -4.469 -22.612  35.001  1.00  0.00    -0.383 N 
HETATM    3  C13 UNL     1      -4.531 -23.840  35.713  1.00  0.00     0.152 C 
HETATM    4  C12 UNL     1      -5.769 -24.584  35.258  1.00  0.00     0.292 C 
HETATM    5  N1  UNL     1      -6.893 -23.808  35.751  1.00  0.00     0.094 N 
HETATM    6  C27 UNL     1      -6.960 -22.613  34.976  1.00  0.00     0.316 C 
HETATM    7  C26 UNL     1      -5.671 -21.922  34.757  1.00  0.00     0.088 C 
BRANCH   5   8
HETATM    8  C11 UNL     1      -8.102 -24.591  35.659  1.00  0.00     0.274 C 
BRANCH   8   9
HETATM    9  C10 UNL     1      -9.186 -23.905  34.866  1.00  0.00     0.046 C 
BRANCH   9  10
HETATM   10  C7  UNL     1     -10.019 -24.903  34.087  1.00  0.00     0.004 C 
HETATM   11  C8  UNL     1      -9.395 -26.257  34.037  1.00  0.00     0.022 C 
HETATM   12  C9  UNL     1     -11.344 -25.034  34.823  1.00  0.00     0.022 C 
BRANCH  10  13
HETATM   13  C6  UNL     1     -10.299 -24.402  32.718  1.00  0.00     0.067 A 
HETATM   14  C4  UNL     1      -9.346 -24.154  31.760  1.00  0.00    -0.029 A 
HETATM   15  C3  UNL     1     -10.034 -23.701  30.634  1.00  0.00     0.041 A 
HETATM   16  C5  UNL     1      -7.892 -24.303  31.820  1.00  0.00     0.050 C 
HETATM   17  C2  UNL     1     -11.355 -23.704  30.984  1.00  0.00     0.050 A 
HETATM   18  C1  UNL     1     -12.436 -23.277  30.034  1.00  0.00     0.076 C 
HETATM   19  O3  UNL     1     -11.481 -24.116  32.200  1.00  0.00    -0.319 OA
ENDBRANCH  10  13
ENDBRANCH   9  10
ENDBRANCH   8   9
ENDBRANCH   5   8
ENDBRANCH   1   2
BRANCH   1  20
HETATM   20  C15 UNL     1      -3.949 -22.192  32.636  1.00  0.00     0.122 A 
HETATM   21  N3  UNL     1      -3.749 -20.956  32.147  1.00  0.00    -0.245 N 
HETATM   22  O1  UNL     1      -4.255 -20.851  30.964  1.00  0.00    -0.217 OA
ATOM     23  H3  UNL     1      -3.265 -20.206  32.641  1.00  0.00     0.196 HD
HETATM   24  C16 UNL     1      -4.814 -22.010  30.606  1.00  0.00     0.182 A 
HETATM   25  N4  UNL     1      -4.615 -22.819  31.649  1.00  0.00    -0.321 N 
ATOM     26  H4  UNL     1      -4.928 -23.789  31.692  1.00  0.00     0.169 HD
BRANCH  24  27
HETATM   27  C17 UNL     1      -5.473 -22.215  29.322  1.00  0.00     0.024 A 
HETATM   28  C18 UNL     1      -6.830 -21.964  29.171  1.00  0.00     0.026 A 
HETATM   29  C19 UNL     1      -7.466 -22.155  27.955  1.00  0.00    -0.027 A 
HETATM   30  C20 UNL     1      -8.917 -21.890  27.785  1.00  0.00     0.051 C 
HETATM   31  C21 UNL     1      -6.745 -22.600  26.868  1.00  0.00     0.078 A 
HETATM   32  C22 UNL     1      -5.403 -22.849  27.007  1.00  0.00    -0.021 A 
HETATM   33  C23 UNL     1      -4.566 -23.332  25.872  1.00  0.00     0.052 C 
HETATM   34  C24 UNL     1      -4.766 -22.658  28.231  1.00  0.00    -0.039 A 
HETATM   35  C25 UNL     1      -3.300 -22.946  28.326  1.00  0.00     0.050 C 
BRANCH  31  36
HETATM   36  O2  UNL     1      -7.325 -22.812  25.615  1.00  0.00    -0.360 OA
ATOM     37  H2  UNL     1      -6.920 -23.355  24.949  1.00  0.00     0.217 HD
ENDBRANCH  31  36
ENDBRANCH  24  27
ENDBRANCH   1  20
TORSDOF 8
ENDMDL
MODEL 3
REMARK VINA RESULT: -7.233552119      1.045      1.581
REMARK  8 active torsions:
REMARK  status: ('A' for Active; 'I' for Inactive)
REMARK    1  A    between atoms: C6_6  and  C7_7 
REMARK    2  A    between atoms: C7_7  and  C10_10 
REMARK    3  A    between atoms: C10_10  and  C11_11 
REMARK    4  A    between atoms: C11_11  and  N1_12 
REMARK    5  A    between atoms: N2_15  and  C14_16 
REMARK    6  A    between atoms: C14_16  and  C15_17 
REMARK    7  A    between atoms: C16_21  and  C17_22 
REMARK    8  A    between atoms: C21_26  and  O2_27 
ROOT
HETATM    1  C14 UNL     1      -4.680 -22.635  34.506  1.00  0.00     0.200 C 
ENDROOT
BRANCH   1   2
HETATM    2  N2  UNL     1      -5.906 -23.152  35.017  1.00  0.00    -0.383 N 
HETATM    3  C13 UNL     1      -5.898 -24.573  35.046  1.00  0.00     0.152 C 
HETATM    4  C12 UNL     1      -6.710 -25.070  33.869  1.00  0.00     0.292 C 
HETATM    5  N1  UNL     1      -8.084 -24.697  34.158  1.00  0.00     0.094 N 
HETATM    6  C27 UNL     1      -8.182 -23.282  34.013  1.00  0.00     0.316 C 
HETATM    7  C26 UNL     1      -7.094 -22.500  34.639  1.00  0.00     0.088 C 
BRANCH   5   8
HETATM    8  C11 UNL     1      -8.976 -25.404  33.271  1.00  0.00     0.274 C 
BRANCH   8   9
HETATM    9  C10 UNL     1      -9.942 -24.490  32.561  1.00  0.00     0.046 C 
BRANCH   9  10
HETATM   10  C7  UNL     1     -10.137 -24.903  31.116  1.00  0.00     0.004 C 
HETATM   11  C8  UNL     1      -8.861 -25.305  30.457  1.00  0.00     0.022 C 
HETATM   12  C9  UNL     1     -11.051 -26.118  31.129  1.00  0.00     0.022 C 
BRANCH  10  13
HETATM   13  C6  UNL     1     -10.810 -23.827  30.346  1.00  0.00     0.067 A 
HETATM   14  C4  UNL     1     -12.125 -23.459  30.491  1.00  0.00    -0.029 A 
HETATM   15  C3  UNL     1     -12.342 -22.420  29.586  1.00  0.00     0.041 A 
HETATM   16  C5  UNL     1     -13.156 -23.990  31.382  1.00  0.00     0.050 C 
HETATM   17  C2  UNL     1     -11.146 -22.229  28.952  1.00  0.00     0.050 A 
HETATM   18  C1  UNL     1     -10.961 -21.185  27.889  1.00  0.00     0.076 C 
HETATM   19  O3  UNL     1     -10.272 -23.058  29.413  1.00  0.00    -0.319 OA
ENDBRANCH  10  13
ENDBRANCH   9  10
ENDBRANCH   8   9
ENDBRANCH   5   8
ENDBRANCH   1   2
BRANCH   1  20
HETATM   20  C15 UNL     1      -4.666 -22.225  33.108  1.00  0.00     0.122 A 
HETATM   21  N3  UNL     1      -4.594 -20.959  32.661  1.00  0.00    -0.245 N 
HETATM   22  O1  UNL     1      -4.604 -20.936  31.371  1.00  0.00    -0.217 OA
ATOM     23  H3  UNL     1      -4.539 -20.133  33.257  1.00  0.00     0.196 HD
HETATM   24  C16 UNL     1      -4.681 -22.182  30.895  1.00  0.00     0.182 A 
HETATM   25  N4  UNL     1      -4.718 -22.957  31.980  1.00  0.00    -0.321 N 
ATOM     26  H4  UNL     1      -4.779 -23.975  31.958  1.00  0.00     0.169 HD
BRANCH  24  27
HETATM   27  C17 UNL     1      -4.712 -22.491  29.471  1.00  0.00     0.024 A 
HETATM   28  C18 UNL     1      -3.549 -22.830  28.792  1.00  0.00     0.026 A 
HETATM   29  C19 UNL     1      -3.568 -23.126  27.438  1.00  0.00    -0.027 A 
HETATM   30  C20 UNL     1      -2.329 -23.490  26.704  1.00  0.00     0.051 C 
HETATM   31  C21 UNL     1      -4.758 -23.086  26.745  1.00  0.00     0.078 A 
HETATM   32  C22 UNL     1      -5.912 -22.752  27.408  1.00  0.00    -0.021 A 
HETATM   33  C23 UNL     1      -7.231 -22.690  26.717  1.00  0.00     0.052 C 
HETATM   34  C24 UNL     1      -5.891 -22.455  28.768  1.00  0.00    -0.039 A 
HETATM   35  C25 UNL     1      -7.180 -22.096  29.440  1.00  0.00     0.050 C 
BRANCH  31  36
HETATM   36  O2  UNL     1      -4.845 -23.373  25.380  1.00  0.00    -0.360 OA
ATOM     37  H2  UNL     1      -5.674 -23.509  24.938  1.00  0.00     0.217 HD
ENDBRANCH  31  36
ENDBRANCH  24  27
ENDBRANCH   1  20
TORSDOF 8
ENDMDL
MODEL 4
REMARK VINA RESULT: -7.068178487      1.285      2.566
REMARK  8 active torsions:
REMARK  status: ('A' for Active; 'I' for Inactive)
REMARK    1  A    between atoms: C6_6  and  C7_7 
REMARK    2  A    between atoms: C7_7  and  C10_10 
REMARK    3  A    between atoms: C10_10  and  C11_11 
REMARK    4  A    between atoms: C11_11  and  N1_12 
REMARK    5  A    between atoms: N2_15  and  C14_16 
REMARK    6  A    between atoms: C14_16  and  C15_17 
REMARK    7  A    between atoms: C16_21  and  C17_22 
REMARK    8  A    between atoms: C21_26  and  O2_27 
ROOT
HETATM    1  C14 UNL     1      -3.520 -22.732  33.974  1.00  0.00     0.200 C 
ENDROOT
BRANCH   1   2
HETATM    2  N2  UNL     1      -4.537 -23.021  34.929  1.00  0.00    -0.383 N 
HETATM    3  C13 UNL     1      -4.728 -24.422  35.075  1.00  0.00     0.152 C 
HETATM    4  C12 UNL     1      -5.977 -24.807  34.311  1.00  0.00     0.292 C 
HETATM    5  N1  UNL     1      -7.080 -24.201  35.035  1.00  0.00     0.094 N 
HETATM    6  C27 UNL     1      -7.015 -22.794  34.814  1.00  0.00     0.316 C 
HETATM    7  C26 UNL     1      -5.672 -22.189  34.944  1.00  0.00     0.088 C 
BRANCH   5   8
HETATM    8  C11 UNL     1      -8.328 -24.771  34.587  1.00  0.00     0.274 C 
BRANCH   8   9
HETATM    9  C10 UNL     1      -8.192 -25.534  33.294  1.00  0.00     0.046 C 
BRANCH   9  10
HETATM   10  C7  UNL     1      -9.347 -25.247  32.356  1.00  0.00     0.004 C 
HETATM   11  C8  UNL     1     -10.532 -26.113  32.622  1.00  0.00     0.022 C 
HETATM   12  C9  UNL     1      -9.764 -23.806  32.607  1.00  0.00     0.022 C 
BRANCH  10  13
HETATM   13  C6  UNL     1      -8.918 -25.363  30.940  1.00  0.00     0.067 A 
HETATM   14  C4  UNL     1      -9.716 -25.110  29.851  1.00  0.00    -0.029 A 
HETATM   15  C3  UNL     1      -8.926 -25.338  28.726  1.00  0.00     0.041 A 
HETATM   16  C5  UNL     1     -11.115 -24.686  29.791  1.00  0.00     0.050 C 
HETATM   17  C2  UNL     1      -7.703 -25.715  29.206  1.00  0.00     0.050 A 
HETATM   18  C1  UNL     1      -6.556 -26.055  28.298  1.00  0.00     0.076 C 
HETATM   19  O3  UNL     1      -7.725 -25.721  30.495  1.00  0.00    -0.319 OA
ENDBRANCH  10  13
ENDBRANCH   9  10
ENDBRANCH   8   9
ENDBRANCH   5   8
ENDBRANCH   1   2
BRANCH   1  20
HETATM   20  C15 UNL     1      -3.954 -22.237  32.675  1.00  0.00     0.122 A 
HETATM   21  N3  UNL     1      -3.748 -20.997  32.197  1.00  0.00    -0.245 N 
HETATM   22  O1  UNL     1      -4.258 -20.879  31.017  1.00  0.00    -0.217 OA
ATOM     23  H3  UNL     1      -3.258 -20.255  32.695  1.00  0.00     0.196 HD
HETATM   24  C16 UNL     1      -4.826 -22.031  30.650  1.00  0.00     0.182 A 
HETATM   25  N4  UNL     1      -4.628 -22.851  31.685  1.00  0.00    -0.321 N 
ATOM     26  H4  UNL     1      -4.947 -23.819  31.720  1.00  0.00     0.169 HD
BRANCH  24  27
HETATM   27  C17 UNL     1      -5.491 -22.219  29.367  1.00  0.00     0.024 A 
HETATM   28  C18 UNL     1      -6.849 -21.965  29.226  1.00  0.00     0.026 A 
HETATM   29  C19 UNL     1      -7.491 -22.140  28.010  1.00  0.00    -0.027 A 
HETATM   30  C20 UNL     1      -8.942 -21.870  27.851  1.00  0.00     0.051 C 
HETATM   31  C21 UNL     1      -6.776 -22.574  26.915  1.00  0.00     0.078 A 
HETATM   32  C22 UNL     1      -5.434 -22.828  27.045  1.00  0.00    -0.021 A 
HETATM   33  C23 UNL     1      -4.604 -23.299  25.901  1.00  0.00     0.052 C 
HETATM   34  C24 UNL     1      -4.791 -22.651  28.268  1.00  0.00    -0.039 A 
HETATM   35  C25 UNL     1      -3.325 -22.943  28.352  1.00  0.00     0.050 C 
BRANCH  31  36
HETATM   36  O2  UNL     1      -7.362 -22.771  25.662  1.00  0.00    -0.360 OA
ATOM     37  H2  UNL     1      -7.482 -22.066  25.037  1.00  0.00     0.217 HD
ENDBRANCH  31  36
ENDBRANCH  24  27
ENDBRANCH   1  20
TORSDOF 8
ENDMDL
MODEL 5
REMARK VINA RESULT: -7.048778402      2.405      6.972
REMARK  8 active torsions:
REMARK  status: ('A' for Active; 'I' for Inactive)
REMARK    1  A    between atoms: C6_6  and  C7_7 
REMARK    2  A    between atoms: C7_7  and  C10_10 
REMARK    3  A    between atoms: C10_10  and  C11_11 
REMARK    4  A    between atoms: C11_11  and  N1_12 
REMARK    5  A    between atoms: N2_15  and  C14_16 
REMARK    6  A    between atoms: C14_16  and  C15_17 
REMARK    7  A    between atoms: C16_21  and  C17_22 
REMARK    8  A    between atoms: C21_26  and  O2_27 
ROOT
HETATM    1  C14 UNL     1      -6.399 -23.191  26.722  1.00  0.00     0.200 C 
ENDROOT
BRANCH   1   2
HETATM    2  N2  UNL     1      -5.121 -22.945  27.302  1.00  0.00    -0.383 N 
HETATM    3  C13 UNL     1      -4.770 -23.961  28.233  1.00  0.00     0.152 C 
HETATM    4  C12 UNL     1      -4.999 -23.418  29.627  1.00  0.00     0.292 C 
HETATM    5  N1  UNL     1      -3.998 -22.381  29.810  1.00  0.00     0.094 N 
HETATM    6  C27 UNL     1      -4.375 -21.275  28.993  1.00  0.00     0.316 C 
HETATM    7  C26 UNL     1      -4.793 -21.613  27.616  1.00  0.00     0.088 C 
BRANCH   5   8
HETATM    8  C11 UNL     1      -3.914 -22.028  31.208  1.00  0.00     0.274 C 
BRANCH   8   9
HETATM    9  C10 UNL     1      -4.837 -22.847  32.075  1.00  0.00     0.046 C 
BRANCH   9  10
HETATM   10  C7  UNL     1      -4.619 -22.556  33.546  1.00  0.00     0.004 C 
HETATM   11  C8  UNL     1      -3.373 -23.182  34.078  1.00  0.00     0.022 C 
HETATM   12  C9  UNL     1      -4.467 -21.048  33.675  1.00  0.00     0.022 C 
BRANCH  10  13
HETATM   13  C6  UNL     1      -5.798 -22.971  34.346  1.00  0.00     0.067 A 
HETATM   14  C4  UNL     1      -6.113 -24.267  34.673  1.00  0.00    -0.029 A 
HETATM   15  C3  UNL     1      -7.286 -24.208  35.424  1.00  0.00     0.041 A 
HETATM   16  C5  UNL     1      -5.420 -25.513  34.343  1.00  0.00     0.050 C 
HETATM   17  C2  UNL     1      -7.605 -22.881  35.502  1.00  0.00     0.050 A 
HETATM   18  C1  UNL     1      -8.819 -22.391  36.238  1.00  0.00     0.076 C 
HETATM   19  O3  UNL     1      -6.724 -22.184  34.869  1.00  0.00    -0.319 OA
ENDBRANCH  10  13
ENDBRANCH   9  10
ENDBRANCH   8   9
ENDBRANCH   5   8
ENDBRANCH   1   2
BRANCH   1  20
HETATM   20  C15 UNL     1      -7.565 -22.923  27.552  1.00  0.00     0.122 A 
HETATM   21  N3  UNL     1      -8.253 -21.769  27.593  1.00  0.00    -0.245 N 
HETATM   22  O1  UNL     1      -9.231 -21.856  28.431  1.00  0.00    -0.217 OA
ATOM     23  H3  UNL     1      -8.034 -20.940  27.040  1.00  0.00     0.196 HD
HETATM   24  C16 UNL     1      -9.244 -23.071  28.988  1.00  0.00     0.182 A 
HETATM   25  N4  UNL     1      -8.212 -23.709  28.433  1.00  0.00    -0.321 N 
ATOM     26  H4  UNL     1      -7.946 -24.670  28.649  1.00  0.00     0.169 HD
BRANCH  24  27
HETATM   27  C17 UNL     1     -10.230 -23.482  29.979  1.00  0.00     0.024 A 
HETATM   28  C18 UNL     1     -11.571 -23.600  29.641  1.00  0.00     0.026 A 
HETATM   29  C19 UNL     1     -12.517 -23.992  30.576  1.00  0.00    -0.027 A 
HETATM   30  C20 UNL     1     -13.953 -24.120  30.222  1.00  0.00     0.051 C 
HETATM   31  C21 UNL     1     -12.127 -24.272  31.867  1.00  0.00     0.078 A 
HETATM   32  C22 UNL     1     -10.803 -24.158  32.211  1.00  0.00    -0.021 A 
HETATM   33  C23 UNL     1     -10.317 -24.446  33.589  1.00  0.00     0.052 C 
HETATM   34  C24 UNL     1      -9.855 -23.765  31.270  1.00  0.00    -0.039 A 
HETATM   35  C25 UNL     1      -8.425 -23.657  31.699  1.00  0.00     0.050 C 
BRANCH  31  36
HETATM   36  O2  UNL     1     -13.029 -24.671  32.857  1.00  0.00    -0.360 OA
ATOM     37  H2  UNL     1     -12.760 -25.149  33.632  1.00  0.00     0.217 HD
ENDBRANCH  31  36
ENDBRANCH  24  27
ENDBRANCH   1  20
TORSDOF 8
ENDMDL
