MODEL 1
REMARK VINA RESULT: -7.721773942      0.000      0.000
REMARK  8 active torsions:
REMARK  status: ('A' for Active; 'I' for Inactive)
REMARK    1  A    between atoms: C2_2  and  C3_3 
REMARK    2  A    between atoms: C3_3  and  C4_4 
REMARK    3  A    between atoms: C4_4  and  O1_5 
REMARK    4  A    between atoms: O1_5  and  C5_6 
REMARK    5  A    between atoms: C6_7  and  O2_8 
REMARK    6  A    between atoms: C9_11  and  O3_12 
REMARK    7  A    between atoms: C12_16  and  O4_17 
REMARK    8  A    between atoms: O4_17  and  C13_18 
ROOT
HETATM    1  C5  UNL     1      -5.409 -23.324  28.136  1.00  0.00     0.114 A 
HETATM    2  C6  UNL     1      -4.355 -22.426  27.921  1.00  0.00     0.104 A 
HETATM    3  C8  UNL     1      -3.778 -21.745  28.961  1.00  0.00     0.076 A 
HETATM    4  C9  UNL     1      -4.257 -21.966  30.221  1.00  0.00     0.075 A 
HETATM    5  C10 UNL     1      -5.311 -22.855  30.458  1.00  0.00    -0.010 A 
HETATM    6  C11 UNL     1      -5.896 -23.539  29.391  1.00  0.00     0.052 A 
HETATM    7  C12 UNL     1      -7.183 -24.341  29.590  1.00  0.00     0.235 C 
HETATM    8  O5  UNL     1      -8.003 -23.931  28.512  1.00  0.00    -0.309 OA
HETATM    9  C16 UNL     1      -8.698 -22.790  28.678  1.00  0.00     0.197 C 
HETATM   10  C17 UNL     1      -8.872 -22.119  27.298  1.00  0.00     0.082 C 
HETATM   11  C18 UNL     1     -10.110 -22.920  29.184  1.00  0.00     0.072 C 
HETATM   12  C19 UNL     1     -10.296 -23.811  30.326  1.00  0.00     0.014 C 
HETATM   13  C20 UNL     1      -9.130 -23.890  31.269  1.00  0.00     0.033 C 
HETATM   14  C21 UNL     1      -9.402 -24.910  32.367  1.00  0.00    -0.011 C 
HETATM   15  C22 UNL     1     -10.803 -24.549  32.905  1.00  0.00     0.010 C 
HETATM   16  C23 UNL     1      -8.479 -24.781  33.538  1.00  0.00     0.005 C 
HETATM   17  C24 UNL     1      -7.514 -23.672  33.305  1.00  0.00     0.009 C 
HETATM   18  C25 UNL     1      -6.838 -23.972  31.958  1.00  0.00     0.034 C 
HETATM   19  C26 UNL     1      -5.697 -23.002  31.884  1.00  0.00     0.050 C 
HETATM   20  C27 UNL     1      -7.785 -23.697  30.795  1.00  0.00     0.165 C 
HETATM   21  O6  UNL     1      -7.652 -22.276  30.595  1.00  0.00    -0.220 OA
HETATM   22  O7  UNL     1      -8.042 -21.878  29.452  1.00  0.00    -0.200 OA
ENDROOT
BRANCH   1  23
HETATM   23  O1  UNL     1      -5.918 -23.970  27.030  1.00  0.00    -0.347 OA
BRANCH  23  24
HETATM   24  C4  UNL     1      -5.261 -25.104  26.567  1.00  0.00     0.179 C 
BRANCH  24  25
HETATM   25  C3  UNL     1      -5.793 -25.916  25.470  1.00  0.00     0.053 C 
BRANCH  25  26
HETATM   26  C2  UNL     1      -5.472 -25.198  24.171  1.00  0.00    -0.035 C 
HETATM   27  C1  UNL     1      -5.088 -25.833  23.091  1.00  0.00     0.007 C 
ENDBRANCH  25  26
ENDBRANCH  24  25
ENDBRANCH  23  24
ENDBRANCH   1  23
BRANCH   2  28
HETATM   28  O2  UNL     1      -3.931 -22.259  26.609  1.00  0.00    -0.353 OA
HETATM   29  C7  UNL     1      -2.592 -22.182  26.226  1.00  0.00     0.210 C 
ENDBRANCH   2  28
BRANCH   7  30
HETATM   30  O4  UNL     1      -6.943 -25.616  29.516  1.00  0.00    -0.344 OA
BRANCH  30  31
HETATM   31  C13 UNL     1      -7.705 -26.659  29.295  1.00  0.00     0.117 C 
HETATM   32  C14 UNL     1      -7.351 -27.660  28.199  1.00  0.00     0.039 C 
HETATM   33  C15 UNL     1      -7.973 -27.469  30.538  1.00  0.00     0.039 C 
ENDBRANCH  30  31
ENDBRANCH   7  30
BRANCH   4  34
HETATM   34  O3  UNL     1      -3.677 -21.284  31.307  1.00  0.00    -0.360 OA
ATOM     35  H3  UNL     1      -3.764 -21.643  32.182  1.00  0.00     0.217 HD
ENDBRANCH   4  34
TORSDOF 8
ENDMDL
MODEL 2
REMARK VINA RESULT: -7.571597565      2.275      6.219
REMARK  8 active torsions:
REMARK  status: ('A' for Active; 'I' for Inactive)
REMARK    1  A    between atoms: C2_2  and  C3_3 
REMARK    2  A    between atoms: C3_3  and  C4_4 
REMARK    3  A    between atoms: C4_4  and  O1_5 
REMARK    4  A    between atoms: O1_5  and  C5_6 
REMARK    5  A    between atoms: C6_7  and  O2_8 
REMARK    6  A    between atoms: C9_11  and  O3_12 
REMARK    7  A    between atoms: C12_16  and  O4_17 
REMARK    8  A    between atoms: O4_17  and  C13_18 
ROOT
HETATM    1  C5  UNL     1     -10.618 -24.126  30.042  1.00  0.00     0.114 A 
HETATM    2  C6  UNL     1     -11.818 -23.409  30.142  1.00  0.00     0.104 A 
HETATM    3  C8  UNL     1     -12.045 -22.295  29.376  1.00  0.00     0.076 A 
HETATM    4  C9  UNL     1     -11.068 -21.899  28.507  1.00  0.00     0.075 A 
HETATM    5  C10 UNL     1      -9.861 -22.597  28.395  1.00  0.00    -0.010 A 
HETATM    6  C11 UNL     1      -9.637 -23.727  29.184  1.00  0.00     0.052 A 
HETATM    7  C12 UNL     1      -8.253 -24.375  29.243  1.00  0.00     0.235 C 
HETATM    8  O5  UNL     1      -8.028 -24.558  30.627  1.00  0.00    -0.309 OA
HETATM    9  C16 UNL     1      -7.553 -23.499  31.311  1.00  0.00     0.197 C 
HETATM   10  C17 UNL     1      -8.077 -23.579  32.761  1.00  0.00     0.082 C 
HETATM   11  C18 UNL     1      -6.060 -23.414  31.484  1.00  0.00     0.072 C 
HETATM   12  C19 UNL     1      -5.267 -23.653  30.281  1.00  0.00     0.014 C 
HETATM   13  C20 UNL     1      -5.918 -23.234  28.994  1.00  0.00     0.033 C 
HETATM   14  C21 UNL     1      -5.042 -23.609  27.807  1.00  0.00    -0.011 C 
HETATM   15  C22 UNL     1      -3.638 -23.077  28.167  1.00  0.00     0.010 C 
HETATM   16  C23 UNL     1      -5.423 -22.906  26.542  1.00  0.00     0.005 C 
HETATM   17  C24 UNL     1      -6.590 -22.015  26.788  1.00  0.00     0.009 C 
HETATM   18  C25 UNL     1      -7.681 -22.904  27.406  1.00  0.00     0.034 C 
HETATM   19  C26 UNL     1      -8.915 -22.053  27.389  1.00  0.00     0.050 C 
HETATM   20  C27 UNL     1      -7.350 -23.250  28.854  1.00  0.00     0.165 C 
HETATM   21  O6  UNL     1      -7.817 -22.096  29.581  1.00  0.00    -0.220 OA
HETATM   22  O7  UNL     1      -8.002 -22.308  30.821  1.00  0.00    -0.200 OA
ENDROOT
BRANCH   1  23
HETATM   23  O1  UNL     1     -10.484 -25.239  30.844  1.00  0.00    -0.347 OA
BRANCH  23  24
HETATM   24  C4  UNL     1     -11.129 -26.409  30.462  1.00  0.00     0.179 C 
BRANCH  24  25
HETATM   25  C3  UNL     1     -11.547 -26.648  29.079  1.00  0.00     0.053 C 
BRANCH  25  26
HETATM   26  C2  UNL     1     -12.884 -27.367  29.121  1.00  0.00    -0.035 C 
HETATM   27  C1  UNL     1     -13.847 -27.115  28.270  1.00  0.00     0.007 C 
ENDBRANCH  25  26
ENDBRANCH  24  25
ENDBRANCH  23  24
ENDBRANCH   1  23
BRANCH   2  28
HETATM   28  O2  UNL     1     -12.756 -23.880  31.051  1.00  0.00    -0.353 OA
HETATM   29  C7  UNL     1     -14.055 -24.255  30.708  1.00  0.00     0.210 C 
ENDBRANCH   2  28
BRANCH   7  30
HETATM   30  O4  UNL     1      -8.257 -25.520  28.630  1.00  0.00    -0.344 OA
BRANCH  30  31
HETATM   31  C13 UNL     1      -7.472 -26.568  28.685  1.00  0.00     0.117 C 
HETATM   32  C14 UNL     1      -8.029 -27.935  29.073  1.00  0.00     0.039 C 
HETATM   33  C15 UNL     1      -6.677 -26.778  27.421  1.00  0.00     0.039 C 
ENDBRANCH  30  31
ENDBRANCH   7  30
BRANCH   4  34
HETATM   34  O3  UNL     1     -11.281 -20.761  27.706  1.00  0.00    -0.360 OA
ATOM     35  H3  UNL     1     -12.168 -20.519  27.470  1.00  0.00     0.217 HD
ENDBRANCH   4  34
TORSDOF 8
ENDMDL
MODEL 3
REMARK VINA RESULT: -7.531213550      2.019      6.438
REMARK  8 active torsions:
REMARK  status: ('A' for Active; 'I' for Inactive)
REMARK    1  A    between atoms: C2_2  and  C3_3 
REMARK    2  A    between atoms: C3_3  and  C4_4 
REMARK    3  A    between atoms: C4_4  and  O1_5 
REMARK    4  A    between atoms: O1_5  and  C5_6 
REMARK    5  A    between atoms: C6_7  and  O2_8 
REMARK    6  A    between atoms: C9_11  and  O3_12 
REMARK    7  A    between atoms: C12_16  and  O4_17 
REMARK    8  A    between atoms: O4_17  and  C13_18 
ROOT
HETATM    1  C5  UNL     1     -10.553 -24.090  29.938  1.00  0.00     0.114 A 
HETATM    2  C6  UNL     1     -11.754 -23.373  30.023  1.00  0.00     0.104 A 
HETATM    3  C8  UNL     1     -11.968 -22.252  29.264  1.00  0.00     0.076 A 
HETATM    4  C9  UNL     1     -10.975 -21.848  28.416  1.00  0.00     0.075 A 
HETATM    5  C10 UNL     1      -9.767 -22.546  28.319  1.00  0.00    -0.010 A 
HETATM    6  C11 UNL     1      -9.557 -23.683  29.102  1.00  0.00     0.052 A 
HETATM    7  C12 UNL     1      -8.175 -24.332  29.179  1.00  0.00     0.235 C 
HETATM    8  O5  UNL     1      -7.974 -24.528  30.566  1.00  0.00    -0.309 OA
HETATM    9  C16 UNL     1      -7.511 -23.476  31.267  1.00  0.00     0.197 C 
HETATM   10  C17 UNL     1      -8.062 -23.569  32.707  1.00  0.00     0.082 C 
HETATM   11  C18 UNL     1      -6.021 -23.393  31.468  1.00  0.00     0.072 C 
HETATM   12  C19 UNL     1      -5.207 -23.621  30.277  1.00  0.00     0.014 C 
HETATM   13  C20 UNL     1      -5.835 -23.190  28.983  1.00  0.00     0.033 C 
HETATM   14  C21 UNL     1      -4.938 -23.555  27.808  1.00  0.00    -0.011 C 
HETATM   15  C22 UNL     1      -3.540 -23.027  28.198  1.00  0.00     0.010 C 
HETATM   16  C23 UNL     1      -5.296 -22.840  26.543  1.00  0.00     0.005 C 
HETATM   17  C24 UNL     1      -6.467 -21.951  26.776  1.00  0.00     0.009 C 
HETATM   18  C25 UNL     1      -7.569 -22.845  27.367  1.00  0.00     0.034 C 
HETATM   19  C26 UNL     1      -8.803 -21.993  27.335  1.00  0.00     0.050 C 
HETATM   20  C27 UNL     1      -7.264 -23.204  28.817  1.00  0.00     0.165 C 
HETATM   21  O6  UNL     1      -7.744 -22.057  29.546  1.00  0.00    -0.220 OA
HETATM   22  O7  UNL     1      -7.951 -22.280  30.781  1.00  0.00    -0.200 OA
ENDROOT
BRANCH   1  23
HETATM   23  O1  UNL     1     -10.435 -25.210  30.732  1.00  0.00    -0.347 OA
BRANCH  23  24
HETATM   24  C4  UNL     1     -10.956 -26.410  30.263  1.00  0.00     0.179 C 
BRANCH  24  25
HETATM   25  C3  UNL     1     -11.743 -27.300  31.119  1.00  0.00     0.053 C 
BRANCH  25  26
HETATM   26  C2  UNL     1     -11.595 -26.812  32.549  1.00  0.00    -0.035 C 
HETATM   27  C1  UNL     1     -12.624 -26.535  33.311  1.00  0.00     0.007 C 
ENDBRANCH  25  26
ENDBRANCH  24  25
ENDBRANCH  23  24
ENDBRANCH   1  23
BRANCH   2  28
HETATM   28  O2  UNL     1     -12.709 -23.851  30.911  1.00  0.00    -0.353 OA
HETATM   29  C7  UNL     1     -13.983 -24.274  30.533  1.00  0.00     0.210 C 
ENDBRANCH   2  28
BRANCH   7  30
HETATM   30  O4  UNL     1      -8.169 -25.472  28.555  1.00  0.00    -0.344 OA
BRANCH  30  31
HETATM   31  C13 UNL     1      -7.350 -26.495  28.570  1.00  0.00     0.117 C 
HETATM   32  C14 UNL     1      -7.843 -27.876  28.993  1.00  0.00     0.039 C 
HETATM   33  C15 UNL     1      -6.622 -26.688  27.263  1.00  0.00     0.039 C 
ENDBRANCH  30  31
ENDBRANCH   7  30
BRANCH   4  34
HETATM   34  O3  UNL     1     -11.173 -20.703  27.622  1.00  0.00    -0.360 OA
ATOM     35  H3  UNL     1     -10.786 -20.666  26.756  1.00  0.00     0.217 HD
ENDBRANCH   4  34
TORSDOF 8
ENDMDL
MODEL 4
REMARK VINA RESULT: -7.233646035      1.229      1.554
REMARK  8 active torsions:
REMARK  status: ('A' for Active; 'I' for Inactive)
REMARK    1  A    between atoms: C2_2  and  C3_3 
REMARK    2  A    between atoms: C3_3  and  C4_4 
REMARK    3  A    between atoms: C4_4  and  O1_5 
REMARK    4  A    between atoms: O1_5  and  C5_6 
REMARK    5  A    between atoms: C6_7  and  O2_8 
REMARK    6  A    between atoms: C9_11  and  O3_12 
REMARK    7  A    between atoms: C12_16  and  O4_17 
REMARK    8  A    between atoms: O4_17  and  C13_18 
ROOT
HETATM    1  C5  UNL     1      -5.620 -22.712  28.195  1.00  0.00     0.114 A 
HETATM    2  C6  UNL     1      -4.736 -21.625  28.219  1.00  0.00     0.104 A 
HETATM    3  C8  UNL     1      -4.164 -21.201  29.391  1.00  0.00     0.076 A 
HETATM    4  C9  UNL     1      -4.479 -21.868  30.541  1.00  0.00     0.075 A 
HETATM    5  C10 UNL     1      -5.363 -22.952  30.540  1.00  0.00    -0.010 A 
HETATM    6  C11 UNL     1      -5.944 -23.372  29.342  1.00  0.00     0.052 A 
HETATM    7  C12 UNL     1      -7.074 -24.403  29.343  1.00  0.00     0.235 C 
HETATM    8  O5  UNL     1      -8.048 -23.833  28.489  1.00  0.00    -0.309 OA
HETATM    9  C16 UNL     1      -8.882 -22.930  29.037  1.00  0.00     0.197 C 
HETATM   10  C17 UNL     1      -9.288 -21.915  27.946  1.00  0.00     0.082 C 
HETATM   11  C18 UNL     1     -10.203 -23.443  29.545  1.00  0.00     0.072 C 
HETATM   12  C19 UNL     1     -10.143 -24.653  30.360  1.00  0.00     0.014 C 
HETATM   13  C20 UNL     1      -8.891 -24.814  31.173  1.00  0.00     0.033 C 
HETATM   14  C21 UNL     1      -8.901 -26.146  31.909  1.00  0.00    -0.011 C 
HETATM   15  C22 UNL     1     -10.280 -26.206  32.601  1.00  0.00     0.010 C 
HETATM   16  C23 UNL     1      -7.896 -26.222  33.015  1.00  0.00     0.005 C 
HETATM   17  C24 UNL     1      -7.131 -24.947  33.093  1.00  0.00     0.009 C 
HETATM   18  C25 UNL     1      -6.554 -24.710  31.688  1.00  0.00     0.034 C 
HETATM   19  C26 UNL     1      -5.581 -23.583  31.865  1.00  0.00     0.050 C 
HETATM   20  C27 UNL     1      -7.642 -24.263  30.718  1.00  0.00     0.165 C 
HETATM   21  O6  UNL     1      -7.739 -22.846  30.965  1.00  0.00    -0.220 OA
HETATM   22  O7  UNL     1      -8.294 -22.195  30.024  1.00  0.00    -0.200 OA
ENDROOT
BRANCH   1  23
HETATM   23  O1  UNL     1      -6.137 -23.072  26.968  1.00  0.00    -0.347 OA
BRANCH  23  24
HETATM   24  C4  UNL     1      -5.299 -23.711  26.062  1.00  0.00     0.179 C 
BRANCH  24  25
HETATM   25  C3  UNL     1      -4.092 -24.422  26.489  1.00  0.00     0.053 C 
BRANCH  25  26
HETATM   26  C2  UNL     1      -2.898 -23.698  25.893  1.00  0.00    -0.035 C 
HETATM   27  C1  UNL     1      -1.843 -23.377  26.600  1.00  0.00     0.007 C 
ENDBRANCH  25  26
ENDBRANCH  24  25
ENDBRANCH  23  24
ENDBRANCH   1  23
BRANCH   2  28
HETATM   28  O2  UNL     1      -4.473 -21.003  27.006  1.00  0.00    -0.353 OA
HETATM   29  C7  UNL     1      -3.489 -20.031  26.825  1.00  0.00     0.210 C 
ENDBRANCH   2  28
BRANCH   7  30
HETATM   30  O4  UNL     1      -6.660 -25.537  28.864  1.00  0.00    -0.344 OA
BRANCH  30  31
HETATM   31  C13 UNL     1      -7.249 -26.491  28.186  1.00  0.00     0.117 C 
HETATM   32  C14 UNL     1      -6.618 -27.040  26.910  1.00  0.00     0.039 C 
HETATM   33  C15 UNL     1      -7.599 -27.689  29.034  1.00  0.00     0.039 C 
ENDBRANCH  30  31
ENDBRANCH   7  30
BRANCH   4  34
HETATM   34  O3  UNL     1      -3.900 -21.455  31.756  1.00  0.00    -0.360 OA
ATOM     35  H3  UNL     1      -3.161 -21.938  32.105  1.00  0.00     0.217 HD
ENDBRANCH   4  34
TORSDOF 8
ENDMDL
MODEL 5
REMARK VINA RESULT: -7.152718565      1.497      1.996
REMARK  8 active torsions:
REMARK  status: ('A' for Active; 'I' for Inactive)
REMARK    1  A    between atoms: C2_2  and  C3_3 
REMARK    2  A    between atoms: C3_3  and  C4_4 
REMARK    3  A    between atoms: C4_4  and  O1_5 
REMARK    4  A    between atoms: O1_5  and  C5_6 
REMARK    5  A    between atoms: C6_7  and  O2_8 
REMARK    6  A    between atoms: C9_11  and  O3_12 
REMARK    7  A    between atoms: C12_16  and  O4_17 
REMARK    8  A    between atoms: O4_17  and  C13_18 
ROOT
HETATM    1  C5  UNL     1      -5.245 -23.251  29.479  1.00  0.00     0.114 A 
HETATM    2  C6  UNL     1      -4.274 -22.337  29.908  1.00  0.00     0.104 A 
HETATM    3  C8  UNL     1      -4.206 -21.933  31.216  1.00  0.00     0.076 A 
HETATM    4  C9  UNL     1      -5.115 -22.448  32.097  1.00  0.00     0.075 A 
HETATM    5  C10 UNL     1      -6.096 -23.358  31.690  1.00  0.00    -0.010 A 
HETATM    6  C11 UNL     1      -6.159 -23.758  30.354  1.00  0.00     0.052 A 
HETATM    7  C12 UNL     1      -7.346 -24.573  29.839  1.00  0.00     0.235 C 
HETATM    8  O5  UNL     1      -7.718 -23.907  28.647  1.00  0.00    -0.309 OA
HETATM    9  C16 UNL     1      -8.520 -22.834  28.776  1.00  0.00     0.197 C 
HETATM   10  C17 UNL     1      -8.204 -21.848  27.630  1.00  0.00     0.082 C 
HETATM   11  C18 UNL     1     -10.001 -23.069  28.636  1.00  0.00     0.072 C 
HETATM   12  C19 UNL     1     -10.535 -24.208  29.377  1.00  0.00     0.014 C 
HETATM   13  C20 UNL     1      -9.824 -24.523  30.661  1.00  0.00     0.033 C 
HETATM   14  C21 UNL     1     -10.409 -25.775  31.301  1.00  0.00    -0.011 C 
HETATM   15  C22 UNL     1     -11.935 -25.542  31.304  1.00  0.00     0.010 C 
HETATM   16  C23 UNL     1     -10.027 -25.942  32.738  1.00  0.00     0.005 C 
HETATM   17  C24 UNL     1      -9.148 -24.818  33.164  1.00  0.00     0.009 C 
HETATM   18  C25 UNL     1      -7.979 -24.790  32.166  1.00  0.00     0.034 C 
HETATM   19  C26 UNL     1      -6.989 -23.841  32.772  1.00  0.00     0.050 C 
HETATM   20  C27 UNL     1      -8.423 -24.234  30.818  1.00  0.00     0.165 C 
HETATM   21  O6  UNL     1      -8.348 -22.808  31.012  1.00  0.00    -0.220 OA
HETATM   22  O7  UNL     1      -8.298 -22.141  29.930  1.00  0.00    -0.200 OA
ENDROOT
BRANCH   1  23
HETATM   23  O1  UNL     1      -5.227 -23.606  28.147  1.00  0.00    -0.347 OA
BRANCH  23  24
HETATM   24  C4  UNL     1      -4.222 -24.459  27.705  1.00  0.00     0.179 C 
BRANCH  24  25
HETATM   25  C3  UNL     1      -3.435 -24.172  26.503  1.00  0.00     0.053 C 
BRANCH  25  26
HETATM   26  C2  UNL     1      -2.046 -23.756  26.953  1.00  0.00    -0.035 C 
HETATM   27  C1  UNL     1      -1.172 -23.219  26.138  1.00  0.00     0.007 C 
ENDBRANCH  25  26
ENDBRANCH  24  25
ENDBRANCH  23  24
ENDBRANCH   1  23
BRANCH   2  28
HETATM   28  O2  UNL     1      -3.390 -21.862  28.946  1.00  0.00    -0.353 OA
HETATM   29  C7  UNL     1      -3.583 -20.685  28.224  1.00  0.00     0.210 C 
ENDBRANCH   2  28
BRANCH   7  30
HETATM   30  O4  UNL     1      -6.986 -25.794  29.582  1.00  0.00    -0.344 OA
BRANCH  30  31
HETATM   31  C13 UNL     1      -7.523 -26.755  28.869  1.00  0.00     0.117 C 
HETATM   32  C14 UNL     1      -6.820 -27.280  27.621  1.00  0.00     0.039 C 
HETATM   33  C15 UNL     1      -7.888 -27.966  29.691  1.00  0.00     0.039 C 
ENDBRANCH  30  31
ENDBRANCH   7  30
BRANCH   4  34
HETATM   34  O3  UNL     1      -5.063 -22.053  33.447  1.00  0.00    -0.360 OA
ATOM     35  H3  UNL     1      -4.307 -21.571  33.761  1.00  0.00     0.217 HD
ENDBRANCH   4  34
TORSDOF 8
ENDMDL
