MODEL 1
REMARK VINA RESULT: -6.868748052      0.000      0.000
REMARK  10 active torsions:
REMARK  status: ('A' for Active; 'I' for Inactive)
REMARK    1  A    between atoms: C2_2  and  C3_3 
REMARK    2  A    between atoms: C5_5  and  C6_6 
REMARK    3  A    between atoms: C8_11  and  C9_12 
REMARK    4  A    between atoms: C9_12  and  O2_14 
REMARK    5  A    between atoms: O2_14  and  C10_15 
REMARK    6  A    between atoms: C10_15  and  C11_16 
REMARK    7  A    between atoms: C13_18  and  N2_19 
REMARK    8  A    between atoms: N2_19  and  N3_21 
REMARK    9  A    between atoms: C16_29  and  O4_30 
REMARK   10  A    between atoms: C20_35  and  C21_36 
ROOT
HETATM    1  C9  UNL     1      -7.770 -22.780  29.198  1.00  0.00     0.311 C 
HETATM    2  O1  UNL     1      -7.136 -21.804  29.605  1.00  0.00    -0.258 OA
ENDROOT
BRANCH   1   3
HETATM    3  C8  UNL     1      -9.021 -23.280  29.867  1.00  0.00     0.122 A 
HETATM    4  C6  UNL     1      -9.133 -23.487  31.221  1.00  0.00     0.022 A 
HETATM    5  S1  UNL     1     -10.751 -24.083  31.336  1.00  0.00    -0.086 SA
HETATM    6  C7  UNL     1     -11.173 -24.029  29.694  1.00  0.00     0.139 A 
HETATM    7  N1  UNL     1     -10.088 -23.572  29.146  1.00  0.00    -0.354 N 
ATOM      8  H1  UNL     1     -10.059 -23.436  28.136  1.00  0.00     0.166 HD
BRANCH   4   9
HETATM    9  C5  UNL     1      -8.153 -23.240  32.329  1.00  0.00     0.045 C 
HETATM   10  C3  UNL     1      -7.138 -24.295  32.592  1.00  0.00    -0.014 C 
HETATM   11  C4  UNL     1      -5.707 -23.850  32.308  1.00  0.00     0.021 C 
HETATM   12  C24 UNL     1      -7.492 -24.301  34.058  1.00  0.00     0.011 C 
HETATM   13  C17 UNL     1      -8.825 -23.663  33.643  1.00  0.00     0.001 C 
HETATM   14  C20 UNL     1      -6.890 -23.278  34.945  1.00  0.00     0.019 C 
HETATM   15  C18 UNL     1      -9.089 -22.592  34.639  1.00  0.00     0.006 C 
HETATM   16  C19 UNL     1      -8.119 -22.894  35.799  1.00  0.00     0.010 C 
BRANCH  10  17
HETATM   17  C2  UNL     1      -7.377 -25.640  32.034  1.00  0.00    -0.027 C 
HETATM   18  C1  UNL     1      -7.208 -26.711  32.782  1.00  0.00     0.008 C 
ENDBRANCH  10  17
BRANCH  14  19
HETATM   19  C21 UNL     1      -5.794 -23.762  35.809  1.00  0.00    -0.089 C 
HETATM   20  C22 UNL     1      -4.843 -22.943  36.236  1.00  0.00     0.014 C 
HETATM   21  C23 UNL     1      -5.730 -25.203  36.228  1.00  0.00     0.043 C 
ENDBRANCH  14  19
ENDBRANCH   4   9
ENDBRANCH   1   3
BRANCH   1  22
HETATM   22  O2  UNL     1      -7.269 -23.417  28.069  1.00  0.00    -0.316 OA
BRANCH  22  23
HETATM   23  C10 UNL     1      -7.441 -22.914  26.755  1.00  0.00     0.188 C 
BRANCH  23  24
HETATM   24  C11 UNL     1      -6.036 -22.764  26.131  1.00  0.00     0.067 C 
HETATM   25  C12 UNL     1      -5.249 -21.712  26.837  1.00  0.00     0.041 C 
HETATM   26  C13 UNL     1      -3.989 -22.158  27.494  1.00  0.00     0.130 C 
HETATM   27  C14 UNL     1      -3.394 -23.266  26.627  1.00  0.00     0.144 C 
HETATM   28  C15 UNL     1      -1.990 -23.594  27.008  1.00  0.00     0.042 C 
HETATM   29  O3  UNL     1      -4.284 -24.335  26.760  1.00  0.00    -0.354 OA
HETATM   30  C16 UNL     1      -5.379 -24.092  25.974  1.00  0.00     0.263 C 
BRANCH  26  31
HETATM   31  N2  UNL     1      -4.238 -22.620  28.843  1.00  0.00    -0.315 N 
ATOM     32  H2  UNL     1      -4.638 -23.548  28.984  1.00  0.00     0.182 HD
BRANCH  31  33
HETATM   33  N3  UNL     1      -3.978 -21.917  29.831  1.00  0.00    -0.253 N 
HETATM   34  N4  UNL     1      -4.115 -20.943  30.587  1.00  0.00    -0.331 N 
ATOM     35  H42 UNL     1      -4.875 -20.457  30.109  1.00  0.00     0.178 HD
ATOM     36  H41 UNL     1      -3.902 -20.365  31.400  1.00  0.00     0.178 HD
ATOM     37  H3  UNL     1      -3.221 -22.435  30.277  1.00  0.00     0.207 HD
ENDBRANCH  31  33
ENDBRANCH  26  31
BRANCH  30  38
HETATM   38  O4  UNL     1      -5.112 -24.379  24.613  1.00  0.00    -0.371 OA
ATOM     39  H4  UNL     1      -4.287 -24.838  24.510  1.00  0.00     0.212 HD
ENDBRANCH  30  38
ENDBRANCH  23  24
ENDBRANCH  22  23
ENDBRANCH   1  22
TORSDOF 10
ENDMDL
MODEL 2
REMARK VINA RESULT: -6.810791586      1.924      2.682
REMARK  10 active torsions:
REMARK  status: ('A' for Active; 'I' for Inactive)
REMARK    1  A    between atoms: C2_2  and  C3_3 
REMARK    2  A    between atoms: C5_5  and  C6_6 
REMARK    3  A    between atoms: C8_11  and  C9_12 
REMARK    4  A    between atoms: C9_12  and  O2_14 
REMARK    5  A    between atoms: O2_14  and  C10_15 
REMARK    6  A    between atoms: C10_15  and  C11_16 
REMARK    7  A    between atoms: C13_18  and  N2_19 
REMARK    8  A    between atoms: N2_19  and  N3_21 
REMARK    9  A    between atoms: C16_29  and  O4_30 
REMARK   10  A    between atoms: C20_35  and  C21_36 
ROOT
HETATM    1  C9  UNL     1      -5.982 -23.997  29.271  1.00  0.00     0.311 C 
HETATM    2  O1  UNL     1      -4.923 -24.075  29.899  1.00  0.00    -0.258 OA
ENDROOT
BRANCH   1   3
HETATM    3  C8  UNL     1      -6.923 -25.158  29.106  1.00  0.00     0.122 A 
HETATM    4  C6  UNL     1      -7.978 -25.413  29.949  1.00  0.00     0.022 A 
HETATM    5  S1  UNL     1      -8.616 -26.864  29.260  1.00  0.00    -0.086 SA
HETATM    6  C7  UNL     1      -7.528 -27.048  27.973  1.00  0.00     0.139 A 
HETATM    7  N1  UNL     1      -6.746 -26.022  28.123  1.00  0.00    -0.354 N 
ATOM      8  H1  UNL     1      -5.978 -25.880  27.467  1.00  0.00     0.166 HD
BRANCH   4   9
HETATM    9  C5  UNL     1      -8.487 -24.643  31.132  1.00  0.00     0.045 C 
HETATM   10  C3  UNL     1      -7.736 -24.775  32.409  1.00  0.00    -0.014 C 
HETATM   11  C4  UNL     1      -7.074 -23.479  32.865  1.00  0.00     0.021 C 
HETATM   12  C24 UNL     1      -9.010 -25.099  33.150  1.00  0.00     0.011 C 
HETATM   13  C17 UNL     1      -9.598 -25.480  31.784  1.00  0.00     0.001 C 
HETATM   14  C20 UNL     1      -9.883 -23.986  33.594  1.00  0.00     0.019 C 
HETATM   15  C18 UNL     1     -10.971 -24.912  31.761  1.00  0.00     0.006 C 
HETATM   16  C19 UNL     1     -11.271 -24.563  33.233  1.00  0.00     0.010 C 
BRANCH  10  17
HETATM   17  C2  UNL     1      -6.799 -25.906  32.547  1.00  0.00    -0.027 C 
HETATM   18  C1  UNL     1      -6.115 -26.072  33.660  1.00  0.00     0.008 C 
ENDBRANCH  10  17
BRANCH  14  19
HETATM   19  C21 UNL     1      -9.817 -23.673  35.036  1.00  0.00    -0.089 C 
HETATM   20  C22 UNL     1     -10.215 -24.549  35.948  1.00  0.00     0.014 C 
HETATM   21  C23 UNL     1      -9.293 -22.346  35.507  1.00  0.00     0.043 C 
ENDBRANCH  14  19
ENDBRANCH   4   9
ENDBRANCH   1   3
BRANCH   1  22
HETATM   22  O2  UNL     1      -6.278 -22.761  28.708  1.00  0.00    -0.316 OA
BRANCH  22  23
HETATM   23  C10 UNL     1      -6.816 -22.613  27.404  1.00  0.00     0.188 C 
BRANCH  23  24
HETATM   24  C11 UNL     1      -5.627 -22.444  26.433  1.00  0.00     0.067 C 
HETATM   25  C12 UNL     1      -4.754 -21.309  26.849  1.00  0.00     0.041 C 
HETATM   26  C13 UNL     1      -3.343 -21.647  27.185  1.00  0.00     0.130 C 
HETATM   27  C14 UNL     1      -2.919 -22.786  26.262  1.00  0.00     0.144 C 
HETATM   28  C15 UNL     1      -1.446 -23.020  26.288  1.00  0.00     0.042 C 
HETATM   29  O3  UNL     1      -3.677 -23.883  26.682  1.00  0.00    -0.354 OA
HETATM   30  C16 UNL     1      -4.947 -23.749  26.190  1.00  0.00     0.263 C 
BRANCH  26  31
HETATM   31  N2  UNL     1      -3.213 -22.019  28.578  1.00  0.00    -0.315 N 
ATOM     32  H2  UNL     1      -2.711 -22.875  28.818  1.00  0.00     0.182 HD
BRANCH  31  33
HETATM   33  N3  UNL     1      -3.696 -21.326  29.487  1.00  0.00    -0.253 N 
HETATM   34  N4  UNL     1      -4.247 -21.129  30.580  1.00  0.00    -0.331 N 
ATOM     35  H42 UNL     1      -4.358 -22.093  30.896  1.00  0.00     0.178 HD
ATOM     36  H41 UNL     1      -4.644 -20.559  31.327  1.00  0.00     0.178 HD
ATOM     37  H3  UNL     1      -3.566 -20.378  29.133  1.00  0.00     0.207 HD
ENDBRANCH  31  33
ENDBRANCH  26  31
BRANCH  30  38
HETATM   38  O4  UNL     1      -5.017 -24.123  24.826  1.00  0.00    -0.371 OA
ATOM     39  H4  UNL     1      -4.371 -24.786  24.615  1.00  0.00     0.212 HD
ENDBRANCH  30  38
ENDBRANCH  23  24
ENDBRANCH  22  23
ENDBRANCH   1  22
TORSDOF 10
ENDMDL
MODEL 3
REMARK VINA RESULT: -6.810765852      3.186      7.694
REMARK  10 active torsions:
REMARK  status: ('A' for Active; 'I' for Inactive)
REMARK    1  A    between atoms: C2_2  and  C3_3 
REMARK    2  A    between atoms: C5_5  and  C6_6 
REMARK    3  A    between atoms: C8_11  and  C9_12 
REMARK    4  A    between atoms: C9_12  and  O2_14 
REMARK    5  A    between atoms: O2_14  and  C10_15 
REMARK    6  A    between atoms: C10_15  and  C11_16 
REMARK    7  A    between atoms: C13_18  and  N2_19 
REMARK    8  A    between atoms: N2_19  and  N3_21 
REMARK    9  A    between atoms: C16_29  and  O4_30 
REMARK   10  A    between atoms: C20_35  and  C21_36 
ROOT
HETATM    1  C9  UNL     1      -9.579 -22.884  29.744  1.00  0.00     0.311 C 
HETATM    2  O1  UNL     1      -9.541 -21.898  29.006  1.00  0.00    -0.258 OA
ENDROOT
BRANCH   1   3
HETATM    3  C8  UNL     1      -8.542 -23.156  30.800  1.00  0.00     0.122 A 
HETATM    4  C6  UNL     1      -7.192 -23.212  30.548  1.00  0.00     0.022 A 
HETATM    5  S1  UNL     1      -6.573 -23.588  32.117  1.00  0.00    -0.086 SA
HETATM    6  C7  UNL     1      -8.036 -23.646  32.973  1.00  0.00     0.139 A 
HETATM    7  N1  UNL     1      -8.907 -23.384  32.048  1.00  0.00    -0.354 N 
ATOM      8  H1  UNL     1      -9.898 -23.353  32.290  1.00  0.00     0.166 HD
BRANCH   4   9
HETATM    9  C5  UNL     1      -6.427 -22.979  29.279  1.00  0.00     0.045 C 
HETATM   10  C3  UNL     1      -6.420 -24.075  28.273  1.00  0.00    -0.014 C 
HETATM   11  C4  UNL     1      -7.126 -23.713  26.970  1.00  0.00     0.021 C 
HETATM   12  C24 UNL     1      -4.916 -24.015  28.185  1.00  0.00     0.011 C 
HETATM   13  C17 UNL     1      -4.956 -23.324  29.555  1.00  0.00     0.001 C 
HETATM   14  C20 UNL     1      -4.288 -22.995  27.311  1.00  0.00     0.019 C 
HETATM   15  C18 UNL     1      -3.977 -22.209  29.476  1.00  0.00     0.006 C 
HETATM   16  C19 UNL     1      -3.134 -22.522  28.223  1.00  0.00     0.010 C 
BRANCH  10  17
HETATM   17  C2  UNL     1      -6.823 -25.424  28.717  1.00  0.00    -0.027 C 
HETATM   18  C1  UNL     1      -6.722 -26.451  27.899  1.00  0.00     0.008 C 
ENDBRANCH  10  17
BRANCH  14  19
HETATM   19  C21 UNL     1      -3.757 -23.506  26.032  1.00  0.00    -0.089 C 
HETATM   20  C22 UNL     1      -4.533 -24.157  25.177  1.00  0.00     0.014 C 
HETATM   21  C23 UNL     1      -2.314 -23.300  25.666  1.00  0.00     0.043 C 
ENDBRANCH  14  19
ENDBRANCH   4   9
ENDBRANCH   1   3
BRANCH   1  22
HETATM   22  O2  UNL     1     -10.644 -23.757  29.558  1.00  0.00    -0.316 OA
BRANCH  22  23
HETATM   23  C10 UNL     1     -10.493 -25.167  29.524  1.00  0.00     0.188 C 
BRANCH  23  24
HETATM   24  C11 UNL     1     -11.431 -25.757  30.600  1.00  0.00     0.067 C 
HETATM   25  C12 UNL     1     -11.954 -24.686  31.497  1.00  0.00     0.041 C 
HETATM   26  C13 UNL     1     -13.431 -24.499  31.513  1.00  0.00     0.130 C 
HETATM   27  C14 UNL     1     -14.064 -25.876  31.330  1.00  0.00     0.144 C 
HETATM   28  C15 UNL     1     -15.526 -25.873  31.623  1.00  0.00     0.042 C 
HETATM   29  O3  UNL     1     -13.747 -26.239  30.018  1.00  0.00    -0.354 OA
HETATM   30  C16 UNL     1     -12.445 -26.660  29.985  1.00  0.00     0.263 C 
BRANCH  26  31
HETATM   31  N2  UNL     1     -13.853 -23.582  30.476  1.00  0.00    -0.315 N 
ATOM     32  H2  UNL     1     -14.688 -23.797  29.932  1.00  0.00     0.182 HD
BRANCH  31  33
HETATM   33  N3  UNL     1     -13.224 -22.541  30.230  1.00  0.00    -0.253 N 
HETATM   34  N4  UNL     1     -12.851 -21.590  29.526  1.00  0.00    -0.331 N 
ATOM     35  H42 UNL     1     -13.359 -21.801  28.666  1.00  0.00     0.178 HD
ATOM     36  H41 UNL     1     -12.335 -20.734  29.324  1.00  0.00     0.178 HD
ATOM     37  H3  UNL     1     -12.735 -22.367  31.108  1.00  0.00     0.207 HD
ENDBRANCH  31  33
ENDBRANCH  26  31
BRANCH  30  38
HETATM   38  O4  UNL     1     -12.317 -27.986  30.466  1.00  0.00    -0.371 OA
ATOM     39  H4  UNL     1     -11.421 -28.179  30.716  1.00  0.00     0.212 HD
ENDBRANCH  30  38
ENDBRANCH  23  24
ENDBRANCH  22  23
ENDBRANCH   1  22
TORSDOF 10
ENDMDL
MODEL 4
REMARK VINA RESULT: -6.807759846      2.175      4.930
REMARK  10 active torsions:
REMARK  status: ('A' for Active; 'I' for Inactive)
REMARK    1  A    between atoms: C2_2  and  C3_3 
REMARK    2  A    between atoms: C5_5  and  C6_6 
REMARK    3  A    between atoms: C8_11  and  C9_12 
REMARK    4  A    between atoms: C9_12  and  O2_14 
REMARK    5  A    between atoms: O2_14  and  C10_15 
REMARK    6  A    between atoms: C10_15  and  C11_16 
REMARK    7  A    between atoms: C13_18  and  N2_19 
REMARK    8  A    between atoms: N2_19  and  N3_21 
REMARK    9  A    between atoms: C16_29  and  O4_30 
REMARK   10  A    between atoms: C20_35  and  C21_36 
ROOT
HETATM    1  C9  UNL     1      -7.400 -22.741  29.599  1.00  0.00     0.311 C 
HETATM    2  O1  UNL     1      -8.315 -21.915  29.579  1.00  0.00    -0.258 OA
ENDROOT
BRANCH   1   3
HETATM    3  C8  UNL     1      -7.248 -23.767  30.688  1.00  0.00     0.122 A 
HETATM    4  C6  UNL     1      -8.138 -24.793  30.901  1.00  0.00     0.022 A 
HETATM    5  S1  UNL     1      -7.438 -25.564  32.280  1.00  0.00    -0.086 SA
HETATM    6  C7  UNL     1      -6.089 -24.558  32.492  1.00  0.00     0.139 A 
HETATM    7  N1  UNL     1      -6.231 -23.701  31.527  1.00  0.00    -0.354 N 
ATOM      8  H1  UNL     1      -5.540 -22.959  31.413  1.00  0.00     0.166 HD
BRANCH   4   9
HETATM    9  C5  UNL     1      -9.370 -25.188  30.141  1.00  0.00     0.045 C 
HETATM   10  C3  UNL     1     -10.670 -24.643  30.616  1.00  0.00    -0.014 C 
HETATM   11  C4  UNL     1     -11.335 -23.695  29.624  1.00  0.00     0.021 C 
HETATM   12  C24 UNL     1     -11.270 -26.027  30.628  1.00  0.00     0.011 C 
HETATM   13  C17 UNL     1      -9.828 -26.551  30.679  1.00  0.00     0.001 C 
HETATM   14  C20 UNL     1     -11.790 -26.594  29.361  1.00  0.00     0.019 C 
HETATM   15  C18 UNL     1      -9.779 -27.699  29.736  1.00  0.00     0.006 C 
HETATM   16  C19 UNL     1     -11.259 -28.042  29.468  1.00  0.00     0.010 C 
BRANCH  10  17
HETATM   17  C2  UNL     1     -10.729 -24.082  31.980  1.00  0.00    -0.027 C 
HETATM   18  C1  UNL     1     -11.503 -24.631  32.893  1.00  0.00     0.008 C 
ENDBRANCH  10  17
BRANCH  14  19
HETATM   19  C21 UNL     1     -13.261 -26.595  29.230  1.00  0.00    -0.089 C 
HETATM   20  C22 UNL     1     -14.036 -26.107  30.188  1.00  0.00     0.014 C 
HETATM   21  C23 UNL     1     -13.919 -27.153  28.000  1.00  0.00     0.043 C 
ENDBRANCH  14  19
ENDBRANCH   4   9
ENDBRANCH   1   3
BRANCH   1  22
HETATM   22  O2  UNL     1      -6.491 -22.685  28.549  1.00  0.00    -0.316 OA
BRANCH  22  23
HETATM   23  C10 UNL     1      -6.861 -22.880  27.194  1.00  0.00     0.188 C 
BRANCH  23  24
HETATM   24  C11 UNL     1      -5.602 -22.634  26.333  1.00  0.00     0.067 C 
HETATM   25  C12 UNL     1      -4.790 -21.511  26.884  1.00  0.00     0.041 C 
HETATM   26  C13 UNL     1      -3.404 -21.845  27.314  1.00  0.00     0.130 C 
HETATM   27  C14 UNL     1      -2.882 -22.920  26.364  1.00  0.00     0.144 C 
HETATM   28  C15 UNL     1      -1.411 -23.131  26.496  1.00  0.00     0.042 C 
HETATM   29  O3  UNL     1      -3.647 -24.052  26.657  1.00  0.00    -0.354 OA
HETATM   30  C16 UNL     1      -4.877 -23.911  26.072  1.00  0.00     0.263 C 
BRANCH  26  31
HETATM   31  N2  UNL     1      -3.378 -22.297  28.689  1.00  0.00    -0.315 N 
ATOM     32  H2  UNL     1      -2.905 -23.172  28.915  1.00  0.00     0.182 HD
BRANCH  31  33
HETATM   33  N3  UNL     1      -3.915 -21.648  29.599  1.00  0.00    -0.253 N 
HETATM   34  N4  UNL     1      -3.935 -20.971  30.638  1.00  0.00    -0.331 N 
ATOM     35  H42 UNL     1      -2.937 -20.944  30.848  1.00  0.00     0.178 HD
ATOM     36  H41 UNL     1      -4.377 -20.437  31.387  1.00  0.00     0.178 HD
ATOM     37  H3  UNL     1      -4.903 -21.699  29.352  1.00  0.00     0.207 HD
ENDBRANCH  31  33
ENDBRANCH  26  31
BRANCH  30  38
HETATM   38  O4  UNL     1      -4.829 -24.204  24.688  1.00  0.00    -0.371 OA
ATOM     39  H4  UNL     1      -4.583 -25.109  24.534  1.00  0.00     0.212 HD
ENDBRANCH  30  38
ENDBRANCH  23  24
ENDBRANCH  22  23
ENDBRANCH   1  22
TORSDOF 10
ENDMDL
MODEL 5
REMARK VINA RESULT: -6.767631917      2.093      4.475
REMARK  10 active torsions:
REMARK  status: ('A' for Active; 'I' for Inactive)
REMARK    1  A    between atoms: C2_2  and  C3_3 
REMARK    2  A    between atoms: C5_5  and  C6_6 
REMARK    3  A    between atoms: C8_11  and  C9_12 
REMARK    4  A    between atoms: C9_12  and  O2_14 
REMARK    5  A    between atoms: O2_14  and  C10_15 
REMARK    6  A    between atoms: C10_15  and  C11_16 
REMARK    7  A    between atoms: C13_18  and  N2_19 
REMARK    8  A    between atoms: N2_19  and  N3_21 
REMARK    9  A    between atoms: C16_29  and  O4_30 
REMARK   10  A    between atoms: C20_35  and  C21_36 
ROOT
HETATM    1  C9  UNL     1      -6.456 -24.363  29.672  1.00  0.00     0.311 C 
HETATM    2  O1  UNL     1      -6.456 -25.519  29.243  1.00  0.00    -0.258 OA
ENDROOT
BRANCH   1   3
HETATM    3  C8  UNL     1      -6.633 -24.031  31.129  1.00  0.00     0.122 A 
HETATM    4  C6  UNL     1      -7.804 -24.226  31.820  1.00  0.00     0.022 A 
HETATM    5  S1  UNL     1      -7.376 -23.624  33.383  1.00  0.00    -0.086 SA
HETATM    6  C7  UNL     1      -5.771 -23.176  33.065  1.00  0.00     0.139 A 
HETATM    7  N1  UNL     1      -5.639 -23.496  31.814  1.00  0.00    -0.354 N 
ATOM      8  H1  UNL     1      -4.746 -23.331  31.349  1.00  0.00     0.166 HD
BRANCH   4   9
HETATM    9  C5  UNL     1      -9.106 -24.828  31.381  1.00  0.00     0.045 C 
HETATM   10  C3  UNL     1      -9.842 -24.142  30.285  1.00  0.00    -0.014 C 
HETATM   11  C4  UNL     1      -9.949 -24.971  29.009  1.00  0.00     0.021 C 
HETATM   12  C24 UNL     1     -11.105 -24.131  31.109  1.00  0.00     0.011 C 
HETATM   13  C17 UNL     1     -10.197 -24.316  32.333  1.00  0.00     0.001 C 
HETATM   14  C20 UNL     1     -11.955 -25.346  31.134  1.00  0.00     0.019 C 
HETATM   15  C18 UNL     1     -10.871 -25.326  33.191  1.00  0.00     0.006 C 
HETATM   16  C19 UNL     1     -12.309 -25.404  32.638  1.00  0.00     0.010 C 
BRANCH  10  17
HETATM   17  C2  UNL     1      -9.466 -22.752  29.963  1.00  0.00    -0.027 C 
HETATM   18  C1  UNL     1      -9.859 -22.200  28.834  1.00  0.00     0.008 C 
ENDBRANCH  10  17
BRANCH  14  19
HETATM   19  C21 UNL     1     -13.184 -25.269  30.320  1.00  0.00    -0.089 C 
HETATM   20  C22 UNL     1     -14.008 -24.235  30.416  1.00  0.00     0.014 C 
HETATM   21  C23 UNL     1     -13.533 -26.367  29.356  1.00  0.00     0.043 C 
ENDBRANCH  14  19
ENDBRANCH   4   9
ENDBRANCH   1   3
BRANCH   1  22
HETATM   22  O2  UNL     1      -6.284 -23.353  28.733  1.00  0.00    -0.316 OA
BRANCH  22  23
HETATM   23  C10 UNL     1      -6.817 -23.417  27.420  1.00  0.00     0.188 C 
BRANCH  23  24
HETATM   24  C11 UNL     1      -5.706 -22.959  26.449  1.00  0.00     0.067 C 
HETATM   25  C12 UNL     1      -5.026 -21.733  26.957  1.00  0.00     0.041 C 
HETATM   26  C13 UNL     1      -3.568 -21.852  27.236  1.00  0.00     0.130 C 
HETATM   27  C14 UNL     1      -2.987 -22.813  26.202  1.00  0.00     0.144 C 
HETATM   28  C15 UNL     1      -1.495 -22.791  26.181  1.00  0.00     0.042 C 
HETATM   29  O3  UNL     1      -3.533 -24.057  26.529  1.00  0.00    -0.354 OA
HETATM   30  C16 UNL     1      -4.824 -24.099  26.073  1.00  0.00     0.263 C 
BRANCH  26  31
HETATM   31  N2  UNL     1      -3.331 -22.321  28.585  1.00  0.00    -0.315 N 
ATOM     32  H2  UNL     1      -2.756 -23.152  28.728  1.00  0.00     0.182 HD
BRANCH  31  33
HETATM   33  N3  UNL     1      -3.809 -21.740  29.571  1.00  0.00    -0.253 N 
HETATM   34  N4  UNL     1      -3.854 -20.865  30.449  1.00  0.00    -0.331 N 
ATOM     35  H42 UNL     1      -3.019 -20.332  30.207  1.00  0.00     0.178 HD
ATOM     36  H41 UNL     1      -4.247 -20.387  31.260  1.00  0.00     0.178 HD
ATOM     37  H3  UNL     1      -4.635 -22.301  29.778  1.00  0.00     0.207 HD
ENDBRANCH  31  33
ENDBRANCH  26  31
BRANCH  30  38
HETATM   38  O4  UNL     1      -4.873 -24.355  24.681  1.00  0.00    -0.371 OA
ATOM     39  H4  UNL     1      -5.636 -24.871  24.450  1.00  0.00     0.212 HD
ENDBRANCH  30  38
ENDBRANCH  23  24
ENDBRANCH  22  23
ENDBRANCH   1  22
TORSDOF 10
ENDMDL
