MODEL 1
REMARK VINA RESULT: -5.460750792      0.000      0.000
REMARK  0 active torsions:
REMARK  status: ('A' for Active; 'I' for Inactive)
ROOT
HETATM    1  N1  UNL     1      23.548   7.606 -28.809  1.00  0.00    -0.197 NA
HETATM    2  C1  UNL     1      23.840   7.332 -29.897  1.00  0.00     0.069 C 
HETATM    3  C2  UNL     1      24.188   6.977 -31.288  1.00  0.00     0.131 C 
HETATM    4  C3  UNL     1      24.397   8.217 -32.112  1.00  0.00     0.025 C 
HETATM    5  C4  UNL     1      23.182   9.048 -32.303  1.00  0.00     0.006 C 
HETATM    6  C5  UNL     1      22.291   8.731 -33.418  1.00  0.00    -0.012 C 
HETATM    7  C6  UNL     1      20.923   8.334 -32.837  1.00  0.00     0.024 C 
HETATM    8  C7  UNL     1      21.190   7.124 -31.928  1.00  0.00     0.122 C 
HETATM    9  N2  UNL     1      22.137   6.313 -32.515  1.00  0.00    -0.392 N 
HETATM   10  C8  UNL     1      22.149   6.291 -33.940  1.00  0.00     0.122 C 
HETATM   11  C9  UNL     1      22.685   7.668 -34.366  1.00  0.00     0.024 C 
HETATM   12  C10 UNL     1      23.327   5.953 -31.884  1.00  0.00     0.077 C 
ENDROOT
TORSDOF 0
ENDMDL
MODEL 2
REMARK VINA RESULT: -5.419074412      1.653      2.887
REMARK  0 active torsions:
REMARK  status: ('A' for Active; 'I' for Inactive)
ROOT
HETATM    1  N1  UNL     1      23.303   4.263 -31.342  1.00  0.00    -0.197 NA
HETATM    2  C1  UNL     1      22.778   5.284 -31.178  1.00  0.00     0.069 C 
HETATM    3  C2  UNL     1      22.126   6.595 -30.985  1.00  0.00     0.131 C 
HETATM    4  C3  UNL     1      20.825   6.653 -31.738  1.00  0.00     0.025 C 
HETATM    5  C4  UNL     1      20.959   6.591 -33.214  1.00  0.00     0.006 C 
HETATM    6  C5  UNL     1      21.176   7.840 -33.946  1.00  0.00    -0.012 C 
HETATM    7  C6  UNL     1      22.544   7.750 -34.645  1.00  0.00     0.024 C 
HETATM    8  C7  UNL     1      23.573   7.531 -33.524  1.00  0.00     0.122 C 
HETATM    9  N2  UNL     1      23.221   8.290 -32.428  1.00  0.00    -0.392 N 
HETATM   10  C8  UNL     1      22.550   9.517 -32.702  1.00  0.00     0.122 C 
HETATM   11  C9  UNL     1      21.152   9.116 -33.201  1.00  0.00     0.024 C 
HETATM   12  C10 UNL     1      23.016   7.745 -31.162  1.00  0.00     0.077 C 
ENDROOT
TORSDOF 0
ENDMDL
MODEL 3
REMARK VINA RESULT: -5.399430979      1.983      4.069
REMARK  0 active torsions:
REMARK  status: ('A' for Active; 'I' for Inactive)
ROOT
HETATM    1  N1  UNL     1      20.131   6.007 -35.719  1.00  0.00    -0.197 NA
HETATM    2  C1  UNL     1      20.948   6.814 -35.553  1.00  0.00     0.069 C 
HETATM    3  C2  UNL     1      21.977   7.847 -35.320  1.00  0.00     0.131 C 
HETATM    4  C3  UNL     1      23.274   7.213 -34.898  1.00  0.00     0.025 C 
HETATM    5  C4  UNL     1      23.230   6.523 -33.585  1.00  0.00     0.006 C 
HETATM    6  C5  UNL     1      23.483   7.308 -32.377  1.00  0.00    -0.012 C 
HETATM    7  C6  UNL     1      22.213   7.271 -31.510  1.00  0.00     0.024 C 
HETATM    8  C7  UNL     1      21.094   7.864 -32.381  1.00  0.00     0.122 C 
HETATM    9  N2  UNL     1      21.597   8.917 -33.114  1.00  0.00    -0.392 N 
HETATM   10  C8  UNL     1      22.650   9.661 -32.506  1.00  0.00     0.122 C 
HETATM   11  C9  UNL     1      23.871   8.728 -32.518  1.00  0.00     0.024 C 
HETATM   12  C10 UNL     1      21.525   8.977 -34.505  1.00  0.00     0.077 C 
ENDROOT
TORSDOF 0
ENDMDL
MODEL 4
REMARK VINA RESULT: -5.382730000      1.538      2.805
REMARK  0 active torsions:
REMARK  status: ('A' for Active; 'I' for Inactive)
ROOT
HETATM    1  N1  UNL     1      23.862   5.487 -30.562  1.00  0.00    -0.197 NA
HETATM    2  C1  UNL     1      23.067   6.282 -30.845  1.00  0.00     0.069 C 
HETATM    3  C2  UNL     1      22.069   7.301 -31.226  1.00  0.00     0.131 C 
HETATM    4  C3  UNL     1      20.855   6.650 -31.830  1.00  0.00     0.025 C 
HETATM    5  C4  UNL     1      21.098   5.961 -33.121  1.00  0.00     0.006 C 
HETATM    6  C5  UNL     1      21.011   6.744 -34.355  1.00  0.00    -0.012 C 
HETATM    7  C6  UNL     1      22.393   6.725 -35.029  1.00  0.00     0.024 C 
HETATM    8  C7  UNL     1      23.367   7.332 -34.007  1.00  0.00     0.122 C 
HETATM    9  N2  UNL     1      22.749   8.378 -33.355  1.00  0.00    -0.392 N 
HETATM   10  C8  UNL     1      21.785   9.108 -34.110  1.00  0.00     0.122 C 
HETATM   11  C9  UNL     1      20.587   8.158 -34.273  1.00  0.00     0.024 C 
HETATM   12  C10 UNL     1      22.618   8.438 -31.969  1.00  0.00     0.077 C 
ENDROOT
TORSDOF 0
ENDMDL
MODEL 5
REMARK VINA RESULT: -5.359196233      1.570      2.679
REMARK  0 active torsions:
REMARK  status: ('A' for Active; 'I' for Inactive)
ROOT
HETATM    1  N1  UNL     1      23.504   4.066 -30.552  1.00  0.00    -0.197 NA
HETATM    2  C1  UNL     1      22.793   4.515 -31.351  1.00  0.00     0.069 C 
HETATM    3  C2  UNL     1      21.888   5.109 -32.355  1.00  0.00     0.131 C 
HETATM    4  C3  UNL     1      22.635   5.411 -33.625  1.00  0.00     0.025 C 
HETATM    5  C4  UNL     1      23.680   6.457 -33.497  1.00  0.00     0.006 C 
HETATM    6  C5  UNL     1      23.286   7.857 -33.663  1.00  0.00    -0.012 C 
HETATM    7  C6  UNL     1      23.559   8.589 -32.338  1.00  0.00     0.024 C 
HETATM    8  C7  UNL     1      22.721   7.858 -31.276  1.00  0.00     0.122 C 
HETATM    9  N2  UNL     1      21.506   7.501 -31.821  1.00  0.00    -0.392 N 
HETATM   10  C8  UNL     1      20.988   8.370 -32.826  1.00  0.00     0.122 C 
HETATM   11  C9  UNL     1      21.894   8.165 -34.051  1.00  0.00     0.024 C 
HETATM   12  C10 UNL     1      21.040   6.188 -31.843  1.00  0.00     0.077 C 
ENDROOT
TORSDOF 0
ENDMDL
