MODEL 1
REMARK VINA RESULT: -5.847572524      0.000      0.000
REMARK  0 active torsions:
REMARK  status: ('A' for Active; 'I' for Inactive)
ROOT
HETATM    1  C1  UNL     1      20.623   9.353 -34.043  1.00  0.00     0.003 C 
HETATM    2  C2  UNL     1      22.085   9.522 -33.806  1.00  0.00     0.003 C 
HETATM    3  C3  UNL     1      22.464   9.358 -32.326  1.00  0.00     0.041 C 
HETATM    4  C4  UNL     1      22.333   8.009 -31.868  1.00  0.00     0.094 A 
HETATM    5  O1  UNL     1      23.420   7.169 -32.481  1.00  0.00    -0.368 OA
HETATM    6  C5  UNL     1      22.766   6.924 -31.303  1.00  0.00     0.164 A 
HETATM    7  C6  UNL     1      21.453   6.155 -31.539  1.00  0.00     0.051 A 
HETATM    8  C7  UNL     1      21.516   5.158 -32.666  1.00  0.00     0.176 C 
HETATM    9  O2  UNL     1      20.691   5.693 -33.686  1.00  0.00    -0.385 OA
HETATM   10  C8  UNL     1      21.092   6.998 -33.699  1.00  0.00     0.129 C 
HETATM   11  C9  UNL     1      20.271   7.934 -34.517  1.00  0.00     0.032 C 
HETATM   12  C10 UNL     1      21.006   7.407 -32.264  1.00  0.00     0.060 A 
ENDROOT
TORSDOF 0
ENDMDL
MODEL 2
REMARK VINA RESULT: -5.719895203      1.337      2.894
REMARK  0 active torsions:
REMARK  status: ('A' for Active; 'I' for Inactive)
ROOT
HETATM    1  C1  UNL     1      21.974  10.947 -33.353  1.00  0.00     0.003 C 
HETATM    2  C2  UNL     1      20.652  10.340 -33.022  1.00  0.00     0.003 C 
HETATM    3  C3  UNL     1      20.318   9.135 -33.913  1.00  0.00     0.041 C 
HETATM    4  C4  UNL     1      21.143   7.999 -33.639  1.00  0.00     0.094 A 
HETATM    5  O1  UNL     1      20.758   7.416 -32.305  1.00  0.00    -0.368 OA
HETATM    6  C5  UNL     1      21.347   6.750 -33.348  1.00  0.00     0.164 A 
HETATM    7  C6  UNL     1      22.879   6.901 -33.317  1.00  0.00     0.051 A 
HETATM    8  C7  UNL     1      23.467   6.941 -31.932  1.00  0.00     0.176 C 
HETATM    9  O2  UNL     1      23.929   8.270 -31.760  1.00  0.00    -0.385 OA
HETATM   10  C8  UNL     1      22.871   8.986 -32.241  1.00  0.00     0.129 C 
HETATM   11  C9  UNL     1      23.090  10.448 -32.422  1.00  0.00     0.032 C 
HETATM   12  C10 UNL     1      22.606   8.368 -33.576  1.00  0.00     0.060 A 
ENDROOT
TORSDOF 0
ENDMDL
MODEL 3
REMARK VINA RESULT: -5.647717802      0.987      1.469
REMARK  0 active torsions:
REMARK  status: ('A' for Active; 'I' for Inactive)
ROOT
HETATM    1  C1  UNL     1      22.488   9.954 -32.690  1.00  0.00     0.003 C 
HETATM    2  C2  UNL     1      23.760   9.272 -32.315  1.00  0.00     0.003 C 
HETATM    3  C3  UNL     1      23.625   8.437 -31.034  1.00  0.00     0.041 C 
HETATM    4  C4  UNL     1      22.811   7.274 -31.215  1.00  0.00     0.094 A 
HETATM    5  O1  UNL     1      23.550   6.277 -32.065  1.00  0.00    -0.368 OA
HETATM    6  C5  UNL     1      22.568   6.000 -31.151  1.00  0.00     0.164 A 
HETATM    7  C6  UNL     1      21.167   6.132 -31.777  1.00  0.00     0.051 A 
HETATM    8  C7  UNL     1      21.092   5.703 -33.218  1.00  0.00     0.176 C 
HETATM    9  O2  UNL     1      20.880   6.896 -33.953  1.00  0.00    -0.385 OA
HETATM   10  C8  UNL     1      21.791   7.733 -33.374  1.00  0.00     0.129 C 
HETATM   11  C9  UNL     1      21.701   9.171 -33.753  1.00  0.00     0.032 C 
HETATM   12  C10 UNL     1      21.511   7.600 -31.912  1.00  0.00     0.060 A 
ENDROOT
TORSDOF 0
ENDMDL
MODEL 4
REMARK VINA RESULT: -5.612654272      1.619      3.120
REMARK  0 active torsions:
REMARK  status: ('A' for Active; 'I' for Inactive)
ROOT
HETATM    1  C1  UNL     1      24.048  10.204 -32.144  1.00  0.00     0.003 C 
HETATM    2  C2  UNL     1      22.823  11.050 -32.237  1.00  0.00     0.003 C 
HETATM    3  C3  UNL     1      22.111  10.908 -33.590  1.00  0.00     0.041 C 
HETATM    4  C4  UNL     1      21.493   9.629 -33.758  1.00  0.00     0.094 A 
HETATM    5  O1  UNL     1      20.295   9.533 -32.853  1.00  0.00    -0.368 OA
HETATM    6  C5  UNL     1      20.493   8.843 -34.020  1.00  0.00     0.164 A 
HETATM    7  C6  UNL     1      21.307   7.558 -33.780  1.00  0.00     0.051 A 
HETATM    8  C7  UNL     1      21.021   6.883 -32.466  1.00  0.00     0.176 C 
HETATM    9  O2  UNL     1      22.194   7.060 -31.691  1.00  0.00    -0.385 OA
HETATM   10  C8  UNL     1      22.466   8.379 -31.913  1.00  0.00     0.129 C 
HETATM   11  C9  UNL     1      23.782   8.875 -31.420  1.00  0.00     0.032 C 
HETATM   12  C10 UNL     1      22.431   8.500 -33.402  1.00  0.00     0.060 A 
ENDROOT
TORSDOF 0
ENDMDL
MODEL 5
REMARK VINA RESULT: -5.610251814      1.747      3.372
REMARK  0 active torsions:
REMARK  status: ('A' for Active; 'I' for Inactive)
ROOT
HETATM    1  C1  UNL     1      20.914   9.380 -33.839  1.00  0.00     0.003 C 
HETATM    2  C2  UNL     1      20.600   8.451 -32.715  1.00  0.00     0.003 C 
HETATM    3  C3  UNL     1      21.518   7.220 -32.694  1.00  0.00     0.041 C 
HETATM    4  C4  UNL     1      22.864   7.540 -32.329  1.00  0.00     0.094 A 
HETATM    5  O1  UNL     1      22.912   7.892 -30.867  1.00  0.00    -0.368 OA
HETATM    6  C5  UNL     1      23.944   7.401 -31.622  1.00  0.00     0.164 A 
HETATM    7  C6  UNL     1      24.691   8.532 -32.353  1.00  0.00     0.051 A 
HETATM    8  C7  UNL     1      24.783   9.816 -31.572  1.00  0.00     0.176 C 
HETATM    9  O2  UNL     1      23.948  10.732 -32.258  1.00  0.00    -0.385 OA
HETATM   10  C8  UNL     1      22.839   9.967 -32.484  1.00  0.00     0.129 C 
HETATM   11  C9  UNL     1      21.812  10.545 -33.395  1.00  0.00     0.032 C 
HETATM   12  C10 UNL     1      23.391   8.725 -33.105  1.00  0.00     0.060 A 
ENDROOT
TORSDOF 0
ENDMDL
