MODEL 1
REMARK VINA RESULT: -6.538966706      0.000      0.000
REMARK  10 active torsions:
REMARK  status: ('A' for Active; 'I' for Inactive)
REMARK    1  A    between atoms: C3_4  and  C4_5 
REMARK    2  A    between atoms: C4_5  and  C5_6 
REMARK    3  A    between atoms: C5_6  and  O1_7 
REMARK    4  A    between atoms: C5_6  and  C6_9 
REMARK    5  A    between atoms: C6_9  and  N2_10 
REMARK    6  A    between atoms: C9_19  and  C10_20 
REMARK    7  A    between atoms: C10_20  and  C11_21 
REMARK    8  A    between atoms: C11_21  and  C12_22 
REMARK    9  A    between atoms: C12_22  and  C13_23 
REMARK   10  A    between atoms: C13_23  and  N6_24 
ROOT
HETATM    1  C1  UNL     1     -25.625  27.026 -18.341  1.00  0.00     0.311 C 
HETATM    2  N1  UNL     1     -26.596  27.482 -17.399  1.00  0.00     0.100 N 
HETATM    3  C2  UNL     1     -26.150  28.567 -16.575  1.00  0.00     0.298 C 
HETATM    4  C3  UNL     1     -27.390  29.338 -16.145  1.00  0.00     0.115 C 
HETATM    5  N5  UNL     1     -28.158  28.419 -15.344  1.00  0.00    -0.353 N 
ATOM      6  H5  UNL     1     -28.975  28.719 -14.812  1.00  0.00     0.163 HD
HETATM    7  C8  UNL     1     -27.708  27.062 -15.337  1.00  0.00     0.251 C 
HETATM    8  O2  UNL     1     -27.821  26.375 -14.266  1.00  0.00    -0.271 OA
HETATM    9  C9  UNL     1     -27.111  26.431 -16.541  1.00  0.00     0.313 C 
ENDROOT
BRANCH   4  10
HETATM   10  C4  UNL     1     -27.068  30.614 -15.460  1.00  0.00     0.060 C 
BRANCH  10  11
HETATM   11  C5  UNL     1     -27.928  31.773 -15.910  1.00  0.00     0.138 C 
BRANCH  11  12
HETATM   12  O1  UNL     1     -29.275  31.506 -15.681  1.00  0.00    -0.394 OA
ATOM     13  H1  UNL     1     -29.680  31.130 -16.453  1.00  0.00     0.210 HD
ENDBRANCH  11  12
BRANCH  11  14
HETATM   14  C6  UNL     1     -27.762  31.877 -17.428  1.00  0.00     0.153 C 
BRANCH  14  15
HETATM   15  N2  UNL     1     -26.514  32.605 -17.640  1.00  0.00    -0.364 N 
HETATM   16  C7  UNL     1     -25.631  32.172 -18.481  1.00  0.00     0.197 C 
HETATM   17  N3  UNL     1     -24.441  32.934 -18.635  1.00  0.00    -0.067 NA
HETATM   18  N4  UNL     1     -25.839  30.979 -19.224  1.00  0.00    -0.067 NA
ATOM     19  H2  UNL     1     -26.337  33.464 -17.121  1.00  0.00     0.161 HD
ENDBRANCH  14  15
ENDBRANCH  11  14
ENDBRANCH  10  11
ENDBRANCH   4  10
BRANCH   9  20
HETATM   20  C10 UNL     1     -28.119  25.588 -17.261  1.00  0.00     0.046 C 
BRANCH  20  21
HETATM   21  C11 UNL     1     -28.038  24.134 -16.957  1.00  0.00     0.004 C 
BRANCH  21  22
HETATM   22  C12 UNL     1     -29.243  23.670 -16.196  1.00  0.00     0.027 C 
BRANCH  22  23
HETATM   23  C13 UNL     1     -28.874  22.915 -14.936  1.00  0.00     0.229 C 
BRANCH  23  24
HETATM   24  N6  UNL     1     -27.773  23.566 -14.239  1.00  0.00    -0.079 N 
ATOM     25  H63 UNL     1     -26.872  23.317 -14.645  1.00  0.00     0.274 HD
ATOM     26  H62 UNL     1     -27.754  24.569 -14.422  1.00  0.00     0.274 HD
ATOM     27  H61 UNL     1     -27.803  23.367 -13.239  1.00  0.00     0.274 HD
ENDBRANCH  23  24
ENDBRANCH  22  23
ENDBRANCH  21  22
ENDBRANCH  20  21
ENDBRANCH   9  20
TORSDOF 10
ENDMDL
MODEL 2
REMARK VINA RESULT: -6.391494095      2.715      3.687
REMARK  10 active torsions:
REMARK  status: ('A' for Active; 'I' for Inactive)
REMARK    1  A    between atoms: C3_4  and  C4_5 
REMARK    2  A    between atoms: C4_5  and  C5_6 
REMARK    3  A    between atoms: C5_6  and  O1_7 
REMARK    4  A    between atoms: C5_6  and  C6_9 
REMARK    5  A    between atoms: C6_9  and  N2_10 
REMARK    6  A    between atoms: C9_19  and  C10_20 
REMARK    7  A    between atoms: C10_20  and  C11_21 
REMARK    8  A    between atoms: C11_21  and  C12_22 
REMARK    9  A    between atoms: C12_22  and  C13_23 
REMARK   10  A    between atoms: C13_23  and  N6_24 
ROOT
HETATM    1  C1  UNL     1     -23.728  27.126 -18.948  1.00  0.00     0.311 C 
HETATM    2  N1  UNL     1     -25.101  26.920 -18.614  1.00  0.00     0.100 N 
HETATM    3  C2  UNL     1     -25.653  27.924 -17.753  1.00  0.00     0.298 C 
HETATM    4  C3  UNL     1     -27.152  27.962 -18.017  1.00  0.00     0.115 C 
HETATM    5  N5  UNL     1     -27.647  26.669 -17.616  1.00  0.00    -0.353 N 
ATOM      6  H5  UNL     1     -28.645  26.468 -17.558  1.00  0.00     0.163 HD
HETATM    7  C8  UNL     1     -26.659  25.685 -17.304  1.00  0.00     0.251 C 
HETATM    8  O2  UNL     1     -26.891  24.844 -16.371  1.00  0.00    -0.271 OA
HETATM    9  C9  UNL     1     -25.368  25.616 -18.033  1.00  0.00     0.313 C 
ENDROOT
BRANCH   4  10
HETATM   10  C4  UNL     1     -27.828  29.102 -17.351  1.00  0.00     0.060 C 
BRANCH  10  11
HETATM   11  C5  UNL     1     -27.687  29.090 -15.846  1.00  0.00     0.138 C 
BRANCH  11  12
HETATM   12  O1  UNL     1     -28.716  28.356 -15.260  1.00  0.00    -0.394 OA
ATOM     13  H1  UNL     1     -28.470  27.443 -15.172  1.00  0.00     0.210 HD
ENDBRANCH  11  12
BRANCH  11  14
HETATM   14  C6  UNL     1     -27.869  30.535 -15.378  1.00  0.00     0.153 C 
BRANCH  14  15
HETATM   15  N2  UNL     1     -26.804  31.297 -16.025  1.00  0.00    -0.364 N 
HETATM   16  C7  UNL     1     -26.973  32.544 -16.327  1.00  0.00     0.197 C 
HETATM   17  N3  UNL     1     -25.892  33.221 -16.953  1.00  0.00    -0.067 NA
HETATM   18  N4  UNL     1     -28.192  33.216 -16.043  1.00  0.00    -0.067 NA
ATOM     19  H2  UNL     1     -25.918  30.841 -16.241  1.00  0.00     0.161 HD
ENDBRANCH  14  15
ENDBRANCH  11  14
ENDBRANCH  10  11
ENDBRANCH   4  10
BRANCH   9  20
HETATM   20  C10 UNL     1     -25.402  24.550 -19.086  1.00  0.00     0.046 C 
BRANCH  20  21
HETATM   21  C11 UNL     1     -24.682  23.300 -18.722  1.00  0.00     0.004 C 
BRANCH  21  22
HETATM   22  C12 UNL     1     -23.547  23.579 -17.784  1.00  0.00     0.027 C 
BRANCH  22  23
HETATM   23  C13 UNL     1     -22.206  23.189 -18.368  1.00  0.00     0.229 C 
BRANCH  23  24
HETATM   24  N6  UNL     1     -21.114  23.831 -17.649  1.00  0.00    -0.079 N 
ATOM     25  H63 UNL     1     -20.855  24.719 -18.076  1.00  0.00     0.274 HD
ATOM     26  H62 UNL     1     -21.417  24.178 -16.739  1.00  0.00     0.274 HD
ATOM     27  H61 UNL     1     -20.313  23.206 -17.565  1.00  0.00     0.274 HD
ENDBRANCH  23  24
ENDBRANCH  22  23
ENDBRANCH  21  22
ENDBRANCH  20  21
ENDBRANCH   9  20
TORSDOF 10
ENDMDL
MODEL 3
REMARK VINA RESULT: -6.362433884      2.883      3.625
REMARK  10 active torsions:
REMARK  status: ('A' for Active; 'I' for Inactive)
REMARK    1  A    between atoms: C3_4  and  C4_5 
REMARK    2  A    between atoms: C4_5  and  C5_6 
REMARK    3  A    between atoms: C5_6  and  O1_7 
REMARK    4  A    between atoms: C5_6  and  C6_9 
REMARK    5  A    between atoms: C6_9  and  N2_10 
REMARK    6  A    between atoms: C9_19  and  C10_20 
REMARK    7  A    between atoms: C10_20  and  C11_21 
REMARK    8  A    between atoms: C11_21  and  C12_22 
REMARK    9  A    between atoms: C12_22  and  C13_23 
REMARK   10  A    between atoms: C13_23  and  N6_24 
ROOT
HETATM    1  C1  UNL     1     -23.715  27.072 -18.939  1.00  0.00     0.311 C 
HETATM    2  N1  UNL     1     -25.089  26.865 -18.608  1.00  0.00     0.100 N 
HETATM    3  C2  UNL     1     -25.647  27.874 -17.758  1.00  0.00     0.298 C 
HETATM    4  C3  UNL     1     -27.145  27.906 -18.028  1.00  0.00     0.115 C 
HETATM    5  N5  UNL     1     -27.638  26.616 -17.618  1.00  0.00    -0.353 N 
ATOM      6  H5  UNL     1     -28.636  26.412 -17.562  1.00  0.00     0.163 HD
HETATM    7  C8  UNL     1     -26.648  25.637 -17.294  1.00  0.00     0.251 C 
HETATM    8  O2  UNL     1     -26.882  24.802 -16.355  1.00  0.00    -0.271 OA
HETATM    9  C9  UNL     1     -25.355  25.565 -18.019  1.00  0.00     0.313 C 
ENDROOT
BRANCH   4  10
HETATM   10  C4  UNL     1     -27.826  29.050 -17.373  1.00  0.00     0.060 C 
BRANCH  10  11
HETATM   11  C5  UNL     1     -27.691  29.049 -15.867  1.00  0.00     0.138 C 
BRANCH  11  12
HETATM   12  O1  UNL     1     -28.721  28.318 -15.280  1.00  0.00    -0.394 OA
ATOM     13  H1  UNL     1     -29.037  28.751 -14.496  1.00  0.00     0.210 HD
ENDBRANCH  11  12
BRANCH  11  14
HETATM   14  C6  UNL     1     -27.878  30.498 -15.411  1.00  0.00     0.153 C 
BRANCH  14  15
HETATM   15  N2  UNL     1     -26.812  31.257 -16.058  1.00  0.00    -0.364 N 
HETATM   16  C7  UNL     1     -26.973  32.508 -16.349  1.00  0.00     0.197 C 
HETATM   17  N3  UNL     1     -25.890  33.181 -16.977  1.00  0.00    -0.067 NA
HETATM   18  N4  UNL     1     -28.185  33.186 -16.053  1.00  0.00    -0.067 NA
ATOM     19  H2  UNL     1     -25.930  30.797 -16.283  1.00  0.00     0.161 HD
ENDBRANCH  14  15
ENDBRANCH  11  14
ENDBRANCH  10  11
ENDBRANCH   4  10
BRANCH   9  20
HETATM   20  C10 UNL     1     -25.382  24.491 -19.062  1.00  0.00     0.046 C 
BRANCH  20  21
HETATM   21  C11 UNL     1     -24.654  23.249 -18.690  1.00  0.00     0.004 C 
BRANCH  21  22
HETATM   22  C12 UNL     1     -24.243  22.474 -19.906  1.00  0.00     0.027 C 
BRANCH  22  23
HETATM   23  C13 UNL     1     -24.251  20.979 -19.667  1.00  0.00     0.229 C 
BRANCH  23  24
HETATM   24  N6  UNL     1     -23.262  20.604 -18.665  1.00  0.00    -0.079 N 
ATOM     25  H63 UNL     1     -23.568  20.851 -17.725  1.00  0.00     0.274 HD
ATOM     26  H62 UNL     1     -23.209  19.592 -18.550  1.00  0.00     0.274 HD
ATOM     27  H61 UNL     1     -22.350  21.005 -18.882  1.00  0.00     0.274 HD
ENDBRANCH  23  24
ENDBRANCH  22  23
ENDBRANCH  21  22
ENDBRANCH  20  21
ENDBRANCH   9  20
TORSDOF 10
ENDMDL
MODEL 4
REMARK VINA RESULT: -6.353299829      2.043      2.817
REMARK  10 active torsions:
REMARK  status: ('A' for Active; 'I' for Inactive)
REMARK    1  A    between atoms: C3_4  and  C4_5 
REMARK    2  A    between atoms: C4_5  and  C5_6 
REMARK    3  A    between atoms: C5_6  and  O1_7 
REMARK    4  A    between atoms: C5_6  and  C6_9 
REMARK    5  A    between atoms: C6_9  and  N2_10 
REMARK    6  A    between atoms: C9_19  and  C10_20 
REMARK    7  A    between atoms: C10_20  and  C11_21 
REMARK    8  A    between atoms: C11_21  and  C12_22 
REMARK    9  A    between atoms: C12_22  and  C13_23 
REMARK   10  A    between atoms: C13_23  and  N6_24 
ROOT
HETATM    1  C1  UNL     1     -29.038  26.769 -14.226  1.00  0.00     0.311 C 
HETATM    2  N1  UNL     1     -27.973  26.922 -15.165  1.00  0.00     0.100 N 
HETATM    3  C2  UNL     1     -27.794  28.263 -15.638  1.00  0.00     0.298 C 
HETATM    4  C3  UNL     1     -26.334  28.399 -16.049  1.00  0.00     0.115 C 
HETATM    5  N5  UNL     1     -26.156  27.482 -17.146  1.00  0.00    -0.353 N 
ATOM      6  H5  UNL     1     -25.303  27.469 -17.705  1.00  0.00     0.163 HD
HETATM    7  C8  UNL     1     -27.244  26.593 -17.407  1.00  0.00     0.251 C 
HETATM    8  O2  UNL     1     -27.506  26.267 -18.614  1.00  0.00    -0.271 OA
HETATM    9  C9  UNL     1     -28.079  26.038 -16.312  1.00  0.00     0.313 C 
ENDROOT
BRANCH   4  10
HETATM   10  C4  UNL     1     -25.950  29.797 -16.360  1.00  0.00     0.060 C 
BRANCH  10  11
HETATM   11  C5  UNL     1     -26.157  30.171 -17.810  1.00  0.00     0.138 C 
BRANCH  11  12
HETATM   12  O1  UNL     1     -24.953  30.549 -18.399  1.00  0.00    -0.394 OA
ATOM     13  H1  UNL     1     -24.322  29.841 -18.359  1.00  0.00     0.210 HD
ENDBRANCH  11  12
BRANCH  11  14
HETATM   14  C6  UNL     1     -27.049  31.414 -17.819  1.00  0.00     0.153 C 
BRANCH  14  15
HETATM   15  N2  UNL     1     -26.301  32.442 -17.100  1.00  0.00    -0.364 N 
HETATM   16  C7  UNL     1     -26.894  33.224 -16.256  1.00  0.00     0.197 C 
HETATM   17  N3  UNL     1     -26.100  34.199 -15.594  1.00  0.00    -0.067 NA
HETATM   18  N4  UNL     1     -28.286  33.113 -15.998  1.00  0.00    -0.067 NA
ATOM     19  H2  UNL     1     -25.300  32.545 -17.265  1.00  0.00     0.161 HD
ENDBRANCH  14  15
ENDBRANCH  11  14
ENDBRANCH  10  11
ENDBRANCH   4  10
BRANCH   9  20
HETATM   20  C10 UNL     1     -27.653  24.645 -15.965  1.00  0.00     0.046 C 
BRANCH  20  21
HETATM   21  C11 UNL     1     -28.248  23.585 -16.822  1.00  0.00     0.004 C 
BRANCH  21  22
HETATM   22  C12 UNL     1     -29.123  22.666 -16.023  1.00  0.00     0.027 C 
BRANCH  22  23
HETATM   23  C13 UNL     1     -29.172  23.046 -14.558  1.00  0.00     0.229 C 
BRANCH  23  24
HETATM   24  N6  UNL     1     -29.198  21.862 -13.710  1.00  0.00    -0.079 N 
ATOM     25  H63 UNL     1     -29.203  21.005 -14.263  1.00  0.00     0.274 HD
ATOM     26  H62 UNL     1     -28.311  21.728 -13.225  1.00  0.00     0.274 HD
ATOM     27  H61 UNL     1     -29.981  21.894 -13.058  1.00  0.00     0.274 HD
ENDBRANCH  23  24
ENDBRANCH  22  23
ENDBRANCH  21  22
ENDBRANCH  20  21
ENDBRANCH   9  20
TORSDOF 10
ENDMDL
MODEL 5
REMARK VINA RESULT: -6.295265257      3.001      3.918
REMARK  10 active torsions:
REMARK  status: ('A' for Active; 'I' for Inactive)
REMARK    1  A    between atoms: C3_4  and  C4_5 
REMARK    2  A    between atoms: C4_5  and  C5_6 
REMARK    3  A    between atoms: C5_6  and  O1_7 
REMARK    4  A    between atoms: C5_6  and  C6_9 
REMARK    5  A    between atoms: C6_9  and  N2_10 
REMARK    6  A    between atoms: C9_19  and  C10_20 
REMARK    7  A    between atoms: C10_20  and  C11_21 
REMARK    8  A    between atoms: C11_21  and  C12_22 
REMARK    9  A    between atoms: C12_22  and  C13_23 
REMARK   10  A    between atoms: C13_23  and  N6_24 
ROOT
HETATM    1  C1  UNL     1     -28.233  23.535 -16.419  1.00  0.00     0.311 C 
HETATM    2  N1  UNL     1     -27.484  24.748 -16.507  1.00  0.00     0.100 N 
HETATM    3  C2  UNL     1     -28.271  25.936 -16.353  1.00  0.00     0.298 C 
HETATM    4  C3  UNL     1     -27.343  27.019 -15.821  1.00  0.00     0.115 C 
HETATM    5  N5  UNL     1     -26.363  27.231 -16.856  1.00  0.00    -0.353 N 
ATOM      6  H5  UNL     1     -25.698  28.003 -16.820  1.00  0.00     0.163 HD
HETATM    7  C8  UNL     1     -26.378  26.296 -17.937  1.00  0.00     0.251 C 
HETATM    8  O2  UNL     1     -26.102  26.704 -19.116  1.00  0.00    -0.271 OA
HETATM    9  C9  UNL     1     -26.707  24.864 -17.727  1.00  0.00     0.313 C 
ENDROOT
BRANCH   4  10
HETATM   10  C4  UNL     1     -28.065  28.249 -15.411  1.00  0.00     0.060 C 
BRANCH  10  11
HETATM   11  C5  UNL     1     -27.516  29.508 -16.042  1.00  0.00     0.138 C 
BRANCH  11  12
HETATM   12  O1  UNL     1     -26.242  29.789 -15.553  1.00  0.00    -0.394 OA
ATOM     13  H1  UNL     1     -25.651  30.009 -16.263  1.00  0.00     0.210 HD
ENDBRANCH  11  12
BRANCH  11  14
HETATM   14  C6  UNL     1     -28.417  30.656 -15.580  1.00  0.00     0.153 C 
BRANCH  14  15
HETATM   15  N2  UNL     1     -27.519  31.772 -15.292  1.00  0.00    -0.364 N 
HETATM   16  C7  UNL     1     -27.472  32.802 -16.074  1.00  0.00     0.197 C 
HETATM   17  N3  UNL     1     -26.575  33.848 -15.729  1.00  0.00    -0.067 NA
HETATM   18  N4  UNL     1     -28.286  32.887 -17.235  1.00  0.00    -0.067 NA
ATOM     19  H2  UNL     1     -26.922  31.738 -14.466  1.00  0.00     0.161 HD
ENDBRANCH  14  15
ENDBRANCH  11  14
ENDBRANCH  10  11
ENDBRANCH   4  10
BRANCH   9  20
HETATM   20  C10 UNL     1     -25.463  24.031 -17.659  1.00  0.00     0.046 C 
BRANCH  20  21
HETATM   21  C11 UNL     1     -25.081  23.385 -18.943  1.00  0.00     0.004 C 
BRANCH  21  22
HETATM   22  C12 UNL     1     -23.606  23.121 -19.001  1.00  0.00     0.027 C 
BRANCH  22  23
HETATM   23  C13 UNL     1     -23.166  22.082 -17.992  1.00  0.00     0.229 C 
BRANCH  23  24
HETATM   24  N6  UNL     1     -23.173  20.748 -18.576  1.00  0.00    -0.079 N 
ATOM     25  H63 UNL     1     -23.216  20.024 -17.859  1.00  0.00     0.274 HD
ATOM     26  H62 UNL     1     -24.055  20.550 -19.049  1.00  0.00     0.274 HD
ATOM     27  H61 UNL     1     -22.375  20.615 -19.197  1.00  0.00     0.274 HD
ENDBRANCH  23  24
ENDBRANCH  22  23
ENDBRANCH  21  22
ENDBRANCH  20  21
ENDBRANCH   9  20
TORSDOF 10
ENDMDL
