MODEL 1
REMARK VINA RESULT: -6.281067198      0.000      0.000
REMARK  6 active torsions:
REMARK  status: ('A' for Active; 'I' for Inactive)
REMARK    1  A    between atoms: C1_2  and  C2_3 
REMARK    2  A    between atoms: C2_3  and  C3_4 
REMARK    3  A    between atoms: C4_5  and  C5_6 
REMARK    4  A    between atoms: C10_13  and  C11_14 
REMARK    5  A    between atoms: C11_14  and  C12_15 
REMARK    6  A    between atoms: C12_15  and  N1_16 
ROOT
HETATM    1  C5  UNL     1      93.281  24.441  63.621  1.00  0.00     0.025 A 
HETATM    2  C6  UNL     1      94.032  24.827  64.721  1.00  0.00     0.046 A 
HETATM    3  C7  UNL     1      94.374  23.958  65.734  1.00  0.00     0.057 A 
HETATM    4 CL2  UNL     1      95.316  24.398  67.136  1.00  0.00    -0.083 Cl
HETATM    5  C8  UNL     1      93.933  22.658  65.614  1.00  0.00     0.056 A 
HETATM    6 CL3  UNL     1      94.330  21.505  66.862  1.00  0.00    -0.083 Cl
HETATM    7  C9  UNL     1      93.186  22.241  64.537  1.00  0.00     0.034 A 
HETATM    8  C10 UNL     1      92.865  23.137  63.547  1.00  0.00    -0.036 A 
ENDROOT
BRANCH   8   9
HETATM    9  C11 UNL     1      92.070  22.694  62.366  1.00  0.00     0.070 C 
BRANCH   9  10
HETATM   10  C12 UNL     1      91.499  21.322  62.594  1.00  0.00     0.277 C 
BRANCH  10  11
HETATM   11  N1  UNL     1      91.805  20.436  61.522  1.00  0.00     0.088 N 
HETATM   12  C13 UNL     1      92.150  19.136  61.975  1.00  0.00     0.272 C 
HETATM   13  C14 UNL     1      92.861  18.401  60.837  1.00  0.00     0.030 C 
HETATM   14  C15 UNL     1      91.882  18.262  59.709  1.00  0.00     0.003 C 
HETATM   15  C16 UNL     1      90.617  19.030  59.913  1.00  0.00     0.030 C 
HETATM   16  C17 UNL     1      90.870  20.447  60.431  1.00  0.00     0.272 C 
ENDBRANCH  10  11
ENDBRANCH   9  10
ENDBRANCH   8   9
BRANCH   1  17
HETATM   17  C4  UNL     1      92.929  25.375  62.588  1.00  0.00    -0.066 C 
HETATM   18  C3  UNL     1      92.627  26.194  61.723  1.00  0.00    -0.100 C 
BRANCH  18  19
HETATM   19  C2  UNL     1      92.296  27.172  60.685  1.00  0.00     0.109 C 
BRANCH  19  20
HETATM   20  C1  UNL     1      93.562  27.916  60.335  1.00  0.00     0.126 C 
HETATM   21 CL1  UNL     1      94.700  26.737  59.622  1.00  0.00    -0.130 Cl
ENDBRANCH  19  20
ENDBRANCH  18  19
ENDBRANCH   1  17
TORSDOF 6
ENDMDL
MODEL 2
REMARK VINA RESULT: -6.262232717      2.998      6.792
REMARK  6 active torsions:
REMARK  status: ('A' for Active; 'I' for Inactive)
REMARK    1  A    between atoms: C1_2  and  C2_3 
REMARK    2  A    between atoms: C2_3  and  C3_4 
REMARK    3  A    between atoms: C4_5  and  C5_6 
REMARK    4  A    between atoms: C10_13  and  C11_14 
REMARK    5  A    between atoms: C11_14  and  C12_15 
REMARK    6  A    between atoms: C12_15  and  N1_16 
ROOT
HETATM    1  C5  UNL     1      92.770  20.653  63.243  1.00  0.00     0.025 A 
HETATM    2  C6  UNL     1      92.943  19.412  62.649  1.00  0.00     0.046 A 
HETATM    3  C7  UNL     1      92.374  19.078  61.439  1.00  0.00     0.057 A 
HETATM    4 CL2  UNL     1      92.563  17.530  60.653  1.00  0.00    -0.083 Cl
HETATM    5  C8  UNL     1      91.607  20.043  60.824  1.00  0.00     0.056 A 
HETATM    6 CL3  UNL     1      90.857  19.685  59.289  1.00  0.00    -0.083 Cl
HETATM    7  C9  UNL     1      91.414  21.284  61.385  1.00  0.00     0.034 A 
HETATM    8  C10 UNL     1      91.998  21.580  62.592  1.00  0.00    -0.036 A 
ENDROOT
BRANCH   8   9
HETATM    9  C11 UNL     1      91.810  22.927  63.203  1.00  0.00     0.070 C 
BRANCH   9  10
HETATM   10  C12 UNL     1      92.464  23.988  62.362  1.00  0.00     0.277 C 
BRANCH  10  11
HETATM   11  N1  UNL     1      93.648  24.493  62.973  1.00  0.00     0.088 N 
HETATM   12  C13 UNL     1      93.558  24.521  64.389  1.00  0.00     0.272 C 
HETATM   13  C14 UNL     1      94.651  25.447  64.924  1.00  0.00     0.030 C 
HETATM   14  C15 UNL     1      95.975  24.848  64.548  1.00  0.00     0.003 C 
HETATM   15  C16 UNL     1      95.864  23.687  63.615  1.00  0.00     0.030 C 
HETATM   16  C17 UNL     1      94.878  23.943  62.475  1.00  0.00     0.272 C 
ENDBRANCH  10  11
ENDBRANCH   9  10
ENDBRANCH   8   9
BRANCH   1  17
HETATM   17  C4  UNL     1      93.365  20.967  64.512  1.00  0.00    -0.066 C 
HETATM   18  C3  UNL     1      93.882  21.260  65.588  1.00  0.00    -0.100 C 
BRANCH  18  19
HETATM   19  C2  UNL     1      94.471  21.617  66.879  1.00  0.00     0.109 C 
BRANCH  19  20
HETATM   20  C1  UNL     1      95.969  21.678  66.700  1.00  0.00     0.126 C 
HETATM   21 CL1  UNL     1      96.704  20.630  67.945  1.00  0.00    -0.130 Cl
ENDBRANCH  19  20
ENDBRANCH  18  19
ENDBRANCH   1  17
TORSDOF 6
ENDMDL
MODEL 3
REMARK VINA RESULT: -6.250658935      1.119      1.565
REMARK  6 active torsions:
REMARK  status: ('A' for Active; 'I' for Inactive)
REMARK    1  A    between atoms: C1_2  and  C2_3 
REMARK    2  A    between atoms: C2_3  and  C3_4 
REMARK    3  A    between atoms: C4_5  and  C5_6 
REMARK    4  A    between atoms: C10_13  and  C11_14 
REMARK    5  A    between atoms: C11_14  and  C12_15 
REMARK    6  A    between atoms: C12_15  and  N1_16 
ROOT
HETATM    1  C5  UNL     1      93.373  24.182  63.668  1.00  0.00     0.025 A 
HETATM    2  C6  UNL     1      94.055  24.586  64.806  1.00  0.00     0.046 A 
HETATM    3  C7  UNL     1      94.401  23.716  65.817  1.00  0.00     0.057 A 
HETATM    4 CL2  UNL     1      95.258  24.178  67.266  1.00  0.00    -0.083 Cl
HETATM    5  C8  UNL     1      94.037  22.397  65.655  1.00  0.00     0.056 A 
HETATM    6 CL3  UNL     1      94.444  21.242  66.899  1.00  0.00    -0.083 Cl
HETATM    7  C9  UNL     1      93.360  21.962  64.540  1.00  0.00     0.034 A 
HETATM    8  C10 UNL     1      93.033  22.859  63.553  1.00  0.00    -0.036 A 
ENDROOT
BRANCH   8   9
HETATM    9  C11 UNL     1      92.314  22.397  62.332  1.00  0.00     0.070 C 
BRANCH   9  10
HETATM   10  C12 UNL     1      91.237  21.412  62.689  1.00  0.00     0.277 C 
BRANCH  10  11
HETATM   11  N1  UNL     1      91.302  20.239  61.883  1.00  0.00     0.088 N 
HETATM   12  C13 UNL     1      91.226  20.530  60.495  1.00  0.00     0.272 C 
HETATM   13  C14 UNL     1      90.873  19.243  59.750  1.00  0.00     0.030 C 
HETATM   14  C15 UNL     1      91.999  18.274  59.966  1.00  0.00     0.003 C 
HETATM   15  C16 UNL     1      92.999  18.733  60.976  1.00  0.00     0.030 C 
HETATM   16  C17 UNL     1      92.344  19.312  62.229  1.00  0.00     0.272 C 
ENDBRANCH  10  11
ENDBRANCH   9  10
ENDBRANCH   8   9
BRANCH   1  17
HETATM   17  C4  UNL     1      93.015  25.116  62.637  1.00  0.00    -0.066 C 
HETATM   18  C3  UNL     1      92.715  25.896  61.735  1.00  0.00    -0.100 C 
BRANCH  18  19
HETATM   19  C2  UNL     1      92.329  26.817  60.666  1.00  0.00     0.109 C 
BRANCH  19  20
HETATM   20  C1  UNL     1      91.789  28.070  61.311  1.00  0.00     0.126 C 
HETATM   21 CL1  UNL     1      90.622  28.802  60.174  1.00  0.00    -0.130 Cl
ENDBRANCH  19  20
ENDBRANCH  18  19
ENDBRANCH   1  17
TORSDOF 6
ENDMDL
MODEL 4
REMARK VINA RESULT: -6.238806375      1.484      2.178
REMARK  6 active torsions:
REMARK  status: ('A' for Active; 'I' for Inactive)
REMARK    1  A    between atoms: C1_2  and  C2_3 
REMARK    2  A    between atoms: C2_3  and  C3_4 
REMARK    3  A    between atoms: C4_5  and  C5_6 
REMARK    4  A    between atoms: C10_13  and  C11_14 
REMARK    5  A    between atoms: C11_14  and  C12_15 
REMARK    6  A    between atoms: C12_15  and  N1_16 
ROOT
HETATM    1  C5  UNL     1      94.280  23.529  64.440  1.00  0.00     0.025 A 
HETATM    2  C6  UNL     1      95.610  23.668  64.811  1.00  0.00     0.046 A 
HETATM    3  C7  UNL     1      96.197  22.894  65.787  1.00  0.00     0.057 A 
HETATM    4 CL2  UNL     1      97.864  23.032  66.286  1.00  0.00    -0.083 Cl
HETATM    5  C8  UNL     1      95.400  21.951  66.398  1.00  0.00     0.056 A 
HETATM    6 CL3  UNL     1      96.081  20.935  67.643  1.00  0.00    -0.083 Cl
HETATM    7  C9  UNL     1      94.078  21.786  66.056  1.00  0.00     0.034 A 
HETATM    8  C10 UNL     1      93.527  22.578  65.078  1.00  0.00    -0.036 A 
ENDROOT
BRANCH   8   9
HETATM    9  C11 UNL     1      92.100  22.398  64.686  1.00  0.00     0.070 C 
BRANCH   9  10
HETATM   10  C12 UNL     1      91.709  20.948  64.750  1.00  0.00     0.277 C 
BRANCH  10  11
HETATM   11  N1  UNL     1      91.841  20.307  63.485  1.00  0.00     0.088 N 
HETATM   12  C13 UNL     1      91.671  21.207  62.400  1.00  0.00     0.272 C 
HETATM   13  C14 UNL     1      91.400  20.393  61.135  1.00  0.00     0.030 C 
HETATM   14  C15 UNL     1      92.617  19.557  60.867  1.00  0.00     0.003 C 
HETATM   15  C16 UNL     1      93.620  19.587  61.973  1.00  0.00     0.030 C 
HETATM   16  C17 UNL     1      92.977  19.438  63.352  1.00  0.00     0.272 C 
ENDBRANCH  10  11
ENDBRANCH   9  10
ENDBRANCH   8   9
BRANCH   1  17
HETATM   17  C4  UNL     1      93.692  24.362  63.429  1.00  0.00    -0.066 C 
HETATM   18  C3  UNL     1      93.212  25.091  62.563  1.00  0.00    -0.100 C 
BRANCH  18  19
HETATM   19  C2  UNL     1      92.649  25.938  61.512  1.00  0.00     0.109 C 
BRANCH  19  20
HETATM   20  C1  UNL     1      93.715  26.923  61.095  1.00  0.00     0.126 C 
HETATM   21 CL1  UNL     1      95.084  25.987  60.433  1.00  0.00    -0.130 Cl
ENDBRANCH  19  20
ENDBRANCH  18  19
ENDBRANCH   1  17
TORSDOF 6
ENDMDL
MODEL 5
REMARK VINA RESULT: -6.212789340      3.243      5.580
REMARK  6 active torsions:
REMARK  status: ('A' for Active; 'I' for Inactive)
REMARK    1  A    between atoms: C1_2  and  C2_3 
REMARK    2  A    between atoms: C2_3  and  C3_4 
REMARK    3  A    between atoms: C4_5  and  C5_6 
REMARK    4  A    between atoms: C10_13  and  C11_14 
REMARK    5  A    between atoms: C11_14  and  C12_15 
REMARK    6  A    between atoms: C12_15  and  N1_16 
ROOT
HETATM    1  C5  UNL     1      94.778  21.213  62.841  1.00  0.00     0.025 A 
HETATM    2  C6  UNL     1      94.132  20.239  62.094  1.00  0.00     0.046 A 
HETATM    3  C7  UNL     1      93.054  19.526  62.571  1.00  0.00     0.057 A 
HETATM    4 CL2  UNL     1      92.210  18.292  61.669  1.00  0.00    -0.083 Cl
HETATM    5  C8  UNL     1      92.628  19.821  63.848  1.00  0.00     0.056 A 
HETATM    6 CL3  UNL     1      91.266  18.955  64.513  1.00  0.00    -0.083 Cl
HETATM    7  C9  UNL     1      93.245  20.780  64.616  1.00  0.00     0.034 A 
HETATM    8  C10 UNL     1      94.317  21.471  64.106  1.00  0.00    -0.036 A 
ENDROOT
BRANCH   8   9
HETATM    9  C11 UNL     1      94.985  22.524  64.922  1.00  0.00     0.070 C 
BRANCH   9  10
HETATM   10  C12 UNL     1      93.974  23.494  65.468  1.00  0.00     0.277 C 
BRANCH  10  11
HETATM   11  N1  UNL     1      93.668  24.523  64.532  1.00  0.00     0.088 N 
HETATM   12  C13 UNL     1      94.828  25.048  63.903  1.00  0.00     0.272 C 
HETATM   13  C14 UNL     1      94.466  26.390  63.267  1.00  0.00     0.030 C 
HETATM   14  C15 UNL     1      93.436  26.126  62.209  1.00  0.00     0.003 C 
HETATM   15  C16 UNL     1      92.915  24.726  62.215  1.00  0.00     0.030 C 
HETATM   16  C17 UNL     1      92.593  24.228  63.625  1.00  0.00     0.272 C 
ENDBRANCH  10  11
ENDBRANCH   9  10
ENDBRANCH   8   9
BRANCH   1  17
HETATM   17  C4  UNL     1      95.909  21.930  62.321  1.00  0.00    -0.066 C 
HETATM   18  C3  UNL     1      96.887  22.519  61.866  1.00  0.00    -0.100 C 
BRANCH  18  19
HETATM   19  C2  UNL     1      98.034  23.230  61.300  1.00  0.00     0.109 C 
BRANCH  19  20
HETATM   20  C1  UNL     1      97.593  23.848  59.995  1.00  0.00     0.126 C 
HETATM   21 CL1  UNL     1      96.321  25.046  60.368  1.00  0.00    -0.130 Cl
ENDBRANCH  19  20
ENDBRANCH  18  19
ENDBRANCH   1  17
TORSDOF 6
ENDMDL
