MODEL 1
REMARK VINA RESULT: -6.117539695      0.000      0.000
REMARK  4 active torsions:
REMARK  status: ('A' for Active; 'I' for Inactive)
REMARK    1  A    between atoms: C4_4  and  C5_5 
REMARK    2  A    between atoms: C11_13  and  C12_14 
REMARK    3  A    between atoms: C12_14  and  S1_15 
REMARK    4  A    between atoms: C12_14  and  C14_17 
ROOT
HETATM    1  C1  UNL     1      96.038  21.458  62.954  1.00  0.00     0.024 C 
HETATM    2  C2  UNL     1      94.732  21.525  63.124  1.00  0.00    -0.035 A 
HETATM    3  C3  UNL     1      93.875  20.627  62.334  1.00  0.00     0.036 A 
HETATM    4  C4  UNL     1      92.558  20.648  62.394  1.00  0.00     0.013 A 
HETATM    5  N1  UNL     1      91.977  21.584  63.262  1.00  0.00    -0.368 N 
ATOM      6  H1  UNL     1      90.961  21.628  63.332  1.00  0.00     0.165 HD
HETATM    7  C10 UNL     1      92.773  22.487  64.061  1.00  0.00     0.097 A 
HETATM    8  C11 UNL     1      94.093  22.500  64.033  1.00  0.00    -0.015 A 
ENDROOT
BRANCH   8   9
HETATM    9  C12 UNL     1      94.843  23.362  64.921  1.00  0.00     0.136 C 
BRANCH   9  10
HETATM   10  S1  UNL     1      94.417  25.090  64.885  1.00  0.00    -0.159 SA
HETATM   11  C13 UNL     1      94.258  25.897  63.328  1.00  0.00     0.090 C 
ENDBRANCH   9  10
BRANCH   9  12
HETATM   12  C14 UNL     1      95.029  22.884  66.339  1.00  0.00     0.204 C 
HETATM   13 CL1  UNL     1      94.440  21.246  66.649  1.00  0.00    -0.082 Cl
HETATM   14 CL2  UNL     1      94.297  24.034  67.516  1.00  0.00    -0.082 Cl
HETATM   15 CL3  UNL     1      96.787  22.864  66.731  1.00  0.00    -0.082 Cl
ENDBRANCH   9  12
ENDBRANCH   8   9
BRANCH   4  16
HETATM   16  C5  UNL     1      91.775  19.702  61.558  1.00  0.00     0.035 C 
HETATM   17  C6  UNL     1      92.639  18.672  60.873  1.00  0.00     0.011 C 
HETATM   18  C7  UNL     1      91.737  18.157  59.755  1.00  0.00     0.001 C 
HETATM   19  C8  UNL     1      90.627  19.148  59.594  1.00  0.00     0.001 C 
HETATM   20  C9  UNL     1      91.120  20.371  60.374  1.00  0.00     0.011 C 
ENDBRANCH   4  16
TORSDOF 4
ENDMDL
MODEL 2
REMARK VINA RESULT: -6.002910760      1.705      2.472
REMARK  4 active torsions:
REMARK  status: ('A' for Active; 'I' for Inactive)
REMARK    1  A    between atoms: C4_4  and  C5_5 
REMARK    2  A    between atoms: C11_13  and  C12_14 
REMARK    3  A    between atoms: C12_14  and  S1_15 
REMARK    4  A    between atoms: C12_14  and  C14_17 
ROOT
HETATM    1  C1  UNL     1      92.597  24.254  63.095  1.00  0.00     0.024 C 
HETATM    2  C2  UNL     1      92.849  22.970  63.259  1.00  0.00    -0.035 A 
HETATM    3  C3  UNL     1      92.144  22.003  62.403  1.00  0.00     0.036 A 
HETATM    4  C4  UNL     1      92.288  20.698  62.518  1.00  0.00     0.013 A 
HETATM    5  N1  UNL     1      93.163  20.241  63.514  1.00  0.00    -0.368 N 
ATOM      6  H1  UNL     1      93.297  19.237  63.632  1.00  0.00     0.165 HD
HETATM    7  C10 UNL     1      93.881  21.148  64.380  1.00  0.00     0.097 A 
HETATM    8  C11 UNL     1      93.767  22.461  64.299  1.00  0.00    -0.015 A 
ENDROOT
BRANCH   8   9
HETATM    9  C12 UNL     1      94.578  23.326  65.129  1.00  0.00     0.136 C 
BRANCH   9  10
HETATM   10  S1  UNL     1      94.456  23.069  66.887  1.00  0.00    -0.159 SA
HETATM   11  C13 UNL     1      94.438  24.469  67.954  1.00  0.00     0.090 C 
ENDBRANCH   9  10
BRANCH   9  12
HETATM   12  C14 UNL     1      96.015  23.519  64.713  1.00  0.00     0.204 C 
HETATM   13 CL1  UNL     1      96.317  23.303  62.985  1.00  0.00    -0.082 Cl
HETATM   14 CL2  UNL     1      97.118  22.464  65.668  1.00  0.00    -0.082 Cl
HETATM   15 CL3  UNL     1      96.521  25.204  65.101  1.00  0.00    -0.082 Cl
ENDBRANCH   9  12
ENDBRANCH   8   9
BRANCH   4  16
HETATM   16  C5  UNL     1      91.533  19.797  61.608  1.00  0.00     0.035 C 
HETATM   17  C6  UNL     1      92.417  18.783  60.925  1.00  0.00     0.011 C 
HETATM   18  C7  UNL     1      91.564  18.326  59.744  1.00  0.00     0.001 C 
HETATM   19  C8  UNL     1      90.475  19.339  59.571  1.00  0.00     0.001 C 
HETATM   20  C9  UNL     1      90.945  20.522  60.422  1.00  0.00     0.011 C 
ENDBRANCH   4  16
TORSDOF 4
ENDMDL
MODEL 3
REMARK VINA RESULT: -5.996651771      1.865      2.825
REMARK  4 active torsions:
REMARK  status: ('A' for Active; 'I' for Inactive)
REMARK    1  A    between atoms: C4_4  and  C5_5 
REMARK    2  A    between atoms: C11_13  and  C12_14 
REMARK    3  A    between atoms: C12_14  and  S1_15 
REMARK    4  A    between atoms: C12_14  and  C14_17 
ROOT
HETATM    1  C1  UNL     1      92.251  22.204  65.375  1.00  0.00     0.024 C 
HETATM    2  C2  UNL     1      92.825  21.787  64.262  1.00  0.00    -0.035 A 
HETATM    3  C3  UNL     1      92.029  20.984  63.321  1.00  0.00     0.036 A 
HETATM    4  C4  UNL     1      92.520  20.479  62.207  1.00  0.00     0.013 A 
HETATM    5  N1  UNL     1      93.872  20.739  61.935  1.00  0.00    -0.368 N 
ATOM      6  H1  UNL     1      94.285  20.363  61.082  1.00  0.00     0.165 HD
HETATM    7  C10 UNL     1      94.697  21.523  62.825  1.00  0.00     0.097 A 
HETATM    8  C11 UNL     1      94.246  22.048  63.950  1.00  0.00    -0.015 A 
ENDROOT
BRANCH   8   9
HETATM    9  C12 UNL     1      95.090  22.900  64.758  1.00  0.00     0.136 C 
BRANCH   9  10
HETATM   10  S1  UNL     1      96.790  22.399  64.920  1.00  0.00    -0.159 SA
HETATM   11  C13 UNL     1      97.406  21.972  66.513  1.00  0.00     0.090 C 
ENDBRANCH   9  10
BRANCH   9  12
HETATM   12  C14 UNL     1      94.989  24.386  64.517  1.00  0.00     0.204 C 
HETATM   13 CL1  UNL     1      93.799  24.855  63.297  1.00  0.00    -0.082 Cl
HETATM   14 CL2  UNL     1      96.596  25.092  64.115  1.00  0.00    -0.082 Cl
HETATM   15 CL3  UNL     1      94.485  25.200  66.043  1.00  0.00    -0.082 Cl
ENDBRANCH   9  12
ENDBRANCH   8   9
BRANCH   4  16
HETATM   16  C5  UNL     1      91.639  19.680  61.317  1.00  0.00     0.035 C 
HETATM   17  C6  UNL     1      92.394  18.634  60.534  1.00  0.00     0.011 C 
HETATM   18  C7  UNL     1      91.431  18.296  59.399  1.00  0.00     0.001 C 
HETATM   19  C8  UNL     1      90.414  19.393  59.343  1.00  0.00     0.001 C 
HETATM   20  C9  UNL     1      91.031  20.499  60.205  1.00  0.00     0.011 C 
ENDBRANCH   4  16
TORSDOF 4
ENDMDL
MODEL 4
REMARK VINA RESULT: -5.927138089      1.773      2.891
REMARK  4 active torsions:
REMARK  status: ('A' for Active; 'I' for Inactive)
REMARK    1  A    between atoms: C4_4  and  C5_5 
REMARK    2  A    between atoms: C11_13  and  C12_14 
REMARK    3  A    between atoms: C12_14  and  S1_15 
REMARK    4  A    between atoms: C12_14  and  C14_17 
ROOT
HETATM    1  C1  UNL     1      91.380  22.279  64.993  1.00  0.00     0.024 C 
HETATM    2  C2  UNL     1      92.313  21.881  64.150  1.00  0.00    -0.035 A 
HETATM    3  C3  UNL     1      91.898  21.202  62.913  1.00  0.00     0.036 A 
HETATM    4  C4  UNL     1      92.752  20.724  62.030  1.00  0.00     0.013 A 
HETATM    5  N1  UNL     1      94.116  20.888  62.312  1.00  0.00    -0.368 N 
ATOM      6  H1  UNL     1      94.804  20.529  61.651  1.00  0.00     0.165 HD
HETATM    7  C10 UNL     1      94.576  21.549  63.512  1.00  0.00     0.097 A 
HETATM    8  C11 UNL     1      93.757  22.043  64.422  1.00  0.00    -0.015 A 
ENDROOT
BRANCH   8   9
HETATM    9  C12 UNL     1      94.271  22.775  65.559  1.00  0.00     0.136 C 
BRANCH   9  10
HETATM   10  S1  UNL     1      95.430  21.909  66.595  1.00  0.00    -0.159 SA
HETATM   11  C13 UNL     1      96.121  22.742  67.984  1.00  0.00     0.090 C 
ENDBRANCH   9  10
BRANCH   9  12
HETATM   12  C14 UNL     1      94.728  24.191  65.308  1.00  0.00     0.204 C 
HETATM   13 CL1  UNL     1      96.420  24.342  64.818  1.00  0.00    -0.082 Cl
HETATM   14 CL2  UNL     1      94.403  25.243  66.733  1.00  0.00    -0.082 Cl
HETATM   15 CL3  UNL     1      93.756  24.898  63.968  1.00  0.00    -0.082 Cl
ENDBRANCH   9  12
ENDBRANCH   8   9
BRANCH   4  16
HETATM   16  C5  UNL     1      92.238  20.052  60.808  1.00  0.00     0.035 C 
HETATM   17  C6  UNL     1      90.759  20.265  60.601  1.00  0.00     0.011 C 
HETATM   18  C7  UNL     1      90.385  19.149  59.630  1.00  0.00     0.001 C 
HETATM   19  C8  UNL     1      91.504  18.154  59.652  1.00  0.00     0.001 C 
HETATM   20  C9  UNL     1      92.311  18.547  60.893  1.00  0.00     0.011 C 
ENDBRANCH   4  16
TORSDOF 4
ENDMDL
MODEL 5
REMARK VINA RESULT: -5.892470790      1.999      3.003
REMARK  4 active torsions:
REMARK  status: ('A' for Active; 'I' for Inactive)
REMARK    1  A    between atoms: C4_4  and  C5_5 
REMARK    2  A    between atoms: C11_13  and  C12_14 
REMARK    3  A    between atoms: C12_14  and  S1_15 
REMARK    4  A    between atoms: C12_14  and  C14_17 
ROOT
HETATM    1  C1  UNL     1      91.352  22.624  65.015  1.00  0.00     0.024 C 
HETATM    2  C2  UNL     1      92.210  22.107  64.157  1.00  0.00    -0.035 A 
HETATM    3  C3  UNL     1      91.748  21.033  63.263  1.00  0.00     0.036 A 
HETATM    4  C4  UNL     1      92.538  20.419  62.405  1.00  0.00     0.013 A 
HETATM    5  N1  UNL     1      93.878  20.832  62.367  1.00  0.00    -0.368 N 
ATOM      6  H1  UNL     1      94.517  20.376  61.715  1.00  0.00     0.165 HD
HETATM    7  C10 UNL     1      94.381  21.882  63.221  1.00  0.00     0.097 A 
HETATM    8  C11 UNL     1      93.627  22.525  64.094  1.00  0.00    -0.015 A 
ENDROOT
BRANCH   8   9
HETATM    9  C12 UNL     1      94.160  23.630  64.860  1.00  0.00     0.136 C 
BRANCH   9  10
HETATM   10  S1  UNL     1      95.513  23.250  65.953  1.00  0.00    -0.159 SA
HETATM   11  C13 UNL     1      95.461  21.758  66.887  1.00  0.00     0.090 C 
ENDBRANCH   9  10
BRANCH   9  12
HETATM   12  C14 UNL     1      94.418  24.915  64.114  1.00  0.00     0.204 C 
HETATM   13 CL1  UNL     1      93.158  25.361  62.957  1.00  0.00    -0.082 Cl
HETATM   14 CL2  UNL     1      96.022  24.885  63.296  1.00  0.00    -0.082 Cl
HETATM   15 CL3  UNL     1      94.515  26.274  65.292  1.00  0.00    -0.082 Cl
ENDBRANCH   9  12
ENDBRANCH   8   9
BRANCH   4  16
HETATM   16  C5  UNL     1      91.982  19.344  61.542  1.00  0.00     0.035 C 
HETATM   17  C6  UNL     1      93.039  18.395  61.035  1.00  0.00     0.011 C 
HETATM   18  C7  UNL     1      92.354  17.720  59.850  1.00  0.00     0.001 C 
HETATM   19  C8  UNL     1      91.166  18.559  59.493  1.00  0.00     0.001 C 
HETATM   20  C9  UNL     1      91.412  19.870  60.247  1.00  0.00     0.011 C 
ENDBRANCH   4  16
TORSDOF 4
ENDMDL
