MODEL 1
REMARK VINA RESULT: -7.444161128      0.000      0.000
REMARK  3 active torsions:
REMARK  status: ('A' for Active; 'I' for Inactive)
REMARK    1  A    between atoms: C2_2  and  C3_3 
REMARK       I    between atoms: C3_3  and  N1_5 
REMARK    2  A    between atoms: N1_5  and  C4_7 
REMARK    3  A    between atoms: C4_7  and  C5_8 
ROOT
HETATM    1  C3  UNL     1      93.200  21.329  63.242  1.00  0.00     0.235 C 
HETATM    2  O1  UNL     1      93.753  20.942  64.296  1.00  0.00    -0.272 OA
HETATM    3  N1  UNL     1      93.299  22.591  62.639  1.00  0.00    -0.339 N 
ATOM      4  H1  UNL     1      92.791  22.711  61.763  1.00  0.00     0.167 HD
ENDROOT
BRANCH   3   5
HETATM    5  C4  UNL     1      94.012  23.703  63.099  1.00  0.00     0.073 C 
BRANCH   5   6
HETATM    6  C5  UNL     1      94.033  24.987  62.356  1.00  0.00    -0.007 C 
HETATM    7  C6  UNL     1      95.234  25.046  61.401  1.00  0.00     0.019 C 
HETATM    8  C7  UNL     1      95.270  26.409  60.788  1.00  0.00    -0.013 C 
HETATM    9  C8  UNL     1      94.002  26.852  60.137  1.00  0.00     0.009 C 
HETATM   10  C12 UNL     1      95.592  27.438  61.871  1.00  0.00     0.009 C 
HETATM   11  C9  UNL     1      92.834  26.786  61.128  1.00  0.00    -0.013 C 
HETATM   12  C10 UNL     1      93.113  27.736  62.231  1.00  0.00     0.009 C 
HETATM   13  C14 UNL     1      92.809  25.342  61.633  1.00  0.00     0.019 C 
HETATM   14  C11 UNL     1      94.461  27.409  62.855  1.00  0.00    -0.013 C 
HETATM   15  C13 UNL     1      94.356  26.052  63.434  1.00  0.00     0.019 C 
ENDBRANCH   5   6
ENDBRANCH   3   5
BRANCH   1  16
HETATM   16  C2  UNL     1      92.336  20.254  62.597  1.00  0.00     0.103 C 
HETATM   17  C1  UNL     1      91.610  19.487  63.661  1.00  0.00     0.032 C 
HETATM   18  C15 UNL     1      91.315  20.980  61.760  1.00  0.00     0.025 C 
HETATM   19  C16 UNL     1      90.644  20.120  60.728  1.00  0.00     0.002 C 
HETATM   20  C17 UNL     1      91.617  19.231  59.991  1.00  0.00     0.006 C 
HETATM   21  C18 UNL     1      92.474  18.428  60.912  1.00  0.00     0.080 C 
HETATM   22  C19 UNL     1      93.235  19.372  61.818  1.00  0.00     0.259 C 
HETATM   23  F1  UNL     1      94.037  18.654  62.682  1.00  0.00    -0.205 F 
HETATM   24  F2  UNL     1      94.100  20.084  60.995  1.00  0.00    -0.205 F 
ENDBRANCH   1  16
TORSDOF 3
ENDMDL
MODEL 2
REMARK VINA RESULT: -7.386795459      1.609      2.145
REMARK  3 active torsions:
REMARK  status: ('A' for Active; 'I' for Inactive)
REMARK    1  A    between atoms: C2_2  and  C3_3 
REMARK       I    between atoms: C3_3  and  N1_5 
REMARK    2  A    between atoms: N1_5  and  C4_7 
REMARK    3  A    between atoms: C4_7  and  C5_8 
ROOT
HETATM    1  C3  UNL     1      93.278  23.319  63.589  1.00  0.00     0.235 C 
HETATM    2  O1  UNL     1      93.392  23.906  64.688  1.00  0.00    -0.272 OA
HETATM    3  N1  UNL     1      93.828  23.698  62.356  1.00  0.00    -0.339 N 
ATOM      4  H1  UNL     1      93.644  23.074  61.571  1.00  0.00     0.167 HD
ENDROOT
BRANCH   3   5
HETATM    5  C4  UNL     1      94.599  24.832  62.078  1.00  0.00     0.073 C 
BRANCH   5   6
HETATM    6  C5  UNL     1      94.010  26.060  61.491  1.00  0.00    -0.007 C 
HETATM    7  C6  UNL     1      94.767  26.476  60.221  1.00  0.00     0.019 C 
HETATM    8  C7  UNL     1      94.211  27.785  59.759  1.00  0.00    -0.013 C 
HETATM    9  C8  UNL     1      92.729  27.823  59.578  1.00  0.00     0.009 C 
HETATM   10  C12 UNL     1      94.556  28.867  60.783  1.00  0.00     0.009 C 
HETATM   11  C9  UNL     1      92.016  27.409  60.871  1.00  0.00    -0.013 C 
HETATM   12  C10 UNL     1      92.352  28.403  61.919  1.00  0.00     0.009 C 
HETATM   13  C14 UNL     1      92.570  26.027  61.219  1.00  0.00     0.019 C 
HETATM   14  C11 UNL     1      93.863  28.499  62.061  1.00  0.00    -0.013 C 
HETATM   15  C13 UNL     1      94.344  27.176  62.512  1.00  0.00     0.019 C 
ENDBRANCH   5   6
ENDBRANCH   3   5
BRANCH   1  16
HETATM   16  C2  UNL     1      92.429  22.057  63.676  1.00  0.00     0.103 C 
HETATM   17  C1  UNL     1      91.288  22.284  64.621  1.00  0.00     0.032 C 
HETATM   18  C15 UNL     1      91.864  21.834  62.298  1.00  0.00     0.025 C 
HETATM   19  C16 UNL     1      91.351  20.441  62.063  1.00  0.00     0.002 C 
HETATM   20  C17 UNL     1      92.287  19.382  62.593  1.00  0.00     0.006 C 
HETATM   21  C18 UNL     1      92.659  19.603  64.021  1.00  0.00     0.080 C 
HETATM   22  C19 UNL     1      93.310  20.965  64.150  1.00  0.00     0.259 C 
HETATM   23  F1  UNL     1      93.665  21.197  65.464  1.00  0.00    -0.205 F 
HETATM   24  F2  UNL     1      94.502  20.892  63.438  1.00  0.00    -0.205 F 
ENDBRANCH   1  16
TORSDOF 3
ENDMDL
MODEL 3
REMARK VINA RESULT: -7.353567906      0.208      1.549
REMARK  3 active torsions:
REMARK  status: ('A' for Active; 'I' for Inactive)
REMARK    1  A    between atoms: C2_2  and  C3_3 
REMARK       I    between atoms: C3_3  and  N1_5 
REMARK    2  A    between atoms: N1_5  and  C4_7 
REMARK    3  A    between atoms: C4_7  and  C5_8 
ROOT
HETATM    1  C3  UNL     1      93.294  21.333  63.290  1.00  0.00     0.235 C 
HETATM    2  O1  UNL     1      93.652  20.986  64.438  1.00  0.00    -0.272 OA
HETATM    3  N1  UNL     1      93.635  22.509  62.607  1.00  0.00    -0.339 N 
ATOM      4  H1  UNL     1      93.263  22.605  61.663  1.00  0.00     0.167 HD
ENDROOT
BRANCH   3   5
HETATM    5  C4  UNL     1      94.426  23.566  63.071  1.00  0.00     0.073 C 
BRANCH   5   6
HETATM    6  C5  UNL     1      94.234  24.958  62.598  1.00  0.00    -0.007 C 
HETATM    7  C6  UNL     1      92.883  25.112  61.885  1.00  0.00     0.019 C 
HETATM    8  C7  UNL     1      92.813  26.495  61.320  1.00  0.00    -0.013 C 
HETATM    9  C8  UNL     1      93.073  27.598  62.292  1.00  0.00     0.009 C 
HETATM   10  C12 UNL     1      93.851  26.636  60.207  1.00  0.00     0.009 C 
HETATM   11  C9  UNL     1      94.435  27.408  62.973  1.00  0.00    -0.013 C 
HETATM   12  C10 UNL     1      95.485  27.490  61.929  1.00  0.00     0.009 C 
HETATM   13  C14 UNL     1      94.386  26.015  63.602  1.00  0.00     0.019 C 
HETATM   14  C11 UNL     1      95.200  26.467  60.841  1.00  0.00    -0.013 C 
HETATM   15  C13 UNL     1      95.279  25.130  61.467  1.00  0.00     0.019 C 
ENDBRANCH   5   6
ENDBRANCH   3   5
BRANCH   1  16
HETATM   16  C2  UNL     1      92.381  20.313  62.620  1.00  0.00     0.103 C 
HETATM   17  C1  UNL     1      91.619  19.557  63.666  1.00  0.00     0.032 C 
HETATM   18  C15 UNL     1      91.397  21.105  61.799  1.00  0.00     0.025 C 
HETATM   19  C16 UNL     1      90.688  20.300  60.747  1.00  0.00     0.002 C 
HETATM   20  C17 UNL     1      91.621  19.384  59.992  1.00  0.00     0.006 C 
HETATM   21  C18 UNL     1      92.438  18.522  60.894  1.00  0.00     0.080 C 
HETATM   22  C19 UNL     1      93.241  19.409  61.823  1.00  0.00     0.259 C 
HETATM   23  F1  UNL     1      94.007  18.636  62.671  1.00  0.00    -0.205 F 
HETATM   24  F2  UNL     1      94.139  20.099  61.017  1.00  0.00    -0.205 F 
ENDBRANCH   1  16
TORSDOF 3
ENDMDL
MODEL 4
REMARK VINA RESULT: -7.293384997      1.564      2.609
REMARK  3 active torsions:
REMARK  status: ('A' for Active; 'I' for Inactive)
REMARK    1  A    between atoms: C2_2  and  C3_3 
REMARK       I    between atoms: C3_3  and  N1_5 
REMARK    2  A    between atoms: N1_5  and  C4_7 
REMARK    3  A    between atoms: C4_7  and  C5_8 
ROOT
HETATM    1  C3  UNL     1      93.288  23.277  63.583  1.00  0.00     0.235 C 
HETATM    2  O1  UNL     1      93.412  23.872  64.677  1.00  0.00    -0.272 OA
HETATM    3  N1  UNL     1      93.860  23.625  62.351  1.00  0.00    -0.339 N 
ATOM      4  H1  UNL     1      93.663  23.000  61.570  1.00  0.00     0.167 HD
ENDROOT
BRANCH   3   5
HETATM    5  C4  UNL     1      94.670  24.731  62.068  1.00  0.00     0.073 C 
BRANCH   5   6
HETATM    6  C5  UNL     1      94.100  26.065  61.759  1.00  0.00    -0.007 C 
HETATM    7  C6  UNL     1      92.609  25.955  61.411  1.00  0.00     0.019 C 
HETATM    8  C7  UNL     1      92.133  27.306  60.981  1.00  0.00    -0.013 C 
HETATM    9  C8  UNL     1      92.415  28.418  61.937  1.00  0.00     0.009 C 
HETATM   10  C12 UNL     1      92.807  27.679  59.661  1.00  0.00     0.009 C 
HETATM   11  C9  UNL     1      93.915  28.496  62.248  1.00  0.00    -0.013 C 
HETATM   12  C10 UNL     1      94.629  28.812  60.988  1.00  0.00     0.009 C 
HETATM   13  C14 UNL     1      94.296  27.109  62.768  1.00  0.00     0.019 C 
HETATM   14  C11 UNL     1      94.279  27.776  59.932  1.00  0.00    -0.013 C 
HETATM   15  C13 UNL     1      94.770  26.470  60.422  1.00  0.00     0.019 C 
ENDBRANCH   5   6
ENDBRANCH   3   5
BRANCH   1  16
HETATM   16  C2  UNL     1      92.398  22.044  63.675  1.00  0.00     0.103 C 
HETATM   17  C1  UNL     1      91.265  22.313  64.618  1.00  0.00     0.032 C 
HETATM   18  C15 UNL     1      91.826  21.833  62.298  1.00  0.00     0.025 C 
HETATM   19  C16 UNL     1      91.268  20.457  62.069  1.00  0.00     0.002 C 
HETATM   20  C17 UNL     1      92.169  19.370  62.605  1.00  0.00     0.006 C 
HETATM   21  C18 UNL     1      92.548  19.586  64.031  1.00  0.00     0.080 C 
HETATM   22  C19 UNL     1      93.242  20.926  64.155  1.00  0.00     0.259 C 
HETATM   23  F1  UNL     1      93.604  21.152  65.467  1.00  0.00    -0.205 F 
HETATM   24  F2  UNL     1      94.431  20.811  63.444  1.00  0.00    -0.205 F 
ENDBRANCH   1  16
TORSDOF 3
ENDMDL
MODEL 5
REMARK VINA RESULT: -7.283242397      3.297      4.249
REMARK  3 active torsions:
REMARK  status: ('A' for Active; 'I' for Inactive)
REMARK    1  A    between atoms: C2_2  and  C3_3 
REMARK       I    between atoms: C3_3  and  N1_5 
REMARK    2  A    between atoms: N1_5  and  C4_7 
REMARK    3  A    between atoms: C4_7  and  C5_8 
ROOT
HETATM    1  C3  UNL     1      92.264  21.375  62.652  1.00  0.00     0.235 C 
HETATM    2  O1  UNL     1      92.089  22.286  61.812  1.00  0.00    -0.272 OA
HETATM    3  N1  UNL     1      92.784  21.496  63.948  1.00  0.00    -0.339 N 
ATOM      4  H1  UNL     1      92.828  20.638  64.498  1.00  0.00     0.167 HD
ENDROOT
BRANCH   3   5
HETATM    5  C4  UNL     1      93.249  22.657  64.576  1.00  0.00     0.073 C 
BRANCH   5   6
HETATM    6  C5  UNL     1      94.554  22.702  65.280  1.00  0.00    -0.007 C 
HETATM    7  C6  UNL     1      94.591  21.685  66.430  1.00  0.00     0.019 C 
HETATM    8  C7  UNL     1      95.873  21.876  67.175  1.00  0.00    -0.013 C 
HETATM    9  C8  UNL     1      97.110  21.838  66.341  1.00  0.00     0.009 C 
HETATM   10  C12 UNL     1      95.852  23.238  67.869  1.00  0.00     0.009 C 
HETATM   11  C9  UNL     1      97.034  22.874  65.213  1.00  0.00    -0.013 C 
HETATM   12  C10 UNL     1      96.965  24.220  65.830  1.00  0.00     0.009 C 
HETATM   13  C14 UNL     1      95.750  22.549  64.447  1.00  0.00     0.019 C 
HETATM   14  C11 UNL     1      95.789  24.279  66.792  1.00  0.00    -0.013 C 
HETATM   15  C13 UNL     1      94.561  24.078  65.993  1.00  0.00     0.019 C 
ENDBRANCH   5   6
ENDBRANCH   3   5
BRANCH   1  16
HETATM   16  C2  UNL     1      91.845  20.004  62.137  1.00  0.00     0.103 C 
HETATM   17  C1  UNL     1      91.229  19.215  63.252  1.00  0.00     0.032 C 
HETATM   18  C15 UNL     1      90.786  20.252  61.094  1.00  0.00     0.025 C 
HETATM   19  C16 UNL     1      90.543  19.086  60.178  1.00  0.00     0.002 C 
HETATM   20  C17 UNL     1      91.824  18.443  59.705  1.00  0.00     0.006 C 
HETATM   21  C18 UNL     1      92.738  18.085  60.829  1.00  0.00     0.080 C 
HETATM   22  C19 UNL     1      93.060  19.338  61.615  1.00  0.00     0.259 C 
HETATM   23  F1  UNL     1      93.905  19.035  62.663  1.00  0.00    -0.205 F 
HETATM   24  F2  UNL     1      93.790  20.154  60.758  1.00  0.00    -0.205 F 
ENDBRANCH   1  16
TORSDOF 3
ENDMDL
