MODEL 1
REMARK VINA RESULT: -6.861156922      0.000      0.000
REMARK  6 active torsions:
REMARK  status: ('A' for Active; 'I' for Inactive)
REMARK    1  A    between atoms: C2_2  and  C3_3 
REMARK    2  A    between atoms: C3_3  and  C4_4 
REMARK    3  A    between atoms: C4_4  and  N1_5 
REMARK    4  A    between atoms: C5_6  and  O1_7 
REMARK    5  A    between atoms: C8_11  and  S1_12 
REMARK    6  A    between atoms: S1_12  and  S2_13 
ROOT
HETATM    1  N1  UNL     1      12.545  12.504   2.709  1.00  0.00    -0.319 N 
HETATM    2  C5  UNL     1      13.604  12.153   3.449  1.00  0.00     0.153 A 
HETATM    3  C6  UNL     1      14.558  13.196   3.405  1.00  0.00     0.049 A 
HETATM    4  C7  UNL     1      14.035  14.177   2.618  1.00  0.00     0.124 A 
HETATM    5  C8  UNL     1      12.786  13.725   2.197  1.00  0.00     0.119 A 
HETATM    6  O2  UNL     1      14.723  15.358   2.359  1.00  0.00    -0.293 OA
HETATM    7  C10 UNL     1      15.986  15.515   2.936  1.00  0.00     0.137 C 
HETATM    8  N2  UNL     1      16.528  16.662   3.084  1.00  0.00    -0.382 N 
ATOM      9  H21 UNL     1      17.450  16.776   3.506  1.00  0.00     0.158 HD
ATOM     10  H22 UNL     1      16.016  17.485   2.769  1.00  0.00     0.158 HD
HETATM   11  C11 UNL     1      16.734  14.313   3.398  1.00  0.00     0.189 C 
HETATM   12  C12 UNL     1      17.795  14.723   4.345  1.00  0.00     0.074 C 
HETATM   13  N3  UNL     1      18.629  15.039   5.083  1.00  0.00    -0.196 NA
HETATM   14  C13 UNL     1      15.873  13.307   4.054  1.00  0.00     0.158 C 
HETATM   15  C14 UNL     1      15.657  13.643   5.474  1.00  0.00     0.070 C 
HETATM   16  N4  UNL     1      15.489  13.906   6.593  1.00  0.00    -0.197 NA
ENDROOT
BRANCH   2  17
HETATM   17  O1  UNL     1      13.812  10.984   4.169  1.00  0.00    -0.345 OA
ATOM     18  H1  UNL     1      14.633  10.572   4.411  1.00  0.00     0.219 HD
ENDBRANCH   2  17
BRANCH   5  19
HETATM   19  S1  UNL     1      11.676  14.620   1.146  1.00  0.00    -0.037 SA
BRANCH  19  20
HETATM   20  S2  UNL     1      10.664  16.092   2.299  1.00  0.00    -0.095 SA
HETATM   21  C9  UNL     1       9.485  16.927   1.230  1.00  0.00     0.103 C 
ENDBRANCH  19  20
ENDBRANCH   5  19
BRANCH   1  22
HETATM   22  C4  UNL     1      11.361  11.670   2.522  1.00  0.00     0.132 C 
BRANCH  22  23
HETATM   23  C3  UNL     1      11.484  10.863   1.229  1.00  0.00     0.020 C 
BRANCH  23  24
HETATM   24  C2  UNL     1      11.935   9.470   1.627  1.00  0.00    -0.003 C 
HETATM   25  C1  UNL     1      13.400   9.344   1.272  1.00  0.00     0.005 C 
ENDBRANCH  23  24
ENDBRANCH  22  23
ENDBRANCH   1  22
TORSDOF 6
ENDMDL
MODEL 2
REMARK VINA RESULT: -6.622278412      3.167      4.648
REMARK  6 active torsions:
REMARK  status: ('A' for Active; 'I' for Inactive)
REMARK    1  A    between atoms: C2_2  and  C3_3 
REMARK    2  A    between atoms: C3_3  and  C4_4 
REMARK    3  A    between atoms: C4_4  and  N1_5 
REMARK    4  A    between atoms: C5_6  and  O1_7 
REMARK    5  A    between atoms: C8_11  and  S1_12 
REMARK    6  A    between atoms: S1_12  and  S2_13 
ROOT
HETATM    1  N1  UNL     1      13.788  11.281   3.489  1.00  0.00    -0.319 N 
HETATM    2  C5  UNL     1      13.667  12.614   3.448  1.00  0.00     0.153 A 
HETATM    3  C6  UNL     1      14.859  13.196   3.936  1.00  0.00     0.049 A 
HETATM    4  C7  UNL     1      15.692  12.172   4.269  1.00  0.00     0.124 A 
HETATM    5  C8  UNL     1      15.006  10.993   3.984  1.00  0.00     0.119 A 
HETATM    6  O2  UNL     1      16.963  12.395   4.791  1.00  0.00    -0.293 OA
HETATM    7  C10 UNL     1      17.369  13.720   4.967  1.00  0.00     0.137 C 
HETATM    8  N2  UNL     1      18.600  14.047   5.068  1.00  0.00    -0.382 N 
ATOM      9  H21 UNL     1      18.896  15.014   5.197  1.00  0.00     0.158 HD
ATOM     10  H22 UNL     1      19.303  13.309   5.017  1.00  0.00     0.158 HD
HETATM   11  C11 UNL     1      16.342  14.797   5.041  1.00  0.00     0.189 C 
HETATM   12  C12 UNL     1      16.980  16.108   4.784  1.00  0.00     0.074 C 
HETATM   13  N3  UNL     1      17.475  17.136   4.587  1.00  0.00    -0.196 NA
HETATM   14  C13 UNL     1      15.234  14.611   4.082  1.00  0.00     0.158 C 
HETATM   15  C14 UNL     1      15.595  15.131   2.749  1.00  0.00     0.070 C 
HETATM   16  N4  UNL     1      15.878  15.542   1.701  1.00  0.00    -0.197 NA
ENDROOT
BRANCH   2  17
HETATM   17  O1  UNL     1      12.590  13.375   3.013  1.00  0.00    -0.345 OA
ATOM     18  H1  UNL     1      12.564  14.300   2.795  1.00  0.00     0.219 HD
ENDBRANCH   2  17
BRANCH   5  19
HETATM   19  S1  UNL     1      15.637   9.357   4.232  1.00  0.00    -0.037 SA
BRANCH  19  20
HETATM   20  S2  UNL     1      17.088   9.400   5.785  1.00  0.00    -0.095 SA
HETATM   21  C9  UNL     1      17.764   7.745   5.965  1.00  0.00     0.103 C 
ENDBRANCH  19  20
ENDBRANCH   5  19
BRANCH   1  22
HETATM   22  C4  UNL     1      12.749  10.348   3.061  1.00  0.00     0.132 C 
BRANCH  22  23
HETATM   23  C3  UNL     1      13.141   9.697   1.734  1.00  0.00     0.020 C 
BRANCH  23  24
HETATM   24  C2  UNL     1      11.900   9.711   0.861  1.00  0.00    -0.003 C 
HETATM   25  C1  UNL     1      11.177  11.016   1.111  1.00  0.00     0.005 C 
ENDBRANCH  23  24
ENDBRANCH  22  23
ENDBRANCH   1  22
TORSDOF 6
ENDMDL
MODEL 3
REMARK VINA RESULT: -6.454238733      4.193      6.360
REMARK  6 active torsions:
REMARK  status: ('A' for Active; 'I' for Inactive)
REMARK    1  A    between atoms: C2_2  and  C3_3 
REMARK    2  A    between atoms: C3_3  and  C4_4 
REMARK    3  A    between atoms: C4_4  and  N1_5 
REMARK    4  A    between atoms: C5_6  and  O1_7 
REMARK    5  A    between atoms: C8_11  and  S1_12 
REMARK    6  A    between atoms: S1_12  and  S2_13 
ROOT
HETATM    1  N1  UNL     1      16.910   9.620   4.970  1.00  0.00    -0.319 N 
HETATM    2  C5  UNL     1      15.747   9.112   4.543  1.00  0.00     0.153 A 
HETATM    3  C6  UNL     1      14.944  10.165   4.046  1.00  0.00     0.049 A 
HETATM    4  C7  UNL     1      15.663  11.313   4.191  1.00  0.00     0.124 A 
HETATM    5  C8  UNL     1      16.878  10.949   4.766  1.00  0.00     0.119 A 
HETATM    6  O2  UNL     1      15.161  12.551   3.800  1.00  0.00    -0.293 OA
HETATM    7  C10 UNL     1      13.879  12.587   3.247  1.00  0.00     0.137 C 
HETATM    8  N2  UNL     1      13.476  13.561   2.526  1.00  0.00    -0.382 N 
ATOM      9  H21 UNL     1      12.541  13.588   2.122  1.00  0.00     0.158 HD
ATOM     10  H22 UNL     1      14.119  14.334   2.353  1.00  0.00     0.158 HD
HETATM   11  C11 UNL     1      12.940  11.458   3.499  1.00  0.00     0.189 C 
HETATM   12  C12 UNL     1      11.854  11.483   2.495  1.00  0.00     0.074 C 
HETATM   13  N3  UNL     1      10.999  11.501   1.714  1.00  0.00    -0.196 NA
HETATM   14  C13 UNL     1      13.597  10.135   3.456  1.00  0.00     0.158 C 
HETATM   15  C14 UNL     1      13.714   9.648   2.068  1.00  0.00     0.070 C 
HETATM   16  N4  UNL     1      13.804   9.263   0.977  1.00  0.00    -0.197 NA
ENDROOT
BRANCH   2  17
HETATM   17  O1  UNL     1      15.321   7.791   4.548  1.00  0.00    -0.345 OA
ATOM     18  H1  UNL     1      14.434   7.451   4.562  1.00  0.00     0.219 HD
ENDBRANCH   2  17
BRANCH   5  19
HETATM   19  S1  UNL     1      18.192  12.067   5.171  1.00  0.00    -0.037 SA
BRANCH  19  20
HETATM   20  S2  UNL     1      17.365  13.841   6.001  1.00  0.00    -0.095 SA
HETATM   21  C9  UNL     1      17.444  15.131   4.754  1.00  0.00     0.103 C 
ENDBRANCH  19  20
ENDBRANCH   5  19
BRANCH   1  22
HETATM   22  C4  UNL     1      17.989   8.825   5.549  1.00  0.00     0.132 C 
BRANCH  22  23
HETATM   23  C3  UNL     1      17.760   8.640   7.049  1.00  0.00     0.020 C 
BRANCH  23  24
HETATM   24  C2  UNL     1      17.953   7.163   7.339  1.00  0.00    -0.003 C 
HETATM   25  C1  UNL     1      18.307   6.482   6.036  1.00  0.00     0.005 C 
ENDBRANCH  23  24
ENDBRANCH  22  23
ENDBRANCH   1  22
TORSDOF 6
ENDMDL
MODEL 4
REMARK VINA RESULT: -6.190210875      3.627      5.117
REMARK  6 active torsions:
REMARK  status: ('A' for Active; 'I' for Inactive)
REMARK    1  A    between atoms: C2_2  and  C3_3 
REMARK    2  A    between atoms: C3_3  and  C4_4 
REMARK    3  A    between atoms: C4_4  and  N1_5 
REMARK    4  A    between atoms: C5_6  and  O1_7 
REMARK    5  A    between atoms: C8_11  and  S1_12 
REMARK    6  A    between atoms: S1_12  and  S2_13 
ROOT
HETATM    1  N1  UNL     1      14.591  10.268   3.831  1.00  0.00    -0.319 N 
HETATM    2  C5  UNL     1      14.041  11.488   3.859  1.00  0.00     0.153 A 
HETATM    3  C6  UNL     1      14.934  12.377   4.500  1.00  0.00     0.049 A 
HETATM    4  C7  UNL     1      16.031  11.650   4.852  1.00  0.00     0.124 A 
HETATM    5  C8  UNL     1      15.794  10.344   4.428  1.00  0.00     0.119 A 
HETATM    6  O2  UNL     1      17.114  12.223   5.512  1.00  0.00    -0.293 OA
HETATM    7  C10 UNL     1      17.047  13.587   5.809  1.00  0.00     0.137 C 
HETATM    8  N2  UNL     1      18.090  14.282   6.054  1.00  0.00    -0.382 N 
ATOM      9  H21 UNL     1      18.041  15.277   6.270  1.00  0.00     0.158 HD
ATOM     10  H22 UNL     1      18.999  13.818   6.029  1.00  0.00     0.158 HD
HETATM   11  C11 UNL     1      15.721  14.264   5.845  1.00  0.00     0.189 C 
HETATM   12  C12 UNL     1      15.908  15.727   5.734  1.00  0.00     0.074 C 
HETATM   13  N3  UNL     1      16.051  16.873   5.652  1.00  0.00    -0.196 NA
HETATM   14  C13 UNL     1      14.810  13.818   4.769  1.00  0.00     0.158 C 
HETATM   15  C14 UNL     1      15.079  14.545   3.514  1.00  0.00     0.070 C 
HETATM   16  N4  UNL     1      15.289  15.119   2.527  1.00  0.00    -0.197 NA
ENDROOT
BRANCH   2  17
HETATM   17  O1  UNL     1      12.809  11.898   3.365  1.00  0.00    -0.345 OA
ATOM     18  H1  UNL     1      12.429  11.741   2.509  1.00  0.00     0.219 HD
ENDBRANCH   2  17
BRANCH   5  19
HETATM   19  S1  UNL     1      16.909   8.983   4.637  1.00  0.00    -0.037 SA
BRANCH  19  20
HETATM   20  S2  UNL     1      17.562   8.925   6.659  1.00  0.00    -0.095 SA
HETATM   21  C9  UNL     1      17.989   7.227   7.061  1.00  0.00     0.103 C 
ENDBRANCH  19  20
ENDBRANCH   5  19
BRANCH   1  22
HETATM   22  C4  UNL     1      13.952   9.093   3.245  1.00  0.00     0.132 C 
BRANCH  22  23
HETATM   23  C3  UNL     1      13.709   9.317   1.752  1.00  0.00     0.020 C 
BRANCH  23  24
HETATM   24  C2  UNL     1      12.225   9.103   1.516  1.00  0.00    -0.003 C 
HETATM   25  C1  UNL     1      11.768  10.129   0.503  1.00  0.00     0.005 C 
ENDBRANCH  23  24
ENDBRANCH  22  23
ENDBRANCH   1  22
TORSDOF 6
ENDMDL
MODEL 5
REMARK VINA RESULT: -6.162673739      4.416      5.260
REMARK  6 active torsions:
REMARK  status: ('A' for Active; 'I' for Inactive)
REMARK    1  A    between atoms: C2_2  and  C3_3 
REMARK    2  A    between atoms: C3_3  and  C4_4 
REMARK    3  A    between atoms: C4_4  and  N1_5 
REMARK    4  A    between atoms: C5_6  and  O1_7 
REMARK    5  A    between atoms: C8_11  and  S1_12 
REMARK    6  A    between atoms: S1_12  and  S2_13 
ROOT
HETATM    1  N1  UNL     1      14.889   9.656   3.953  1.00  0.00    -0.319 N 
HETATM    2  C5  UNL     1      15.720   8.668   4.308  1.00  0.00     0.153 A 
HETATM    3  C6  UNL     1      16.885   9.233   4.877  1.00  0.00     0.049 A 
HETATM    4  C7  UNL     1      16.722  10.585   4.849  1.00  0.00     0.124 A 
HETATM    5  C8  UNL     1      15.477  10.823   4.271  1.00  0.00     0.119 A 
HETATM    6  O2  UNL     1      17.693  11.454   5.335  1.00  0.00    -0.293 OA
HETATM    7  C10 UNL     1      18.861  10.895   5.862  1.00  0.00     0.137 C 
HETATM    8  N2  UNL     1      19.626  11.540   6.656  1.00  0.00    -0.382 N 
ATOM      9  H21 UNL     1      20.478  11.132   7.040  1.00  0.00     0.158 HD
ATOM     10  H22 UNL     1      19.368  12.494   6.910  1.00  0.00     0.158 HD
HETATM   11  C11 UNL     1      19.237   9.502   5.491  1.00  0.00     0.189 C 
HETATM   12  C12 UNL     1      20.215   8.977   6.469  1.00  0.00     0.074 C 
HETATM   13  N3  UNL     1      20.984   8.562   7.229  1.00  0.00    -0.196 NA
HETATM   14  C13 UNL     1      18.082   8.584   5.432  1.00  0.00     0.158 C 
HETATM   15  C14 UNL     1      17.746   8.071   6.774  1.00  0.00     0.070 C 
HETATM   16  N4  UNL     1      17.483   7.665   7.830  1.00  0.00    -0.197 NA
ENDROOT
BRANCH   2  17
HETATM   17  O1  UNL     1      15.546   7.296   4.178  1.00  0.00    -0.345 OA
ATOM     18  H1  UNL     1      15.881   6.598   4.730  1.00  0.00     0.219 HD
ENDBRANCH   2  17
BRANCH   5  19
HETATM   19  S1  UNL     1      14.766  12.422   3.995  1.00  0.00    -0.037 SA
BRANCH  19  20
HETATM   20  S2  UNL     1      14.932  13.573   5.775  1.00  0.00    -0.095 SA
HETATM   21  C9  UNL     1      14.878  15.311   5.325  1.00  0.00     0.103 C 
ENDBRANCH  19  20
ENDBRANCH   5  19
BRANCH   1  22
HETATM   22  C4  UNL     1      13.584   9.446   3.331  1.00  0.00     0.132 C 
BRANCH  22  23
HETATM   23  C3  UNL     1      13.738   9.321   1.814  1.00  0.00     0.020 C 
BRANCH  23  24
HETATM   24  C2  UNL     1      12.398   9.697   1.209  1.00  0.00    -0.003 C 
HETATM   25  C1  UNL     1      11.895  10.925   1.935  1.00  0.00     0.005 C 
ENDBRANCH  23  24
ENDBRANCH  22  23
ENDBRANCH   1  22
TORSDOF 6
ENDMDL
