MODEL 1
REMARK VINA RESULT: -6.697406760      0.000      0.000
REMARK  10 active torsions:
REMARK  status: ('A' for Active; 'I' for Inactive)
REMARK    1  A    between atoms: O1_2  and  C2_3 
REMARK    2  A    between atoms: C2_3  and  C3_5 
REMARK    3  A    between atoms: C5_7  and  C6_8 
REMARK    4  A    between atoms: C6_8  and  C7_9 
REMARK    5  A    between atoms: C7_9  and  C8_10 
REMARK    6  A    between atoms: C8_10  and  O3_11 
REMARK    7  A    between atoms: N1_13  and  O4_15 
REMARK    8  A    between atoms: C9_18  and  N2_19 
REMARK       I    between atoms: N2_19  and  C10_21 
REMARK    9  A    between atoms: C10_21  and  O6_23 
REMARK   10  A    between atoms: O6_23  and  C11_24 
ROOT
HETATM    1  C3  UNL     1      16.964  12.445   4.373  1.00  0.00     0.074 A 
HETATM    2  C4  UNL     1      17.684  13.575   4.521  1.00  0.00     0.041 A 
HETATM    3  C5  UNL     1      17.028  14.761   4.656  1.00  0.00     0.032 A 
HETATM    4  S1  UNL     1      15.402  14.278   4.572  1.00  0.00    -0.069 SA
HETATM    5  C9  UNL     1      15.614  12.536   4.356  1.00  0.00     0.095 A 
ENDROOT
BRANCH   3   6
HETATM    6  C6  UNL     1      17.567  16.131   4.802  1.00  0.00     0.051 C 
HETATM    7  N1  UNL     1      17.371  16.950   3.795  1.00  0.00    -0.272 N 
ATOM      8  H1  UNL     1      17.719  17.907   3.837  1.00  0.00     0.194 HD
BRANCH   6   9
HETATM    9  C7  UNL     1      18.349  16.665   5.891  1.00  0.00     0.086 C 
BRANCH   9  10
HETATM   10  C8  UNL     1      17.877  16.482   7.277  1.00  0.00     0.170 C 
BRANCH  10  11
HETATM   11  O3  UNL     1      16.593  16.905   7.540  1.00  0.00    -0.400 OA
ATOM     12  H3  UNL     1      16.490  17.493   8.278  1.00  0.00     0.209 HD
ENDBRANCH  10  11
ENDBRANCH   9  10
ENDBRANCH   6   9
BRANCH   7  13
HETATM   13  O4  UNL     1      16.698  16.514   2.694  1.00  0.00    -0.290 OA
ATOM     14  H4  UNL     1      17.105  16.580   1.839  1.00  0.00     0.244 HD
ENDBRANCH   7  13
ENDBRANCH   3   6
BRANCH   1  15
HETATM   15  C2  UNL     1      17.639  11.122   4.460  1.00  0.00     0.295 C 
HETATM   16  O2  UNL     1      18.825  10.919   4.666  1.00  0.00    -0.259 OA
BRANCH  15  17
HETATM   17  O1  UNL     1      16.858   9.977   4.292  1.00  0.00    -0.322 OA
HETATM   18  C1  UNL     1      16.791   8.965   5.295  1.00  0.00     0.213 C 
ENDBRANCH  15  17
ENDBRANCH   1  15
BRANCH   5  19
HETATM   19  N2  UNL     1      14.505  11.743   4.037  1.00  0.00    -0.296 N 
HETATM   20  C10 UNL     1      13.403  11.869   3.202  1.00  0.00     0.366 C 
HETATM   21  O5  UNL     1      13.043  12.812   2.463  1.00  0.00    -0.238 OA
ATOM     22  H2  UNL     1      14.508  10.856   4.540  1.00  0.00     0.171 HD
BRANCH  20  23
HETATM   23  O6  UNL     1      12.458  10.783   3.106  1.00  0.00    -0.294 OA
BRANCH  23  24
HETATM   24  C11 UNL     1      12.601   9.754   2.180  1.00  0.00     0.061 C 
HETATM   25  C12 UNL     1      14.064   9.456   1.864  1.00  0.00     0.046 C 
HETATM   26  C13 UNL     1      12.037   8.501   2.814  1.00  0.00     0.046 C 
HETATM   27  C14 UNL     1      11.847   9.989   0.896  1.00  0.00     0.046 C 
ENDBRANCH  23  24
ENDBRANCH  20  23
ENDBRANCH   5  19
TORSDOF 10
ENDMDL
MODEL 2
REMARK VINA RESULT: -6.487418234      2.792      5.134
REMARK  10 active torsions:
REMARK  status: ('A' for Active; 'I' for Inactive)
REMARK    1  A    between atoms: O1_2  and  C2_3 
REMARK    2  A    between atoms: C2_3  and  C3_5 
REMARK    3  A    between atoms: C5_7  and  C6_8 
REMARK    4  A    between atoms: C6_8  and  C7_9 
REMARK    5  A    between atoms: C7_9  and  C8_10 
REMARK    6  A    between atoms: C8_10  and  O3_11 
REMARK    7  A    between atoms: N1_13  and  O4_15 
REMARK    8  A    between atoms: C9_18  and  N2_19 
REMARK       I    between atoms: N2_19  and  C10_21 
REMARK    9  A    between atoms: C10_21  and  O6_23 
REMARK   10  A    between atoms: O6_23  and  C11_24 
ROOT
HETATM    1  C3  UNL     1      16.292  15.490   5.547  1.00  0.00     0.074 A 
HETATM    2  C4  UNL     1      17.374  14.891   6.084  1.00  0.00     0.041 A 
HETATM    3  C5  UNL     1      18.016  13.928   5.367  1.00  0.00     0.032 A 
HETATM    4  S1  UNL     1      17.093  13.871   3.943  1.00  0.00    -0.069 SA
HETATM    5  C9  UNL     1      15.883  15.103   4.317  1.00  0.00     0.095 A 
ENDROOT
BRANCH   3   6
HETATM    6  C6  UNL     1      19.192  13.104   5.727  1.00  0.00     0.051 C 
HETATM    7  N1  UNL     1      20.351  13.495   5.251  1.00  0.00    -0.272 N 
ATOM      8  H1  UNL     1      21.197  12.967   5.464  1.00  0.00     0.194 HD
BRANCH   6   9
HETATM    9  C7  UNL     1      19.215  11.875   6.483  1.00  0.00     0.086 C 
BRANCH   9  10
HETATM   10  C8  UNL     1      19.070  10.588   5.776  1.00  0.00     0.170 C 
BRANCH  10  11
HETATM   11  O3  UNL     1      19.798  10.449   4.616  1.00  0.00    -0.400 OA
ATOM     12  H3  UNL     1      20.357   9.683   4.563  1.00  0.00     0.209 HD
ENDBRANCH  10  11
ENDBRANCH   9  10
ENDBRANCH   6   9
BRANCH   7  13
HETATM   13  O4  UNL     1      20.417  14.609   4.471  1.00  0.00    -0.290 OA
ATOM     14  H4  UNL     1      20.718  14.537   3.574  1.00  0.00     0.244 HD
ENDBRANCH   7  13
ENDBRANCH   3   6
BRANCH   1  15
HETATM   15  C2  UNL     1      15.717  16.697   6.199  1.00  0.00     0.295 C 
HETATM   16  O2  UNL     1      16.333  17.585   6.765  1.00  0.00    -0.259 OA
BRANCH  15  17
HETATM   17  O1  UNL     1      14.329  16.855   6.175  1.00  0.00    -0.322 OA
HETATM   18  C1  UNL     1      13.642  17.580   7.193  1.00  0.00     0.213 C 
ENDBRANCH  15  17
ENDBRANCH   1  15
BRANCH   5  19
HETATM   19  N2  UNL     1      14.773  15.254   3.477  1.00  0.00    -0.296 N 
HETATM   20  C10 UNL     1      14.551  15.203   2.107  1.00  0.00     0.366 C 
HETATM   21  O5  UNL     1      15.348  15.024   1.158  1.00  0.00    -0.238 OA
ATOM     22  H2  UNL     1      13.918  15.448   3.998  1.00  0.00     0.171 HD
BRANCH  20  23
HETATM   23  O6  UNL     1      13.214  15.376   1.597  1.00  0.00    -0.294 OA
BRANCH  23  24
HETATM   24  C11 UNL     1      12.207  14.441   1.821  1.00  0.00     0.061 C 
HETATM   25  C12 UNL     1      12.711  13.213   2.574  1.00  0.00     0.046 C 
HETATM   26  C13 UNL     1      11.177  15.098   2.715  1.00  0.00     0.046 C 
HETATM   27  C14 UNL     1      11.500  14.003   0.564  1.00  0.00     0.046 C 
ENDBRANCH  23  24
ENDBRANCH  20  23
ENDBRANCH   5  19
TORSDOF 10
ENDMDL
MODEL 3
REMARK VINA RESULT: -6.474367262      2.998      7.211
REMARK  10 active torsions:
REMARK  status: ('A' for Active; 'I' for Inactive)
REMARK    1  A    between atoms: O1_2  and  C2_3 
REMARK    2  A    between atoms: C2_3  and  C3_5 
REMARK    3  A    between atoms: C5_7  and  C6_8 
REMARK    4  A    between atoms: C6_8  and  C7_9 
REMARK    5  A    between atoms: C7_9  and  C8_10 
REMARK    6  A    between atoms: C8_10  and  O3_11 
REMARK    7  A    between atoms: N1_13  and  O4_15 
REMARK    8  A    between atoms: C9_18  and  N2_19 
REMARK       I    between atoms: N2_19  and  C10_21 
REMARK    9  A    between atoms: C10_21  and  O6_23 
REMARK   10  A    between atoms: O6_23  and  C11_24 
ROOT
HETATM    1  C3  UNL     1      14.604   9.290   3.664  1.00  0.00     0.074 A 
HETATM    2  C4  UNL     1      15.164   8.106   3.983  1.00  0.00     0.041 A 
HETATM    3  C5  UNL     1      16.237   8.090   4.822  1.00  0.00     0.032 A 
HETATM    4  S1  UNL     1      16.452   9.742   5.154  1.00  0.00    -0.069 SA
HETATM    5  C9  UNL     1      15.139  10.419   4.184  1.00  0.00     0.095 A 
ENDROOT
BRANCH   3   6
HETATM    6  C6  UNL     1      17.046   6.949   5.304  1.00  0.00     0.051 C 
HETATM    7  N1  UNL     1      16.978   5.842   4.603  1.00  0.00    -0.272 N 
ATOM      8  H1  UNL     1      17.512   5.021   4.886  1.00  0.00     0.194 HD
BRANCH   6   9
HETATM    9  C7  UNL     1      17.853   6.876   6.499  1.00  0.00     0.086 C 
BRANCH   9  10
HETATM   10  C8  UNL     1      17.972   5.591   7.214  1.00  0.00     0.170 C 
BRANCH  10  11
HETATM   11  O3  UNL     1      16.859   4.781   7.194  1.00  0.00    -0.400 OA
ATOM     12  H3  UNL     1      16.131   5.059   7.737  1.00  0.00     0.209 HD
ENDBRANCH  10  11
ENDBRANCH   9  10
ENDBRANCH   6   9
BRANCH   7  13
HETATM   13  O4  UNL     1      16.189   5.796   3.493  1.00  0.00    -0.290 OA
ATOM     14  H4  UNL     1      16.540   6.072   2.656  1.00  0.00     0.244 HD
ENDBRANCH   7  13
ENDBRANCH   3   6
BRANCH   1  15
HETATM   15  C2  UNL     1      13.301   9.322   2.947  1.00  0.00     0.295 C 
HETATM   16  O2  UNL     1      12.889   8.501   2.144  1.00  0.00    -0.259 OA
BRANCH  15  17
HETATM   17  O1  UNL     1      12.440  10.391   3.203  1.00  0.00    -0.322 OA
HETATM   18  C1  UNL     1      11.938  11.214   2.152  1.00  0.00     0.213 C 
ENDBRANCH  15  17
ENDBRANCH   1  15
BRANCH   5  19
HETATM   19  N2  UNL     1      15.063  11.805   4.003  1.00  0.00    -0.296 N 
HETATM   20  C10 UNL     1      14.923  12.909   4.833  1.00  0.00     0.366 C 
HETATM   21  O5  UNL     1      14.784  12.983   6.075  1.00  0.00    -0.238 OA
ATOM     22  H2  UNL     1      15.127  12.069   3.019  1.00  0.00     0.171 HD
BRANCH  20  23
HETATM   23  O6  UNL     1      14.926  14.233   4.262  1.00  0.00    -0.294 OA
BRANCH  23  24
HETATM   24  C11 UNL     1      16.084  14.826   3.767  1.00  0.00     0.061 C 
HETATM   25  C12 UNL     1      15.926  15.293   2.323  1.00  0.00     0.046 C 
HETATM   26  C13 UNL     1      16.336  16.070   4.592  1.00  0.00     0.046 C 
HETATM   27  C14 UNL     1      17.306  13.953   3.883  1.00  0.00     0.046 C 
ENDBRANCH  23  24
ENDBRANCH  20  23
ENDBRANCH   5  19
TORSDOF 10
ENDMDL
MODEL 4
REMARK VINA RESULT: -6.379401181      3.096      6.313
REMARK  10 active torsions:
REMARK  status: ('A' for Active; 'I' for Inactive)
REMARK    1  A    between atoms: O1_2  and  C2_3 
REMARK    2  A    between atoms: C2_3  and  C3_5 
REMARK    3  A    between atoms: C5_7  and  C6_8 
REMARK    4  A    between atoms: C6_8  and  C7_9 
REMARK    5  A    between atoms: C7_9  and  C8_10 
REMARK    6  A    between atoms: C8_10  and  O3_11 
REMARK    7  A    between atoms: N1_13  and  O4_15 
REMARK    8  A    between atoms: C9_18  and  N2_19 
REMARK       I    between atoms: N2_19  and  C10_21 
REMARK    9  A    between atoms: C10_21  and  O6_23 
REMARK   10  A    between atoms: O6_23  and  C11_24 
ROOT
HETATM    1  C3  UNL     1      14.555   9.704   3.535  1.00  0.00     0.074 A 
HETATM    2  C4  UNL     1      15.503   8.810   3.881  1.00  0.00     0.041 A 
HETATM    3  C5  UNL     1      16.391   9.137   4.861  1.00  0.00     0.032 A 
HETATM    4  S1  UNL     1      15.886  10.701   5.289  1.00  0.00    -0.069 SA
HETATM    5  C9  UNL     1      14.530  10.898   4.173  1.00  0.00     0.095 A 
ENDROOT
BRANCH   3   6
HETATM    6  C6  UNL     1      17.529   8.364   5.405  1.00  0.00     0.051 C 
HETATM    7  N1  UNL     1      18.714   8.921   5.316  1.00  0.00    -0.272 N 
ATOM      8  H1  UNL     1      19.537   8.437   5.673  1.00  0.00     0.194 HD
BRANCH   6   9
HETATM    9  C7  UNL     1      17.511   7.033   5.963  1.00  0.00     0.086 C 
BRANCH   9  10
HETATM   10  C8  UNL     1      17.839   5.882   5.099  1.00  0.00     0.170 C 
BRANCH  10  11
HETATM   11  O3  UNL     1      16.883   5.530   4.172  1.00  0.00    -0.400 OA
ATOM     12  H3  UNL     1      17.168   5.506   3.267  1.00  0.00     0.209 HD
ENDBRANCH  10  11
ENDBRANCH   9  10
ENDBRANCH   6   9
BRANCH   7  13
HETATM   13  O4  UNL     1      18.838  10.151   4.744  1.00  0.00    -0.290 OA
ATOM     14  H4  UNL     1      19.444  10.782   5.113  1.00  0.00     0.244 HD
ENDBRANCH   7  13
ENDBRANCH   3   6
BRANCH   1  15
HETATM   15  C2  UNL     1      13.439   9.290   2.644  1.00  0.00     0.295 C 
HETATM   16  O2  UNL     1      13.032   8.153   2.463  1.00  0.00    -0.259 OA
BRANCH  15  17
HETATM   17  O1  UNL     1      12.769  10.285   1.930  1.00  0.00    -0.322 OA
HETATM   18  C1  UNL     1      11.852   9.965   0.885  1.00  0.00     0.213 C 
ENDBRANCH  15  17
ENDBRANCH   1  15
BRANCH   5  19
HETATM   19  N2  UNL     1      13.926  12.153   4.040  1.00  0.00    -0.296 N 
HETATM   20  C10 UNL     1      14.372  13.457   3.865  1.00  0.00     0.366 C 
HETATM   21  O5  UNL     1      15.534  13.918   3.800  1.00  0.00    -0.238 OA
ATOM     22  H2  UNL     1      12.908  12.098   4.082  1.00  0.00     0.171 HD
BRANCH  20  23
HETATM   23  O6  UNL     1      13.413  14.524   3.725  1.00  0.00    -0.294 OA
BRANCH  23  24
HETATM   24  C11 UNL     1      12.633  14.677   2.582  1.00  0.00     0.061 C 
HETATM   25  C12 UNL     1      11.639  13.535   2.399  1.00  0.00     0.046 C 
HETATM   26  C13 UNL     1      11.809  15.934   2.768  1.00  0.00     0.046 C 
HETATM   27  C14 UNL     1      13.440  14.849   1.321  1.00  0.00     0.046 C 
ENDBRANCH  23  24
ENDBRANCH  20  23
ENDBRANCH   5  19
TORSDOF 10
ENDMDL
MODEL 5
REMARK VINA RESULT: -6.324908466      3.351      7.384
REMARK  10 active torsions:
REMARK  status: ('A' for Active; 'I' for Inactive)
REMARK    1  A    between atoms: O1_2  and  C2_3 
REMARK    2  A    between atoms: C2_3  and  C3_5 
REMARK    3  A    between atoms: C5_7  and  C6_8 
REMARK    4  A    between atoms: C6_8  and  C7_9 
REMARK    5  A    between atoms: C7_9  and  C8_10 
REMARK    6  A    between atoms: C8_10  and  O3_11 
REMARK    7  A    between atoms: N1_13  and  O4_15 
REMARK    8  A    between atoms: C9_18  and  N2_19 
REMARK       I    between atoms: N2_19  and  C10_21 
REMARK    9  A    between atoms: C10_21  and  O6_23 
REMARK   10  A    between atoms: O6_23  and  C11_24 
ROOT
HETATM    1  C3  UNL     1      15.153   9.122   3.838  1.00  0.00     0.074 A 
HETATM    2  C4  UNL     1      15.494   7.854   4.141  1.00  0.00     0.041 A 
HETATM    3  C5  UNL     1      16.516   7.638   5.015  1.00  0.00     0.032 A 
HETATM    4  S1  UNL     1      16.990   9.222   5.404  1.00  0.00    -0.069 SA
HETATM    5  C9  UNL     1      15.847  10.133   4.410  1.00  0.00     0.095 A 
ENDROOT
BRANCH   3   6
HETATM    6  C6  UNL     1      17.104   6.366   5.492  1.00  0.00     0.051 C 
HETATM    7  N1  UNL     1      17.022   5.340   4.677  1.00  0.00    -0.272 N 
ATOM      8  H1  UNL     1      17.408   4.437   4.950  1.00  0.00     0.194 HD
BRANCH   6   9
HETATM    9  C7  UNL     1      17.698   6.091   6.777  1.00  0.00     0.086 C 
BRANCH   9  10
HETATM   10  C8  UNL     1      17.937   4.691   7.179  1.00  0.00     0.170 C 
BRANCH  10  11
HETATM   11  O3  UNL     1      16.849   3.849   7.118  1.00  0.00    -0.400 OA
ATOM     12  H3  UNL     1      16.782   3.203   7.810  1.00  0.00     0.209 HD
ENDBRANCH  10  11
ENDBRANCH   9  10
ENDBRANCH   6   9
BRANCH   7  13
HETATM   13  O4  UNL     1      16.417   5.489   3.466  1.00  0.00    -0.290 OA
ATOM     14  H4  UNL     1      16.679   4.935   2.740  1.00  0.00     0.244 HD
ENDBRANCH   7  13
ENDBRANCH   3   6
BRANCH   1  15
HETATM   15  C2  UNL     1      13.902   9.389   3.078  1.00  0.00     0.295 C 
HETATM   16  O2  UNL     1      13.200   8.565   2.515  1.00  0.00    -0.259 OA
BRANCH  15  17
HETATM   17  O1  UNL     1      13.464  10.712   2.983  1.00  0.00    -0.322 OA
HETATM   18  C1  UNL     1      12.173  11.036   2.471  1.00  0.00     0.213 C 
ENDBRANCH  15  17
ENDBRANCH   1  15
BRANCH   5  19
HETATM   19  N2  UNL     1      16.011  11.516   4.268  1.00  0.00    -0.296 N 
HETATM   20  C10 UNL     1      15.624  12.640   4.985  1.00  0.00     0.366 C 
HETATM   21  O5  UNL     1      14.940  12.747   6.028  1.00  0.00    -0.238 OA
ATOM     22  H2  UNL     1      16.546  11.757   3.434  1.00  0.00     0.171 HD
BRANCH  20  23
HETATM   23  O6  UNL     1      16.029  13.947   4.530  1.00  0.00    -0.294 OA
BRANCH  23  24
HETATM   24  C11 UNL     1      15.140  14.833   3.928  1.00  0.00     0.061 C 
HETATM   25  C12 UNL     1      14.584  15.858   4.912  1.00  0.00     0.046 C 
HETATM   26  C13 UNL     1      15.920  15.615   2.893  1.00  0.00     0.046 C 
HETATM   27  C14 UNL     1      14.000  14.152   3.214  1.00  0.00     0.046 C 
ENDBRANCH  23  24
ENDBRANCH  20  23
ENDBRANCH   5  19
TORSDOF 10
ENDMDL
