MODEL 1
REMARK VINA RESULT: -8.288219285      0.000      0.000
REMARK  8 active torsions:
REMARK  status: ('A' for Active; 'I' for Inactive)
REMARK    1  A    between atoms: C2_2  and  C3_3 
REMARK    2  A    between atoms: C3_3  and  O1_4 
REMARK    3  A    between atoms: O1_4  and  C4_5 
REMARK    4  A    between atoms: C7_9  and  N1_10 
REMARK    5  A    between atoms: C9_14  and  O5_15 
REMARK    6  A    between atoms: C11_18  and  O6_19 
REMARK    7  A    between atoms: C14_23  and  O7_24 
REMARK    8  A    between atoms: C16_26  and  O8_27 
ROOT
HETATM    1  C4  UNL     1      16.215  11.398   4.946  1.00  0.00     0.102 A 
HETATM    2  C5  UNL     1      16.742  10.077   5.187  1.00  0.00     0.039 A 
HETATM    3  C6  UNL     1      17.857   9.696   5.888  1.00  0.00     0.160 A 
HETATM    4  O2  UNL     1      17.914   8.402   5.831  1.00  0.00    -0.299 OA
HETATM    5  C7  UNL     1      16.889   7.896   5.131  1.00  0.00     0.228 A 
HETATM    6  C8  UNL     1      16.122   8.974   4.714  1.00  0.00     0.070 A 
HETATM    7  C9  UNL     1      14.931   9.040   3.960  1.00  0.00     0.095 A 
HETATM    8  C10 UNL     1      14.436  10.334   3.741  1.00  0.00     0.048 A 
HETATM    9  C11 UNL     1      13.252  10.481   2.983  1.00  0.00     0.088 A 
HETATM   10  C12 UNL     1      12.708  11.704   2.706  1.00  0.00     0.008 A 
HETATM   11  C13 UNL     1      11.467  11.844   1.885  1.00  0.00     0.054 C 
HETATM   12  C14 UNL     1      13.338  12.831   3.191  1.00  0.00     0.111 A 
HETATM   13  C16 UNL     1      14.490  12.712   3.937  1.00  0.00     0.113 A 
HETATM   14  C17 UNL     1      15.062  11.461   4.222  1.00  0.00     0.051 A 
ENDROOT
BRANCH   1  15
HETATM   15  O1  UNL     1      16.963  12.334   5.475  1.00  0.00    -0.321 OA
BRANCH  15  16
HETATM   16  C3  UNL     1      17.932  13.129   5.727  1.00  0.00     0.141 C 
BRANCH  16  17
HETATM   17  C2  UNL     1      18.551  14.249   4.976  1.00  0.00     0.014 C 
HETATM   18  C1  UNL     1      19.796  14.530   5.010  1.00  0.00     0.013 C 
ENDBRANCH  16  17
ENDBRANCH  15  16
ENDBRANCH   1  15
BRANCH  13  19
HETATM   19  O8  UNL     1      15.078  13.833   4.406  1.00  0.00    -0.357 OA
ATOM     20  H8  UNL     1      15.947  13.769   4.782  1.00  0.00     0.217 HD
ENDBRANCH  13  19
BRANCH   5  21
HETATM   21  N1  UNL     1      16.678   6.530   4.890  1.00  0.00    -0.089 N 
HETATM   22  O3  UNL     1      16.414   5.937   3.879  1.00  0.00    -0.530 OA
HETATM   23  O4  UNL     1      16.774   5.699   6.043  1.00  0.00    -0.530 OA
ENDBRANCH   5  21
BRANCH   7  24
HETATM   24  O5  UNL     1      14.338   7.941   3.499  1.00  0.00    -0.359 OA
ATOM     25  H5  UNL     1      14.150   7.829   2.575  1.00  0.00     0.217 HD
ENDBRANCH   7  24
BRANCH   9  26
HETATM   26  O6  UNL     1      12.658   9.316   2.532  1.00  0.00    -0.359 OA
ATOM     27  H6  UNL     1      13.011   8.941   1.734  1.00  0.00     0.217 HD
ENDBRANCH   9  26
BRANCH  12  28
HETATM   28  O7  UNL     1      12.810  14.097   2.929  1.00  0.00    -0.352 OA
HETATM   29  C15 UNL     1      13.433  14.845   1.882  1.00  0.00     0.210 C 
ENDBRANCH  12  28
TORSDOF 8
ENDMDL
MODEL 2
REMARK VINA RESULT: -8.127165456      2.350      5.625
REMARK  8 active torsions:
REMARK  status: ('A' for Active; 'I' for Inactive)
REMARK    1  A    between atoms: C2_2  and  C3_3 
REMARK    2  A    between atoms: C3_3  and  O1_4 
REMARK    3  A    between atoms: O1_4  and  C4_5 
REMARK    4  A    between atoms: C7_9  and  N1_10 
REMARK    5  A    between atoms: C9_14  and  O5_15 
REMARK    6  A    between atoms: C11_18  and  O6_19 
REMARK    7  A    between atoms: C14_23  and  O7_24 
REMARK    8  A    between atoms: C16_26  and  O8_27 
ROOT
HETATM    1  C4  UNL     1      15.229  12.527   4.574  1.00  0.00     0.102 A 
HETATM    2  C5  UNL     1      14.139  13.035   3.779  1.00  0.00     0.039 A 
HETATM    3  C6  UNL     1      13.706  14.324   3.610  1.00  0.00     0.160 A 
HETATM    4  O2  UNL     1      12.698  14.281   2.796  1.00  0.00    -0.299 OA
HETATM    5  C7  UNL     1      12.436  13.026   2.406  1.00  0.00     0.228 A 
HETATM    6  C8  UNL     1      13.368  12.212   3.034  1.00  0.00     0.070 A 
HETATM    7  C9  UNL     1      13.576  10.817   2.987  1.00  0.00     0.095 A 
HETATM    8  C10 UNL     1      14.642  10.347   3.766  1.00  0.00     0.048 A 
HETATM    9  C11 UNL     1      14.905   8.958   3.779  1.00  0.00     0.088 A 
HETATM   10  C12 UNL     1      15.913   8.411   4.522  1.00  0.00     0.008 A 
HETATM   11  C13 UNL     1      16.165   6.938   4.542  1.00  0.00     0.054 C 
HETATM   12  C14 UNL     1      16.703   9.250   5.280  1.00  0.00     0.111 A 
HETATM   13  C16 UNL     1      16.470  10.608   5.279  1.00  0.00     0.113 A 
HETATM   14  C17 UNL     1      15.433  11.181   4.525  1.00  0.00     0.051 A 
ENDROOT
BRANCH   1  15
HETATM   15  O1  UNL     1      15.847  13.477   5.231  1.00  0.00    -0.321 OA
BRANCH  15  16
HETATM   16  C3  UNL     1      16.537  14.513   5.524  1.00  0.00     0.141 C 
BRANCH  16  17
HETATM   17  C2  UNL     1      16.178  15.882   5.967  1.00  0.00     0.014 C 
HETATM   18  C1  UNL     1      15.020  16.216   6.388  1.00  0.00     0.013 C 
ENDBRANCH  16  17
ENDBRANCH  15  16
ENDBRANCH   1  15
BRANCH  13  19
HETATM   19  O8  UNL     1      17.267  11.403   6.023  1.00  0.00    -0.357 OA
ATOM     20  H8  UNL     1      17.003  12.303   6.171  1.00  0.00     0.217 HD
ENDBRANCH  13  19
BRANCH   5  21
HETATM   21  N1  UNL     1      11.402  12.656   1.532  1.00  0.00    -0.089 N 
HETATM   22  O3  UNL     1      10.687  11.690   1.517  1.00  0.00    -0.530 OA
HETATM   23  O4  UNL     1      11.169  13.570   0.464  1.00  0.00    -0.530 OA
ENDBRANCH   5  21
BRANCH   7  24
HETATM   24  O5  UNL     1      12.801  10.023   2.250  1.00  0.00    -0.359 OA
ATOM     25  H5  UNL     1      12.790   9.082   2.379  1.00  0.00     0.217 HD
ENDBRANCH   7  24
BRANCH   9  26
HETATM   26  O6  UNL     1      14.088   8.168   2.991  1.00  0.00    -0.359 OA
ATOM     27  H6  UNL     1      14.092   7.236   3.176  1.00  0.00     0.217 HD
ENDBRANCH   9  26
BRANCH  12  28
HETATM   28  O7  UNL     1      17.744   8.726   6.051  1.00  0.00    -0.352 OA
HETATM   29  C15 UNL     1      19.055   8.799   5.486  1.00  0.00     0.210 C 
ENDBRANCH  12  28
TORSDOF 8
ENDMDL
MODEL 3
REMARK VINA RESULT: -8.088880420      2.144      5.511
REMARK  8 active torsions:
REMARK  status: ('A' for Active; 'I' for Inactive)
REMARK    1  A    between atoms: C2_2  and  C3_3 
REMARK    2  A    between atoms: C3_3  and  O1_4 
REMARK    3  A    between atoms: O1_4  and  C4_5 
REMARK    4  A    between atoms: C7_9  and  N1_10 
REMARK    5  A    between atoms: C9_14  and  O5_15 
REMARK    6  A    between atoms: C11_18  and  O6_19 
REMARK    7  A    between atoms: C14_23  and  O7_24 
REMARK    8  A    between atoms: C16_26  and  O8_27 
ROOT
HETATM    1  C4  UNL     1      15.525  12.477   4.741  1.00  0.00     0.102 A 
HETATM    2  C5  UNL     1      14.423  13.051   4.010  1.00  0.00     0.039 A 
HETATM    3  C6  UNL     1      14.039  14.362   3.894  1.00  0.00     0.160 A 
HETATM    4  O2  UNL     1      12.994  14.382   3.128  1.00  0.00    -0.299 OA
HETATM    5  C7  UNL     1      12.660  13.151   2.719  1.00  0.00     0.228 A 
HETATM    6  C8  UNL     1      13.583  12.282   3.282  1.00  0.00     0.070 A 
HETATM    7  C9  UNL     1      13.728  10.881   3.191  1.00  0.00     0.095 A 
HETATM    8  C10 UNL     1      14.808  10.346   3.908  1.00  0.00     0.048 A 
HETATM    9  C11 UNL     1      15.010   8.947   3.874  1.00  0.00     0.088 A 
HETATM   10  C12 UNL     1      16.026   8.338   4.556  1.00  0.00     0.008 A 
HETATM   11  C13 UNL     1      16.214   6.856   4.528  1.00  0.00     0.054 C 
HETATM   12  C14 UNL     1      16.886   9.122   5.297  1.00  0.00     0.111 A 
HETATM   13  C16 UNL     1      16.711  10.488   5.340  1.00  0.00     0.113 A 
HETATM   14  C17 UNL     1      15.667  11.125   4.649  1.00  0.00     0.051 A 
ENDROOT
BRANCH   1  15
HETATM   15  O1  UNL     1      16.213  13.382   5.392  1.00  0.00    -0.321 OA
BRANCH  15  16
HETATM   16  C3  UNL     1      16.930  14.400   5.681  1.00  0.00     0.141 C 
BRANCH  16  17
HETATM   17  C2  UNL     1      18.215  14.921   5.154  1.00  0.00     0.014 C 
HETATM   18  C1  UNL     1      19.274  14.219   5.031  1.00  0.00     0.013 C 
ENDBRANCH  16  17
ENDBRANCH  15  16
ENDBRANCH   1  15
BRANCH  13  19
HETATM   19  O8  UNL     1      17.576  11.229   6.066  1.00  0.00    -0.357 OA
ATOM     20  H8  UNL     1      18.457  11.355   5.736  1.00  0.00     0.217 HD
ENDBRANCH  13  19
BRANCH   5  21
HETATM   21  N1  UNL     1      11.573  12.848   1.885  1.00  0.00    -0.089 N 
HETATM   22  O3  UNL     1      10.780  11.946   1.916  1.00  0.00    -0.530 OA
HETATM   23  O4  UNL     1      11.384  13.753   0.801  1.00  0.00    -0.530 OA
ENDBRANCH   5  21
BRANCH   7  24
HETATM   24  O5  UNL     1      12.887  10.141   2.472  1.00  0.00    -0.359 OA
ATOM     25  H5  UNL     1      12.446  10.493   1.707  1.00  0.00     0.217 HD
ENDBRANCH   7  24
BRANCH   9  26
HETATM   26  O6  UNL     1      14.124   8.213   3.106  1.00  0.00    -0.359 OA
ATOM     27  H6  UNL     1      13.212   8.237   3.372  1.00  0.00     0.217 HD
ENDBRANCH   9  26
BRANCH  12  28
HETATM   28  O7  UNL     1      17.936   8.535   6.005  1.00  0.00    -0.352 OA
HETATM   29  C15 UNL     1      17.732   8.342   7.407  1.00  0.00     0.210 C 
ENDBRANCH  12  28
TORSDOF 8
ENDMDL
MODEL 4
REMARK VINA RESULT: -7.979744336      2.928      6.776
REMARK  8 active torsions:
REMARK  status: ('A' for Active; 'I' for Inactive)
REMARK    1  A    between atoms: C2_2  and  C3_3 
REMARK    2  A    between atoms: C3_3  and  O1_4 
REMARK    3  A    between atoms: O1_4  and  C4_5 
REMARK    4  A    between atoms: C7_9  and  N1_10 
REMARK    5  A    between atoms: C9_14  and  O5_15 
REMARK    6  A    between atoms: C11_18  and  O6_19 
REMARK    7  A    between atoms: C14_23  and  O7_24 
REMARK    8  A    between atoms: C16_26  and  O8_27 
ROOT
HETATM    1  C4  UNL     1      14.694  11.800   4.146  1.00  0.00     0.102 A 
HETATM    2  C5  UNL     1      13.557  12.146   3.331  1.00  0.00     0.039 A 
HETATM    3  C6  UNL     1      12.628  11.333   2.736  1.00  0.00     0.160 A 
HETATM    4  O2  UNL     1      11.794  12.106   2.112  1.00  0.00    -0.299 OA
HETATM    5  C7  UNL     1      12.115  13.398   2.264  1.00  0.00     0.228 A 
HETATM    6  C8  UNL     1      13.253  13.434   3.056  1.00  0.00     0.070 A 
HETATM    7  C9  UNL     1      14.021  14.514   3.543  1.00  0.00     0.095 A 
HETATM    8  C10 UNL     1      15.120  14.152   4.336  1.00  0.00     0.048 A 
HETATM    9  C11 UNL     1      15.944  15.179   4.851  1.00  0.00     0.088 A 
HETATM   10  C12 UNL     1      17.044  14.919   5.618  1.00  0.00     0.008 A 
HETATM   11  C13 UNL     1      17.918  16.014   6.137  1.00  0.00     0.054 C 
HETATM   12  C14 UNL     1      17.354  13.605   5.902  1.00  0.00     0.111 A 
HETATM   13  C16 UNL     1      16.562  12.588   5.416  1.00  0.00     0.113 A 
HETATM   14  C17 UNL     1      15.433  12.842   4.621  1.00  0.00     0.051 A 
ENDROOT
BRANCH   1  15
HETATM   15  O1  UNL     1      14.827  10.505   4.287  1.00  0.00    -0.321 OA
BRANCH  15  16
HETATM   16  C3  UNL     1      15.045   9.265   4.060  1.00  0.00     0.141 C 
BRANCH  16  17
HETATM   17  C2  UNL     1      16.062   8.304   4.555  1.00  0.00     0.014 C 
HETATM   18  C1  UNL     1      15.959   7.037   4.446  1.00  0.00     0.013 C 
ENDBRANCH  16  17
ENDBRANCH  15  16
ENDBRANCH   1  15
BRANCH  13  19
HETATM   19  O8  UNL     1      16.886  11.312   5.720  1.00  0.00    -0.357 OA
ATOM     20  H8  UNL     1      17.715  10.967   5.412  1.00  0.00     0.217 HD
ENDBRANCH  13  19
BRANCH   5  21
HETATM   21  N1  UNL     1      11.406  14.472   1.704  1.00  0.00    -0.089 N 
HETATM   22  O3  UNL     1      11.258  14.812   0.561  1.00  0.00    -0.530 OA
HETATM   23  O4  UNL     1      10.767  15.322   2.652  1.00  0.00    -0.530 OA
ENDBRANCH   5  21
BRANCH   7  24
HETATM   24  O5  UNL     1      13.707  15.775   3.257  1.00  0.00    -0.359 OA
ATOM     25  H5  UNL     1      12.879  16.154   3.528  1.00  0.00     0.217 HD
ENDBRANCH   7  24
BRANCH   9  26
HETATM   26  O6  UNL     1      15.578  16.477   4.542  1.00  0.00    -0.359 OA
ATOM     27  H6  UNL     1      14.873  16.852   5.056  1.00  0.00     0.217 HD
ENDBRANCH   9  26
BRANCH  12  28
HETATM   28  O7  UNL     1      18.470  13.301   6.684  1.00  0.00    -0.352 OA
HETATM   29  C15 UNL     1      19.693  13.058   5.985  1.00  0.00     0.210 C 
ENDBRANCH  12  28
TORSDOF 8
ENDMDL
MODEL 5
REMARK VINA RESULT: -7.946439854      2.091      5.507
REMARK  8 active torsions:
REMARK  status: ('A' for Active; 'I' for Inactive)
REMARK    1  A    between atoms: C2_2  and  C3_3 
REMARK    2  A    between atoms: C3_3  and  O1_4 
REMARK    3  A    between atoms: O1_4  and  C4_5 
REMARK    4  A    between atoms: C7_9  and  N1_10 
REMARK    5  A    between atoms: C9_14  and  O5_15 
REMARK    6  A    between atoms: C11_18  and  O6_19 
REMARK    7  A    between atoms: C14_23  and  O7_24 
REMARK    8  A    between atoms: C16_26  and  O8_27 
ROOT
HETATM    1  C4  UNL     1      15.547  11.446   4.604  1.00  0.00     0.102 A 
HETATM    2  C5  UNL     1      14.407  11.576   3.731  1.00  0.00     0.039 A 
HETATM    3  C6  UNL     1      13.726  12.701   3.346  1.00  0.00     0.160 A 
HETATM    4  O2  UNL     1      12.780  12.314   2.549  1.00  0.00    -0.299 OA
HETATM    5  C7  UNL     1      12.797  10.986   2.374  1.00  0.00     0.228 A 
HETATM    6  C8  UNL     1      13.851  10.500   3.133  1.00  0.00     0.070 A 
HETATM    7  C9  UNL     1      14.344   9.190   3.322  1.00  0.00     0.095 A 
HETATM    8  C10 UNL     1      15.454   9.089   4.173  1.00  0.00     0.048 A 
HETATM    9  C11 UNL     1      15.996   7.807   4.420  1.00  0.00     0.088 A 
HETATM   10  C12 UNL     1      17.066   7.612   5.248  1.00  0.00     0.008 A 
HETATM   11  C13 UNL     1      17.614   6.248   5.517  1.00  0.00     0.054 C 
HETATM   12  C14 UNL     1      17.636   8.711   5.858  1.00  0.00     0.111 A 
HETATM   13  C16 UNL     1      17.129   9.970   5.627  1.00  0.00     0.113 A 
HETATM   14  C17 UNL     1      16.026  10.182   4.783  1.00  0.00     0.051 A 
ENDROOT
BRANCH   1  15
HETATM   15  O1  UNL     1      15.931  12.598   5.094  1.00  0.00    -0.321 OA
BRANCH  15  16
HETATM   16  C3  UNL     1      15.948  13.733   5.683  1.00  0.00     0.141 C 
BRANCH  16  17
HETATM   17  C2  UNL     1      14.881  14.667   6.121  1.00  0.00     0.014 C 
HETATM   18  C1  UNL     1      14.782  15.875   5.721  1.00  0.00     0.013 C 
ENDBRANCH  16  17
ENDBRANCH  15  16
ENDBRANCH   1  15
BRANCH  13  19
HETATM   19  O8  UNL     1      17.716  11.026   6.229  1.00  0.00    -0.357 OA
ATOM     20  H8  UNL     1      17.426  11.274   7.099  1.00  0.00     0.217 HD
ENDBRANCH  13  19
BRANCH   5  21
HETATM   21  N1  UNL     1      11.896  10.270   1.571  1.00  0.00    -0.089 N 
HETATM   22  O3  UNL     1      11.929   9.141   1.160  1.00  0.00    -0.530 OA
HETATM   23  O4  UNL     1      10.754  11.010   1.152  1.00  0.00    -0.530 OA
ENDBRANCH   5  21
BRANCH   7  24
HETATM   24  O5  UNL     1      13.778   8.142   2.727  1.00  0.00    -0.359 OA
ATOM     25  H5  UNL     1      13.976   7.917   1.825  1.00  0.00     0.217 HD
ENDBRANCH   7  24
BRANCH   9  26
HETATM   26  O6  UNL     1      15.390   6.745   3.774  1.00  0.00    -0.359 OA
ATOM     27  H6  UNL     1      15.683   6.564   2.889  1.00  0.00     0.217 HD
ENDBRANCH   9  26
BRANCH  12  28
HETATM   28  O7  UNL     1      18.732   8.550   6.709  1.00  0.00    -0.352 OA
HETATM   29  C15 UNL     1      18.444   8.432   8.104  1.00  0.00     0.210 C 
ENDBRANCH  12  28
TORSDOF 8
ENDMDL
