MODEL 1
REMARK VINA RESULT: -8.221845744      0.000      0.000
REMARK  6 active torsions:
REMARK  status: ('A' for Active; 'I' for Inactive)
REMARK    1  A    between atoms: C2_3  and  O1_4 
REMARK    2  A    between atoms: N2_10  and  C7_11 
REMARK    3  A    between atoms: C11_20  and  C12_21 
REMARK    4  A    between atoms: C15_24  and  O2_25 
REMARK    5  A    between atoms: O2_25  and  C16_26 
REMARK    6  A    between atoms: C16_26  and  C17_29 
ROOT
HETATM    1  N1  UNL     1      18.215  10.839   3.863  1.00  0.00    -0.192 NA
HETATM    2  C1  UNL     1      17.427  11.092   4.659  1.00  0.00     0.121 C 
HETATM    3  C2  UNL     1      16.454  11.416   5.675  1.00  0.00     0.230 C 
HETATM    4  C3  UNL     1      15.049  11.007   5.198  1.00  0.00     0.063 A 
HETATM    5  C4  UNL     1      14.218  11.898   4.396  1.00  0.00     0.017 A 
HETATM    6  C5  UNL     1      14.127  11.988   5.870  1.00  0.00     0.014 A 
HETATM    7  C6  UNL     1      14.989  13.049   6.532  1.00  0.00     0.132 C 
HETATM    8  N2  UNL     1      16.337  12.805   5.971  1.00  0.00    -0.336 N 
ENDROOT
BRANCH   3   9
HETATM    9  O1  UNL     1      16.670  10.617   6.800  1.00  0.00    -0.359 OA
ATOM     10  H1  UNL     1      16.095  10.896   7.503  1.00  0.00     0.213 HD
ENDBRANCH   3   9
BRANCH   8  11
HETATM   11  C7  UNL     1      17.273  13.843   5.778  1.00  0.00     0.049 A 
HETATM   12  C8  UNL     1      18.376  13.901   6.657  1.00  0.00     0.047 A 
HETATM   13  C9  UNL     1      19.321  14.877   6.534  1.00  0.00     0.092 A 
HETATM   14  N3  UNL     1      19.210  15.799   5.566  1.00  0.00    -0.352 N 
HETATM   15  C10 UNL     1      18.193  15.776   4.724  1.00  0.00     0.112 A 
ATOM     16  H3  UNL     1      19.919  16.528   5.480  1.00  0.00     0.166 HD
HETATM   17  N4  UNL     1      18.088  16.664   3.796  1.00  0.00    -0.385 N 
HETATM   18  C11 UNL     1      17.205  14.802   4.809  1.00  0.00     0.044 A 
ATOM     19  H42 UNL     1      18.813  17.379   3.733  1.00  0.00     0.157 HD
ATOM     20  H41 UNL     1      17.303  16.646   3.146  1.00  0.00     0.157 HD
BRANCH  18  21
HETATM   21  C12 UNL     1      16.104  14.833   3.842  1.00  0.00    -0.020 A 
HETATM   22  C13 UNL     1      16.215  14.166   2.664  1.00  0.00     0.015 A 
HETATM   23  C14 UNL     1      15.197  14.156   1.732  1.00  0.00     0.038 A 
HETATM   24  C15 UNL     1      14.035  14.842   2.002  1.00  0.00     0.075 A 
HETATM   25  C18 UNL     1      13.904  15.527   3.196  1.00  0.00     0.038 A 
HETATM   26  C19 UNL     1      14.955  15.522   4.127  1.00  0.00     0.015 A 
BRANCH  24  27
HETATM   27  O2  UNL     1      13.005  14.852   1.098  1.00  0.00    -0.279 OA
BRANCH  27  28
HETATM   28  C16 UNL     1      11.726  14.338   1.243  1.00  0.00     0.418 C 
HETATM   29  F1  UNL     1      10.905  15.232   1.948  1.00  0.00    -0.169 F 
HETATM   30  F2  UNL     1      11.162  14.241  -0.029  1.00  0.00    -0.169 F 
BRANCH  28  31
HETATM   31  C17 UNL     1      11.638  12.978   1.867  1.00  0.00     0.455 C 
HETATM   32  F3  UNL     1      10.675  12.215   1.187  1.00  0.00    -0.205 F 
HETATM   33  F4  UNL     1      11.175  13.018   3.179  1.00  0.00    -0.205 F 
ENDBRANCH  28  31
ENDBRANCH  27  28
ENDBRANCH  24  27
ENDBRANCH  18  21
ENDBRANCH   8  11
TORSDOF 6
ENDMDL
MODEL 2
REMARK VINA RESULT: -7.998676660      3.547      6.017
REMARK  6 active torsions:
REMARK  status: ('A' for Active; 'I' for Inactive)
REMARK    1  A    between atoms: C2_3  and  O1_4 
REMARK    2  A    between atoms: N2_10  and  C7_11 
REMARK    3  A    between atoms: C11_20  and  C12_21 
REMARK    4  A    between atoms: C15_24  and  O2_25 
REMARK    5  A    between atoms: O2_25  and  C16_26 
REMARK    6  A    between atoms: C16_26  and  C17_29 
ROOT
HETATM    1  N1  UNL     1      15.506  14.127   1.201  1.00  0.00    -0.192 NA
HETATM    2  C1  UNL     1      14.404  14.060   1.518  1.00  0.00     0.121 C 
HETATM    3  C2  UNL     1      13.019  13.955   1.908  1.00  0.00     0.230 C 
HETATM    4  C3  UNL     1      12.525  15.311   2.443  1.00  0.00     0.063 A 
HETATM    5  C4  UNL     1      12.685  15.692   3.842  1.00  0.00     0.017 A 
HETATM    6  C5  UNL     1      11.466  14.951   3.450  1.00  0.00     0.014 A 
HETATM    7  C6  UNL     1      11.506  13.444   3.640  1.00  0.00     0.132 C 
HETATM    8  N2  UNL     1      12.764  13.041   2.971  1.00  0.00    -0.336 N 
ENDROOT
BRANCH   3   9
HETATM    9  O1  UNL     1      12.231  13.735   0.776  1.00  0.00    -0.359 OA
ATOM     10  H1  UNL     1      11.350  14.054   0.935  1.00  0.00     0.213 HD
ENDBRANCH   3   9
BRANCH   8  11
HETATM   11  C7  UNL     1      13.525  11.933   3.400  1.00  0.00     0.049 A 
HETATM   12  C8  UNL     1      13.306  10.698   2.754  1.00  0.00     0.047 A 
HETATM   13  C9  UNL     1      14.003   9.583   3.116  1.00  0.00     0.092 A 
HETATM   14  N3  UNL     1      14.912   9.651   4.100  1.00  0.00    -0.352 N 
HETATM   15  C10 UNL     1      15.145  10.790   4.727  1.00  0.00     0.112 A 
ATOM     16  H3  UNL     1      15.430   8.813   4.368  1.00  0.00     0.166 HD
HETATM   17  N4  UNL     1      16.019  10.851   5.673  1.00  0.00    -0.385 N 
HETATM   18  C11 UNL     1      14.461  11.952   4.394  1.00  0.00     0.044 A 
ATOM     19  H42 UNL     1      16.521   9.998   5.917  1.00  0.00     0.157 HD
ATOM     20  H41 UNL     1      16.199  11.731   6.157  1.00  0.00     0.157 HD
BRANCH  18  21
HETATM   21  C12 UNL     1      14.769  13.182   5.129  1.00  0.00    -0.020 A 
HETATM   22  C13 UNL     1      15.743  14.016   4.681  1.00  0.00     0.015 A 
HETATM   23  C14 UNL     1      16.055  15.192   5.333  1.00  0.00     0.038 A 
HETATM   24  C15 UNL     1      15.360  15.530   6.471  1.00  0.00     0.075 A 
HETATM   25  C18 UNL     1      14.366  14.694   6.943  1.00  0.00     0.038 A 
HETATM   26  C19 UNL     1      14.068  13.503   6.261  1.00  0.00     0.015 A 
BRANCH  24  27
HETATM   27  O2  UNL     1      15.644  16.691   7.143  1.00  0.00    -0.279 OA
BRANCH  27  28
HETATM   28  C16 UNL     1      15.327  17.992   6.788  1.00  0.00     0.418 C 
HETATM   29  F1  UNL     1      16.174  18.907   7.433  1.00  0.00    -0.169 F 
HETATM   30  F2  UNL     1      15.593  18.138   5.426  1.00  0.00    -0.169 F 
BRANCH  28  31
HETATM   31  C17 UNL     1      13.899  18.396   7.002  1.00  0.00     0.455 C 
HETATM   32  F3  UNL     1      13.334  17.595   8.007  1.00  0.00    -0.205 F 
HETATM   33  F4  UNL     1      13.101  18.157   5.888  1.00  0.00    -0.205 F 
ENDBRANCH  28  31
ENDBRANCH  27  28
ENDBRANCH  24  27
ENDBRANCH  18  21
ENDBRANCH   8  11
TORSDOF 6
ENDMDL
MODEL 3
REMARK VINA RESULT: -7.893963562      3.700      6.638
REMARK  6 active torsions:
REMARK  status: ('A' for Active; 'I' for Inactive)
REMARK    1  A    between atoms: C2_3  and  O1_4 
REMARK    2  A    between atoms: N2_10  and  C7_11 
REMARK    3  A    between atoms: C11_20  and  C12_21 
REMARK    4  A    between atoms: C15_24  and  O2_25 
REMARK    5  A    between atoms: O2_25  and  C16_26 
REMARK    6  A    between atoms: C16_26  and  C17_29 
ROOT
HETATM    1  N1  UNL     1      14.892  14.137   0.792  1.00  0.00    -0.192 NA
HETATM    2  C1  UNL     1      13.855  14.287   1.264  1.00  0.00     0.121 C 
HETATM    3  C2  UNL     1      12.545  14.457   1.845  1.00  0.00     0.230 C 
HETATM    4  C3  UNL     1      12.527  15.719   2.725  1.00  0.00     0.063 A 
HETATM    5  C4  UNL     1      12.928  15.686   4.127  1.00  0.00     0.017 A 
HETATM    6  C5  UNL     1      11.512  15.413   3.794  1.00  0.00     0.014 A 
HETATM    7  C6  UNL     1      11.126  13.951   3.655  1.00  0.00     0.132 C 
HETATM    8  N2  UNL     1      12.137  13.409   2.720  1.00  0.00    -0.336 N 
ENDROOT
BRANCH   3   9
HETATM    9  O1  UNL     1      11.621  14.739   0.836  1.00  0.00    -0.359 OA
ATOM     10  H1  UNL     1      10.943  14.074   0.832  1.00  0.00     0.213 HD
ENDBRANCH   3   9
BRANCH   8  11
HETATM   11  C7  UNL     1      12.577  12.069   2.778  1.00  0.00     0.049 A 
HETATM   12  C8  UNL     1      11.928  11.131   1.947  1.00  0.00     0.047 A 
HETATM   13  C9  UNL     1      12.297   9.818   1.950  1.00  0.00     0.092 A 
HETATM   14  N3  UNL     1      13.290   9.402   2.750  1.00  0.00    -0.352 N 
HETATM   15  C10 UNL     1      13.921  10.252   3.540  1.00  0.00     0.112 A 
ATOM     16  H3  UNL     1      13.561   8.418   2.749  1.00  0.00     0.166 HD
HETATM   17  N4  UNL     1      14.875   9.849   4.309  1.00  0.00    -0.385 N 
HETATM   18  C11 UNL     1      13.582  11.599   3.573  1.00  0.00     0.044 A 
ATOM     19  H42 UNL     1      15.124   8.860   4.285  1.00  0.00     0.157 HD
ATOM     20  H41 UNL     1      15.362  10.505   4.919  1.00  0.00     0.157 HD
BRANCH  18  21
HETATM   21  C12 UNL     1      14.323  12.487   4.472  1.00  0.00    -0.020 A 
HETATM   22  C13 UNL     1      13.880  12.696   5.739  1.00  0.00     0.015 A 
HETATM   23  C14 UNL     1      14.555  13.513   6.624  1.00  0.00     0.038 A 
HETATM   24  C15 UNL     1      15.711  14.135   6.211  1.00  0.00     0.075 A 
HETATM   25  C18 UNL     1      16.178  13.935   4.925  1.00  0.00     0.038 A 
HETATM   26  C19 UNL     1      15.472  13.099   4.045  1.00  0.00     0.015 A 
BRANCH  24  27
HETATM   27  O2  UNL     1      16.406  14.952   7.065  1.00  0.00    -0.279 OA
BRANCH  27  28
HETATM   28  C16 UNL     1      16.175  16.285   7.362  1.00  0.00     0.418 C 
HETATM   29  F1  UNL     1      14.836  16.489   7.730  1.00  0.00    -0.169 F 
HETATM   30  F2  UNL     1      16.924  16.603   8.496  1.00  0.00    -0.169 F 
BRANCH  28  31
HETATM   31  C17 UNL     1      16.557  17.266   6.295  1.00  0.00     0.455 C 
HETATM   32  F3  UNL     1      15.532  17.334   5.337  1.00  0.00    -0.205 F 
HETATM   33  F4  UNL     1      17.673  16.864   5.569  1.00  0.00    -0.205 F 
ENDBRANCH  28  31
ENDBRANCH  27  28
ENDBRANCH  24  27
ENDBRANCH  18  21
ENDBRANCH   8  11
TORSDOF 6
ENDMDL
MODEL 4
REMARK VINA RESULT: -7.893835293      1.272      1.354
REMARK  6 active torsions:
REMARK  status: ('A' for Active; 'I' for Inactive)
REMARK    1  A    between atoms: C2_3  and  O1_4 
REMARK    2  A    between atoms: N2_10  and  C7_11 
REMARK    3  A    between atoms: C11_20  and  C12_21 
REMARK    4  A    between atoms: C15_24  and  O2_25 
REMARK    5  A    between atoms: O2_25  and  C16_26 
REMARK    6  A    between atoms: C16_26  and  C17_29 
ROOT
HETATM    1  N1  UNL     1      17.994  12.535   3.604  1.00  0.00    -0.192 NA
HETATM    2  C1  UNL     1      17.264  12.489   4.490  1.00  0.00     0.121 C 
HETATM    3  C2  UNL     1      16.365  12.440   5.618  1.00  0.00     0.230 C 
HETATM    4  C3  UNL     1      15.071  11.707   5.219  1.00  0.00     0.063 A 
HETATM    5  C4  UNL     1      13.948  12.407   4.604  1.00  0.00     0.017 A 
HETATM    6  C5  UNL     1      14.008  12.333   6.081  1.00  0.00     0.014 A 
HETATM    7  C6  UNL     1      14.632  13.525   6.788  1.00  0.00     0.132 C 
HETATM    8  N2  UNL     1      15.922  13.710   6.086  1.00  0.00    -0.336 N 
ENDROOT
BRANCH   3   9
HETATM    9  O1  UNL     1      16.912  11.631   6.617  1.00  0.00    -0.359 OA
ATOM     10  H1  UNL     1      17.399  12.169   7.229  1.00  0.00     0.213 HD
ENDBRANCH   3   9
BRANCH   8  11
HETATM   11  C7  UNL     1      16.525  14.978   5.939  1.00  0.00     0.049 A 
HETATM   12  C8  UNL     1      17.596  15.298   6.799  1.00  0.00     0.047 A 
HETATM   13  C9  UNL     1      18.227  16.505   6.717  1.00  0.00     0.092 A 
HETATM   14  N3  UNL     1      17.830  17.408   5.808  1.00  0.00    -0.352 N 
HETATM   15  C10 UNL     1      16.831  17.143   4.985  1.00  0.00     0.112 A 
ATOM     16  H3  UNL     1      18.304  18.309   5.752  1.00  0.00     0.166 HD
HETATM   17  N4  UNL     1      16.452  18.013   4.113  1.00  0.00    -0.385 N 
HETATM   18  C11 UNL     1      16.158  15.929   5.030  1.00  0.00     0.044 A 
ATOM     19  H42 UNL     1      16.945  18.905   4.079  1.00  0.00     0.157 HD
ATOM     20  H41 UNL     1      15.680  17.809   3.477  1.00  0.00     0.157 HD
BRANCH  18  21
HETATM   21  C12 UNL     1      15.060  15.699   4.087  1.00  0.00    -0.020 A 
HETATM   22  C13 UNL     1      15.313  15.157   2.867  1.00  0.00     0.015 A 
HETATM   23  C14 UNL     1      14.307  14.910   1.954  1.00  0.00     0.038 A 
HETATM   24  C15 UNL     1      13.010  15.223   2.288  1.00  0.00     0.075 A 
HETATM   25  C18 UNL     1      12.732  15.776   3.524  1.00  0.00     0.038 A 
HETATM   26  C19 UNL     1      13.774  16.017   4.435  1.00  0.00     0.015 A 
BRANCH  24  27
HETATM   27  O2  UNL     1      11.987  14.990   1.405  1.00  0.00    -0.279 OA
BRANCH  27  28
HETATM   28  C16 UNL     1      11.634  13.800   0.790  1.00  0.00     0.418 C 
HETATM   29  F1  UNL     1      10.418  13.937   0.102  1.00  0.00    -0.169 F 
HETATM   30  F2  UNL     1      12.587  13.531  -0.193  1.00  0.00    -0.169 F 
BRANCH  28  31
HETATM   31  C17 UNL     1      11.572  12.598   1.683  1.00  0.00     0.455 C 
HETATM   32  F3  UNL     1      10.708  11.644   1.120  1.00  0.00    -0.205 F 
HETATM   33  F4  UNL     1      11.008  12.878   2.923  1.00  0.00    -0.205 F 
ENDBRANCH  28  31
ENDBRANCH  27  28
ENDBRANCH  24  27
ENDBRANCH  18  21
ENDBRANCH   8  11
TORSDOF 6
ENDMDL
MODEL 5
REMARK VINA RESULT: -7.739681634      3.671      6.172
REMARK  6 active torsions:
REMARK  status: ('A' for Active; 'I' for Inactive)
REMARK    1  A    between atoms: C2_3  and  O1_4 
REMARK    2  A    between atoms: N2_10  and  C7_11 
REMARK    3  A    between atoms: C11_20  and  C12_21 
REMARK    4  A    between atoms: C15_24  and  O2_25 
REMARK    5  A    between atoms: O2_25  and  C16_26 
REMARK    6  A    between atoms: C16_26  and  C17_29 
ROOT
HETATM    1  N1  UNL     1      15.379  14.158   1.086  1.00  0.00    -0.192 NA
HETATM    2  C1  UNL     1      14.283  14.037   1.410  1.00  0.00     0.121 C 
HETATM    3  C2  UNL     1      12.907  13.862   1.807  1.00  0.00     0.230 C 
HETATM    4  C3  UNL     1      12.338  15.201   2.311  1.00  0.00     0.063 A 
HETATM    5  C4  UNL     1      12.480  15.623   3.700  1.00  0.00     0.017 A 
HETATM    6  C5  UNL     1      11.304  14.805   3.331  1.00  0.00     0.014 A 
HETATM    7  C6  UNL     1      11.430  13.308   3.556  1.00  0.00     0.132 C 
HETATM    8  N2  UNL     1      12.707  12.961   2.892  1.00  0.00    -0.336 N 
ENDROOT
BRANCH   3   9
HETATM    9  O1  UNL     1      12.130  13.571   0.683  1.00  0.00    -0.359 OA
ATOM     10  H1  UNL     1      11.216  13.515   0.936  1.00  0.00     0.213 HD
ENDBRANCH   3   9
BRANCH   8  11
HETATM   11  C7  UNL     1      13.532  11.909   3.345  1.00  0.00     0.049 A 
HETATM   12  C8  UNL     1      13.369  10.644   2.742  1.00  0.00     0.047 A 
HETATM   13  C9  UNL     1      14.129   9.579   3.129  1.00  0.00     0.092 A 
HETATM   14  N3  UNL     1      15.046   9.726   4.096  1.00  0.00    -0.352 N 
HETATM   15  C10 UNL     1      15.228  10.895   4.683  1.00  0.00     0.112 A 
ATOM     16  H3  UNL     1      15.611   8.926   4.382  1.00  0.00     0.166 HD
HETATM   17  N4  UNL     1      16.110  11.033   5.612  1.00  0.00    -0.385 N 
HETATM   18  C11 UNL     1      14.479  12.009   4.324  1.00  0.00     0.044 A 
ATOM     19  H42 UNL     1      16.660  10.216   5.876  1.00  0.00     0.157 HD
ATOM     20  H41 UNL     1      16.250  11.936   6.066  1.00  0.00     0.157 HD
BRANCH  18  21
HETATM   21  C12 UNL     1      14.731  13.277   5.014  1.00  0.00    -0.020 A 
HETATM   22  C13 UNL     1      15.629  14.161   4.506  1.00  0.00     0.015 A 
HETATM   23  C14 UNL     1      15.887  15.372   5.115  1.00  0.00     0.038 A 
HETATM   24  C15 UNL     1      15.215  15.695   6.272  1.00  0.00     0.075 A 
HETATM   25  C18 UNL     1      14.298  14.809   6.804  1.00  0.00     0.038 A 
HETATM   26  C19 UNL     1      14.054  13.583   6.165  1.00  0.00     0.015 A 
BRANCH  24  27
HETATM   27  O2  UNL     1      15.447  16.891   6.901  1.00  0.00    -0.279 OA
BRANCH  27  28
HETATM   28  C16 UNL     1      14.742  18.078   6.784  1.00  0.00     0.418 C 
HETATM   29  F1  UNL     1      13.933  18.066   5.637  1.00  0.00    -0.169 F 
HETATM   30  F2  UNL     1      13.857  18.154   7.861  1.00  0.00    -0.169 F 
BRANCH  28  31
HETATM   31  C17 UNL     1      15.566  19.330   6.804  1.00  0.00     0.455 C 
HETATM   32  F3  UNL     1      14.771  20.417   6.405  1.00  0.00    -0.205 F 
HETATM   33  F4  UNL     1      16.601  19.307   5.875  1.00  0.00    -0.205 F 
ENDBRANCH  28  31
ENDBRANCH  27  28
ENDBRANCH  24  27
ENDBRANCH  18  21
ENDBRANCH   8  11
TORSDOF 6
ENDMDL
