MODEL 1
REMARK VINA RESULT: -8.857016927      0.000      0.000
REMARK  8 active torsions:
REMARK  status: ('A' for Active; 'I' for Inactive)
REMARK    1  A    between atoms: N1_1  and  C1_5 
REMARK    2  A    between atoms: N2_10  and  C6_11 
REMARK    3  A    between atoms: C6_11  and  C7_12 
REMARK    4  A    between atoms: C9_14  and  O1_15 
REMARK    5  A    between atoms: O1_15  and  C10_16 
REMARK    6  A    between atoms: C18_29  and  C19_30 
REMARK    7  A    between atoms: C19_30  and  O2_31 
REMARK    8  A    between atoms: C19_30  and  O3_33 
ROOT
HETATM    1  C7  UNL     1      13.929  17.311   5.559  1.00  0.00    -0.030 A 
HETATM    2  C8  UNL     1      14.123  16.335   4.615  1.00  0.00     0.049 A 
HETATM    3  C9  UNL     1      13.106  15.947   3.722  1.00  0.00     0.115 A 
HETATM    4  C16 UNL     1      11.889  16.571   3.810  1.00  0.00     0.150 A 
HETATM    5  F5  UNL     1      10.847  16.254   2.980  1.00  0.00    -0.203 F 
HETATM    6  C17 UNL     1      11.703  17.561   4.773  1.00  0.00     0.057 A 
HETATM    7  C18 UNL     1      12.698  17.934   5.639  1.00  0.00     0.006 A 
ENDROOT
BRANCH   1   8
HETATM    8  C6  UNL     1      14.941  17.695   6.499  1.00  0.00     0.143 C 
BRANCH   8   9
HETATM    9  N2  UNL     1      15.996  18.438   5.888  1.00  0.00    -0.248 NA
HETATM   10  C5  UNL     1      16.311  19.689   6.652  1.00  0.00     0.104 C 
HETATM   11  C4  UNL     1      17.643  19.576   7.378  1.00  0.00     0.015 C 
HETATM   12  C3  UNL     1      18.878  19.416   6.645  1.00  0.00     0.004 C 
HETATM   13  C2  UNL     1      19.438  18.041   6.314  1.00  0.00     0.046 C 
HETATM   14  C1  UNL     1      18.424  17.222   5.447  1.00  0.00     0.265 C 
HETATM   15  C20 UNL     1      17.164  17.799   5.628  1.00  0.00    -0.064 C 
BRANCH  14  16
HETATM   16  N1  UNL     1      19.004  17.226   4.087  1.00  0.00    -0.064 N 
ATOM     17  H13 UNL     1      19.633  18.008   3.906  1.00  0.00     0.275 HD
ATOM     18  H12 UNL     1      19.691  16.488   3.926  1.00  0.00     0.275 HD
ATOM     19  H11 UNL     1      18.199  17.187   3.462  1.00  0.00     0.275 HD
ENDBRANCH  14  16
ENDBRANCH   8   9
ENDBRANCH   1   8
BRANCH   7  20
HETATM   20  C19 UNL     1      12.472  18.960   6.624  1.00  0.00     0.289 C 
BRANCH  20  21
HETATM   21  O2  UNL     1      11.425  18.528   7.473  1.00  0.00    -0.367 OA
ATOM     22  H2  UNL     1      11.196  19.250   8.046  1.00  0.00     0.213 HD
ENDBRANCH  20  21
BRANCH  20  23
HETATM   23  O3  UNL     1      11.993  20.149   6.029  1.00  0.00    -0.367 OA
ATOM     24  H3  UNL     1      12.696  20.771   5.884  1.00  0.00     0.213 HD
ENDBRANCH  20  23
ENDBRANCH   7  20
BRANCH   3  25
HETATM   25  O1  UNL     1      13.306  14.960   2.769  1.00  0.00    -0.304 OA
BRANCH  25  26
HETATM   26  C10 UNL     1      13.056  13.631   2.937  1.00  0.00     0.121 A 
HETATM   27  C11 UNL     1      13.761  12.863   3.836  1.00  0.00     0.086 A 
HETATM   28  C12 UNL     1      13.484  11.527   3.981  1.00  0.00     0.160 A 
HETATM   29  F1  UNL     1      14.146  10.727   4.849  1.00  0.00    -0.203 F 
HETATM   30  C13 UNL     1      12.490  10.924   3.227  1.00  0.00     0.196 A 
HETATM   31  F2  UNL     1      12.218   9.608   3.371  1.00  0.00    -0.199 F 
HETATM   32  C14 UNL     1      11.792  11.685   2.337  1.00  0.00     0.199 A 
HETATM   33  F3  UNL     1      10.824  11.077   1.608  1.00  0.00    -0.199 F 
HETATM   34  C15 UNL     1      12.070  13.026   2.191  1.00  0.00     0.191 A 
HETATM   35  F4  UNL     1      11.330  13.737   1.277  1.00  0.00    -0.200 F 
ENDBRANCH  25  26
ENDBRANCH   3  25
TORSDOF 8
ENDMDL
MODEL 2
REMARK VINA RESULT: -8.837884081      1.268      1.567
REMARK  8 active torsions:
REMARK  status: ('A' for Active; 'I' for Inactive)
REMARK    1  A    between atoms: N1_1  and  C1_5 
REMARK    2  A    between atoms: N2_10  and  C6_11 
REMARK    3  A    between atoms: C6_11  and  C7_12 
REMARK    4  A    between atoms: C9_14  and  O1_15 
REMARK    5  A    between atoms: O1_15  and  C10_16 
REMARK    6  A    between atoms: C18_29  and  C19_30 
REMARK    7  A    between atoms: C19_30  and  O2_31 
REMARK    8  A    between atoms: C19_30  and  O3_33 
ROOT
HETATM    1  C7  UNL     1      14.141  16.889   5.225  1.00  0.00    -0.030 A 
HETATM    2  C8  UNL     1      13.797  15.994   4.244  1.00  0.00     0.049 A 
HETATM    3  C9  UNL     1      12.527  16.002   3.637  1.00  0.00     0.115 A 
HETATM    4  C16 UNL     1      11.613  16.937   4.050  1.00  0.00     0.150 A 
HETATM    5  F5  UNL     1      10.357  17.012   3.512  1.00  0.00    -0.203 F 
HETATM    6  C17 UNL     1      11.973  17.841   5.047  1.00  0.00     0.057 A 
HETATM    7  C18 UNL     1      13.212  17.829   5.633  1.00  0.00     0.006 A 
ENDROOT
BRANCH   1   8
HETATM    8  C6  UNL     1      15.416  16.876   5.878  1.00  0.00     0.143 C 
BRANCH   8   9
HETATM    9  N2  UNL     1      16.500  16.813   4.952  1.00  0.00    -0.248 NA
HETATM   10  C5  UNL     1      17.364  18.036   5.021  1.00  0.00     0.104 C 
HETATM   11  C4  UNL     1      18.707  17.732   5.666  1.00  0.00     0.015 C 
HETATM   12  C3  UNL     1      19.635  16.809   5.053  1.00  0.00     0.004 C 
HETATM   13  C2  UNL     1      19.628  15.326   5.393  1.00  0.00     0.046 C 
HETATM   14  C1  UNL     1      18.241  14.685   5.053  1.00  0.00     0.265 C 
HETATM   15  C20 UNL     1      17.310  15.724   4.984  1.00  0.00    -0.064 C 
BRANCH  14  16
HETATM   16  N1  UNL     1      18.486  13.885   3.834  1.00  0.00    -0.064 N 
ATOM     17  H13 UNL     1      19.429  13.503   3.770  1.00  0.00     0.275 HD
ATOM     18  H12 UNL     1      17.998  12.989   3.820  1.00  0.00     0.275 HD
ATOM     19  H11 UNL     1      18.236  14.505   3.063  1.00  0.00     0.275 HD
ENDBRANCH  14  16
ENDBRANCH   8   9
ENDBRANCH   1   8
BRANCH   7  20
HETATM   20  C19 UNL     1      13.550  18.776   6.663  1.00  0.00     0.289 C 
BRANCH  20  21
HETATM   21  O2  UNL     1      12.612  18.634   7.714  1.00  0.00    -0.367 OA
ATOM     22  H2  UNL     1      11.870  18.144   7.381  1.00  0.00     0.213 HD
ENDBRANCH  20  21
BRANCH  20  23
HETATM   23  O3  UNL     1      13.393  20.106   6.211  1.00  0.00    -0.367 OA
ATOM     24  H3  UNL     1      13.576  20.731   6.903  1.00  0.00     0.213 HD
ENDBRANCH  20  23
ENDBRANCH   7  20
BRANCH   3  25
HETATM   25  O1  UNL     1      12.184  15.095   2.646  1.00  0.00    -0.304 OA
BRANCH  25  26
HETATM   26  C10 UNL     1      12.243  13.738   2.756  1.00  0.00     0.121 A 
HETATM   27  C11 UNL     1      12.833  13.117   3.832  1.00  0.00     0.086 A 
HETATM   28  C12 UNL     1      12.875  11.748   3.912  1.00  0.00     0.160 A 
HETATM   29  F1  UNL     1      13.443  11.086   4.948  1.00  0.00    -0.203 F 
HETATM   30  C13 UNL     1      12.324  10.963   2.912  1.00  0.00     0.196 A 
HETATM   31  F2  UNL     1      12.366   9.615   2.991  1.00  0.00    -0.199 F 
HETATM   32  C14 UNL     1      11.739  11.579   1.845  1.00  0.00     0.199 A 
HETATM   33  F3  UNL     1      11.206  10.794   0.876  1.00  0.00    -0.199 F 
HETATM   34  C15 UNL     1      11.697  12.953   1.765  1.00  0.00     0.191 A 
HETATM   35  F4  UNL     1      11.094  13.512   0.664  1.00  0.00    -0.200 F 
ENDBRANCH  25  26
ENDBRANCH   3  25
TORSDOF 8
ENDMDL
MODEL 3
REMARK VINA RESULT: -8.822200852      0.795      1.718
REMARK  8 active torsions:
REMARK  status: ('A' for Active; 'I' for Inactive)
REMARK    1  A    between atoms: N1_1  and  C1_5 
REMARK    2  A    between atoms: N2_10  and  C6_11 
REMARK    3  A    between atoms: C6_11  and  C7_12 
REMARK    4  A    between atoms: C9_14  and  O1_15 
REMARK    5  A    between atoms: O1_15  and  C10_16 
REMARK    6  A    between atoms: C18_29  and  C19_30 
REMARK    7  A    between atoms: C19_30  and  O2_31 
REMARK    8  A    between atoms: C19_30  and  O3_33 
ROOT
HETATM    1  C7  UNL     1      13.805  17.109   5.309  1.00  0.00    -0.030 A 
HETATM    2  C8  UNL     1      13.960  16.226   4.270  1.00  0.00     0.049 A 
HETATM    3  C9  UNL     1      12.915  15.941   3.370  1.00  0.00     0.115 A 
HETATM    4  C16 UNL     1      11.711  16.571   3.549  1.00  0.00     0.150 A 
HETATM    5  F5  UNL     1      10.645  16.350   2.720  1.00  0.00    -0.203 F 
HETATM    6  C17 UNL     1      11.565  17.465   4.607  1.00  0.00     0.057 A 
HETATM    7  C18 UNL     1      12.587  17.739   5.480  1.00  0.00     0.006 A 
ENDROOT
BRANCH   1   8
HETATM    8  C6  UNL     1      14.846  17.386   6.255  1.00  0.00     0.143 C 
BRANCH   8   9
HETATM    9  N2  UNL     1      15.893  18.176   5.693  1.00  0.00    -0.248 NA
HETATM   10  C5  UNL     1      16.092  19.456   6.450  1.00  0.00     0.104 C 
HETATM   11  C4  UNL     1      17.381  19.430   7.257  1.00  0.00     0.015 C 
HETATM   12  C3  UNL     1      18.666  19.327   6.603  1.00  0.00     0.004 C 
HETATM   13  C2  UNL     1      19.320  17.979   6.335  1.00  0.00     0.046 C 
HETATM   14  C1  UNL     1      18.407  17.090   5.425  1.00  0.00     0.265 C 
HETATM   15  C20 UNL     1      17.109  17.599   5.518  1.00  0.00    -0.064 C 
BRANCH  14  16
HETATM   16  N1  UNL     1      19.069  17.104   4.102  1.00  0.00    -0.064 N 
ATOM     17  H13 UNL     1      18.450  16.870   3.326  1.00  0.00     0.275 HD
ATOM     18  H12 UNL     1      19.319  18.036   3.772  1.00  0.00     0.275 HD
ATOM     19  H11 UNL     1      19.864  16.473   4.204  1.00  0.00     0.275 HD
ENDBRANCH  14  16
ENDBRANCH   8   9
ENDBRANCH   1   8
BRANCH   7  20
HETATM   20  C19 UNL     1      12.401  18.667   6.565  1.00  0.00     0.289 C 
BRANCH  20  21
HETATM   21  O2  UNL     1      11.270  18.253   7.307  1.00  0.00    -0.367 OA
ATOM     22  H2  UNL     1      10.563  18.083   6.694  1.00  0.00     0.213 HD
ENDBRANCH  20  21
BRANCH  20  23
HETATM   23  O3  UNL     1      12.074  19.957   6.089  1.00  0.00    -0.367 OA
ATOM     24  H3  UNL     1      12.802  20.348   5.620  1.00  0.00     0.213 HD
ENDBRANCH  20  23
ENDBRANCH   7  20
BRANCH   3  25
HETATM   25  O1  UNL     1      13.076  15.049   2.322  1.00  0.00    -0.304 OA
BRANCH  25  26
HETATM   26  C10 UNL     1      12.765  13.722   2.352  1.00  0.00     0.121 A 
HETATM   27  C11 UNL     1      11.558  13.244   1.895  1.00  0.00     0.086 A 
HETATM   28  C12 UNL     1      11.276  11.902   1.940  1.00  0.00     0.160 A 
HETATM   29  F1  UNL     1      10.106  11.379   1.504  1.00  0.00    -0.203 F 
HETATM   30  C13 UNL     1      12.200  11.001   2.445  1.00  0.00     0.196 A 
HETATM   31  F2  UNL     1      11.921   9.679   2.488  1.00  0.00    -0.199 F 
HETATM   32  C14 UNL     1      13.395  11.475   2.897  1.00  0.00     0.199 A 
HETATM   33  F3  UNL     1      14.286  10.578   3.388  1.00  0.00    -0.199 F 
HETATM   34  C15 UNL     1      13.679  12.822   2.853  1.00  0.00     0.191 A 
HETATM   35  F4  UNL     1      14.901  13.235   3.325  1.00  0.00    -0.200 F 
ENDBRANCH  25  26
ENDBRANCH   3  25
TORSDOF 8
ENDMDL
MODEL 4
REMARK VINA RESULT: -8.631123211      1.714      2.124
REMARK  8 active torsions:
REMARK  status: ('A' for Active; 'I' for Inactive)
REMARK    1  A    between atoms: N1_1  and  C1_5 
REMARK    2  A    between atoms: N2_10  and  C6_11 
REMARK    3  A    between atoms: C6_11  and  C7_12 
REMARK    4  A    between atoms: C9_14  and  O1_15 
REMARK    5  A    between atoms: O1_15  and  C10_16 
REMARK    6  A    between atoms: C18_29  and  C19_30 
REMARK    7  A    between atoms: C19_30  and  O2_31 
REMARK    8  A    between atoms: C19_30  and  O3_33 
ROOT
HETATM    1  C7  UNL     1      14.216  16.943   5.190  1.00  0.00    -0.030 A 
HETATM    2  C8  UNL     1      13.883  16.049   4.204  1.00  0.00     0.049 A 
HETATM    3  C9  UNL     1      12.598  16.012   3.632  1.00  0.00     0.115 A 
HETATM    4  C16 UNL     1      11.657  16.901   4.084  1.00  0.00     0.150 A 
HETATM    5  F5  UNL     1      10.385  16.930   3.580  1.00  0.00    -0.203 F 
HETATM    6  C17 UNL     1      12.005  17.804   5.085  1.00  0.00     0.057 A 
HETATM    7  C18 UNL     1      13.259  17.836   5.638  1.00  0.00     0.006 A 
ENDROOT
BRANCH   1   8
HETATM    8  C6  UNL     1      15.508  16.974   5.809  1.00  0.00     0.143 C 
BRANCH   8   9
HETATM    9  N2  UNL     1      16.361  15.931   5.337  1.00  0.00    -0.248 NA
HETATM   10  C5  UNL     1      17.418  16.453   4.410  1.00  0.00     0.104 C 
HETATM   11  C4  UNL     1      18.790  16.437   5.066  1.00  0.00     0.015 C 
HETATM   12  C3  UNL     1      19.407  15.193   5.470  1.00  0.00     0.004 C 
HETATM   13  C2  UNL     1      19.213  14.623   6.867  1.00  0.00     0.046 C 
HETATM   14  C1  UNL     1      17.697  14.355   7.153  1.00  0.00     0.265 C 
HETATM   15  C20 UNL     1      16.963  15.131   6.252  1.00  0.00    -0.064 C 
BRANCH  14  16
HETATM   16  N1  UNL     1      17.556  12.885   7.084  1.00  0.00    -0.064 N 
ATOM     17  H13 UNL     1      17.074  12.553   6.249  1.00  0.00     0.275 HD
ATOM     18  H12 UNL     1      18.433  12.391   6.914  1.00  0.00     0.275 HD
ATOM     19  H11 UNL     1      17.098  12.628   7.959  1.00  0.00     0.275 HD
ENDBRANCH  14  16
ENDBRANCH   8   9
ENDBRANCH   1   8
BRANCH   7  20
HETATM   20  C19 UNL     1      13.585  18.782   6.673  1.00  0.00     0.289 C 
BRANCH  20  21
HETATM   21  O2  UNL     1      12.634  18.639   7.712  1.00  0.00    -0.367 OA
ATOM     22  H2  UNL     1      12.163  19.460   7.793  1.00  0.00     0.213 HD
ENDBRANCH  20  21
BRANCH  20  23
HETATM   23  O3  UNL     1      13.435  20.112   6.221  1.00  0.00    -0.367 OA
ATOM     24  H3  UNL     1      13.661  20.193   5.302  1.00  0.00     0.213 HD
ENDBRANCH  20  23
ENDBRANCH   7  20
BRANCH   3  25
HETATM   25  O1  UNL     1      12.267  15.106   2.636  1.00  0.00    -0.304 OA
BRANCH  25  26
HETATM   26  C10 UNL     1      12.291  13.749   2.756  1.00  0.00     0.121 A 
HETATM   27  C11 UNL     1      12.865  13.121   3.837  1.00  0.00     0.086 A 
HETATM   28  C12 UNL     1      12.872  11.752   3.927  1.00  0.00     0.160 A 
HETATM   29  F1  UNL     1      13.423  11.084   4.968  1.00  0.00    -0.203 F 
HETATM   30  C13 UNL     1      12.301  10.973   2.933  1.00  0.00     0.196 A 
HETATM   31  F2  UNL     1      12.309   9.626   3.023  1.00  0.00    -0.199 F 
HETATM   32  C14 UNL     1      11.732  11.596   1.861  1.00  0.00     0.199 A 
HETATM   33  F3  UNL     1      11.179  10.818   0.899  1.00  0.00    -0.199 F 
HETATM   34  C15 UNL     1      11.725  12.971   1.771  1.00  0.00     0.191 A 
HETATM   35  F4  UNL     1      11.136  13.536   0.666  1.00  0.00    -0.200 F 
ENDBRANCH  25  26
ENDBRANCH   3  25
TORSDOF 8
ENDMDL
MODEL 5
REMARK VINA RESULT: -8.454476291      1.068      1.894
REMARK  8 active torsions:
REMARK  status: ('A' for Active; 'I' for Inactive)
REMARK    1  A    between atoms: N1_1  and  C1_5 
REMARK    2  A    between atoms: N2_10  and  C6_11 
REMARK    3  A    between atoms: C6_11  and  C7_12 
REMARK    4  A    between atoms: C9_14  and  O1_15 
REMARK    5  A    between atoms: O1_15  and  C10_16 
REMARK    6  A    between atoms: C18_29  and  C19_30 
REMARK    7  A    between atoms: C19_30  and  O2_31 
REMARK    8  A    between atoms: C19_30  and  O3_33 
ROOT
HETATM    1  C7  UNL     1      14.008  17.362   5.657  1.00  0.00    -0.030 A 
HETATM    2  C8  UNL     1      14.243  16.341   4.771  1.00  0.00     0.049 A 
HETATM    3  C9  UNL     1      13.261  15.897   3.866  1.00  0.00     0.115 A 
HETATM    4  C16 UNL     1      12.036  16.510   3.881  1.00  0.00     0.150 A 
HETATM    5  F5  UNL     1      11.027  16.139   3.034  1.00  0.00    -0.203 F 
HETATM    6  C17 UNL     1      11.808  17.546   4.784  1.00  0.00     0.057 A 
HETATM    7  C18 UNL     1      12.769  17.974   5.663  1.00  0.00     0.006 A 
ENDROOT
BRANCH   1   8
HETATM    8  C6  UNL     1      14.984  17.805   6.609  1.00  0.00     0.143 C 
BRANCH   8   9
HETATM    9  N2  UNL     1      16.053  18.525   5.995  1.00  0.00    -0.248 NA
HETATM   10  C5  UNL     1      16.432  19.741   6.786  1.00  0.00     0.104 C 
HETATM   11  C4  UNL     1      17.773  19.558   7.480  1.00  0.00     0.015 C 
HETATM   12  C3  UNL     1      18.986  19.372   6.716  1.00  0.00     0.004 C 
HETATM   13  C2  UNL     1      19.486  17.987   6.336  1.00  0.00     0.046 C 
HETATM   14  C1  UNL     1      18.423  17.231   5.469  1.00  0.00     0.265 C 
HETATM   15  C20 UNL     1      17.191  17.850   5.693  1.00  0.00    -0.064 C 
BRANCH  14  16
HETATM   16  N1  UNL     1      18.975  17.251   4.097  1.00  0.00    -0.064 N 
ATOM     17  H13 UNL     1      19.976  17.442   4.055  1.00  0.00     0.275 HD
ATOM     18  H12 UNL     1      19.016  16.334   3.652  1.00  0.00     0.275 HD
ATOM     19  H11 UNL     1      18.402  17.930   3.598  1.00  0.00     0.275 HD
ENDBRANCH  14  16
ENDBRANCH   8   9
ENDBRANCH   1   8
BRANCH   7  20
HETATM   20  C19 UNL     1      12.499  19.046   6.586  1.00  0.00     0.289 C 
BRANCH  20  21
HETATM   21  O2  UNL     1      11.462  18.627   7.452  1.00  0.00    -0.367 OA
ATOM     22  H2  UNL     1      11.824  17.993   8.059  1.00  0.00     0.213 HD
ENDBRANCH  20  21
BRANCH  20  23
HETATM   23  O3  UNL     1      11.984  20.181   5.920  1.00  0.00    -0.367 OA
ATOM     24  H3  UNL     1      11.040  20.128   5.827  1.00  0.00     0.213 HD
ENDBRANCH  20  23
ENDBRANCH   7  20
BRANCH   3  25
HETATM   25  O1  UNL     1      13.503  14.865   2.972  1.00  0.00    -0.304 OA
BRANCH  25  26
HETATM   26  C10 UNL     1      13.713  13.559   3.304  1.00  0.00     0.121 A 
HETATM   27  C11 UNL     1      12.675  12.667   3.450  1.00  0.00     0.086 A 
HETATM   28  C12 UNL     1      12.921  11.359   3.784  1.00  0.00     0.160 A 
HETATM   29  F1  UNL     1      11.939  10.441   3.942  1.00  0.00    -0.203 F 
HETATM   30  C13 UNL     1      14.217  10.909   3.979  1.00  0.00     0.196 A 
HETATM   31  F2  UNL     1      14.458   9.621   4.308  1.00  0.00    -0.199 F 
HETATM   32  C14 UNL     1      15.245  11.794   3.833  1.00  0.00     0.199 A 
HETATM   33  F3  UNL     1      16.506  11.335   4.029  1.00  0.00    -0.199 F 
HETATM   34  C15 UNL     1      14.999  13.107   3.498  1.00  0.00     0.191 A 
HETATM   35  F4  UNL     1      16.078  13.947   3.367  1.00  0.00    -0.200 F 
ENDBRANCH  25  26
ENDBRANCH   3  25
TORSDOF 8
ENDMDL
