MODEL 1
REMARK VINA RESULT: -9.149349259      0.000      0.000
REMARK  10 active torsions:
REMARK  status: ('A' for Active; 'I' for Inactive)
REMARK    1  A    between atoms: C2_2  and  N1_3 
REMARK    2  A    between atoms: C2_2  and  C6_21 
REMARK    3  A    between atoms: N1_3  and  N2_5 
REMARK    4  A    between atoms: N2_5  and  C3_7 
REMARK    5  A    between atoms: C4_12  and  C5_13 
REMARK       I    between atoms: C5_13  and  N5_15 
REMARK    6  A    between atoms: N5_15  and  N6_17 
REMARK       I    between atoms: C6_21  and  N7_23 
REMARK    7  A    between atoms: N7_23  and  N8_25 
REMARK    8  A    between atoms: N8_25  and  C7_26 
REMARK    9  A    between atoms: C7_26  and  C8_27 
REMARK   10  A    between atoms: C8_27  and  C9_29 
ROOT
HETATM    1  N1  UNL     1      17.463  24.591   9.275  1.00  0.00    -0.298 N 
ATOM      2  H1  UNL     1      18.325  24.261   9.709  1.00  0.00     0.187 HD
ENDROOT
BRANCH   1   3
HETATM    3  C2  UNL     1      16.355  24.095   9.677  1.00  0.00     0.090 C 
HETATM    4  C1  UNL     1      15.443  23.431   8.703  1.00  0.00     0.076 C 
BRANCH   3   5
HETATM    5  C6  UNL     1      16.014  24.194  11.090  1.00  0.00     0.280 C 
HETATM    6  O2  UNL     1      15.571  25.269  11.594  1.00  0.00    -0.265 OA
HETATM    7  N7  UNL     1      16.177  23.062  11.934  1.00  0.00    -0.268 N 
ATOM      8  H7  UNL     1      16.534  22.202  11.518  1.00  0.00     0.185 HD
BRANCH   7   9
HETATM    9  N8  UNL     1      15.884  23.054  13.279  1.00  0.00    -0.131 NA
BRANCH   9  10
HETATM   10  C7  UNL     1      14.824  22.134  13.629  1.00  0.00     0.214 C 
BRANCH  10  11
HETATM   11  C8  UNL     1      15.197  21.397  14.863  1.00  0.00     0.150 C 
HETATM   12  O3  UNL     1      15.609  20.234  14.785  1.00  0.00    -0.296 OA
BRANCH  11  13
HETATM   13  C9  UNL     1      15.092  22.021  16.210  1.00  0.00     0.011 C 
HETATM   14  C10 UNL     1      15.157  20.928  17.281  1.00  0.00     0.022 C 
HETATM   15  C11 UNL     1      13.795  22.792  16.347  1.00  0.00     0.022 C 
HETATM   16  C12 UNL     1      16.237  22.955  16.453  1.00  0.00     0.022 C 
ENDBRANCH  11  13
ENDBRANCH  10  11
ENDBRANCH   9  10
ENDBRANCH   7   9
ENDBRANCH   3   5
ENDBRANCH   1   3
BRANCH   1  17
HETATM   17  N2  UNL     1      17.558  25.556   8.280  1.00  0.00    -0.278 N 
ATOM     18  H2  UNL     1      17.696  25.308   7.300  1.00  0.00     0.189 HD
BRANCH  17  19
HETATM   19  C3  UNL     1      17.458  26.807   8.670  1.00  0.00     0.180 A 
HETATM   20  N3  UNL     1      16.917  27.828   8.007  1.00  0.00    -0.277 N 
HETATM   21  N4  UNL     1      16.915  28.979   8.554  1.00  0.00    -0.287 N 
ATOM     22  H3  UNL     1      16.511  27.692   7.080  1.00  0.00     0.189 HD
HETATM   23  C4  UNL     1      17.440  29.147   9.755  1.00  0.00     0.162 A 
ATOM     24  H4  UNL     1      16.506  29.774   8.064  1.00  0.00     0.188 HD
HETATM   25  S1  UNL     1      17.967  27.563  10.117  1.00  0.00    -0.026 SA
BRANCH  23  26
HETATM   26  C5  UNL     1      17.535  30.388  10.556  1.00  0.00     0.294 C 
HETATM   27  O1  UNL     1      18.463  31.179  10.317  1.00  0.00    -0.264 OA
HETATM   28  N5  UNL     1      16.551  30.585  11.549  1.00  0.00    -0.271 N 
ATOM     29  H5  UNL     1      15.814  29.895  11.695  1.00  0.00     0.189 HD
BRANCH  28  30
HETATM   30  N6  UNL     1      16.607  31.741  12.324  1.00  0.00    -0.342 N 
ATOM     31  H62 UNL     1      16.008  32.534  12.094  1.00  0.00     0.176 HD
ATOM     32  H61 UNL     1      17.252  31.769  13.114  1.00  0.00     0.176 HD
ENDBRANCH  28  30
ENDBRANCH  23  26
ENDBRANCH  17  19
ENDBRANCH   1  17
TORSDOF 10
ENDMDL
MODEL 2
REMARK VINA RESULT: -9.093453203      1.527      1.611
REMARK  10 active torsions:
REMARK  status: ('A' for Active; 'I' for Inactive)
REMARK    1  A    between atoms: C2_2  and  N1_3 
REMARK    2  A    between atoms: C2_2  and  C6_21 
REMARK    3  A    between atoms: N1_3  and  N2_5 
REMARK    4  A    between atoms: N2_5  and  C3_7 
REMARK    5  A    between atoms: C4_12  and  C5_13 
REMARK       I    between atoms: C5_13  and  N5_15 
REMARK    6  A    between atoms: N5_15  and  N6_17 
REMARK       I    between atoms: C6_21  and  N7_23 
REMARK    7  A    between atoms: N7_23  and  N8_25 
REMARK    8  A    between atoms: N8_25  and  C7_26 
REMARK    9  A    between atoms: C7_26  and  C8_27 
REMARK   10  A    between atoms: C8_27  and  C9_29 
ROOT
HETATM    1  N1  UNL     1      17.046  24.339   9.975  1.00  0.00    -0.298 N 
ATOM      2  H1  UNL     1      17.702  24.278  10.754  1.00  0.00     0.187 HD
ENDROOT
BRANCH   1   3
HETATM    3  C2  UNL     1      15.920  23.742  10.087  1.00  0.00     0.090 C 
HETATM    4  C1  UNL     1      15.334  23.038   8.911  1.00  0.00     0.076 C 
BRANCH   3   5
HETATM    5  C6  UNL     1      15.237  23.767  11.374  1.00  0.00     0.280 C 
HETATM    6  O2  UNL     1      15.694  24.424  12.356  1.00  0.00    -0.265 OA
HETATM    7  N7  UNL     1      14.027  23.042  11.542  1.00  0.00    -0.268 N 
ATOM      8  H7  UNL     1      13.668  22.518  10.744  1.00  0.00     0.185 HD
BRANCH   7   9
HETATM    9  N8  UNL     1      13.308  23.002  12.715  1.00  0.00    -0.131 NA
BRANCH   9  10
HETATM   10  C7  UNL     1      13.723  21.941  13.606  1.00  0.00     0.214 C 
BRANCH  10  11
HETATM   11  C8  UNL     1      14.056  22.514  14.934  1.00  0.00     0.150 C 
HETATM   12  O3  UNL     1      13.408  23.472  15.372  1.00  0.00    -0.296 OA
BRANCH  11  13
HETATM   13  C9  UNL     1      15.160  21.967  15.770  1.00  0.00     0.011 C 
HETATM   14  C10 UNL     1      15.656  20.654  15.157  1.00  0.00     0.022 C 
HETATM   15  C11 UNL     1      14.692  21.724  17.189  1.00  0.00     0.022 C 
HETATM   16  C12 UNL     1      16.321  22.913  15.799  1.00  0.00     0.022 C 
ENDBRANCH  11  13
ENDBRANCH  10  11
ENDBRANCH   9  10
ENDBRANCH   7   9
ENDBRANCH   3   5
ENDBRANCH   1   3
BRANCH   1  17
HETATM   17  N2  UNL     1      17.423  25.065   8.852  1.00  0.00    -0.278 N 
ATOM     18  H2  UNL     1      17.782  24.610   8.013  1.00  0.00     0.189 HD
BRANCH  17  19
HETATM   19  C3  UNL     1      17.292  26.370   8.932  1.00  0.00     0.180 A 
HETATM   20  N3  UNL     1      16.992  27.221   7.951  1.00  0.00    -0.277 N 
HETATM   21  N4  UNL     1      16.909  28.463   8.225  1.00  0.00    -0.287 N 
ATOM     22  H3  UNL     1      16.833  26.886   7.001  1.00  0.00     0.189 HD
HETATM   23  C4  UNL     1      17.116  28.889   9.458  1.00  0.00     0.162 A 
ATOM     24  H4  UNL     1      16.682  29.131   7.489  1.00  0.00     0.188 HD
HETATM   25  S1  UNL     1      17.449  27.423  10.270  1.00  0.00    -0.026 SA
BRANCH  23  26
HETATM   26  C5  UNL     1      17.066  30.274   9.978  1.00  0.00     0.294 C 
HETATM   27  O1  UNL     1      15.958  30.819  10.110  1.00  0.00    -0.264 OA
HETATM   28  N5  UNL     1      18.300  30.884  10.290  1.00  0.00    -0.271 N 
ATOM     29  H5  UNL     1      19.178  30.381  10.158  1.00  0.00     0.189 HD
BRANCH  28  30
HETATM   30  N6  UNL     1      18.295  32.188  10.782  1.00  0.00    -0.342 N 
ATOM     31  H62 UNL     1      17.413  32.626  11.045  1.00  0.00     0.176 HD
ATOM     32  H61 UNL     1      19.184  32.680  10.869  1.00  0.00     0.176 HD
ENDBRANCH  28  30
ENDBRANCH  23  26
ENDBRANCH  17  19
ENDBRANCH   1  17
TORSDOF 10
ENDMDL
MODEL 3
REMARK VINA RESULT: -8.897526313      2.756      8.907
REMARK  10 active torsions:
REMARK  status: ('A' for Active; 'I' for Inactive)
REMARK    1  A    between atoms: C2_2  and  N1_3 
REMARK    2  A    between atoms: C2_2  and  C6_21 
REMARK    3  A    between atoms: N1_3  and  N2_5 
REMARK    4  A    between atoms: N2_5  and  C3_7 
REMARK    5  A    between atoms: C4_12  and  C5_13 
REMARK       I    between atoms: C5_13  and  N5_15 
REMARK    6  A    between atoms: N5_15  and  N6_17 
REMARK       I    between atoms: C6_21  and  N7_23 
REMARK    7  A    between atoms: N7_23  and  N8_25 
REMARK    8  A    between atoms: N8_25  and  C7_26 
REMARK    9  A    between atoms: C7_26  and  C8_27 
REMARK   10  A    between atoms: C8_27  and  C9_29 
ROOT
HETATM    1  N1  UNL     1      16.277  23.815  11.710  1.00  0.00    -0.298 N 
ATOM      2  H1  UNL     1      17.172  23.349  11.859  1.00  0.00     0.187 HD
ENDROOT
BRANCH   1   3
HETATM    3  C2  UNL     1      15.994  24.216  10.530  1.00  0.00     0.090 C 
HETATM    4  C1  UNL     1      14.812  23.653   9.817  1.00  0.00     0.076 C 
BRANCH   3   5
HETATM    5  C6  UNL     1      16.844  25.225   9.910  1.00  0.00     0.280 C 
HETATM    6  O2  UNL     1      17.446  25.005   8.817  1.00  0.00    -0.265 OA
HETATM    7  N7  UNL     1      17.008  26.490  10.536  1.00  0.00    -0.268 N 
ATOM      8  H7  UNL     1      16.517  26.655  11.415  1.00  0.00     0.185 HD
BRANCH   7   9
HETATM    9  N8  UNL     1      17.787  27.505  10.032  1.00  0.00    -0.131 NA
BRANCH   9  10
HETATM   10  C7  UNL     1      17.037  28.702   9.718  1.00  0.00     0.214 C 
BRANCH  10  11
HETATM   11  C8  UNL     1      17.854  29.897  10.049  1.00  0.00     0.150 C 
HETATM   12  O3  UNL     1      19.045  29.938   9.720  1.00  0.00    -0.296 OA
BRANCH  11  13
HETATM   13  C9  UNL     1      17.278  31.064  10.772  1.00  0.00     0.011 C 
HETATM   14  C10 UNL     1      15.984  31.501  10.080  1.00  0.00     0.022 C 
HETATM   15  C11 UNL     1      18.258  32.217  10.798  1.00  0.00     0.022 C 
HETATM   16  C12 UNL     1      16.930  30.694  12.181  1.00  0.00     0.022 C 
ENDBRANCH  11  13
ENDBRANCH  10  11
ENDBRANCH   9  10
ENDBRANCH   7   9
ENDBRANCH   3   5
ENDBRANCH   1   3
BRANCH   1  17
HETATM   17  N2  UNL     1      15.431  23.978  12.801  1.00  0.00    -0.278 N 
ATOM     18  H2  UNL     1      14.851  24.809  12.914  1.00  0.00     0.189 HD
BRANCH  17  19
HETATM   19  C3  UNL     1      15.420  23.001  13.679  1.00  0.00     0.180 A 
HETATM   20  N3  UNL     1      15.108  21.721  13.473  1.00  0.00    -0.277 N 
HETATM   21  N4  UNL     1      15.155  20.915  14.459  1.00  0.00    -0.287 N 
ATOM     22  H3  UNL     1      14.838  21.394  12.546  1.00  0.00     0.189 HD
HETATM   23  C4  UNL     1      15.508  21.347  15.657  1.00  0.00     0.162 A 
ATOM     24  H4  UNL     1      14.920  19.932  14.323  1.00  0.00     0.188 HD
HETATM   25  S1  UNL     1      15.786  23.004  15.350  1.00  0.00    -0.026 SA
BRANCH  23  26
HETATM   26  C5  UNL     1      15.624  20.580  16.918  1.00  0.00     0.294 C 
HETATM   27  O1  UNL     1      16.301  19.539  16.919  1.00  0.00    -0.264 OA
HETATM   28  N5  UNL     1      14.946  21.096  18.044  1.00  0.00    -0.271 N 
ATOM     29  H5  UNL     1      14.405  21.958  17.976  1.00  0.00     0.189 HD
BRANCH  28  30
HETATM   30  N6  UNL     1      15.031  20.403  19.250  1.00  0.00    -0.342 N 
ATOM     31  H62 UNL     1      14.216  19.904  19.605  1.00  0.00     0.176 HD
ATOM     32  H61 UNL     1      15.917  20.409  19.756  1.00  0.00     0.176 HD
ENDBRANCH  28  30
ENDBRANCH  23  26
ENDBRANCH  17  19
ENDBRANCH   1  17
TORSDOF 10
ENDMDL
MODEL 4
REMARK VINA RESULT: -8.866598393      2.712      8.085
REMARK  10 active torsions:
REMARK  status: ('A' for Active; 'I' for Inactive)
REMARK    1  A    between atoms: C2_2  and  N1_3 
REMARK    2  A    between atoms: C2_2  and  C6_21 
REMARK    3  A    between atoms: N1_3  and  N2_5 
REMARK    4  A    between atoms: N2_5  and  C3_7 
REMARK    5  A    between atoms: C4_12  and  C5_13 
REMARK       I    between atoms: C5_13  and  N5_15 
REMARK    6  A    between atoms: N5_15  and  N6_17 
REMARK       I    between atoms: C6_21  and  N7_23 
REMARK    7  A    between atoms: N7_23  and  N8_25 
REMARK    8  A    between atoms: N8_25  and  C7_26 
REMARK    9  A    between atoms: C7_26  and  C8_27 
REMARK   10  A    between atoms: C8_27  and  C9_29 
ROOT
HETATM    1  N1  UNL     1      17.136  25.105   9.180  1.00  0.00    -0.298 N 
ATOM      2  H1  UNL     1      17.740  25.392   9.950  1.00  0.00     0.187 HD
ENDROOT
BRANCH   1   3
HETATM    3  C2  UNL     1      16.849  25.969   8.283  1.00  0.00     0.090 C 
HETATM    4  C1  UNL     1      15.631  25.790   7.442  1.00  0.00     0.076 C 
BRANCH   3   5
HETATM    5  C6  UNL     1      17.730  27.117   8.107  1.00  0.00     0.280 C 
HETATM    6  O2  UNL     1      18.187  27.436   6.969  1.00  0.00    -0.265 OA
HETATM    7  N7  UNL     1      18.091  27.906   9.233  1.00  0.00    -0.268 N 
ATOM      8  H7  UNL     1      17.716  27.640  10.143  1.00  0.00     0.185 HD
BRANCH   7   9
HETATM    9  N8  UNL     1      18.914  29.007   9.171  1.00  0.00    -0.131 NA
BRANCH   9  10
HETATM   10  C7  UNL     1      18.722  29.929  10.268  1.00  0.00     0.214 C 
BRANCH  10  11
HETATM   11  C8  UNL     1      17.398  30.587  10.134  1.00  0.00     0.150 C 
HETATM   12  O3  UNL     1      16.620  30.229   9.241  1.00  0.00    -0.296 OA
BRANCH  11  13
HETATM   13  C9  UNL     1      16.968  31.679  11.050  1.00  0.00     0.011 C 
HETATM   14  C10 UNL     1      18.067  32.744  11.118  1.00  0.00     0.022 C 
HETATM   15  C11 UNL     1      16.693  31.140  12.438  1.00  0.00     0.022 C 
HETATM   16  C12 UNL     1      15.730  32.345  10.535  1.00  0.00     0.022 C 
ENDBRANCH  11  13
ENDBRANCH  10  11
ENDBRANCH   9  10
ENDBRANCH   7   9
ENDBRANCH   3   5
ENDBRANCH   1   3
BRANCH   1  17
HETATM   17  N2  UNL     1      16.670  23.795   9.163  1.00  0.00    -0.278 N 
ATOM     18  H2  UNL     1      16.948  23.135   8.437  1.00  0.00     0.189 HD
BRANCH  17  19
HETATM   19  C3  UNL     1      15.853  23.456  10.134  1.00  0.00     0.180 A 
HETATM   20  N3  UNL     1      14.683  22.826  10.033  1.00  0.00    -0.277 N 
HETATM   21  N4  UNL     1      14.028  22.582  11.098  1.00  0.00    -0.287 N 
ATOM     22  H3  UNL     1      14.320  22.544   9.123  1.00  0.00     0.189 HD
HETATM   23  C4  UNL     1      14.505  22.949  12.274  1.00  0.00     0.162 A 
ATOM     24  H4  UNL     1      13.130  22.102  11.044  1.00  0.00     0.188 HD
HETATM   25  S1  UNL     1      15.979  23.686  11.824  1.00  0.00    -0.026 SA
BRANCH  23  26
HETATM   26  C5  UNL     1      13.906  22.761  13.615  1.00  0.00     0.294 C 
HETATM   27  O1  UNL     1      12.910  22.028  13.722  1.00  0.00    -0.264 OA
HETATM   28  N5  UNL     1      14.520  23.439  14.690  1.00  0.00    -0.271 N 
ATOM     29  H5  UNL     1      15.339  24.028  14.534  1.00  0.00     0.189 HD
BRANCH  28  30
HETATM   30  N6  UNL     1      13.986  23.288  15.968  1.00  0.00    -0.342 N 
ATOM     31  H62 UNL     1      13.395  22.484  16.176  1.00  0.00     0.176 HD
ATOM     32  H61 UNL     1      14.201  23.992  16.674  1.00  0.00     0.176 HD
ENDBRANCH  28  30
ENDBRANCH  23  26
ENDBRANCH  17  19
ENDBRANCH   1  17
TORSDOF 10
ENDMDL
MODEL 5
REMARK VINA RESULT: -8.856747309      2.612      8.361
REMARK  10 active torsions:
REMARK  status: ('A' for Active; 'I' for Inactive)
REMARK    1  A    between atoms: C2_2  and  N1_3 
REMARK    2  A    between atoms: C2_2  and  C6_21 
REMARK    3  A    between atoms: N1_3  and  N2_5 
REMARK    4  A    between atoms: N2_5  and  C3_7 
REMARK    5  A    between atoms: C4_12  and  C5_13 
REMARK       I    between atoms: C5_13  and  N5_15 
REMARK    6  A    between atoms: N5_15  and  N6_17 
REMARK       I    between atoms: C6_21  and  N7_23 
REMARK    7  A    between atoms: N7_23  and  N8_25 
REMARK    8  A    between atoms: N8_25  and  C7_26 
REMARK    9  A    between atoms: C7_26  and  C8_27 
REMARK   10  A    between atoms: C8_27  and  C9_29 
ROOT
HETATM    1  N1  UNL     1      16.700  24.594  10.615  1.00  0.00    -0.298 N 
ATOM      2  H1  UNL     1      17.270  25.147  11.255  1.00  0.00     0.187 HD
ENDROOT
BRANCH   1   3
HETATM    3  C2  UNL     1      16.345  25.128   9.509  1.00  0.00     0.090 C 
HETATM    4  C1  UNL     1      15.070  24.711   8.859  1.00  0.00     0.076 C 
BRANCH   3   5
HETATM    5  C6  UNL     1      17.205  26.141   8.910  1.00  0.00     0.280 C 
HETATM    6  O2  UNL     1      17.781  25.950   7.798  1.00  0.00    -0.265 OA
HETATM    7  N7  UNL     1      17.410  27.377   9.581  1.00  0.00    -0.268 N 
ATOM      8  H7  UNL     1      16.941  27.519  10.475  1.00  0.00     0.185 HD
BRANCH   7   9
HETATM    9  N8  UNL     1      18.202  28.393   9.099  1.00  0.00    -0.131 NA
BRANCH   9  10
HETATM   10  C7  UNL     1      18.394  29.469  10.047  1.00  0.00     0.214 C 
BRANCH  10  11
HETATM   11  C8  UNL     1      17.200  30.352  10.039  1.00  0.00     0.150 C 
HETATM   12  O3  UNL     1      16.280  30.138   9.240  1.00  0.00    -0.296 OA
BRANCH  11  13
HETATM   13  C9  UNL     1      17.070  31.503  10.974  1.00  0.00     0.011 C 
HETATM   14  C10 UNL     1      18.370  32.313  10.964  1.00  0.00     0.022 C 
HETATM   15  C11 UNL     1      16.777  31.024  12.380  1.00  0.00     0.022 C 
HETATM   16  C12 UNL     1      15.969  32.419  10.536  1.00  0.00     0.022 C 
ENDBRANCH  11  13
ENDBRANCH  10  11
ENDBRANCH   9  10
ENDBRANCH   7   9
ENDBRANCH   3   5
ENDBRANCH   1   3
BRANCH   1  17
HETATM   17  N2  UNL     1      16.351  23.303  10.993  1.00  0.00    -0.278 N 
ATOM     18  H2  UNL     1      16.596  22.492  10.426  1.00  0.00     0.189 HD
BRANCH  17  19
HETATM   19  C3  UNL     1      15.689  23.186  12.121  1.00  0.00     0.180 A 
HETATM   20  N3  UNL     1      14.373  23.284  12.310  1.00  0.00    -0.277 N 
HETATM   21  N4  UNL     1      13.913  23.140  13.489  1.00  0.00    -0.287 N 
ATOM     22  H3  UNL     1      13.747  23.470  11.526  1.00  0.00     0.189 HD
HETATM   23  C4  UNL     1      14.731  22.897  14.499  1.00  0.00     0.162 A 
ATOM     24  H4  UNL     1      12.910  23.211  13.656  1.00  0.00     0.188 HD
HETATM   25  S1  UNL     1      16.245  22.877  13.709  1.00  0.00    -0.026 SA
BRANCH  23  26
HETATM   26  C5  UNL     1      14.400  22.700  15.928  1.00  0.00     0.294 C 
HETATM   27  O1  UNL     1      13.671  23.534  16.490  1.00  0.00    -0.264 OA
HETATM   28  N5  UNL     1      14.946  21.561  16.558  1.00  0.00    -0.271 N 
ATOM     29  H5  UNL     1      15.539  20.913  16.039  1.00  0.00     0.189 HD
BRANCH  28  30
HETATM   30  N6  UNL     1      14.658  21.339  17.903  1.00  0.00    -0.342 N 
ATOM     31  H62 UNL     1      14.425  22.127  18.507  1.00  0.00     0.176 HD
ATOM     32  H61 UNL     1      14.688  20.383  18.258  1.00  0.00     0.176 HD
ENDBRANCH  28  30
ENDBRANCH  23  26
ENDBRANCH  17  19
ENDBRANCH   1  17
TORSDOF 10
ENDMDL
