MODEL 1
REMARK VINA RESULT: -10.085549157      0.000      0.000
REMARK  9 active torsions:
REMARK  status: ('A' for Active; 'I' for Inactive)
REMARK    1  A    between atoms: N1_1  and  C1_5 
REMARK    2  A    between atoms: C1_5  and  C2_6 
REMARK    3  A    between atoms: C1_5  and  C7_19 
REMARK    4  A    between atoms: C2_6  and  C3_7 
REMARK    5  A    between atoms: C3_7  and  S1_8 
REMARK    6  A    between atoms: S1_8  and  C4_9 
REMARK    7  A    between atoms: C7_19  and  O2_20 
REMARK    8  A    between atoms: C7_19  and  C8_22 
REMARK       I    between atoms: C8_22  and  N5_24 
REMARK    9  A    between atoms: N5_24  and  N6_25 
ROOT
HETATM    1  C1  UNL     1      17.107  25.605   9.323  1.00  0.00     0.223 C 
ENDROOT
BRANCH   1   2
HETATM    2  N1  UNL     1      17.265  26.526  10.411  1.00  0.00    -0.072 N 
ATOM      3  H13 UNL     1      16.983  26.111  11.299  1.00  0.00     0.274 HD
ATOM      4  H12 UNL     1      18.248  26.692  10.623  1.00  0.00     0.274 HD
ATOM      5  H11 UNL     1      16.767  27.398  10.229  1.00  0.00     0.274 HD
ENDBRANCH   1   2
BRANCH   1   6
HETATM    6  C2  UNL     1      16.036  24.596   9.621  1.00  0.00     0.046 C 
BRANCH   6   7
HETATM    7  C3  UNL     1      16.097  23.993  10.983  1.00  0.00     0.084 C 
BRANCH   7   8
HETATM    8  S1  UNL     1      14.506  23.266  11.464  1.00  0.00    -0.093 SA
BRANCH   8   9
HETATM    9  C4  UNL     1      14.441  22.936  13.205  1.00  0.00     0.155 C 
HETATM   10  N2  UNL     1      13.465  23.460  13.901  1.00  0.00    -0.277 N 
HETATM   11  N3  UNL     1      13.372  23.229  15.275  1.00  0.00    -0.267 N 
ATOM     12  H2  UNL     1      12.767  24.041  13.438  1.00  0.00     0.189 HD
HETATM   13  C5  UNL     1      14.357  22.415  15.890  1.00  0.00     0.253 C 
ATOM     14  H3  UNL     1      12.614  23.636  15.823  1.00  0.00     0.190 HD
HETATM   15  O1  UNL     1      14.634  22.514  17.109  1.00  0.00    -0.270 OA
HETATM   16  C6  UNL     1      15.063  21.430  15.038  1.00  0.00     0.226 C 
HETATM   17  N4  UNL     1      15.439  22.131  13.804  1.00  0.00    -0.361 N 
ATOM     18  H4  UNL     1      16.372  22.043  13.399  1.00  0.00     0.162 HD
ENDBRANCH   8   9
ENDBRANCH   7   8
ENDBRANCH   6   7
ENDBRANCH   1   6
BRANCH   1  19
HETATM   19  C7  UNL     1      16.997  26.244   7.993  1.00  0.00     0.257 C 
BRANCH  19  20
HETATM   20  O2  UNL     1      15.752  26.290   7.435  1.00  0.00    -0.383 OA
ATOM     21  H2  UNL     1      15.080  26.749   7.927  1.00  0.00     0.210 HD
ENDBRANCH  19  20
BRANCH  19  22
HETATM   22  C8  UNL     1      17.653  27.618   7.992  1.00  0.00     0.342 C 
HETATM   23  O3  UNL     1      18.711  27.629   7.320  1.00  0.00    -0.252 OA
HETATM   24  N5  UNL     1      17.110  28.663   8.654  1.00  0.00    -0.284 NA
BRANCH  24  25
HETATM   25  N6  UNL     1      16.580  29.683   9.301  1.00  0.00    -0.233 N 
HETATM   26  C9  UNL     1      17.045  30.540  10.116  1.00  0.00     0.084 C 
HETATM   27  C10 UNL     1      18.393  30.758  10.689  1.00  0.00     0.064 C 
HETATM   28  C13 UNL     1      16.232  31.602  10.713  1.00  0.00     0.174 C 
HETATM   29  C11 UNL     1      18.459  32.291  10.609  1.00  0.00     0.014 C 
HETATM   30  C12 UNL     1      17.128  32.671  11.228  1.00  0.00     0.085 C 
HETATM   31  O4  UNL     1      14.968  31.580  10.766  1.00  0.00    -0.291 OA
ATOM     32  H6  UNL     1      15.587  29.810   9.105  1.00  0.00     0.202 HD
ENDBRANCH  24  25
ENDBRANCH  19  22
ENDBRANCH   1  19
TORSDOF 9
ENDMDL
MODEL 2
REMARK VINA RESULT: -9.846295459      0.769      1.082
REMARK  9 active torsions:
REMARK  status: ('A' for Active; 'I' for Inactive)
REMARK    1  A    between atoms: N1_1  and  C1_5 
REMARK    2  A    between atoms: C1_5  and  C2_6 
REMARK    3  A    between atoms: C1_5  and  C7_19 
REMARK    4  A    between atoms: C2_6  and  C3_7 
REMARK    5  A    between atoms: C3_7  and  S1_8 
REMARK    6  A    between atoms: S1_8  and  C4_9 
REMARK    7  A    between atoms: C7_19  and  O2_20 
REMARK    8  A    between atoms: C7_19  and  C8_22 
REMARK       I    between atoms: C8_22  and  N5_24 
REMARK    9  A    between atoms: N5_24  and  N6_25 
ROOT
HETATM    1  C1  UNL     1      17.033  25.547   9.387  1.00  0.00     0.223 C 
ENDROOT
BRANCH   1   2
HETATM    2  N1  UNL     1      17.260  26.463  10.468  1.00  0.00    -0.072 N 
ATOM      3  H13 UNL     1      16.872  26.114  11.344  1.00  0.00     0.274 HD
ATOM      4  H12 UNL     1      18.244  26.494  10.735  1.00  0.00     0.274 HD
ATOM      5  H11 UNL     1      16.902  27.392  10.243  1.00  0.00     0.274 HD
ENDBRANCH   1   2
BRANCH   1   6
HETATM    6  C2  UNL     1      15.910  24.604   9.705  1.00  0.00     0.046 C 
BRANCH   6   7
HETATM    7  C3  UNL     1      16.127  23.745  10.905  1.00  0.00     0.084 C 
BRANCH   7   8
HETATM    8  S1  UNL     1      14.657  23.697  11.967  1.00  0.00    -0.093 SA
BRANCH   8   9
HETATM    9  C4  UNL     1      14.983  22.859  13.494  1.00  0.00     0.155 C 
HETATM   10  N2  UNL     1      15.030  21.551  13.488  1.00  0.00    -0.277 N 
HETATM   11  N3  UNL     1      15.282  20.847  14.667  1.00  0.00    -0.267 N 
ATOM     12  H2  UNL     1      14.881  21.043  12.617  1.00  0.00     0.189 HD
HETATM   13  C5  UNL     1      15.486  21.583  15.861  1.00  0.00     0.253 C 
ATOM     14  H3  UNL     1      15.319  19.827  14.668  1.00  0.00     0.190 HD
HETATM   15  O1  UNL     1      15.267  21.087  16.992  1.00  0.00    -0.270 OA
HETATM   16  C6  UNL     1      15.973  22.976  15.735  1.00  0.00     0.226 C 
HETATM   17  N4  UNL     1      15.172  23.609  14.680  1.00  0.00    -0.361 N 
ATOM     18  H4  UNL     1      14.773  24.541  14.795  1.00  0.00     0.162 HD
ENDBRANCH   8   9
ENDBRANCH   7   8
ENDBRANCH   6   7
ENDBRANCH   1   6
BRANCH   1  19
HETATM   19  C7  UNL     1      16.943  26.185   8.055  1.00  0.00     0.257 C 
BRANCH  19  20
HETATM   20  O2  UNL     1      15.701  26.254   7.491  1.00  0.00    -0.383 OA
ATOM     21  H2  UNL     1      15.637  26.697   6.653  1.00  0.00     0.210 HD
ENDBRANCH  19  20
BRANCH  19  22
HETATM   22  C8  UNL     1      17.625  27.547   8.054  1.00  0.00     0.342 C 
HETATM   23  O3  UNL     1      18.692  27.532   7.397  1.00  0.00    -0.252 OA
HETATM   24  N5  UNL     1      17.092  28.607   8.701  1.00  0.00    -0.284 NA
BRANCH  24  25
HETATM   25  N6  UNL     1      16.573  29.640   9.333  1.00  0.00    -0.233 N 
HETATM   26  C9  UNL     1      17.047  30.506  10.134  1.00  0.00     0.084 C 
HETATM   27  C10 UNL     1      18.398  30.720  10.702  1.00  0.00     0.064 C 
HETATM   28  C13 UNL     1      16.244  31.584  10.716  1.00  0.00     0.174 C 
HETATM   29  C11 UNL     1      18.477  32.251  10.598  1.00  0.00     0.014 C 
HETATM   30  C12 UNL     1      17.151  32.653  11.213  1.00  0.00     0.085 C 
HETATM   31  O4  UNL     1      14.980  31.575  10.771  1.00  0.00    -0.291 OA
ATOM     32  H6  UNL     1      15.581  29.774   9.137  1.00  0.00     0.202 HD
ENDBRANCH  24  25
ENDBRANCH  19  22
ENDBRANCH   1  19
TORSDOF 9
ENDMDL
MODEL 3
REMARK VINA RESULT: -9.565100139      1.209      1.445
REMARK  9 active torsions:
REMARK  status: ('A' for Active; 'I' for Inactive)
REMARK    1  A    between atoms: N1_1  and  C1_5 
REMARK    2  A    between atoms: C1_5  and  C2_6 
REMARK    3  A    between atoms: C1_5  and  C7_19 
REMARK    4  A    between atoms: C2_6  and  C3_7 
REMARK    5  A    between atoms: C3_7  and  S1_8 
REMARK    6  A    between atoms: S1_8  and  C4_9 
REMARK    7  A    between atoms: C7_19  and  O2_20 
REMARK    8  A    between atoms: C7_19  and  C8_22 
REMARK       I    between atoms: C8_22  and  N5_24 
REMARK    9  A    between atoms: N5_24  and  N6_25 
ROOT
HETATM    1  C1  UNL     1      17.209  25.627   9.413  1.00  0.00     0.223 C 
ENDROOT
BRANCH   1   2
HETATM    2  N1  UNL     1      17.164  26.594  10.472  1.00  0.00    -0.072 N 
ATOM      3  H13 UNL     1      17.385  27.531  10.136  1.00  0.00     0.274 HD
ATOM      4  H12 UNL     1      16.208  26.763  10.786  1.00  0.00     0.274 HD
ATOM      5  H11 UNL     1      17.770  26.320  11.245  1.00  0.00     0.274 HD
ENDBRANCH   1   2
BRANCH   1   6
HETATM    6  C2  UNL     1      16.309  24.462   9.706  1.00  0.00     0.046 C 
BRANCH   6   7
HETATM    7  C3  UNL     1      15.377  24.657  10.854  1.00  0.00     0.084 C 
BRANCH   7   8
HETATM    8  S1  UNL     1      14.468  23.136  11.241  1.00  0.00    -0.093 SA
BRANCH   8   9
HETATM    9  C4  UNL     1      14.383  22.855  12.990  1.00  0.00     0.155 C 
HETATM   10  N2  UNL     1      13.457  23.475  13.675  1.00  0.00    -0.277 N 
HETATM   11  N3  UNL     1      13.351  23.287  15.054  1.00  0.00    -0.267 N 
ATOM     12  H2  UNL     1      12.806  24.100  13.198  1.00  0.00     0.189 HD
HETATM   13  C5  UNL     1      14.269  22.411  15.687  1.00  0.00     0.253 C 
ATOM     14  H3  UNL     1      12.631  23.769  15.593  1.00  0.00     0.190 HD
HETATM   15  O1  UNL     1      14.558  22.517  16.903  1.00  0.00    -0.270 OA
HETATM   16  C6  UNL     1      14.888  21.350  14.860  1.00  0.00     0.226 C 
HETATM   17  N4  UNL     1      15.315  21.987  13.607  1.00  0.00    -0.361 N 
ATOM     18  H4  UNL     1      16.235  21.812  13.203  1.00  0.00     0.162 HD
ENDBRANCH   8   9
ENDBRANCH   7   8
ENDBRANCH   6   7
ENDBRANCH   1   6
BRANCH   1  19
HETATM   19  C7  UNL     1      17.054  26.199   8.057  1.00  0.00     0.257 C 
BRANCH  19  20
HETATM   20  O2  UNL     1      15.838  26.741   7.756  1.00  0.00    -0.383 OA
ATOM     21  H2  UNL     1      15.825  27.668   7.543  1.00  0.00     0.210 HD
ENDBRANCH  19  20
BRANCH  19  22
HETATM   22  C8  UNL     1      18.184  27.169   7.741  1.00  0.00     0.342 C 
HETATM   23  O3  UNL     1      18.834  26.814   6.730  1.00  0.00    -0.252 OA
HETATM   24  N5  UNL     1      18.408  28.267   8.497  1.00  0.00    -0.284 NA
BRANCH  24  25
HETATM   25  N6  UNL     1      18.627  29.337   9.235  1.00  0.00    -0.233 N 
HETATM   26  C9  UNL     1      17.866  30.139   9.862  1.00  0.00     0.084 C 
HETATM   27  C10 UNL     1      16.396  30.210  10.030  1.00  0.00     0.064 C 
HETATM   28  C13 UNL     1      18.364  31.283  10.629  1.00  0.00     0.174 C 
HETATM   29  C11 UNL     1      16.328  30.574  11.521  1.00  0.00     0.014 C 
HETATM   30  C12 UNL     1      17.313  31.724  11.584  1.00  0.00     0.085 C 
HETATM   31  O4  UNL     1      19.513  31.790  10.477  1.00  0.00    -0.291 OA
ATOM     32  H6  UNL     1      19.616  29.570   9.321  1.00  0.00     0.202 HD
ENDBRANCH  24  25
ENDBRANCH  19  22
ENDBRANCH   1  19
TORSDOF 9
ENDMDL
MODEL 4
REMARK VINA RESULT: -9.267529286      1.528      1.783
REMARK  9 active torsions:
REMARK  status: ('A' for Active; 'I' for Inactive)
REMARK    1  A    between atoms: N1_1  and  C1_5 
REMARK    2  A    between atoms: C1_5  and  C2_6 
REMARK    3  A    between atoms: C1_5  and  C7_19 
REMARK    4  A    between atoms: C2_6  and  C3_7 
REMARK    5  A    between atoms: C3_7  and  S1_8 
REMARK    6  A    between atoms: S1_8  and  C4_9 
REMARK    7  A    between atoms: C7_19  and  O2_20 
REMARK    8  A    between atoms: C7_19  and  C8_22 
REMARK       I    between atoms: C8_22  and  N5_24 
REMARK    9  A    between atoms: N5_24  and  N6_25 
ROOT
HETATM    1  C1  UNL     1      15.872  25.466   9.660  1.00  0.00     0.223 C 
ENDROOT
BRANCH   1   2
HETATM    2  N1  UNL     1      15.026  24.923   8.636  1.00  0.00    -0.072 N 
ATOM      3  H13 UNL     1      14.108  25.368   8.632  1.00  0.00     0.274 HD
ATOM      4  H12 UNL     1      15.337  25.201   7.705  1.00  0.00     0.274 HD
ATOM      5  H11 UNL     1      14.952  23.909   8.720  1.00  0.00     0.274 HD
ENDBRANCH   1   2
BRANCH   1   6
HETATM    6  C2  UNL     1      15.764  24.669  10.927  1.00  0.00     0.046 C 
BRANCH   6   7
HETATM    7  C3  UNL     1      15.213  23.293  10.764  1.00  0.00     0.084 C 
BRANCH   7   8
HETATM    8  S1  UNL     1      13.733  23.040  11.782  1.00  0.00    -0.093 SA
BRANCH   8   9
HETATM    9  C4  UNL     1      14.153  22.705  13.471  1.00  0.00     0.155 C 
HETATM   10  N2  UNL     1      13.493  23.330  14.413  1.00  0.00    -0.277 N 
HETATM   11  N3  UNL     1      13.789  23.100  15.757  1.00  0.00    -0.267 N 
ATOM     12  H2  UNL     1      12.756  23.990  14.163  1.00  0.00     0.189 HD
HETATM   13  C5  UNL     1      14.818  22.176  16.072  1.00  0.00     0.253 C 
ATOM     14  H3  UNL     1      13.278  23.585  16.495  1.00  0.00     0.190 HD
HETATM   15  O1  UNL     1      15.454  22.234  17.151  1.00  0.00    -0.270 OA
HETATM   16  C6  UNL     1      15.125  21.125  15.076  1.00  0.00     0.226 C 
HETATM   17  N4  UNL     1      15.191  21.789  13.768  1.00  0.00    -0.361 N 
ATOM     18  H4  UNL     1      15.945  21.600  13.106  1.00  0.00     0.162 HD
ENDBRANCH   8   9
ENDBRANCH   7   8
ENDBRANCH   6   7
ENDBRANCH   1   6
BRANCH   1  19
HETATM   19  C7  UNL     1      17.258  25.743   9.224  1.00  0.00     0.257 C 
BRANCH  19  20
HETATM   20  O2  UNL     1      17.911  24.733   8.577  1.00  0.00    -0.383 OA
ATOM     21  H2  UNL     1      18.836  24.866   8.402  1.00  0.00     0.210 HD
ENDBRANCH  19  20
BRANCH  19  22
HETATM   22  C8  UNL     1      17.333  27.042   8.433  1.00  0.00     0.342 C 
HETATM   23  O3  UNL     1      16.913  26.899   7.261  1.00  0.00    -0.252 OA
HETATM   24  N5  UNL     1      17.804  28.182   8.986  1.00  0.00    -0.284 NA
BRANCH  24  25
HETATM   25  N6  UNL     1      18.264  29.293   9.525  1.00  0.00    -0.233 N 
HETATM   26  C9  UNL     1      17.707  30.303  10.062  1.00  0.00     0.084 C 
HETATM   27  C10 UNL     1      16.291  30.659  10.309  1.00  0.00     0.064 C 
HETATM   28  C13 UNL     1      18.457  31.440  10.599  1.00  0.00     0.174 C 
HETATM   29  C11 UNL     1      16.421  31.247  11.722  1.00  0.00     0.014 C 
HETATM   30  C12 UNL     1      17.586  32.199  11.536  1.00  0.00     0.085 C 
HETATM   31  O4  UNL     1      19.656  31.706  10.294  1.00  0.00    -0.291 OA
ATOM     32  H6  UNL     1      19.282  29.356   9.509  1.00  0.00     0.202 HD
ENDBRANCH  24  25
ENDBRANCH  19  22
ENDBRANCH   1  19
TORSDOF 9
ENDMDL
MODEL 5
REMARK VINA RESULT: -9.267271203      2.336      8.327
REMARK  9 active torsions:
REMARK  status: ('A' for Active; 'I' for Inactive)
REMARK    1  A    between atoms: N1_1  and  C1_5 
REMARK    2  A    between atoms: C1_5  and  C2_6 
REMARK    3  A    between atoms: C1_5  and  C7_19 
REMARK    4  A    between atoms: C2_6  and  C3_7 
REMARK    5  A    between atoms: C3_7  and  S1_8 
REMARK    6  A    between atoms: S1_8  and  C4_9 
REMARK    7  A    between atoms: C7_19  and  O2_20 
REMARK    8  A    between atoms: C7_19  and  C8_22 
REMARK       I    between atoms: C8_22  and  N5_24 
REMARK    9  A    between atoms: N5_24  and  N6_25 
ROOT
HETATM    1  C1  UNL     1      16.418  24.956   9.190  1.00  0.00     0.223 C 
ENDROOT
BRANCH   1   2
HETATM    2  N1  UNL     1      15.123  25.177   8.615  1.00  0.00    -0.072 N 
ATOM      3  H13 UNL     1      15.190  25.588   7.684  1.00  0.00     0.274 HD
ATOM      4  H12 UNL     1      14.667  24.300   8.365  1.00  0.00     0.274 HD
ATOM      5  H11 UNL     1      14.539  25.741   9.233  1.00  0.00     0.274 HD
ENDBRANCH   1   2
BRANCH   1   6
HETATM    6  C2  UNL     1      17.462  25.789   8.506  1.00  0.00     0.046 C 
BRANCH   6   7
HETATM    7  C3  UNL     1      17.148  27.244   8.412  1.00  0.00     0.084 C 
BRANCH   7   8
HETATM    8  S1  UNL     1      18.182  28.225   9.534  1.00  0.00    -0.093 SA
BRANCH   8   9
HETATM    9  C4  UNL     1      17.308  29.635  10.159  1.00  0.00     0.155 C 
HETATM   10  N2  UNL     1      16.381  30.175   9.410  1.00  0.00    -0.277 N 
HETATM   11  N3  UNL     1      15.666  31.287   9.860  1.00  0.00    -0.267 N 
ATOM     12  H2  UNL     1      16.178  29.781   8.492  1.00  0.00     0.189 HD
HETATM   13  C5  UNL     1      15.971  31.810  11.142  1.00  0.00     0.253 C 
ATOM     14  H3  UNL     1      14.943  31.712   9.279  1.00  0.00     0.190 HD
HETATM   15  O1  UNL     1      15.745  33.007  11.441  1.00  0.00    -0.270 OA
HETATM   16  C6  UNL     1      16.573  30.890  12.134  1.00  0.00     0.226 C 
HETATM   17  N4  UNL     1      17.633  30.152  11.436  1.00  0.00    -0.361 N 
ATOM     18  H4  UNL     1      18.556  30.018  11.851  1.00  0.00     0.162 HD
ENDBRANCH   8   9
ENDBRANCH   7   8
ENDBRANCH   6   7
ENDBRANCH   1   6
BRANCH   1  19
HETATM   19  C7  UNL     1      16.449  25.022  10.668  1.00  0.00     0.257 C 
BRANCH  19  20
HETATM   20  O2  UNL     1      15.785  26.064  11.250  1.00  0.00    -0.383 OA
ATOM     21  H2  UNL     1      14.847  26.106  11.106  1.00  0.00     0.210 HD
ENDBRANCH  19  20
BRANCH  19  22
HETATM   22  C8  UNL     1      16.034  23.692  11.284  1.00  0.00     0.342 C 
HETATM   23  O3  UNL     1      16.175  22.742  10.478  1.00  0.00    -0.252 OA
HETATM   24  N5  UNL     1      15.578  23.610  12.553  1.00  0.00    -0.284 NA
BRANCH  24  25
HETATM   25  N6  UNL     1      15.133  23.531  13.791  1.00  0.00    -0.233 N 
HETATM   26  C9  UNL     1      15.077  22.589  14.643  1.00  0.00     0.084 C 
HETATM   27  C10 UNL     1      15.493  21.168  14.603  1.00  0.00     0.064 C 
HETATM   28  C13 UNL     1      14.521  22.756  15.987  1.00  0.00     0.174 C 
HETATM   29  C11 UNL     1      16.104  21.043  16.007  1.00  0.00     0.014 C 
HETATM   30  C12 UNL     1      15.008  21.653  16.857  1.00  0.00     0.085 C 
HETATM   31  O4  UNL     1      13.750  23.703  16.322  1.00  0.00    -0.291 OA
ATOM     32  H6  UNL     1      14.754  24.411  14.139  1.00  0.00     0.202 HD
ENDBRANCH  24  25
ENDBRANCH  19  22
ENDBRANCH   1  19
TORSDOF 9
ENDMDL
