MODEL 1
REMARK VINA RESULT: -8.541680253      0.000      0.000
REMARK  8 active torsions:
REMARK  status: ('A' for Active; 'I' for Inactive)
REMARK       I    between atoms: C1_2  and  N1_3 
REMARK    1  A    between atoms: C1_2  and  C8_16 
REMARK    2  A    between atoms: N1_3  and  N2_5 
REMARK    3  A    between atoms: N2_5  and  C2_7 
REMARK    4  A    between atoms: C5_10  and  N3_11 
REMARK    5  A    between atoms: C8_16  and  O4_17 
REMARK    6  A    between atoms: C8_16  and  C9_19 
REMARK    7  A    between atoms: C9_19  and  C10_20 
REMARK    8  A    between atoms: C10_20  and  O5_21 
ROOT
HETATM    1  O1  UNL     1      12.773  22.520  12.129  1.00  0.00    -0.269 OA
HETATM    2  C1  UNL     1      13.894  22.671  12.737  1.00  0.00     0.265 C 
HETATM    3  N1  UNL     1      15.066  22.961  12.015  1.00  0.00    -0.267 N 
ATOM      4  H1  UNL     1      15.969  23.083  12.475  1.00  0.00     0.190 HD
ENDROOT
BRANCH   2   5
HETATM    5  C8  UNL     1      13.894  22.529  14.211  1.00  0.00     0.215 C 
BRANCH   5   6
HETATM    6  O4  UNL     1      12.649  22.493  14.788  1.00  0.00    -0.386 OA
ATOM      7  H4  UNL     1      12.430  23.252  15.315  1.00  0.00     0.210 HD
ENDBRANCH   5   6
BRANCH   5   8
HETATM    8  C9  UNL     1      14.717  21.331  14.596  1.00  0.00     0.097 C 
BRANCH   8   9
HETATM    9  C10 UNL     1      15.995  21.753  15.284  1.00  0.00     0.201 C 
HETATM   10  C11 UNL     1      16.563  20.538  16.005  1.00  0.00     0.172 C 
HETATM   11  O6  UNL     1      17.659  20.132  15.674  1.00  0.00    -0.294 OA
HETATM   12  C12 UNL     1      15.815  19.863  17.072  1.00  0.00     0.102 C 
HETATM   13  C13 UNL     1      14.917  20.749  17.862  1.00  0.00     0.130 C 
HETATM   14  N4  UNL     1      14.967  22.133  17.502  1.00  0.00    -0.358 N 
HETATM   15  C14 UNL     1      15.644  22.686  16.377  1.00  0.00     0.260 C 
ATOM     16  H4  UNL     1      14.469  22.785  18.108  1.00  0.00     0.162 HD
HETATM   17  O7  UNL     1      15.943  23.878  16.270  1.00  0.00    -0.270 OA
BRANCH   9  18
HETATM   18  O5  UNL     1      16.904  22.202  14.377  1.00  0.00    -0.373 OA
ATOM     19  H5  UNL     1      17.583  21.554  14.233  1.00  0.00     0.211 HD
ENDBRANCH   9  18
ENDBRANCH   8   9
ENDBRANCH   5   8
ENDBRANCH   2   5
BRANCH   3  20
HETATM   20  N2  UNL     1      14.916  23.074  10.614  1.00  0.00    -0.298 N 
ATOM     21  H2  UNL     1      14.374  22.395  10.079  1.00  0.00     0.187 HD
BRANCH  20  22
HETATM   22  C2  UNL     1      15.550  24.171   9.989  1.00  0.00     0.048 A 
HETATM   23  C3  UNL     1      16.555  24.864  10.659  1.00  0.00     0.033 A 
HETATM   24  C4  UNL     1      17.183  25.940  10.076  1.00  0.00     0.038 A 
HETATM   25  C5  UNL     1      16.847  26.379   8.811  1.00  0.00     0.103 A 
HETATM   26  C6  UNL     1      15.843  25.682   8.146  1.00  0.00     0.038 A 
HETATM   27  C7  UNL     1      15.206  24.597   8.726  1.00  0.00     0.033 A 
BRANCH  25  28
HETATM   28  N3  UNL     1      17.489  27.498   8.218  1.00  0.00    -0.116 N 
HETATM   29  O2  UNL     1      17.309  28.658   8.620  1.00  0.00    -0.532 OA
HETATM   30  O3  UNL     1      18.348  27.314   7.169  1.00  0.00    -0.532 OA
ENDBRANCH  25  28
ENDBRANCH  20  22
ENDBRANCH   3  20
TORSDOF 8
ENDMDL
MODEL 2
REMARK VINA RESULT: -8.500393138      0.053      1.139
REMARK  8 active torsions:
REMARK  status: ('A' for Active; 'I' for Inactive)
REMARK       I    between atoms: C1_2  and  N1_3 
REMARK    1  A    between atoms: C1_2  and  C8_16 
REMARK    2  A    between atoms: N1_3  and  N2_5 
REMARK    3  A    between atoms: N2_5  and  C2_7 
REMARK    4  A    between atoms: C5_10  and  N3_11 
REMARK    5  A    between atoms: C8_16  and  O4_17 
REMARK    6  A    between atoms: C8_16  and  C9_19 
REMARK    7  A    between atoms: C9_19  and  C10_20 
REMARK    8  A    between atoms: C10_20  and  O5_21 
ROOT
HETATM    1  O1  UNL     1      12.786  22.499  12.124  1.00  0.00    -0.269 OA
HETATM    2  C1  UNL     1      13.899  22.643  12.748  1.00  0.00     0.265 C 
HETATM    3  N1  UNL     1      15.079  22.948  12.044  1.00  0.00    -0.267 N 
ATOM      4  H1  UNL     1      15.975  23.066  12.516  1.00  0.00     0.190 HD
ENDROOT
BRANCH   2   5
HETATM    5  C8  UNL     1      13.882  22.478  14.219  1.00  0.00     0.215 C 
BRANCH   5   6
HETATM    6  O4  UNL     1      12.630  22.404  14.778  1.00  0.00    -0.386 OA
ATOM      7  H4  UNL     1      11.920  22.658  14.200  1.00  0.00     0.210 HD
ENDBRANCH   5   6
BRANCH   5   8
HETATM    8  C9  UNL     1      14.728  21.293  14.597  1.00  0.00     0.097 C 
BRANCH   8   9
HETATM    9  C10 UNL     1      15.996  21.735  15.290  1.00  0.00     0.201 C 
HETATM   10  C11 UNL     1      16.572  20.531  16.025  1.00  0.00     0.172 C 
HETATM   11  O6  UNL     1      17.674  20.134  15.705  1.00  0.00    -0.294 OA
HETATM   12  C12 UNL     1      15.823  19.858  17.093  1.00  0.00     0.102 C 
HETATM   13  C13 UNL     1      14.911  20.741  17.869  1.00  0.00     0.130 C 
HETATM   14  N4  UNL     1      14.948  22.122  17.497  1.00  0.00    -0.358 N 
HETATM   15  C14 UNL     1      15.627  22.673  16.373  1.00  0.00     0.260 C 
ATOM     16  H4  UNL     1      14.440  22.775  18.094  1.00  0.00     0.162 HD
HETATM   17  O7  UNL     1      15.915  23.867  16.258  1.00  0.00    -0.270 OA
BRANCH   9  18
HETATM   18  O5  UNL     1      16.907  22.186  14.386  1.00  0.00    -0.373 OA
ATOM     19  H5  UNL     1      17.429  21.468  14.048  1.00  0.00     0.211 HD
ENDBRANCH   9  18
ENDBRANCH   8   9
ENDBRANCH   5   8
ENDBRANCH   2   5
BRANCH   3  20
HETATM   20  N2  UNL     1      14.944  23.083  10.644  1.00  0.00    -0.298 N 
ATOM     21  H2  UNL     1      14.407  22.414  10.092  1.00  0.00     0.187 HD
BRANCH  20  22
HETATM   22  C2  UNL     1      15.589  24.187  10.043  1.00  0.00     0.048 A 
HETATM   23  C3  UNL     1      15.233  24.582   8.755  1.00  0.00     0.033 A 
HETATM   24  C4  UNL     1      15.850  25.648   8.145  1.00  0.00     0.038 A 
HETATM   25  C5  UNL     1      16.844  26.370   8.775  1.00  0.00     0.103 A 
HETATM   26  C6  UNL     1      17.196  25.972  10.061  1.00  0.00     0.038 A 
HETATM   27  C7  UNL     1      16.579  24.899  10.683  1.00  0.00     0.033 A 
BRANCH  25  28
HETATM   28  N3  UNL     1      17.488  27.463   8.136  1.00  0.00    -0.116 N 
HETATM   29  O2  UNL     1      18.207  27.318   7.135  1.00  0.00    -0.532 OA
HETATM   30  O3  UNL     1      17.317  28.732   8.621  1.00  0.00    -0.532 OA
ENDBRANCH  25  28
ENDBRANCH  20  22
ENDBRANCH   3  20
TORSDOF 8
ENDMDL
MODEL 3
REMARK VINA RESULT: -8.124557265      2.964      4.160
REMARK  8 active torsions:
REMARK  status: ('A' for Active; 'I' for Inactive)
REMARK       I    between atoms: C1_2  and  N1_3 
REMARK    1  A    between atoms: C1_2  and  C8_16 
REMARK    2  A    between atoms: N1_3  and  N2_5 
REMARK    3  A    between atoms: N2_5  and  C2_7 
REMARK    4  A    between atoms: C5_10  and  N3_11 
REMARK    5  A    between atoms: C8_16  and  O4_17 
REMARK    6  A    between atoms: C8_16  and  C9_19 
REMARK    7  A    between atoms: C9_19  and  C10_20 
REMARK    8  A    between atoms: C10_20  and  O5_21 
ROOT
HETATM    1  O1  UNL     1      17.037  23.792   9.960  1.00  0.00    -0.269 OA
HETATM    2  C1  UNL     1      16.186  24.443  10.667  1.00  0.00     0.265 C 
HETATM    3  N1  UNL     1      16.258  25.846  10.761  1.00  0.00    -0.267 N 
ATOM      4  H1  UNL     1      15.596  26.386  11.317  1.00  0.00     0.190 HD
ENDROOT
BRANCH   2   5
HETATM    5  C8  UNL     1      15.141  23.662  11.367  1.00  0.00     0.215 C 
BRANCH   5   6
HETATM    6  O4  UNL     1      14.427  22.806  10.565  1.00  0.00    -0.386 OA
ATOM      7  H4  UNL     1      14.046  23.206   9.792  1.00  0.00     0.210 HD
ENDBRANCH   5   6
BRANCH   5   8
HETATM    8  C9  UNL     1      15.755  22.943  12.536  1.00  0.00     0.097 C 
BRANCH   8   9
HETATM    9  C10 UNL     1      14.879  23.060  13.762  1.00  0.00     0.201 C 
HETATM   10  C11 UNL     1      15.787  23.117  14.983  1.00  0.00     0.172 C 
HETATM   11  O6  UNL     1      15.753  24.111  15.680  1.00  0.00    -0.294 OA
HETATM   12  C12 UNL     1      16.687  22.007  15.319  1.00  0.00     0.102 C 
HETATM   13  C13 UNL     1      16.199  20.662  14.911  1.00  0.00     0.130 C 
HETATM   14  N4  UNL     1      14.901  20.648  14.311  1.00  0.00    -0.358 N 
HETATM   15  C14 UNL     1      14.140  21.789  13.923  1.00  0.00     0.260 C 
ATOM     16  H4  UNL     1      14.479  19.734  14.143  1.00  0.00     0.162 HD
HETATM   17  O7  UNL     1      12.924  21.769  13.718  1.00  0.00    -0.270 OA
BRANCH   9  18
HETATM   18  O5  UNL     1      14.126  24.192  13.709  1.00  0.00    -0.373 OA
ATOM     19  H5  UNL     1      14.677  24.965  13.757  1.00  0.00     0.211 HD
ENDBRANCH   9  18
ENDBRANCH   8   9
ENDBRANCH   5   8
ENDBRANCH   2   5
BRANCH   3  20
HETATM   20  N2  UNL     1      17.304  26.459  10.035  1.00  0.00    -0.298 N 
ATOM     21  H2  UNL     1      17.927  25.918   9.435  1.00  0.00     0.187 HD
BRANCH  20  22
HETATM   22  C2  UNL     1      17.448  27.858  10.180  1.00  0.00     0.048 A 
HETATM   23  C3  UNL     1      16.481  28.587  10.867  1.00  0.00     0.033 A 
HETATM   24  C4  UNL     1      16.593  29.950  11.015  1.00  0.00     0.038 A 
HETATM   25  C5  UNL     1      17.660  30.651  10.491  1.00  0.00     0.103 A 
HETATM   26  C6  UNL     1      18.623  29.918   9.806  1.00  0.00     0.038 A 
HETATM   27  C7  UNL     1      18.518  28.545   9.653  1.00  0.00     0.033 A 
BRANCH  25  28
HETATM   28  N3  UNL     1      17.765  32.060  10.635  1.00  0.00    -0.116 N 
HETATM   29  O2  UNL     1      18.859  32.645  10.678  1.00  0.00    -0.532 OA
HETATM   30  O3  UNL     1      16.631  32.822  10.726  1.00  0.00    -0.532 OA
ENDBRANCH  25  28
ENDBRANCH  20  22
ENDBRANCH   3  20
TORSDOF 8
ENDMDL
MODEL 4
REMARK VINA RESULT: -7.633050134      3.008      8.284
REMARK  8 active torsions:
REMARK  status: ('A' for Active; 'I' for Inactive)
REMARK       I    between atoms: C1_2  and  N1_3 
REMARK    1  A    between atoms: C1_2  and  C8_16 
REMARK    2  A    between atoms: N1_3  and  N2_5 
REMARK    3  A    between atoms: N2_5  and  C2_7 
REMARK    4  A    between atoms: C5_10  and  N3_11 
REMARK    5  A    between atoms: C8_16  and  O4_17 
REMARK    6  A    between atoms: C8_16  and  C9_19 
REMARK    7  A    between atoms: C9_19  and  C10_20 
REMARK    8  A    between atoms: C10_20  and  O5_21 
ROOT
HETATM    1  O1  UNL     1      15.981  26.305   7.413  1.00  0.00    -0.269 OA
HETATM    2  C1  UNL     1      16.974  26.347   8.226  1.00  0.00     0.265 C 
HETATM    3  N1  UNL     1      17.244  25.265   9.084  1.00  0.00    -0.267 N 
ATOM      4  H1  UNL     1      18.025  25.275   9.739  1.00  0.00     0.190 HD
ENDROOT
BRANCH   2   5
HETATM    5  C8  UNL     1      17.811  27.569   8.217  1.00  0.00     0.215 C 
BRANCH   5   6
HETATM    6  O4  UNL     1      18.319  27.911   6.988  1.00  0.00    -0.386 OA
ATOM      7  H4  UNL     1      19.101  28.451   7.015  1.00  0.00     0.210 HD
ENDBRANCH   5   6
BRANCH   5   8
HETATM    8  C9  UNL     1      17.042  28.704   8.833  1.00  0.00     0.097 C 
BRANCH   8   9
HETATM    9  C10 UNL     1      17.217  28.722  10.334  1.00  0.00     0.201 C 
HETATM   10  C11 UNL     1      16.600  30.010  10.863  1.00  0.00     0.172 C 
HETATM   11  O6  UNL     1      15.669  29.926  11.639  1.00  0.00    -0.294 OA
HETATM   12  C12 UNL     1      17.104  31.325  10.452  1.00  0.00     0.102 C 
HETATM   13  C13 UNL     1      18.557  31.364  10.129  1.00  0.00     0.130 C 
HETATM   14  N4  UNL     1      19.252  30.129  10.329  1.00  0.00    -0.358 N 
HETATM   15  C14 UNL     1      18.659  28.869  10.629  1.00  0.00     0.260 C 
ATOM     16  H4  UNL     1      20.268  30.154  10.248  1.00  0.00     0.162 HD
HETATM   17  O7  UNL     1      19.275  27.914  11.109  1.00  0.00    -0.270 OA
BRANCH   9  18
HETATM   18  O5  UNL     1      16.591  27.657  10.904  1.00  0.00    -0.373 OA
ATOM     19  H5  UNL     1      17.088  27.332  11.646  1.00  0.00     0.211 HD
ENDBRANCH   9  18
ENDBRANCH   8   9
ENDBRANCH   5   8
ENDBRANCH   2   5
BRANCH   3  20
HETATM   20  N2  UNL     1      16.366  24.162   8.980  1.00  0.00    -0.298 N 
ATOM     21  H2  UNL     1      16.254  23.649   8.106  1.00  0.00     0.187 HD
BRANCH  20  22
HETATM   22  C2  UNL     1      15.650  23.804  10.144  1.00  0.00     0.048 A 
HETATM   23  C3  UNL     1      16.200  24.049  11.400  1.00  0.00     0.033 A 
HETATM   24  C4  UNL     1      15.527  23.702  12.548  1.00  0.00     0.038 A 
HETATM   25  C5  UNL     1      14.286  23.099  12.509  1.00  0.00     0.103 A 
HETATM   26  C6  UNL     1      13.741  22.857  11.252  1.00  0.00     0.038 A 
HETATM   27  C7  UNL     1      14.412  23.203  10.090  1.00  0.00     0.033 A 
BRANCH  25  28
HETATM   28  N3  UNL     1      13.601  22.732  13.697  1.00  0.00    -0.116 N 
HETATM   29  O2  UNL     1      12.772  21.809  13.728  1.00  0.00    -0.532 OA
HETATM   30  O3  UNL     1      13.853  23.402  14.863  1.00  0.00    -0.532 OA
ENDBRANCH  25  28
ENDBRANCH  20  22
ENDBRANCH   3  20
TORSDOF 8
ENDMDL
MODEL 5
REMARK VINA RESULT: -7.250696241      1.202      2.136
REMARK  8 active torsions:
REMARK  status: ('A' for Active; 'I' for Inactive)
REMARK       I    between atoms: C1_2  and  N1_3 
REMARK    1  A    between atoms: C1_2  and  C8_16 
REMARK    2  A    between atoms: N1_3  and  N2_5 
REMARK    3  A    between atoms: N2_5  and  C2_7 
REMARK    4  A    between atoms: C5_10  and  N3_11 
REMARK    5  A    between atoms: C8_16  and  O4_17 
REMARK    6  A    between atoms: C8_16  and  C9_19 
REMARK    7  A    between atoms: C9_19  and  C10_20 
REMARK    8  A    between atoms: C10_20  and  O5_21 
ROOT
HETATM    1  O1  UNL     1      12.576  22.137  11.954  1.00  0.00    -0.269 OA
HETATM    2  C1  UNL     1      13.547  22.512  12.706  1.00  0.00     0.265 C 
HETATM    3  N1  UNL     1      14.767  22.930  12.144  1.00  0.00    -0.267 N 
ATOM      4  H1  UNL     1      15.554  23.231  12.719  1.00  0.00     0.190 HD
ENDROOT
BRANCH   2   5
HETATM    5  C8  UNL     1      13.325  22.488  14.170  1.00  0.00     0.215 C 
BRANCH   5   6
HETATM    6  O4  UNL     1      12.053  22.142  14.554  1.00  0.00    -0.386 OA
ATOM      7  H4  UNL     1      11.529  22.859  14.894  1.00  0.00     0.210 HD
ENDBRANCH   5   6
BRANCH   5   8
HETATM    8  C9  UNL     1      14.357  21.605  14.815  1.00  0.00     0.097 C 
BRANCH   8   9
HETATM    9  C10 UNL     1      14.831  22.198  16.122  1.00  0.00     0.201 C 
HETATM   10  C11 UNL     1      16.223  22.775  15.897  1.00  0.00     0.172 C 
HETATM   11  O6  UNL     1      16.385  23.967  16.064  1.00  0.00    -0.294 OA
HETATM   12  C12 UNL     1      17.346  21.925  15.487  1.00  0.00     0.102 C 
HETATM   13  C13 UNL     1      17.277  20.520  15.973  1.00  0.00     0.130 C 
HETATM   14  N4  UNL     1      16.159  20.229  16.817  1.00  0.00    -0.358 N 
HETATM   15  C14 UNL     1      15.054  21.089  17.076  1.00  0.00     0.260 C 
ATOM     16  H4  UNL     1      16.152  19.318  17.276  1.00  0.00     0.162 HD
HETATM   17  O7  UNL     1      14.289  20.959  18.035  1.00  0.00    -0.270 OA
BRANCH   9  18
HETATM   18  O5  UNL     1      13.995  23.189  16.533  1.00  0.00    -0.373 OA
ATOM     19  H5  UNL     1      14.439  23.775  17.135  1.00  0.00     0.211 HD
ENDBRANCH   9  18
ENDBRANCH   8   9
ENDBRANCH   5   8
ENDBRANCH   2   5
BRANCH   3  20
HETATM   20  N2  UNL     1      14.836  22.908  10.732  1.00  0.00    -0.298 N 
ATOM     21  H2  UNL     1      14.437  22.141  10.190  1.00  0.00     0.187 HD
BRANCH  20  22
HETATM   22  C2  UNL     1      15.482  23.998  10.106  1.00  0.00     0.048 A 
HETATM   23  C3  UNL     1      15.084  24.403   8.834  1.00  0.00     0.033 A 
HETATM   24  C4  UNL     1      15.701  25.455   8.200  1.00  0.00     0.038 A 
HETATM   25  C5  UNL     1      16.736  26.152   8.790  1.00  0.00     0.103 A 
HETATM   26  C6  UNL     1      17.130  25.744  10.060  1.00  0.00     0.038 A 
HETATM   27  C7  UNL     1      16.513  24.685  10.706  1.00  0.00     0.033 A 
BRANCH  25  28
HETATM   28  N3  UNL     1      17.379  27.230   8.126  1.00  0.00    -0.116 N 
HETATM   29  O2  UNL     1      18.047  27.071   7.092  1.00  0.00    -0.532 OA
HETATM   30  O3  UNL     1      17.267  28.500   8.623  1.00  0.00    -0.532 OA
ENDBRANCH  25  28
ENDBRANCH  20  22
ENDBRANCH   3  20
TORSDOF 8
ENDMDL
