MODEL 1
REMARK VINA RESULT: -9.850041395      0.000      0.000
REMARK  10 active torsions:
REMARK  status: ('A' for Active; 'I' for Inactive)
REMARK    1  A    between atoms: O1_3  and  C2_4 
REMARK    2  A    between atoms: C2_4  and  C3_5 
REMARK    3  A    between atoms: C3_5  and  C4_7 
REMARK    4  A    between atoms: C4_7  and  O3_8 
REMARK    5  A    between atoms: C4_7  and  N2_10 
REMARK    6  A    between atoms: N2_10  and  C5_12 
REMARK    7  A    between atoms: C7_14  and  O4_15 
REMARK    8  A    between atoms: C8_19  and  N4_20 
REMARK    9  A    between atoms: N4_20  and  C9_22 
REMARK   10  A    between atoms: C12_25  and  N5_26 
ROOT
HETATM    1  N1  UNL     1      14.359  33.036  10.803  1.00  0.00    -0.164 NA
HETATM    2  C1  UNL     1      15.510  33.028  10.753  1.00  0.00     0.228 C 
HETATM    3  O1  UNL     1      16.869  33.036  10.687  1.00  0.00    -0.276 OA
ENDROOT
BRANCH   3   4
HETATM    4  C2  UNL     1      17.706  32.188  11.441  1.00  0.00     0.272 C 
BRANCH   4   5
HETATM    5  C3  UNL     1      17.098  30.854  11.540  1.00  0.00     0.199 C 
HETATM    6  O2  UNL     1      16.723  30.424  12.603  1.00  0.00    -0.291 OA
BRANCH   5   7
HETATM    7  C4  UNL     1      16.952  30.039  10.298  1.00  0.00     0.292 C 
BRANCH   7   8
HETATM    8  O3  UNL     1      15.825  30.371   9.585  1.00  0.00    -0.369 OA
ATOM      9  H3  UNL     1      15.659  29.767   8.870  1.00  0.00     0.212 HD
ENDBRANCH   7   8
BRANCH   7  10
HETATM   10  N2  UNL     1      17.064  28.623  10.581  1.00  0.00    -0.343 N 
ATOM     11  H2  UNL     1      16.938  28.313  11.545  1.00  0.00     0.164 HD
BRANCH  10  12
HETATM   12  C5  UNL     1      17.312  27.739   9.690  1.00  0.00     0.123 A 
HETATM   13  C6  UNL     1      17.870  28.129   8.494  1.00  0.00     0.105 A 
HETATM   14  C7  UNL     1      18.132  27.143   7.537  1.00  0.00     0.158 A 
HETATM   15  N3  UNL     1      17.818  25.877   7.856  1.00  0.00    -0.170 N 
HETATM   16  C8  UNL     1      17.276  25.486   9.014  1.00  0.00     0.686 A 
ATOM     17  H3  UNL     1      18.009  25.156   7.159  1.00  0.00     0.186 HD
HETATM   18  N6  UNL     1      17.025  26.452   9.940  1.00  0.00    -0.176 N 
ATOM     19  H6  UNL     1      16.612  26.194  10.836  1.00  0.00     0.186 HD
BRANCH  14  20
HETATM   20  O4  UNL     1      18.692  27.458   6.311  1.00  0.00    -0.346 OA
ATOM     21  H4  UNL     1      18.199  27.926   5.648  1.00  0.00     0.219 HD
ENDBRANCH  14  20
BRANCH  16  22
HETATM   22  N4  UNL     1      16.986  24.270   9.294  1.00  0.00    -0.192 N 
ATOM     23  H4  UNL     1      17.382  23.531   8.714  1.00  0.00     0.184 HD
BRANCH  22  24
HETATM   24  C9  UNL     1      16.137  23.902  10.375  1.00  0.00     0.049 A 
HETATM   25  C10 UNL     1      14.795  23.640  10.185  1.00  0.00     0.032 A 
HETATM   26  C11 UNL     1      13.960  23.282  11.223  1.00  0.00     0.038 A 
HETATM   27  C12 UNL     1      14.432  23.167  12.514  1.00  0.00     0.103 A 
HETATM   28  C13 UNL     1      15.772  23.428  12.711  1.00  0.00     0.038 A 
HETATM   29  C14 UNL     1      16.601  23.786  11.670  1.00  0.00     0.032 A 
BRANCH  27  30
HETATM   30  N5  UNL     1      13.583  22.799  13.601  1.00  0.00    -0.116 N 
HETATM   31  O5  UNL     1      12.811  21.832  13.447  1.00  0.00    -0.532 OA
HETATM   32  O6  UNL     1      13.567  23.439  14.791  1.00  0.00    -0.532 OA
ENDBRANCH  27  30
ENDBRANCH  22  24
ENDBRANCH  16  22
ENDBRANCH  10  12
ENDBRANCH   7  10
ENDBRANCH   5   7
ENDBRANCH   4   5
ENDBRANCH   3   4
TORSDOF 10
ENDMDL
MODEL 2
REMARK VINA RESULT: -9.594248203      1.193      1.418
REMARK  10 active torsions:
REMARK  status: ('A' for Active; 'I' for Inactive)
REMARK    1  A    between atoms: O1_3  and  C2_4 
REMARK    2  A    between atoms: C2_4  and  C3_5 
REMARK    3  A    between atoms: C3_5  and  C4_7 
REMARK    4  A    between atoms: C4_7  and  O3_8 
REMARK    5  A    between atoms: C4_7  and  N2_10 
REMARK    6  A    between atoms: N2_10  and  C5_12 
REMARK    7  A    between atoms: C7_14  and  O4_15 
REMARK    8  A    between atoms: C8_19  and  N4_20 
REMARK    9  A    between atoms: N4_20  and  C9_22 
REMARK   10  A    between atoms: C12_25  and  N5_26 
ROOT
HETATM    1  N1  UNL     1      19.929  31.467  10.212  1.00  0.00    -0.164 NA
HETATM    2  C1  UNL     1      18.900  31.888  10.517  1.00  0.00     0.228 C 
HETATM    3  O1  UNL     1      17.684  32.393  10.859  1.00  0.00    -0.276 OA
ENDROOT
BRANCH   3   4
HETATM    4  C2  UNL     1      16.909  31.932  11.943  1.00  0.00     0.272 C 
BRANCH   4   5
HETATM    5  C3  UNL     1      16.232  30.683  11.570  1.00  0.00     0.199 C 
HETATM    6  O2  UNL     1      15.310  30.260  12.225  1.00  0.00    -0.291 OA
BRANCH   5   7
HETATM    7  C4  UNL     1      16.706  29.943  10.363  1.00  0.00     0.292 C 
BRANCH   7   8
HETATM    8  O3  UNL     1      15.891  30.144   9.275  1.00  0.00    -0.369 OA
ATOM      9  H3  UNL     1      15.077  29.659   9.339  1.00  0.00     0.212 HD
ENDBRANCH   7   8
BRANCH   7  10
HETATM   10  N2  UNL     1      16.942  28.545  10.661  1.00  0.00    -0.343 N 
ATOM     11  H2  UNL     1      16.891  28.244  11.634  1.00  0.00     0.164 HD
BRANCH  10  12
HETATM   12  C5  UNL     1      17.211  27.666   9.771  1.00  0.00     0.123 A 
HETATM   13  C6  UNL     1      17.786  28.065   8.586  1.00  0.00     0.105 A 
HETATM   14  C7  UNL     1      18.071  27.083   7.630  1.00  0.00     0.158 A 
HETATM   15  N3  UNL     1      17.760  25.814   7.939  1.00  0.00    -0.170 N 
HETATM   16  C8  UNL     1      17.201  25.416   9.086  1.00  0.00     0.686 A 
ATOM     17  H3  UNL     1      17.967  25.097   7.243  1.00  0.00     0.186 HD
HETATM   18  N6  UNL     1      16.928  26.377  10.011  1.00  0.00    -0.176 N 
ATOM     19  H6  UNL     1      16.502  26.113  10.899  1.00  0.00     0.186 HD
BRANCH  14  20
HETATM   20  O4  UNL     1      18.649  27.407   6.415  1.00  0.00    -0.346 OA
ATOM     21  H4  UNL     1      18.231  27.183   5.592  1.00  0.00     0.219 HD
ENDBRANCH  14  20
BRANCH  16  22
HETATM   22  N4  UNL     1      16.915  24.197   9.357  1.00  0.00    -0.192 N 
ATOM     23  H4  UNL     1      17.317  23.463   8.774  1.00  0.00     0.184 HD
BRANCH  22  24
HETATM   24  C9  UNL     1      16.061  23.818  10.431  1.00  0.00     0.049 A 
HETATM   25  C10 UNL     1      14.718  23.566  10.234  1.00  0.00     0.032 A 
HETATM   26  C11 UNL     1      13.879  23.198  11.266  1.00  0.00     0.038 A 
HETATM   27  C12 UNL     1      14.348  23.064  12.556  1.00  0.00     0.103 A 
HETATM   28  C13 UNL     1      15.688  23.314  12.759  1.00  0.00     0.038 A 
HETATM   29  C14 UNL     1      16.522  23.682  11.725  1.00  0.00     0.032 A 
BRANCH  27  30
HETATM   30  N5  UNL     1      13.494  22.684  13.636  1.00  0.00    -0.116 N 
HETATM   31  O5  UNL     1      12.730  21.712  13.472  1.00  0.00    -0.532 OA
HETATM   32  O6  UNL     1      13.465  23.321  14.828  1.00  0.00    -0.532 OA
ENDBRANCH  27  30
ENDBRANCH  22  24
ENDBRANCH  16  22
ENDBRANCH  10  12
ENDBRANCH   7  10
ENDBRANCH   5   7
ENDBRANCH   4   5
ENDBRANCH   3   4
TORSDOF 10
ENDMDL
MODEL 3
REMARK VINA RESULT: -9.355330906      0.748      1.348
REMARK  10 active torsions:
REMARK  status: ('A' for Active; 'I' for Inactive)
REMARK    1  A    between atoms: O1_3  and  C2_4 
REMARK    2  A    between atoms: C2_4  and  C3_5 
REMARK    3  A    between atoms: C3_5  and  C4_7 
REMARK    4  A    between atoms: C4_7  and  O3_8 
REMARK    5  A    between atoms: C4_7  and  N2_10 
REMARK    6  A    between atoms: N2_10  and  C5_12 
REMARK    7  A    between atoms: C7_14  and  O4_15 
REMARK    8  A    between atoms: C8_19  and  N4_20 
REMARK    9  A    between atoms: N4_20  and  C9_22 
REMARK   10  A    between atoms: C12_25  and  N5_26 
ROOT
HETATM    1  N1  UNL     1      14.189  32.997  10.764  1.00  0.00    -0.164 NA
HETATM    2  C1  UNL     1      15.341  32.983  10.778  1.00  0.00     0.228 C 
HETATM    3  O1  UNL     1      16.701  32.985  10.788  1.00  0.00    -0.276 OA
ENDROOT
BRANCH   3   4
HETATM    4  C2  UNL     1      17.491  32.095  11.544  1.00  0.00     0.272 C 
BRANCH   4   5
HETATM    5  C3  UNL     1      17.816  30.913  10.734  1.00  0.00     0.199 C 
HETATM    6  O2  UNL     1      18.906  30.789  10.230  1.00  0.00    -0.291 OA
BRANCH   5   7
HETATM    7  C4  UNL     1      16.770  29.864  10.544  1.00  0.00     0.292 C 
BRANCH   7   8
HETATM    8  O3  UNL     1      15.657  30.092  11.317  1.00  0.00    -0.369 OA
ATOM      9  H3  UNL     1      15.657  29.572  12.111  1.00  0.00     0.212 HD
ENDBRANCH   7   8
BRANCH   7  10
HETATM   10  N2  UNL     1      17.323  28.534  10.700  1.00  0.00    -0.343 N 
ATOM     11  H2  UNL     1      17.617  28.241  11.633  1.00  0.00     0.164 HD
BRANCH  10  12
HETATM   12  C5  UNL     1      17.464  27.707   9.735  1.00  0.00     0.123 A 
HETATM   13  C6  UNL     1      18.018  28.142   8.553  1.00  0.00     0.105 A 
HETATM   14  C7  UNL     1      18.162  27.217   7.513  1.00  0.00     0.158 A 
HETATM   15  N3  UNL     1      17.746  25.962   7.744  1.00  0.00    -0.170 N 
HETATM   16  C8  UNL     1      17.206  25.527   8.888  1.00  0.00     0.686 A 
ATOM     17  H3  UNL     1      17.850  25.285   6.987  1.00  0.00     0.186 HD
HETATM   18  N6  UNL     1      17.070  26.434   9.895  1.00  0.00    -0.176 N 
ATOM     19  H6  UNL     1      16.664  26.141  10.783  1.00  0.00     0.186 HD
BRANCH  14  20
HETATM   20  O4  UNL     1      18.710  27.580   6.296  1.00  0.00    -0.346 OA
ATOM     21  H4  UNL     1      18.661  27.007   5.540  1.00  0.00     0.219 HD
ENDBRANCH  14  20
BRANCH  16  22
HETATM   22  N4  UNL     1      16.817  24.323   9.083  1.00  0.00    -0.192 N 
ATOM     23  H4  UNL     1      17.098  23.607   8.413  1.00  0.00     0.184 HD
BRANCH  22  24
HETATM   24  C9  UNL     1      16.011  23.935  10.190  1.00  0.00     0.049 A 
HETATM   25  C10 UNL     1      16.464  24.044  11.490  1.00  0.00     0.032 A 
HETATM   26  C11 UNL     1      15.695  23.671  12.573  1.00  0.00     0.038 A 
HETATM   27  C12 UNL     1      14.421  23.168  12.405  1.00  0.00     0.103 A 
HETATM   28  C13 UNL     1      13.962  23.057  11.110  1.00  0.00     0.038 A 
HETATM   29  C14 UNL     1      14.736  23.430  10.032  1.00  0.00     0.032 A 
BRANCH  27  30
HETATM   30  N5  UNL     1      13.610  22.777  13.514  1.00  0.00    -0.116 N 
HETATM   31  O5  UNL     1      13.733  23.403  14.586  1.00  0.00    -0.532 OA
HETATM   32  O6  UNL     1      12.716  21.765  13.469  1.00  0.00    -0.532 OA
ENDBRANCH  27  30
ENDBRANCH  22  24
ENDBRANCH  16  22
ENDBRANCH  10  12
ENDBRANCH   7  10
ENDBRANCH   5   7
ENDBRANCH   4   5
ENDBRANCH   3   4
TORSDOF 10
ENDMDL
MODEL 4
REMARK VINA RESULT: -9.219666187      2.916      3.999
REMARK  10 active torsions:
REMARK  status: ('A' for Active; 'I' for Inactive)
REMARK    1  A    between atoms: O1_3  and  C2_4 
REMARK    2  A    between atoms: C2_4  and  C3_5 
REMARK    3  A    between atoms: C3_5  and  C4_7 
REMARK    4  A    between atoms: C4_7  and  O3_8 
REMARK    5  A    between atoms: C4_7  and  N2_10 
REMARK    6  A    between atoms: N2_10  and  C5_12 
REMARK    7  A    between atoms: C7_14  and  O4_15 
REMARK    8  A    between atoms: C8_19  and  N4_20 
REMARK    9  A    between atoms: N4_20  and  C9_22 
REMARK   10  A    between atoms: C12_25  and  N5_26 
ROOT
HETATM    1  N1  UNL     1      17.302  32.091  12.208  1.00  0.00    -0.164 NA
HETATM    2  C1  UNL     1      17.461  31.430  11.277  1.00  0.00     0.228 C 
HETATM    3  O1  UNL     1      17.639  30.664  10.168  1.00  0.00    -0.276 OA
ENDROOT
BRANCH   3   4
HETATM    4  C2  UNL     1      18.628  29.667  10.041  1.00  0.00     0.272 C 
BRANCH   4   5
HETATM    5  C3  UNL     1      18.068  28.502   9.342  1.00  0.00     0.199 C 
HETATM    6  O2  UNL     1      18.426  28.220   8.225  1.00  0.00    -0.291 OA
BRANCH   5   7
HETATM    7  C4  UNL     1      17.043  27.671  10.042  1.00  0.00     0.292 C 
BRANCH   7   8
HETATM    8  O3  UNL     1      16.545  28.291  11.162  1.00  0.00    -0.369 OA
ATOM      9  H3  UNL     1      17.220  28.465  11.808  1.00  0.00     0.212 HD
ENDBRANCH   7   8
BRANCH   7  10
HETATM   10  N2  UNL     1      17.532  26.330  10.290  1.00  0.00    -0.343 N 
ATOM     11  H2  UNL     1      18.540  26.190  10.359  1.00  0.00     0.164 HD
BRANCH  10  12
HETATM   12  C5  UNL     1      16.770  25.311  10.426  1.00  0.00     0.123 A 
HETATM   13  C6  UNL     1      16.586  24.463   9.358  1.00  0.00     0.105 A 
HETATM   14  C7  UNL     1      15.748  23.356   9.533  1.00  0.00     0.158 A 
HETATM   15  N3  UNL     1      15.180  23.200  10.740  1.00  0.00    -0.170 N 
HETATM   16  C8  UNL     1      15.351  24.017  11.784  1.00  0.00     0.686 A 
ATOM     17  H3  UNL     1      14.568  22.393  10.870  1.00  0.00     0.186 HD
HETATM   18  N6  UNL     1      16.168  25.091  11.605  1.00  0.00    -0.176 N 
ATOM     19  H6  UNL     1      16.325  25.738  12.377  1.00  0.00     0.186 HD
BRANCH  14  20
HETATM   20  O4  UNL     1      15.514  22.459   8.506  1.00  0.00    -0.346 OA
ATOM     21  H4  UNL     1      15.702  21.533   8.606  1.00  0.00     0.219 HD
ENDBRANCH  14  20
BRANCH  16  22
HETATM   22  N4  UNL     1      14.797  23.845  12.926  1.00  0.00    -0.192 N 
ATOM     23  H4  UNL     1      14.044  24.476  13.200  1.00  0.00     0.184 HD
BRANCH  22  24
HETATM   24  C9  UNL     1      15.181  22.815  13.830  1.00  0.00     0.049 A 
HETATM   25  C10 UNL     1      14.355  21.741  14.097  1.00  0.00     0.032 A 
HETATM   26  C11 UNL     1      14.713  20.736  14.972  1.00  0.00     0.038 A 
HETATM   27  C12 UNL     1      15.927  20.758  15.627  1.00  0.00     0.103 A 
HETATM   28  C13 UNL     1      16.756  21.827  15.366  1.00  0.00     0.038 A 
HETATM   29  C14 UNL     1      16.393  22.829  14.490  1.00  0.00     0.032 A 
BRANCH  27  30
HETATM   30  N5  UNL     1      16.315  19.727  16.536  1.00  0.00    -0.116 N 
HETATM   31  O5  UNL     1      16.819  18.685  16.069  1.00  0.00    -0.532 OA
HETATM   32  O6  UNL     1      16.165  19.813  17.877  1.00  0.00    -0.532 OA
ENDBRANCH  27  30
ENDBRANCH  22  24
ENDBRANCH  16  22
ENDBRANCH  10  12
ENDBRANCH   7  10
ENDBRANCH   5   7
ENDBRANCH   4   5
ENDBRANCH   3   4
TORSDOF 10
ENDMDL
MODEL 5
REMARK VINA RESULT: -9.139534009      2.419      8.159
REMARK  10 active torsions:
REMARK  status: ('A' for Active; 'I' for Inactive)
REMARK    1  A    between atoms: O1_3  and  C2_4 
REMARK    2  A    between atoms: C2_4  and  C3_5 
REMARK    3  A    between atoms: C3_5  and  C4_7 
REMARK    4  A    between atoms: C4_7  and  O3_8 
REMARK    5  A    between atoms: C4_7  and  N2_10 
REMARK    6  A    between atoms: N2_10  and  C5_12 
REMARK    7  A    between atoms: C7_14  and  O4_15 
REMARK    8  A    between atoms: C8_19  and  N4_20 
REMARK    9  A    between atoms: N4_20  and  C9_22 
REMARK   10  A    between atoms: C12_25  and  N5_26 
ROOT
HETATM    1  N1  UNL     1      16.278  19.075  16.580  1.00  0.00    -0.164 NA
HETATM    2  C1  UNL     1      16.142  20.110  16.093  1.00  0.00     0.228 C 
HETATM    3  O1  UNL     1      15.997  21.339  15.529  1.00  0.00    -0.276 OA
ENDROOT
BRANCH   3   4
HETATM    4  C2  UNL     1      15.323  21.581  14.314  1.00  0.00     0.272 C 
BRANCH   4   5
HETATM    5  C3  UNL     1      15.416  23.007  13.973  1.00  0.00     0.199 C 
HETATM    6  O2  UNL     1      15.740  23.821  14.802  1.00  0.00    -0.291 OA
BRANCH   5   7
HETATM    7  C4  UNL     1      15.100  23.432  12.577  1.00  0.00     0.292 C 
BRANCH   7   8
HETATM    8  O3  UNL     1      14.304  22.522  11.923  1.00  0.00    -0.369 OA
ATOM      9  H3  UNL     1      13.378  22.694  12.053  1.00  0.00     0.212 HD
ENDBRANCH   7   8
BRANCH   7  10
HETATM   10  N2  UNL     1      16.302  23.781  11.847  1.00  0.00    -0.343 N 
ATOM     11  H2  UNL     1      17.198  23.455  12.211  1.00  0.00     0.164 HD
BRANCH  10  12
HETATM   12  C5  UNL     1      16.303  24.474  10.772  1.00  0.00     0.123 A 
HETATM   13  C6  UNL     1      15.419  24.156   9.767  1.00  0.00     0.105 A 
HETATM   14  C7  UNL     1      15.440  24.931   8.602  1.00  0.00     0.158 A 
HETATM   15  N3  UNL     1      16.328  25.937   8.548  1.00  0.00    -0.170 N 
HETATM   16  C8  UNL     1      17.191  26.255   9.518  1.00  0.00     0.686 A 
ATOM     17  H3  UNL     1      16.344  26.503   7.700  1.00  0.00     0.186 HD
HETATM   18  N6  UNL     1      17.163  25.496  10.648  1.00  0.00    -0.176 N 
ATOM     19  H6  UNL     1      17.806  25.708  11.411  1.00  0.00     0.186 HD
BRANCH  14  20
HETATM   20  O4  UNL     1      14.581  24.672   7.548  1.00  0.00    -0.346 OA
ATOM     21  H4  UNL     1      13.655  24.878   7.602  1.00  0.00     0.219 HD
ENDBRANCH  14  20
BRANCH  16  22
HETATM   22  N4  UNL     1      18.028  27.221   9.442  1.00  0.00    -0.192 N 
ATOM     23  H4  UNL     1      18.911  27.061   8.956  1.00  0.00     0.184 HD
BRANCH  22  24
HETATM   24  C9  UNL     1      17.787  28.507  10.001  1.00  0.00     0.049 A 
HETATM   25  C10 UNL     1      18.719  29.522   9.913  1.00  0.00     0.032 A 
HETATM   26  C11 UNL     1      18.499  30.774  10.451  1.00  0.00     0.038 A 
HETATM   27  C12 UNL     1      17.324  31.072  11.109  1.00  0.00     0.103 A 
HETATM   28  C13 UNL     1      16.389  30.063  11.202  1.00  0.00     0.038 A 
HETATM   29  C14 UNL     1      16.614  28.815  10.662  1.00  0.00     0.032 A 
BRANCH  27  30
HETATM   30  N5  UNL     1      17.078  32.361  11.673  1.00  0.00    -0.116 N 
HETATM   31  O5  UNL     1      16.077  32.996  11.284  1.00  0.00    -0.532 OA
HETATM   32  O6  UNL     1      17.871  32.936  12.604  1.00  0.00    -0.532 OA
ENDBRANCH  27  30
ENDBRANCH  22  24
ENDBRANCH  16  22
ENDBRANCH  10  12
ENDBRANCH   7  10
ENDBRANCH   5   7
ENDBRANCH   4   5
ENDBRANCH   3   4
TORSDOF 10
ENDMDL
