MODEL 1
REMARK VINA RESULT: -9.473888636      0.000      0.000
REMARK  8 active torsions:
REMARK  status: ('A' for Active; 'I' for Inactive)
REMARK    1  A    between atoms: C3_3  and  C4_4 
REMARK    2  A    between atoms: C4_4  and  C5_6 
REMARK    3  A    between atoms: C5_6  and  O2_7 
REMARK    4  A    between atoms: C5_6  and  N1_9 
REMARK    5  A    between atoms: N1_9  and  N2_11 
REMARK    6  A    between atoms: C6_14  and  N4_15 
REMARK    7  A    between atoms: N4_15  and  N5_17 
REMARK    8  A    between atoms: C7_19  and  C8_20 
ROOT
HETATM    1  C1  UNL     1      15.241  20.364  19.061  1.00  0.00     0.112 C 
HETATM    2  C2  UNL     1      14.985  21.071  17.814  1.00  0.00    -0.103 C 
HETATM    3  C3  UNL     1      14.749  21.645  16.758  1.00  0.00    -0.025 C 
ENDROOT
BRANCH   3   4
HETATM    4  C4  UNL     1      14.443  22.301  15.502  1.00  0.00     0.251 C 
HETATM    5  O1  UNL     1      13.239  22.573  15.194  1.00  0.00    -0.278 OA
BRANCH   4   6
HETATM    6  C5  UNL     1      15.571  22.642  14.602  1.00  0.00     0.319 C 
BRANCH   6   7
HETATM    7  O2  UNL     1      15.591  24.071  14.571  1.00  0.00    -0.368 OA
ATOM      8  H2  UNL     1      15.784  24.290  13.667  1.00  0.00     0.212 HD
ENDBRANCH   6   7
BRANCH   6   9
HETATM    9  N1  UNL     1      15.249  22.260  13.255  1.00  0.00    -0.275 N 
ATOM     10  H1  UNL     1      14.829  21.343  13.102  1.00  0.00     0.185 HD
BRANCH   9  11
HETATM   11  N2  UNL     1      15.479  23.076  12.138  1.00  0.00    -0.156 N 
HETATM   12  N3  UNL     1      16.530  23.862  11.924  1.00  0.00    -0.259 N 
HETATM   13  C6  UNL     1      16.448  24.512  10.758  1.00  0.00     0.163 A 
ATOM     14  H3  UNL     1      17.310  23.959  12.576  1.00  0.00     0.191 HD
HETATM   15  C13 UNL     1      15.224  24.082  10.206  1.00  0.00     0.162 A 
HETATM   16  C14 UNL     1      14.694  24.517   8.940  1.00  0.00     0.109 C 
HETATM   17  C15 UNL     1      14.655  23.193  11.091  1.00  0.00     0.306 A 
HETATM   18  N7  UNL     1      14.258  24.858   7.920  1.00  0.00    -0.191 NA
HETATM   19  O4  UNL     1      13.537  22.604  10.914  1.00  0.00    -0.263 OA
BRANCH  13  20
HETATM   20  N4  UNL     1      17.345  25.404  10.110  1.00  0.00    -0.283 N 
ATOM     21  H4  UNL     1      17.987  25.051   9.400  1.00  0.00     0.188 HD
BRANCH  20  22
HETATM   22  N5  UNL     1      17.353  26.741  10.434  1.00  0.00    -0.309 N 
HETATM   23  C7  UNL     1      17.714  27.736   9.737  1.00  0.00     0.119 C 
ATOM     24  H5  UNL     1      17.019  26.965  11.372  1.00  0.00     0.186 HD
BRANCH  23  25
HETATM   25  C8  UNL     1      17.630  29.074  10.295  1.00  0.00    -0.004 A 
HETATM   26  C9  UNL     1      18.604  30.045  10.031  1.00  0.00     0.020 A 
HETATM   27  C10 UNL     1      18.517  31.316  10.556  1.00  0.00     0.075 A 
HETATM   28  C11 UNL     1      17.463  31.671  11.360  1.00  0.00     0.245 A 
HETATM   29  O3  UNL     1      17.370  32.829  11.845  1.00  0.00    -0.268 OA
HETATM   30  N6  UNL     1      16.524  30.739  11.614  1.00  0.00    -0.333 N 
HETATM   31  C12 UNL     1      16.595  29.479  11.106  1.00  0.00     0.104 A 
ATOM     32  H6  UNL     1      15.733  30.986  12.209  1.00  0.00     0.168 HD
ENDBRANCH  23  25
ENDBRANCH  20  22
ENDBRANCH  13  20
ENDBRANCH   9  11
ENDBRANCH   6   9
ENDBRANCH   4   6
ENDBRANCH   3   4
TORSDOF 8
ENDMDL
MODEL 2
REMARK VINA RESULT: -9.062772045      1.025      1.219
REMARK  8 active torsions:
REMARK  status: ('A' for Active; 'I' for Inactive)
REMARK    1  A    between atoms: C3_3  and  C4_4 
REMARK    2  A    between atoms: C4_4  and  C5_6 
REMARK    3  A    between atoms: C5_6  and  O2_7 
REMARK    4  A    between atoms: C5_6  and  N1_9 
REMARK    5  A    between atoms: N1_9  and  N2_11 
REMARK    6  A    between atoms: C6_14  and  N4_15 
REMARK    7  A    between atoms: N4_15  and  N5_17 
REMARK    8  A    between atoms: C7_19  and  C8_20 
ROOT
HETATM    1  C1  UNL     1      15.064  20.194  18.998  1.00  0.00     0.112 C 
HETATM    2  C2  UNL     1      15.017  21.101  17.860  1.00  0.00    -0.103 C 
HETATM    3  C3  UNL     1      14.977  21.839  16.884  1.00  0.00    -0.025 C 
ENDROOT
BRANCH   3   4
HETATM    4  C4  UNL     1      14.928  22.685  15.708  1.00  0.00     0.251 C 
HETATM    5  O1  UNL     1      15.660  23.724  15.631  1.00  0.00    -0.278 OA
BRANCH   4   6
HETATM    6  C5  UNL     1      14.010  22.300  14.609  1.00  0.00     0.319 C 
BRANCH   6   7
HETATM    7  O2  UNL     1      14.762  21.383  13.813  1.00  0.00    -0.368 OA
ATOM      8  H2  UNL     1      14.380  20.533  13.998  1.00  0.00     0.212 HD
ENDBRANCH   6   7
BRANCH   6   9
HETATM    9  N1  UNL     1      13.788  23.426  13.745  1.00  0.00    -0.275 N 
ATOM     10  H1  UNL     1      13.086  24.114  14.020  1.00  0.00     0.185 HD
BRANCH   9  11
HETATM   11  N2  UNL     1      14.481  23.634  12.544  1.00  0.00    -0.156 N 
HETATM   12  N3  UNL     1      15.549  24.405  12.360  1.00  0.00    -0.259 N 
HETATM   13  C6  UNL     1      15.973  24.388  11.091  1.00  0.00     0.163 A 
ATOM     14  H3  UNL     1      15.993  24.948  13.100  1.00  0.00     0.191 HD
HETATM   15  C13 UNL     1      15.074  23.523  10.436  1.00  0.00     0.162 A 
HETATM   16  C14 UNL     1      15.125  23.188   9.036  1.00  0.00     0.109 C 
HETATM   17  C15 UNL     1      14.165  23.077  11.370  1.00  0.00     0.306 A 
HETATM   18  N7  UNL     1      15.158  22.909   7.911  1.00  0.00    -0.191 NA
HETATM   19  O4  UNL     1      13.203  22.275  11.126  1.00  0.00    -0.263 OA
BRANCH  13  20
HETATM   20  N4  UNL     1      17.083  25.012  10.459  1.00  0.00    -0.283 N 
ATOM     21  H4  UNL     1      17.728  24.453   9.900  1.00  0.00     0.188 HD
BRANCH  20  22
HETATM   22  N5  UNL     1      17.292  26.365  10.597  1.00  0.00    -0.309 N 
HETATM   23  C7  UNL     1      17.369  27.262   9.705  1.00  0.00     0.119 C 
ATOM     24  H5  UNL     1      17.402  26.694  11.556  1.00  0.00     0.186 HD
BRANCH  23  25
HETATM   25  C8  UNL     1      17.595  28.643  10.092  1.00  0.00    -0.004 A 
HETATM   26  C9  UNL     1      18.783  29.313   9.772  1.00  0.00     0.020 A 
HETATM   27  C10 UNL     1      18.990  30.626  10.135  1.00  0.00     0.075 A 
HETATM   28  C11 UNL     1      18.031  31.323  10.825  1.00  0.00     0.245 A 
HETATM   29  O3  UNL     1      18.207  32.524  11.160  1.00  0.00    -0.268 OA
HETATM   30  N6  UNL     1      16.887  30.681  11.132  1.00  0.00    -0.333 N 
HETATM   31  C12 UNL     1      16.665  29.385  10.784  1.00  0.00     0.104 A 
ATOM     32  H6  UNL     1      16.162  31.184  11.644  1.00  0.00     0.168 HD
ENDBRANCH  23  25
ENDBRANCH  20  22
ENDBRANCH  13  20
ENDBRANCH   9  11
ENDBRANCH   6   9
ENDBRANCH   4   6
ENDBRANCH   3   4
TORSDOF 8
ENDMDL
MODEL 3
REMARK VINA RESULT: -8.651559200      0.837      1.408
REMARK  8 active torsions:
REMARK  status: ('A' for Active; 'I' for Inactive)
REMARK    1  A    between atoms: C3_3  and  C4_4 
REMARK    2  A    between atoms: C4_4  and  C5_6 
REMARK    3  A    between atoms: C5_6  and  O2_7 
REMARK    4  A    between atoms: C5_6  and  N1_9 
REMARK    5  A    between atoms: N1_9  and  N2_11 
REMARK    6  A    between atoms: C6_14  and  N4_15 
REMARK    7  A    between atoms: N4_15  and  N5_17 
REMARK    8  A    between atoms: C7_19  and  C8_20 
ROOT
HETATM    1  C1  UNL     1      14.811  20.657  18.665  1.00  0.00     0.112 C 
HETATM    2  C2  UNL     1      15.174  21.262  17.391  1.00  0.00    -0.103 C 
HETATM    3  C3  UNL     1      15.451  21.783  16.317  1.00  0.00    -0.025 C 
ENDROOT
BRANCH   3   4
HETATM    4  C4  UNL     1      15.747  22.412  15.046  1.00  0.00     0.251 C 
HETATM    5  O1  UNL     1      16.952  22.540  14.656  1.00  0.00    -0.278 OA
BRANCH   4   6
HETATM    6  C5  UNL     1      14.610  22.893  14.224  1.00  0.00     0.319 C 
BRANCH   6   7
HETATM    7  O2  UNL     1      13.481  22.161  14.705  1.00  0.00    -0.368 OA
ATOM      8  H2  UNL     1      13.189  21.651  13.959  1.00  0.00     0.212 HD
ENDBRANCH   6   7
BRANCH   6   9
HETATM    9  N1  UNL     1      14.771  22.451  12.867  1.00  0.00    -0.275 N 
ATOM     10  H1  UNL     1      14.541  21.483  12.645  1.00  0.00     0.185 HD
BRANCH   9  11
HETATM   11  N2  UNL     1      15.227  23.276  11.829  1.00  0.00    -0.156 N 
HETATM   12  N3  UNL     1      16.328  24.021  11.823  1.00  0.00    -0.259 N 
HETATM   13  C6  UNL     1      16.479  24.695  10.677  1.00  0.00     0.163 A 
ATOM     14  H3  UNL     1      16.983  24.074  12.604  1.00  0.00     0.191 HD
HETATM   15  C13 UNL     1      15.357  24.327   9.908  1.00  0.00     0.162 A 
HETATM   16  C14 UNL     1      15.077  24.806   8.580  1.00  0.00     0.109 C 
HETATM   17  C15 UNL     1      14.606  23.447  10.656  1.00  0.00     0.306 A 
HETATM   18  N7  UNL     1      14.842  25.183   7.507  1.00  0.00    -0.191 NA
HETATM   19  O4  UNL     1      13.515  22.909  10.270  1.00  0.00    -0.263 OA
BRANCH  13  20
HETATM   20  N4  UNL     1      17.510  25.559  10.220  1.00  0.00    -0.283 N 
ATOM     21  H4  UNL     1      18.293  25.178   9.688  1.00  0.00     0.188 HD
BRANCH  20  22
HETATM   22  N5  UNL     1      17.460  26.908  10.490  1.00  0.00    -0.309 N 
HETATM   23  C7  UNL     1      17.875  27.883   9.797  1.00  0.00     0.119 C 
ATOM     24  H5  UNL     1      17.024  27.159  11.377  1.00  0.00     0.186 HD
BRANCH  23  25
HETATM   25  C8  UNL     1      17.709  29.239  10.290  1.00  0.00    -0.004 A 
HETATM   26  C9  UNL     1      16.574  29.626  11.014  1.00  0.00     0.020 A 
HETATM   27  C10 UNL     1      16.424  30.912  11.486  1.00  0.00     0.075 A 
HETATM   28  C11 UNL     1      17.390  31.859  11.261  1.00  0.00     0.245 A 
HETATM   29  O3  UNL     1      17.267  33.036  11.688  1.00  0.00    -0.268 OA
HETATM   30  N6  UNL     1      18.484  31.488  10.565  1.00  0.00    -0.333 N 
HETATM   31  C12 UNL     1      18.648  30.224  10.091  1.00  0.00     0.104 A 
ATOM     32  H6  UNL     1      19.213  32.179  10.389  1.00  0.00     0.168 HD
ENDBRANCH  23  25
ENDBRANCH  20  22
ENDBRANCH  13  20
ENDBRANCH   9  11
ENDBRANCH   6   9
ENDBRANCH   4   6
ENDBRANCH   3   4
TORSDOF 8
ENDMDL
MODEL 4
REMARK VINA RESULT: -8.310854364      2.386      8.662
REMARK  8 active torsions:
REMARK  status: ('A' for Active; 'I' for Inactive)
REMARK    1  A    between atoms: C3_3  and  C4_4 
REMARK    2  A    between atoms: C4_4  and  C5_6 
REMARK    3  A    between atoms: C5_6  and  O2_7 
REMARK    4  A    between atoms: C5_6  and  N1_9 
REMARK    5  A    between atoms: N1_9  and  N2_11 
REMARK    6  A    between atoms: C6_14  and  N4_15 
REMARK    7  A    between atoms: N4_15  and  N5_17 
REMARK    8  A    between atoms: C7_19  and  C8_20 
ROOT
HETATM    1  C1  UNL     1      17.706  33.036  11.866  1.00  0.00     0.112 C 
HETATM    2  C2  UNL     1      17.850  31.771  11.160  1.00  0.00    -0.103 C 
HETATM    3  C3  UNL     1      17.969  30.692  10.593  1.00  0.00    -0.025 C 
ENDROOT
BRANCH   3   4
HETATM    4  C4  UNL     1      18.103  29.398   9.953  1.00  0.00     0.251 C 
HETATM    5  O1  UNL     1      19.174  29.093   9.338  1.00  0.00    -0.278 OA
BRANCH   4   6
HETATM    6  C5  UNL     1      16.963  28.455  10.041  1.00  0.00     0.319 C 
BRANCH   6   7
HETATM    7  O2  UNL     1      16.207  28.904  11.168  1.00  0.00    -0.368 OA
ATOM      8  H2  UNL     1      15.919  28.107  11.598  1.00  0.00     0.212 HD
ENDBRANCH   6   7
BRANCH   6   9
HETATM    9  N1  UNL     1      17.438  27.154  10.424  1.00  0.00    -0.275 N 
ATOM     10  H1  UNL     1      18.401  27.070  10.750  1.00  0.00     0.185 HD
BRANCH   9  11
HETATM   11  N2  UNL     1      16.654  25.993  10.375  1.00  0.00    -0.156 N 
HETATM   12  N3  UNL     1      15.865  25.519  11.334  1.00  0.00    -0.259 N 
HETATM   13  C6  UNL     1      15.251  24.387  10.972  1.00  0.00     0.163 A 
ATOM     14  H3  UNL     1      15.743  25.967  12.243  1.00  0.00     0.191 HD
HETATM   15  C13 UNL     1      15.712  24.145   9.663  1.00  0.00     0.162 A 
HETATM   16  C14 UNL     1      15.325  23.022   8.848  1.00  0.00     0.109 C 
HETATM   17  C15 UNL     1      16.579  25.162   9.329  1.00  0.00     0.306 A 
HETATM   18  N7  UNL     1      15.019  22.124   8.181  1.00  0.00    -0.191 NA
HETATM   19  O4  UNL     1      17.188  25.264   8.212  1.00  0.00    -0.263 OA
BRANCH  13  20
HETATM   20  N4  UNL     1      14.302  23.572  11.647  1.00  0.00    -0.283 N 
ATOM     21  H4  UNL     1      13.348  23.503  11.291  1.00  0.00     0.188 HD
BRANCH  20  22
HETATM   22  N5  UNL     1      14.662  22.874  12.777  1.00  0.00    -0.309 N 
HETATM   23  C7  UNL     1      14.176  22.930  13.946  1.00  0.00     0.119 C 
ATOM     24  H5  UNL     1      15.431  22.215  12.657  1.00  0.00     0.186 HD
BRANCH  23  25
HETATM   25  C8  UNL     1      14.722  22.087  14.994  1.00  0.00    -0.004 A 
HETATM   26  C9  UNL     1      14.454  22.325  16.348  1.00  0.00     0.020 A 
HETATM   27  C10 UNL     1      14.969  21.517  17.338  1.00  0.00     0.075 A 
HETATM   28  C11 UNL     1      15.765  20.445  17.025  1.00  0.00     0.245 A 
HETATM   29  O3  UNL     1      16.240  19.698  17.920  1.00  0.00    -0.268 OA
HETATM   30  N6  UNL     1      16.023  20.212  15.722  1.00  0.00    -0.333 N 
HETATM   31  C12 UNL     1      15.525  20.999  14.732  1.00  0.00     0.104 A 
ATOM     32  H6  UNL     1      16.612  19.418  15.471  1.00  0.00     0.168 HD
ENDBRANCH  23  25
ENDBRANCH  20  22
ENDBRANCH  13  20
ENDBRANCH   9  11
ENDBRANCH   6   9
ENDBRANCH   4   6
ENDBRANCH   3   4
TORSDOF 8
ENDMDL
MODEL 5
REMARK VINA RESULT: -7.990199715      1.413      1.581
REMARK  8 active torsions:
REMARK  status: ('A' for Active; 'I' for Inactive)
REMARK    1  A    between atoms: C3_3  and  C4_4 
REMARK    2  A    between atoms: C4_4  and  C5_6 
REMARK    3  A    between atoms: C5_6  and  O2_7 
REMARK    4  A    between atoms: C5_6  and  N1_9 
REMARK    5  A    between atoms: N1_9  and  N2_11 
REMARK    6  A    between atoms: C6_14  and  N4_15 
REMARK    7  A    between atoms: N4_15  and  N5_17 
REMARK    8  A    between atoms: C7_19  and  C8_20 
ROOT
HETATM    1  C1  UNL     1      17.203  18.361  16.100  1.00  0.00     0.112 C 
HETATM    2  C2  UNL     1      16.540  19.656  16.037  1.00  0.00    -0.103 C 
HETATM    3  C3  UNL     1      15.958  20.732  15.969  1.00  0.00    -0.025 C 
ENDROOT
BRANCH   3   4
HETATM    4  C4  UNL     1      15.244  21.989  15.874  1.00  0.00     0.251 C 
HETATM    5  O1  UNL     1      14.183  22.179  16.551  1.00  0.00    -0.278 OA
BRANCH   4   6
HETATM    6  C5  UNL     1      15.789  23.035  14.975  1.00  0.00     0.319 C 
BRANCH   6   7
HETATM    7  O2  UNL     1      15.812  24.221  15.770  1.00  0.00    -0.368 OA
ATOM      8  H2  UNL     1      14.967  24.629  15.620  1.00  0.00     0.212 HD
ENDBRANCH   6   7
BRANCH   6   9
HETATM    9  N1  UNL     1      14.841  23.321  13.934  1.00  0.00    -0.275 N 
ATOM     10  H1  UNL     1      13.847  23.255  14.156  1.00  0.00     0.185 HD
BRANCH   9  11
HETATM   11  N2  UNL     1      15.203  23.684  12.629  1.00  0.00    -0.156 N 
HETATM   12  N3  UNL     1      16.254  24.413  12.264  1.00  0.00    -0.259 N 
HETATM   13  C6  UNL     1      16.318  24.582  10.939  1.00  0.00     0.163 A 
ATOM     14  H3  UNL     1      16.933  24.800  12.920  1.00  0.00     0.191 HD
HETATM   15  C13 UNL     1      15.194  23.890  10.446  1.00  0.00     0.162 A 
HETATM   16  C14 UNL     1      14.834  23.789   9.055  1.00  0.00     0.109 C 
HETATM   17  C15 UNL     1      14.529  23.348  11.524  1.00  0.00     0.306 A 
HETATM   18  N7  UNL     1      14.535  23.698   7.938  1.00  0.00    -0.191 NA
HETATM   19  O4  UNL     1      13.461  22.653  11.448  1.00  0.00    -0.263 OA
BRANCH  13  20
HETATM   20  N4  UNL     1      17.274  25.238  10.117  1.00  0.00    -0.283 N 
ATOM     21  H4  UNL     1      17.801  24.703   9.425  1.00  0.00     0.188 HD
BRANCH  20  22
HETATM   22  N5  UNL     1      17.495  26.590  10.248  1.00  0.00    -0.309 N 
HETATM   23  C7  UNL     1      17.204  27.532   9.453  1.00  0.00     0.119 C 
ATOM     24  H5  UNL     1      17.959  26.875  11.110  1.00  0.00     0.186 HD
BRANCH  23  25
HETATM   25  C8  UNL     1      17.536  28.901   9.808  1.00  0.00    -0.004 A 
HETATM   26  C9  UNL     1      16.547  29.840  10.127  1.00  0.00     0.020 A 
HETATM   27  C10 UNL     1      16.867  31.136  10.471  1.00  0.00     0.075 A 
HETATM   28  C11 UNL     1      18.175  31.547  10.514  1.00  0.00     0.245 A 
HETATM   29  O3  UNL     1      18.481  32.727  10.828  1.00  0.00    -0.268 OA
HETATM   30  N6  UNL     1      19.129  30.644  10.209  1.00  0.00    -0.333 N 
HETATM   31  C12 UNL     1      18.831  29.362   9.866  1.00  0.00     0.104 A 
ATOM     32  H6  UNL     1      20.107  30.933  10.237  1.00  0.00     0.168 HD
ENDBRANCH  23  25
ENDBRANCH  20  22
ENDBRANCH  13  20
ENDBRANCH   9  11
ENDBRANCH   6   9
ENDBRANCH   4   6
ENDBRANCH   3   4
TORSDOF 8
ENDMDL
