MODEL 1
REMARK VINA RESULT: -5.015270084      0.000      0.000
REMARK  1 active torsions:
REMARK  status: ('A' for Active; 'I' for Inactive)
REMARK    1  A    between atoms: N1_2  and  C3_4 
ROOT
HETATM    1  C3  UNL     1      -0.890   3.035  82.794  1.00  0.00     0.200 C 
HETATM    2  C4  UNL     1      -0.947   1.557  82.540  1.00  0.00     0.067 C 
HETATM    3  C5  UNL     1      -1.163   1.928  81.075  1.00  0.00    -0.000 C 
HETATM    4  C6  UNL     1       0.147   2.327  80.436  1.00  0.00     0.038 C 
HETATM    5  C7  UNL     1       0.331   3.713  80.998  1.00  0.00     0.189 C 
HETATM    6  C8  UNL     1      -1.082   4.267  80.827  1.00  0.00     0.042 C 
HETATM    7  C9  UNL     1      -1.781   3.206  81.614  1.00  0.00     0.048 C 
HETATM    8  N2  UNL     1       0.410   3.596  82.427  1.00  0.00    -0.044 N 
ATOM      9  H21 UNL     1       1.211   3.062  82.764  1.00  0.00     0.280 HD
ATOM     10  H22 UNL     1       0.648   4.462  82.910  1.00  0.00     0.280 HD
ENDROOT
BRANCH   1  11
HETATM   11  N1  UNL     1      -1.312   3.528  84.045  1.00  0.00    -0.390 N 
HETATM   12  C1  UNL     1      -1.311   2.637  85.145  1.00  0.00     0.145 C 
HETATM   13  C2  UNL     1      -0.953   4.876  84.309  1.00  0.00     0.145 C 
ENDBRANCH   1  11
TORSDOF 1
ENDMDL
MODEL 2
REMARK VINA RESULT: -4.690976266      2.670      4.327
REMARK  1 active torsions:
REMARK  status: ('A' for Active; 'I' for Inactive)
REMARK    1  A    between atoms: N1_2  and  C3_4 
ROOT
HETATM    1  C3  UNL     1      -0.691   5.490  84.369  1.00  0.00     0.200 C 
HETATM    2  C4  UNL     1      -1.846   6.353  84.785  1.00  0.00     0.067 C 
HETATM    3  C5  UNL     1      -2.636   5.051  84.896  1.00  0.00    -0.000 C 
HETATM    4  C6  UNL     1      -2.281   4.328  86.174  1.00  0.00     0.038 C 
HETATM    5  C7  UNL     1      -0.937   3.749  85.812  1.00  0.00     0.189 C 
HETATM    6  C8  UNL     1      -1.234   3.225  84.409  1.00  0.00     0.042 C 
HETATM    7  C9  UNL     1      -1.690   4.526  83.831  1.00  0.00     0.048 C 
HETATM    8  N2  UNL     1      -0.057   4.844  85.517  1.00  0.00    -0.044 N 
ATOM      9  H21 UNL     1       0.123   5.466  86.305  1.00  0.00     0.280 HD
ATOM     10  H22 UNL     1       0.916   4.576  85.368  1.00  0.00     0.280 HD
ENDROOT
BRANCH   1  11
HETATM   11  N1  UNL     1       0.279   6.024  83.497  1.00  0.00    -0.390 N 
HETATM   12  C1  UNL     1      -0.153   6.506  82.238  1.00  0.00     0.145 C 
HETATM   13  C2  UNL     1       1.328   6.738  84.134  1.00  0.00     0.145 C 
ENDBRANCH   1  11
TORSDOF 1
ENDMDL
MODEL 3
REMARK VINA RESULT: -4.673085388      0.999      2.065
REMARK  1 active torsions:
REMARK  status: ('A' for Active; 'I' for Inactive)
REMARK    1  A    between atoms: N1_2  and  C3_4 
ROOT
HETATM    1  C3  UNL     1      -0.944   3.095  82.633  1.00  0.00     0.200 C 
HETATM    2  C4  UNL     1      -1.990   3.710  81.750  1.00  0.00     0.067 C 
HETATM    3  C5  UNL     1      -1.069   3.344  80.589  1.00  0.00    -0.000 C 
HETATM    4  C6  UNL     1      -1.184   1.872  80.270  1.00  0.00     0.038 C 
HETATM    5  C7  UNL     1      -0.383   1.270  81.396  1.00  0.00     0.189 C 
HETATM    6  C8  UNL     1       0.824   2.207  81.403  1.00  0.00     0.042 C 
HETATM    7  C9  UNL     1       0.058   3.475  81.599  1.00  0.00     0.048 C 
HETATM    8  N2  UNL     1      -1.022   1.635  82.629  1.00  0.00    -0.044 N 
ATOM      9  H21 UNL     1      -1.964   1.262  82.742  1.00  0.00     0.280 HD
ATOM     10  H22 UNL     1      -0.630   1.188  83.457  1.00  0.00     0.280 HD
ENDROOT
BRANCH   1  11
HETATM   11  N1  UNL     1      -0.787   3.583  83.946  1.00  0.00    -0.390 N 
HETATM   12  C1  UNL     1      -0.935   4.975  84.158  1.00  0.00     0.145 C 
HETATM   13  C2  UNL     1      -1.269   2.722  84.967  1.00  0.00     0.145 C 
ENDBRANCH   1  11
TORSDOF 1
ENDMDL
MODEL 4
REMARK VINA RESULT: -4.657667393      1.505      3.832
REMARK  1 active torsions:
REMARK  status: ('A' for Active; 'I' for Inactive)
REMARK    1  A    between atoms: N1_2  and  C3_4 
ROOT
HETATM    1  C3  UNL     1      -1.052   4.096  83.204  1.00  0.00     0.200 C 
HETATM    2  C4  UNL     1      -0.076   5.126  82.714  1.00  0.00     0.067 C 
HETATM    3  C5  UNL     1      -0.689   6.048  83.765  1.00  0.00    -0.000 C 
HETATM    4  C6  UNL     1      -0.156   5.708  85.137  1.00  0.00     0.038 C 
HETATM    5  C7  UNL     1      -0.937   4.456  85.447  1.00  0.00     0.189 C 
HETATM    6  C8  UNL     1      -2.329   4.883  84.986  1.00  0.00     0.042 C 
HETATM    7  C9  UNL     1      -1.950   5.222  83.580  1.00  0.00     0.048 C 
HETATM    8  N2  UNL     1      -0.604   3.478  84.451  1.00  0.00    -0.044 N 
ATOM      9  H21 UNL     1       0.374   3.189  84.452  1.00  0.00     0.280 HD
ATOM     10  H22 UNL     1      -0.989   2.550  84.625  1.00  0.00     0.280 HD
ENDROOT
BRANCH   1  11
HETATM   11  N1  UNL     1      -1.523   3.120  82.303  1.00  0.00    -0.390 N 
HETATM   12  C1  UNL     1      -1.829   3.529  80.982  1.00  0.00     0.145 C 
HETATM   13  C2  UNL     1      -0.947   1.832  82.461  1.00  0.00     0.145 C 
ENDBRANCH   1  11
TORSDOF 1
ENDMDL
MODEL 5
REMARK VINA RESULT: -4.595051625      1.612      2.720
REMARK  1 active torsions:
REMARK  status: ('A' for Active; 'I' for Inactive)
REMARK    1  A    between atoms: N1_2  and  C3_4 
ROOT
HETATM    1  C3  UNL     1      -0.621   4.106  81.342  1.00  0.00     0.200 C 
HETATM    2  C4  UNL     1       0.678   4.014  80.595  1.00  0.00     0.067 C 
HETATM    3  C5  UNL     1       0.768   2.594  81.149  1.00  0.00    -0.000 C 
HETATM    4  C6  UNL     1      -0.134   1.667  80.369  1.00  0.00     0.038 C 
HETATM    5  C7  UNL     1      -1.484   2.043  80.925  1.00  0.00     0.189 C 
HETATM    6  C8  UNL     1      -1.155   2.109  82.415  1.00  0.00     0.042 C 
HETATM    7  C9  UNL     1      -0.060   3.121  82.307  1.00  0.00     0.048 C 
HETATM    8  N2  UNL     1      -1.704   3.430  80.629  1.00  0.00    -0.044 N 
ATOM      9  H21 UNL     1      -1.755   3.647  79.634  1.00  0.00     0.280 HD
ATOM     10  H22 UNL     1      -2.638   3.768  80.861  1.00  0.00     0.280 HD
ENDROOT
BRANCH   1  11
HETATM   11  N1  UNL     1      -1.044   5.363  81.819  1.00  0.00    -0.390 N 
HETATM   12  C1  UNL     1      -0.714   5.713  83.151  1.00  0.00     0.145 C 
HETATM   13  C2  UNL     1      -1.026   6.407  80.857  1.00  0.00     0.145 C 
ENDBRANCH   1  11
TORSDOF 1
ENDMDL
