MODEL 1
REMARK VINA RESULT: -5.609514798      0.000      0.000
REMARK  1 active torsions:
REMARK  status: ('A' for Active; 'I' for Inactive)
REMARK    1  A    between atoms: N1_7  and  C7_8 
ROOT
HETATM    1  C1  UNL     1       1.016   1.666  81.276  1.00  0.00     0.114 C 
HETATM    2  C2  UNL     1       0.405   0.291  81.228  1.00  0.00     0.025 C 
HETATM    3  C3  UNL     1      -1.072   0.461  81.614  1.00  0.00     0.017 C 
HETATM    4  C4  UNL     1      -1.509   1.762  81.038  1.00  0.00     0.033 C 
HETATM    5  C5  UNL     1      -0.973   2.860  81.966  1.00  0.00     0.105 C 
HETATM    6  C6  UNL     1      -1.751   2.620  83.271  1.00  0.00     0.297 C 
HETATM    7  N1  UNL     1      -1.128   1.464  83.864  1.00  0.00     0.095 N 
HETATM    8  C10 UNL     1      -1.213   0.282  83.065  1.00  0.00     0.277 C 
HETATM    9  N2  UNL     1       0.401   2.539  82.232  1.00  0.00    -0.415 N 
ATOM     10  H2  UNL     1       0.902   2.906  83.041  1.00  0.00     0.153 HD
ENDROOT
BRANCH   7  11
HETATM   11  C7  UNL     1      -1.486   1.270  85.225  1.00  0.00     0.223 A 
HETATM   12  C8  UNL     1      -0.766   1.984  86.336  1.00  0.00     0.038 A 
HETATM   13  C9  UNL     1      -2.195   2.254  86.052  1.00  0.00     0.038 A 
ENDBRANCH   7  11
TORSDOF 1
ENDMDL
MODEL 2
REMARK VINA RESULT: -5.356499345      1.280      4.249
REMARK  1 active torsions:
REMARK  status: ('A' for Active; 'I' for Inactive)
REMARK    1  A    between atoms: N1_7  and  C7_8 
ROOT
HETATM    1  C1  UNL     1      -3.122   3.596  85.564  1.00  0.00     0.114 C 
HETATM    2  C2  UNL     1      -2.670   2.424  86.394  1.00  0.00     0.025 C 
HETATM    3  C3  UNL     1      -1.241   2.097  85.938  1.00  0.00     0.017 C 
HETATM    4  C4  UNL     1      -0.592   3.398  85.624  1.00  0.00     0.033 C 
HETATM    5  C5  UNL     1      -1.107   3.828  84.243  1.00  0.00     0.105 C 
HETATM    6  C6  UNL     1      -0.524   2.756  83.308  1.00  0.00     0.297 C 
HETATM    7  N1  UNL     1      -1.342   1.590  83.528  1.00  0.00     0.095 N 
HETATM    8  C10 UNL     1      -1.297   1.092  84.867  1.00  0.00     0.277 C 
HETATM    9  N2  UNL     1      -2.530   3.642  84.259  1.00  0.00    -0.415 N 
ATOM     10  H2  UNL     1      -3.080   3.550  83.404  1.00  0.00     0.153 HD
ENDROOT
BRANCH   7  11
HETATM   11  C7  UNL     1      -1.174   0.591  82.532  1.00  0.00     0.223 A 
HETATM   12  C8  UNL     1      -1.780   0.737  81.163  1.00  0.00     0.038 A 
HETATM   13  C9  UNL     1      -0.310   0.721  81.354  1.00  0.00     0.038 A 
ENDBRANCH   7  11
TORSDOF 1
ENDMDL
MODEL 3
REMARK VINA RESULT: -5.034448990      1.843      3.437
REMARK  1 active torsions:
REMARK  status: ('A' for Active; 'I' for Inactive)
REMARK    1  A    between atoms: N1_7  and  C7_8 
ROOT
HETATM    1  C1  UNL     1      -1.051   1.732  83.085  1.00  0.00     0.114 C 
HETATM    2  C2  UNL     1      -1.857   2.953  82.733  1.00  0.00     0.025 C 
HETATM    3  C3  UNL     1      -1.755   3.900  83.938  1.00  0.00     0.017 C 
HETATM    4  C4  UNL     1      -0.377   3.743  84.479  1.00  0.00     0.033 C 
HETATM    5  C5  UNL     1      -0.368   2.443  85.295  1.00  0.00     0.105 C 
HETATM    6  C6  UNL     1      -1.316   2.761  86.463  1.00  0.00     0.297 C 
HETATM    7  N1  UNL     1      -2.638   2.690  85.895  1.00  0.00     0.095 N 
HETATM    8  C10 UNL     1      -2.875   3.638  84.852  1.00  0.00     0.277 C 
HETATM    9  N2  UNL     1      -1.015   1.447  84.489  1.00  0.00    -0.415 N 
ATOM     10  H2  UNL     1      -1.419   0.598  84.887  1.00  0.00     0.153 HD
ENDROOT
BRANCH   7  11
HETATM   11  C7  UNL     1      -3.666   2.636  86.874  1.00  0.00     0.223 A 
HETATM   12  C8  UNL     1      -4.287   1.330  87.290  1.00  0.00     0.038 A 
HETATM   13  C9  UNL     1      -3.493   2.140  88.244  1.00  0.00     0.038 A 
ENDBRANCH   7  11
TORSDOF 1
ENDMDL
MODEL 4
REMARK VINA RESULT: -4.970386289      1.602      4.057
REMARK  1 active torsions:
REMARK  status: ('A' for Active; 'I' for Inactive)
REMARK    1  A    between atoms: N1_7  and  C7_8 
ROOT
HETATM    1  C1  UNL     1      -0.232   4.648  85.034  1.00  0.00     0.114 C 
HETATM    2  C2  UNL     1      -1.497   5.063  84.331  1.00  0.00     0.025 C 
HETATM    3  C3  UNL     1      -2.456   3.867  84.426  1.00  0.00     0.017 C 
HETATM    4  C4  UNL     1      -2.220   3.245  85.757  1.00  0.00     0.033 C 
HETATM    5  C5  UNL     1      -0.937   2.412  85.634  1.00  0.00     0.105 C 
HETATM    6  C6  UNL     1      -1.335   1.306  84.644  1.00  0.00     0.297 C 
HETATM    7  N1  UNL     1      -1.340   1.949  83.355  1.00  0.00     0.095 N 
HETATM    8  C10 UNL     1      -2.284   3.017  83.241  1.00  0.00     0.277 C 
HETATM    9  N2  UNL     1       0.030   3.241  84.971  1.00  0.00    -0.415 N 
ATOM     10  H2  UNL     1       0.843   2.856  84.490  1.00  0.00     0.153 HD
ENDROOT
BRANCH   7  11
HETATM   11  C7  UNL     1      -1.369   1.031  82.271  1.00  0.00     0.223 A 
HETATM   12  C8  UNL     1      -0.106   0.569  81.598  1.00  0.00     0.038 A 
HETATM   13  C9  UNL     1      -0.962  -0.376  82.354  1.00  0.00     0.038 A 
ENDBRANCH   7  11
TORSDOF 1
ENDMDL
MODEL 5
REMARK VINA RESULT: -4.867780109      1.780      4.121
REMARK  1 active torsions:
REMARK  status: ('A' for Active; 'I' for Inactive)
REMARK    1  A    between atoms: N1_7  and  C7_8 
ROOT
HETATM    1  C1  UNL     1      -2.379   4.908  84.208  1.00  0.00     0.114 C 
HETATM    2  C2  UNL     1      -2.466   3.922  85.342  1.00  0.00     0.025 C 
HETATM    3  C3  UNL     1      -1.156   3.122  85.319  1.00  0.00     0.017 C 
HETATM    4  C4  UNL     1      -0.088   4.076  84.916  1.00  0.00     0.033 C 
HETATM    5  C5  UNL     1      -0.198   4.246  83.394  1.00  0.00     0.105 C 
HETATM    6  C6  UNL     1       0.170   2.851  82.863  1.00  0.00     0.297 C 
HETATM    7  N1  UNL     1      -0.996   2.042  83.110  1.00  0.00     0.095 N 
HETATM    8  C10 UNL     1      -1.339   1.922  84.493  1.00  0.00     0.277 C 
HETATM    9  N2  UNL     1      -1.589   4.451  83.103  1.00  0.00    -0.415 N 
ATOM     10  H2  UNL     1      -1.985   4.284  82.177  1.00  0.00     0.153 HD
ENDROOT
BRANCH   7  11
HETATM   11  C7  UNL     1      -0.982   0.807  82.407  1.00  0.00     0.223 A 
HETATM   12  C8  UNL     1      -1.725   0.633  81.111  1.00  0.00     0.038 A 
HETATM   13  C9  UNL     1      -0.245   0.562  81.162  1.00  0.00     0.038 A 
ENDBRANCH   7  11
TORSDOF 1
ENDMDL
