MODEL 1
REMARK VINA RESULT: -4.714615175      0.000      0.000
REMARK  0 active torsions:
REMARK  status: ('A' for Active; 'I' for Inactive)
ROOT
HETATM    1  C1  UNL     1      -1.034   0.972  83.717  1.00  0.00     0.066 C 
HETATM    2  N1  UNL     1      -1.200  -0.015  82.746  1.00  0.00    -0.382 N 
ATOM      3  H1  UNL     1      -1.977  -0.670  82.834  1.00  0.00     0.164 HD
HETATM    4  C2  UNL     1      -0.341  -0.135  81.667  1.00  0.00     0.065 C 
HETATM    5  C3  UNL     1       0.045   1.127  80.919  1.00  0.00     0.031 C 
HETATM    6  C4  UNL     1       1.365   1.590  81.437  1.00  0.00     0.040 C 
HETATM    7  C5  UNL     1       1.527   3.041  81.678  1.00  0.00     0.273 C 
HETATM    8  N2  UNL     1       0.274   3.707  81.969  1.00  0.00     0.089 N 
HETATM    9  C6  UNL     1      -0.270   3.278  83.185  1.00  0.00     0.282 C 
HETATM   10  C7  UNL     1      -1.413   2.351  83.178  1.00  0.00     0.053 C 
HETATM   11  C8  UNL     1      -2.078   2.133  81.851  1.00  0.00     0.018 C 
HETATM   12  C9  UNL     1      -1.025   2.126  80.786  1.00  0.00     0.023 C 
HETATM   13  C10 UNL     1      -0.515   3.575  80.795  1.00  0.00     0.277 C 
ENDROOT
TORSDOF 0
ENDMDL
MODEL 2
REMARK VINA RESULT: -4.550785436      2.414      4.102
REMARK  0 active torsions:
REMARK  status: ('A' for Active; 'I' for Inactive)
ROOT
HETATM    1  C1  UNL     1      -0.985   2.797  82.402  1.00  0.00     0.066 C 
HETATM    2  N1  UNL     1      -0.574   2.011  83.479  1.00  0.00    -0.382 N 
ATOM      3  H1  UNL     1       0.129   1.289  83.324  1.00  0.00     0.164 HD
HETATM    4  C2  UNL     1      -1.090   2.182  84.752  1.00  0.00     0.065 C 
HETATM    5  C3  UNL     1      -1.212   3.596  85.288  1.00  0.00     0.031 C 
HETATM    6  C4  UNL     1      -2.613   4.059  85.066  1.00  0.00     0.040 C 
HETATM    7  C5  UNL     1      -2.800   5.441  84.574  1.00  0.00     0.273 C 
HETATM    8  N2  UNL     1      -1.667   5.926  83.813  1.00  0.00     0.089 N 
HETATM    9  C6  UNL     1      -1.505   5.219  82.616  1.00  0.00     0.282 C 
HETATM   10  C7  UNL     1      -0.432   4.218  82.508  1.00  0.00     0.053 C 
HETATM   11  C8  UNL     1       0.579   4.212  83.615  1.00  0.00     0.018 C 
HETATM   12  C9  UNL     1      -0.124   4.507  84.904  1.00  0.00     0.023 C 
HETATM   13  C10 UNL     1      -0.577   5.963  84.725  1.00  0.00     0.277 C 
ENDROOT
TORSDOF 0
ENDMDL
MODEL 3
REMARK VINA RESULT: -4.541915423      0.948      3.312
REMARK  0 active torsions:
REMARK  status: ('A' for Active; 'I' for Inactive)
ROOT
HETATM    1  C1  UNL     1       1.101   3.395  82.425  1.00  0.00     0.066 C 
HETATM    2  N1  UNL     1       0.122   4.273  82.889  1.00  0.00    -0.382 N 
ATOM      3  H1  UNL     1       0.224   5.271  82.704  1.00  0.00     0.164 HD
HETATM    4  C2  UNL     1      -0.984   3.832  83.595  1.00  0.00     0.065 C 
HETATM    5  C3  UNL     1      -1.726   2.617  83.071  1.00  0.00     0.031 C 
HETATM    6  C4  UNL     1      -1.242   1.419  83.818  1.00  0.00     0.040 C 
HETATM    7  C5  UNL     1      -0.986   0.191  83.034  1.00  0.00     0.273 C 
HETATM    8  N2  UNL     1      -0.647   0.464  81.653  1.00  0.00     0.089 N 
HETATM    9  C6  UNL     1       0.579   1.130  81.542  1.00  0.00     0.282 C 
HETATM   10  C7  UNL     1       0.593   2.571  81.243  1.00  0.00     0.053 C 
HETATM   11  C8  UNL     1      -0.716   3.171  80.823  1.00  0.00     0.018 C 
HETATM   12  C9  UNL     1      -1.812   2.520  81.607  1.00  0.00     0.023 C 
HETATM   13  C10 UNL     1      -1.799   1.075  81.087  1.00  0.00     0.277 C 
ENDROOT
TORSDOF 0
ENDMDL
MODEL 4
REMARK VINA RESULT: -4.456384825      2.916      4.833
REMARK  0 active torsions:
REMARK  status: ('A' for Active; 'I' for Inactive)
ROOT
HETATM    1  C1  UNL     1      -0.814   5.571  85.013  1.00  0.00     0.066 C 
HETATM    2  N1  UNL     1      -2.017   5.821  84.352  1.00  0.00    -0.382 N 
ATOM      3  H1  UNL     1      -2.048   6.553  83.642  1.00  0.00     0.164 HD
HETATM    4  C2  UNL     1      -3.169   5.105  84.628  1.00  0.00     0.065 C 
HETATM    5  C3  UNL     1      -3.061   3.597  84.745  1.00  0.00     0.031 C 
HETATM    6  C4  UNL     1      -2.949   3.249  86.191  1.00  0.00     0.040 C 
HETATM    7  C5  UNL     1      -1.961   2.213  86.564  1.00  0.00     0.273 C 
HETATM    8  N2  UNL     1      -0.855   2.127  85.632  1.00  0.00     0.089 N 
HETATM    9  C6  UNL     1      -0.070   3.286  85.651  1.00  0.00     0.282 C 
HETATM   10  C7  UNL     1      -0.189   4.256  84.551  1.00  0.00     0.053 C 
HETATM   11  C8  UNL     1      -0.964   3.802  83.350  1.00  0.00     0.018 C 
HETATM   12  C9  UNL     1      -2.114   2.964  83.815  1.00  0.00     0.023 C 
HETATM   13  C10 UNL     1      -1.425   1.720  84.395  1.00  0.00     0.277 C 
ENDROOT
TORSDOF 0
ENDMDL
MODEL 5
REMARK VINA RESULT: -4.410273217      2.613      4.293
REMARK  0 active torsions:
REMARK  status: ('A' for Active; 'I' for Inactive)
ROOT
HETATM    1  C1  UNL     1      -2.746   3.209  84.539  1.00  0.00     0.066 C 
HETATM    2  N1  UNL     1      -2.923   4.242  85.460  1.00  0.00    -0.382 N 
ATOM      3  H1  UNL     1      -3.269   4.019  86.393  1.00  0.00     0.164 HD
HETATM    4  C2  UNL     1      -2.643   5.560  85.146  1.00  0.00     0.065 C 
HETATM    5  C3  UNL     1      -1.343   5.861  84.423  1.00  0.00     0.031 C 
HETATM    6  C4  UNL     1      -1.636   5.969  82.964  1.00  0.00     0.040 C 
HETATM    7  C5  UNL     1      -0.686   5.323  82.033  1.00  0.00     0.273 C 
HETATM    8  N2  UNL     1       0.011   4.201  82.628  1.00  0.00     0.089 N 
HETATM    9  C6  UNL     1      -0.859   3.146  82.921  1.00  0.00     0.282 C 
HETATM   10  C7  UNL     1      -1.264   2.910  84.316  1.00  0.00     0.053 C 
HETATM   11  C8  UNL     1      -0.504   3.670  85.362  1.00  0.00     0.018 C 
HETATM   12  C9  UNL     1      -0.196   5.035  84.829  1.00  0.00     0.023 C 
HETATM   13  C10 UNL     1       0.787   4.747  83.686  1.00  0.00     0.277 C 
ENDROOT
TORSDOF 0
ENDMDL
