MODEL 1
REMARK VINA RESULT: -5.424442486      0.000      0.000
REMARK  2 active torsions:
REMARK  status: ('A' for Active; 'I' for Inactive)
REMARK    1  A    between atoms: O1_1  and  C1_3 
REMARK    2  A    between atoms: C1_3  and  C2_4 
ROOT
HETATM    1  C2  UNL     1      -1.890   2.392  85.221  1.00  0.00     0.011 C 
HETATM    2  C3  UNL     1      -1.397   3.772  85.401  1.00  0.00     0.008 C 
HETATM    3  C4  UNL     1      -0.205   4.143  84.576  1.00  0.00     0.031 C 
HETATM    4  C5  UNL     1      -0.476   4.235  83.110  1.00  0.00     0.273 C 
HETATM    5  N1  UNL     1      -0.398   2.978  82.424  1.00  0.00     0.049 N 
HETATM    6  C6  UNL     1      -0.291   3.064  81.002  1.00  0.00     0.302 C 
HETATM    7  C7  UNL     1       0.585   1.843  81.217  1.00  0.00     0.238 C 
HETATM    8  O2  UNL     1       0.798   2.370  82.502  1.00  0.00    -0.200 OA
HETATM    9  C8  UNL     1      -1.515   2.133  82.833  1.00  0.00     0.274 C 
HETATM   10  C9  UNL     1      -1.166   1.585  84.192  1.00  0.00     0.037 C 
ENDROOT
BRANCH   1  11
HETATM   11  C1  UNL     1      -1.863   1.583  86.525  1.00  0.00     0.168 C 
BRANCH  11  12
HETATM   12  O1  UNL     1      -0.659   0.913  86.674  1.00  0.00    -0.400 OA
ATOM     13  H1  UNL     1      -0.660   0.095  86.191  1.00  0.00     0.209 HD
ENDBRANCH  11  12
ENDBRANCH   1  11
TORSDOF 2
ENDMDL
MODEL 2
REMARK VINA RESULT: -5.380922751      2.169      2.717
REMARK  2 active torsions:
REMARK  status: ('A' for Active; 'I' for Inactive)
REMARK    1  A    between atoms: O1_1  and  C1_3 
REMARK    2  A    between atoms: C1_3  and  C2_4 
ROOT
HETATM    1  C2  UNL     1      -2.785   1.875  86.468  1.00  0.00     0.011 C 
HETATM    2  C3  UNL     1      -3.768   2.977  86.486  1.00  0.00     0.008 C 
HETATM    3  C4  UNL     1      -3.230   4.328  86.135  1.00  0.00     0.031 C 
HETATM    4  C5  UNL     1      -2.819   4.474  84.706  1.00  0.00     0.273 C 
HETATM    5  N1  UNL     1      -1.488   4.015  84.435  1.00  0.00     0.049 N 
HETATM    6  C6  UNL     1      -0.931   4.457  83.196  1.00  0.00     0.302 C 
HETATM    7  C7  UNL     1       0.339   4.474  84.028  1.00  0.00     0.238 C 
HETATM    8  O2  UNL     1      -0.524   4.650  85.123  1.00  0.00    -0.200 OA
HETATM    9  C8  UNL     1      -1.440   2.562  84.563  1.00  0.00     0.274 C 
HETATM   10  C9  UNL     1      -1.407   2.259  86.037  1.00  0.00     0.037 C 
ENDROOT
BRANCH   1  11
HETATM   11  C1  UNL     1      -2.652   1.182  87.831  1.00  0.00     0.168 C 
BRANCH  11  12
HETATM   12  O1  UNL     1      -2.840  -0.186  87.716  1.00  0.00    -0.400 OA
ATOM     13  H1  UNL     1      -3.537  -0.387  87.103  1.00  0.00     0.209 HD
ENDBRANCH  11  12
ENDBRANCH   1  11
TORSDOF 2
ENDMDL
MODEL 3
REMARK VINA RESULT: -5.297870073      2.958      3.935
REMARK  2 active torsions:
REMARK  status: ('A' for Active; 'I' for Inactive)
REMARK    1  A    between atoms: O1_1  and  C1_3 
REMARK    2  A    between atoms: C1_3  and  C2_4 
ROOT
HETATM    1  C2  UNL     1      -0.382  -0.214  81.011  1.00  0.00     0.011 C 
HETATM    2  C3  UNL     1      -1.680   0.485  81.097  1.00  0.00     0.008 C 
HETATM    3  C4  UNL     1      -1.652   1.816  81.777  1.00  0.00     0.031 C 
HETATM    4  C5  UNL     1      -0.922   2.879  81.023  1.00  0.00     0.273 C 
HETATM    5  N1  UNL     1       0.495   2.879  81.243  1.00  0.00     0.049 N 
HETATM    6  C6  UNL     1       1.174   4.071  80.842  1.00  0.00     0.302 C 
HETATM    7  C7  UNL     1       2.012   3.738  82.064  1.00  0.00     0.238 C 
HETATM    8  O2  UNL     1       0.863   3.070  82.522  1.00  0.00    -0.200 OA
HETATM    9  C8  UNL     1       1.082   1.690  80.635  1.00  0.00     0.274 C 
HETATM   10  C9  UNL     1       0.785   0.540  81.561  1.00  0.00     0.037 C 
ENDROOT
BRANCH   1  11
HETATM   11  C1  UNL     1      -0.402  -1.580  81.710  1.00  0.00     0.168 C 
BRANCH  11  12
HETATM   12  O1  UNL     1       0.850  -2.175  81.682  1.00  0.00    -0.400 OA
ATOM     13  H1  UNL     1       0.981  -2.734  82.439  1.00  0.00     0.209 HD
ENDBRANCH  11  12
ENDBRANCH   1  11
TORSDOF 2
ENDMDL
MODEL 4
REMARK VINA RESULT: -5.234642693      2.377      3.193
REMARK  2 active torsions:
REMARK  status: ('A' for Active; 'I' for Inactive)
REMARK    1  A    between atoms: O1_1  and  C1_3 
REMARK    2  A    between atoms: C1_3  and  C2_4 
ROOT
HETATM    1  C2  UNL     1      -1.809   2.825  85.387  1.00  0.00     0.011 C 
HETATM    2  C3  UNL     1      -3.110   3.488  85.605  1.00  0.00     0.008 C 
HETATM    3  C4  UNL     1      -3.071   4.983  85.656  1.00  0.00     0.031 C 
HETATM    4  C5  UNL     1      -2.749   5.635  84.351  1.00  0.00     0.273 C 
HETATM    5  N1  UNL     1      -1.345   5.735  84.082  1.00  0.00     0.049 N 
HETATM    6  C6  UNL     1      -0.986   6.653  83.047  1.00  0.00     0.302 C 
HETATM    7  C7  UNL     1       0.210   6.867  83.958  1.00  0.00     0.238 C 
HETATM    8  O2  UNL     1      -0.650   6.446  84.987  1.00  0.00    -0.200 OA
HETATM    9  C8  UNL     1      -0.801   4.404  83.838  1.00  0.00     0.274 C 
HETATM   10  C9  UNL     1      -0.650   3.746  85.184  1.00  0.00     0.037 C 
ENDROOT
BRANCH   1  11
HETATM   11  C1  UNL     1      -1.433   1.877  86.534  1.00  0.00     0.168 C 
BRANCH  11  12
HETATM   12  O1  UNL     1      -0.070   1.625  86.549  1.00  0.00    -0.400 OA
ATOM     13  H1  UNL     1       0.369   2.148  87.209  1.00  0.00     0.209 HD
ENDBRANCH  11  12
ENDBRANCH   1  11
TORSDOF 2
ENDMDL
MODEL 5
REMARK VINA RESULT: -5.129666079      2.025      4.066
REMARK  2 active torsions:
REMARK  status: ('A' for Active; 'I' for Inactive)
REMARK    1  A    between atoms: O1_1  and  C1_3 
REMARK    2  A    between atoms: C1_3  and  C2_4 
ROOT
HETATM    1  C2  UNL     1      -0.183   0.920  81.792  1.00  0.00     0.011 C 
HETATM    2  C3  UNL     1       0.648   2.067  81.374  1.00  0.00     0.008 C 
HETATM    3  C4  UNL     1       0.096   3.417  81.706  1.00  0.00     0.031 C 
HETATM    4  C5  UNL     1       0.073   3.731  83.166  1.00  0.00     0.273 C 
HETATM    5  N1  UNL     1      -1.085   3.231  83.849  1.00  0.00     0.049 N 
HETATM    6  C6  UNL     1      -1.328   3.803  85.136  1.00  0.00     0.302 C 
HETATM    7  C7  UNL     1      -2.770   3.628  84.695  1.00  0.00     0.238 C 
HETATM    8  O2  UNL     1      -2.255   3.707  83.390  1.00  0.00    -0.200 OA
HETATM    9  C8  UNL     1      -1.024   1.775  83.906  1.00  0.00     0.274 C 
HETATM   10  C9  UNL     1      -1.425   1.273  82.543  1.00  0.00     0.037 C 
ENDROOT
BRANCH   1  11
HETATM   11  C1  UNL     1      -0.610   0.041  80.608  1.00  0.00     0.168 C 
BRANCH  11  12
HETATM   12  O1  UNL     1      -1.756   0.535  80.006  1.00  0.00    -0.400 OA
ATOM     13  H1  UNL     1      -2.054   1.329  80.435  1.00  0.00     0.209 HD
ENDBRANCH  11  12
ENDBRANCH   1  11
TORSDOF 2
ENDMDL
