MODEL 1
REMARK VINA RESULT: -5.467878132      0.000      0.000
REMARK  1 active torsions:
REMARK  status: ('A' for Active; 'I' for Inactive)
REMARK    1  A    between atoms: C4_4  and  N1_5 
ROOT
HETATM    1  N1  UNL     1      -2.008   3.422  85.997  1.00  0.00    -0.406 N 
HETATM    2  C5  UNL     1      -3.365   3.201  86.330  1.00  0.00     0.119 C 
HETATM    3  C6  UNL     1      -3.461   2.401  87.604  1.00  0.00     0.047 C 
HETATM    4  C7  UNL     1      -3.469   0.921  87.381  1.00  0.00     0.234 C 
HETATM    5  N2  UNL     1      -2.158   0.394  87.055  1.00  0.00    -0.074 N 
ATOM      6  H21 UNL     1      -2.151  -0.624  86.984  1.00  0.00     0.277 HD
ATOM      7  H22 UNL     1      -1.497   0.484  87.826  1.00  0.00     0.277 HD
HETATM    8  C8  UNL     1      -1.692   1.043  85.839  1.00  0.00     0.251 C 
HETATM    9  C9  UNL     1      -1.103   2.361  86.240  1.00  0.00     0.144 C 
ENDROOT
BRANCH   1  10
HETATM   10  C4  UNL     1      -1.732   4.203  84.864  1.00  0.00     0.079 C 
HETATM   11  C3  UNL     1      -2.542   5.480  84.754  1.00  0.00     0.025 C 
HETATM   12  C2  UNL     1      -1.928   6.061  83.490  1.00  0.00     0.002 C 
HETATM   13  C1  UNL     1      -0.455   5.931  83.816  1.00  0.00     0.002 C 
HETATM   14  C10 UNL     1      -0.332   4.689  84.698  1.00  0.00     0.025 C 
ENDBRANCH   1  10
TORSDOF 1
ENDMDL
MODEL 2
REMARK VINA RESULT: -5.332199768      1.369      4.627
REMARK  1 active torsions:
REMARK  status: ('A' for Active; 'I' for Inactive)
REMARK    1  A    between atoms: C4_4  and  N1_5 
ROOT
HETATM    1  N1  UNL     1      -2.559   3.461  85.079  1.00  0.00    -0.406 N 
HETATM    2  C5  UNL     1      -2.884   4.825  85.261  1.00  0.00     0.119 C 
HETATM    3  C6  UNL     1      -2.343   5.642  84.115  1.00  0.00     0.047 C 
HETATM    4  C7  UNL     1      -0.948   6.137  84.340  1.00  0.00     0.234 C 
HETATM    5  N2  UNL     1       0.050   5.099  84.177  1.00  0.00    -0.074 N 
ATOM      6  H21 UNL     1       1.003   5.456  84.251  1.00  0.00     0.277 HD
ATOM      7  H22 UNL     1       0.105   4.755  83.218  1.00  0.00     0.277 HD
HETATM    8  C8  UNL     1      -0.226   4.040  85.136  1.00  0.00     0.251 C 
HETATM    9  C9  UNL     1      -1.286   3.167  84.537  1.00  0.00     0.144 C 
ENDROOT
BRANCH   1  10
HETATM   10  C4  UNL     1      -3.037   2.543  86.029  1.00  0.00     0.079 C 
HETATM   11  C3  UNL     1      -2.001   1.566  86.552  1.00  0.00     0.025 C 
HETATM   12  C2  UNL     1      -2.851   0.819  87.567  1.00  0.00     0.002 C 
HETATM   13  C1  UNL     1      -3.478   1.981  88.309  1.00  0.00     0.002 C 
HETATM   14  C10 UNL     1      -3.622   3.101  87.281  1.00  0.00     0.025 C 
ENDBRANCH   1  10
TORSDOF 1
ENDMDL
MODEL 3
REMARK VINA RESULT: -5.319856974      1.802      4.712
REMARK  1 active torsions:
REMARK  status: ('A' for Active; 'I' for Inactive)
REMARK    1  A    between atoms: C4_4  and  N1_5 
ROOT
HETATM    1  N1  UNL     1      -1.813   3.369  84.866  1.00  0.00    -0.406 N 
HETATM    2  C5  UNL     1      -0.596   3.937  85.309  1.00  0.00     0.119 C 
HETATM    3  C6  UNL     1      -0.078   4.913  84.283  1.00  0.00     0.047 C 
HETATM    4  C7  UNL     1       0.806   4.283  83.252  1.00  0.00     0.234 C 
HETATM    5  N2  UNL     1       0.066   3.519  82.267  1.00  0.00    -0.074 N 
ATOM      6  H21 UNL     1       0.662   3.159  81.521  1.00  0.00     0.277 HD
ATOM      7  H22 UNL     1      -0.540   4.104  81.692  1.00  0.00     0.277 HD
HETATM    8  C8  UNL     1      -0.664   2.465  82.957  1.00  0.00     0.251 C 
HETATM    9  C9  UNL     1      -1.926   3.076  83.486  1.00  0.00     0.144 C 
ENDROOT
BRANCH   1  10
HETATM   10  C4  UNL     1      -2.470   2.476  85.728  1.00  0.00     0.079 C 
HETATM   11  C3  UNL     1      -1.561   1.714  86.674  1.00  0.00     0.025 C 
HETATM   12  C2  UNL     1      -2.608   0.939  87.459  1.00  0.00     0.002 C 
HETATM   13  C1  UNL     1      -3.572   2.055  87.807  1.00  0.00     0.002 C 
HETATM   14  C10 UNL     1      -3.494   3.048  86.648  1.00  0.00     0.025 C 
ENDBRANCH   1  10
TORSDOF 1
ENDMDL
MODEL 4
REMARK VINA RESULT: -5.280467749      1.180      1.638
REMARK  1 active torsions:
REMARK  status: ('A' for Active; 'I' for Inactive)
REMARK    1  A    between atoms: C4_4  and  N1_5 
ROOT
HETATM    1  N1  UNL     1      -1.801   3.244  85.736  1.00  0.00    -0.406 N 
HETATM    2  C5  UNL     1      -3.211   3.210  85.836  1.00  0.00     0.119 C 
HETATM    3  C6  UNL     1      -3.621   2.724  87.203  1.00  0.00     0.047 C 
HETATM    4  C7  UNL     1      -3.766   1.236  87.289  1.00  0.00     0.234 C 
HETATM    5  N2  UNL     1      -2.491   0.548  87.338  1.00  0.00    -0.074 N 
ATOM      6  H21 UNL     1      -2.592  -0.457  87.478  1.00  0.00     0.277 HD
ATOM      7  H22 UNL     1      -1.967   0.755  88.189  1.00  0.00     0.277 HD
HETATM    8  C8  UNL     1      -1.747   0.872  86.130  1.00  0.00     0.251 C 
HETATM    9  C9  UNL     1      -1.084   2.196  86.361  1.00  0.00     0.144 C 
ENDROOT
BRANCH   1  10
HETATM   10  C4  UNL     1      -1.241   3.730  84.544  1.00  0.00     0.079 C 
HETATM   11  C3  UNL     1       0.140   4.339  84.687  1.00  0.00     0.025 C 
HETATM   12  C2  UNL     1       0.423   4.668  83.230  1.00  0.00     0.002 C 
HETATM   13  C1  UNL     1       0.062   3.351  82.576  1.00  0.00     0.002 C 
HETATM   14  C10 UNL     1      -1.054   2.754  83.433  1.00  0.00     0.025 C 
ENDBRANCH   1  10
TORSDOF 1
ENDMDL
MODEL 5
REMARK VINA RESULT: -5.223411885      1.756      4.684
REMARK  1 active torsions:
REMARK  status: ('A' for Active; 'I' for Inactive)
REMARK    1  A    between atoms: C4_4  and  N1_5 
ROOT
HETATM    1  N1  UNL     1      -1.043   2.716  85.146  1.00  0.00    -0.406 N 
HETATM    2  C5  UNL     1      -1.608   2.440  83.879  1.00  0.00     0.119 C 
HETATM    3  C6  UNL     1      -0.596   2.703  82.793  1.00  0.00     0.047 C 
HETATM    4  C7  UNL     1      -0.615   4.112  82.288  1.00  0.00     0.234 C 
HETATM    5  N2  UNL     1       0.007   5.047  83.204  1.00  0.00    -0.074 N 
ATOM      6  H21 UNL     1       0.066   5.991  82.822  1.00  0.00     0.277 HD
ATOM      7  H22 UNL     1       1.007   4.880  83.316  1.00  0.00     0.277 HD
HETATM    8  C8  UNL     1      -0.713   4.999  84.468  1.00  0.00     0.251 C 
HETATM    9  C9  UNL     1      -0.176   3.831  85.238  1.00  0.00     0.144 C 
ENDROOT
BRANCH   1  10
HETATM   10  C4  UNL     1      -1.831   2.469  86.282  1.00  0.00     0.079 C 
HETATM   11  C3  UNL     1      -3.252   2.992  86.200  1.00  0.00     0.025 C 
HETATM   12  C2  UNL     1      -3.784   2.486  87.531  1.00  0.00     0.002 C 
HETATM   13  C1  UNL     1      -3.329   1.042  87.478  1.00  0.00     0.002 C 
HETATM   14  C10 UNL     1      -2.028   1.045  86.677  1.00  0.00     0.025 C 
ENDBRANCH   1  10
TORSDOF 1
ENDMDL
