MODEL 1
REMARK VINA RESULT: -5.442942822      0.000      0.000
REMARK  3 active torsions:
REMARK  status: ('A' for Active; 'I' for Inactive)
REMARK    1  A    between atoms: C2_2  and  C4_4 
REMARK    2  A    between atoms: C4_4  and  C5_5 
REMARK    3  A    between atoms: C4_4  and  N2_10 
REMARK       I    between atoms: C5_5  and  N1_7 
ROOT
HETATM    1  C4  UNL     1      -0.737   4.025  84.862  1.00  0.00     0.200 C 
ENDROOT
BRANCH   1   2
HETATM    2  C2  UNL     1      -1.885   3.984  85.811  1.00  0.00    -0.062 C 
HETATM    3  C1  UNL     1      -2.988   4.650  85.606  1.00  0.00     0.016 C 
HETATM    4  C3  UNL     1      -1.794   3.134  87.038  1.00  0.00     0.045 C 
ENDBRANCH   1   2
BRANCH   1   5
HETATM    5  C5  UNL     1      -0.173   5.349  84.788  1.00  0.00     0.244 C 
HETATM    6  O1  UNL     1       1.109   5.398  84.932  1.00  0.00    -0.271 OA
HETATM    7  N1  UNL     1      -0.774   6.599  84.584  1.00  0.00    -0.363 N 
HETATM    8  C6  UNL     1      -0.043   7.849  84.539  1.00  0.00     0.149 C 
ATOM      9  H1  UNL     1      -1.787   6.631  84.461  1.00  0.00     0.161 HD
ENDBRANCH   1   5
BRANCH   1  10
HETATM   10  N2  UNL     1      -1.060   3.334  83.679  1.00  0.00    -0.394 N 
HETATM   11  C7  UNL     1      -1.036   1.944  83.587  1.00  0.00     0.145 C 
HETATM   12  C8  UNL     1      -0.603   1.610  82.140  1.00  0.00     0.251 C 
HETATM   13  N3  UNL     1      -1.618   2.079  81.227  1.00  0.00    -0.072 N 
HETATM   14  C9  UNL     1      -1.775   3.508  81.332  1.00  0.00     0.251 C 
ATOM     15  H32 UNL     1      -1.427   1.788  80.268  1.00  0.00     0.277 HD
ATOM     16  H31 UNL     1      -2.503   1.591  81.363  1.00  0.00     0.277 HD
HETATM   17  C10 UNL     1      -1.021   4.103  82.492  1.00  0.00     0.145 C 
ENDBRANCH   1  10
TORSDOF 3
ENDMDL
MODEL 2
REMARK VINA RESULT: -5.369346433      2.392      4.362
REMARK  3 active torsions:
REMARK  status: ('A' for Active; 'I' for Inactive)
REMARK    1  A    between atoms: C2_2  and  C4_4 
REMARK    2  A    between atoms: C4_4  and  C5_5 
REMARK    3  A    between atoms: C4_4  and  N2_10 
REMARK       I    between atoms: C5_5  and  N1_7 
ROOT
HETATM    1  C4  UNL     1      -0.929   2.800  82.214  1.00  0.00     0.200 C 
ENDROOT
BRANCH   1   2
HETATM    2  C2  UNL     1       0.125   1.904  81.662  1.00  0.00    -0.062 C 
HETATM    3  C1  UNL     1       1.352   2.300  81.470  1.00  0.00     0.016 C 
HETATM    4  C3  UNL     1      -0.215   0.485  81.333  1.00  0.00     0.045 C 
ENDBRANCH   1   2
BRANCH   1   5
HETATM    5  C5  UNL     1      -1.070   3.989  81.412  1.00  0.00     0.244 C 
HETATM    6  O1  UNL     1      -2.271   4.226  81.004  1.00  0.00    -0.271 OA
HETATM    7  N1  UNL     1      -0.126   4.939  80.996  1.00  0.00    -0.363 N 
HETATM    8  C6  UNL     1      -0.448   6.092  80.179  1.00  0.00     0.149 C 
ATOM      9  H1  UNL     1       0.844   4.812  81.286  1.00  0.00     0.161 HD
ENDBRANCH   1   5
BRANCH   1  10
HETATM   10  N2  UNL     1      -0.793   2.909  83.610  1.00  0.00    -0.394 N 
HETATM   11  C7  UNL     1      -0.973   1.829  84.472  1.00  0.00     0.145 C 
HETATM   12  C8  UNL     1      -1.571   2.406  85.776  1.00  0.00     0.251 C 
HETATM   13  N3  UNL     1      -0.602   3.282  86.388  1.00  0.00    -0.072 N 
HETATM   14  C9  UNL     1      -0.285   4.382  85.513  1.00  0.00     0.251 C 
ATOM     15  H32 UNL     1      -0.910   3.604  87.306  1.00  0.00     0.277 HD
ATOM     16  H31 UNL     1       0.236   2.776  86.678  1.00  0.00     0.277 HD
HETATM   17  C10 UNL     1      -0.861   4.222  84.131  1.00  0.00     0.145 C 
ENDBRANCH   1  10
TORSDOF 3
ENDMDL
MODEL 3
REMARK VINA RESULT: -5.347818747      1.817      4.467
REMARK  3 active torsions:
REMARK  status: ('A' for Active; 'I' for Inactive)
REMARK    1  A    between atoms: C2_2  and  C4_4 
REMARK    2  A    between atoms: C4_4  and  C5_5 
REMARK    3  A    between atoms: C4_4  and  N2_10 
REMARK       I    between atoms: C5_5  and  N1_7 
ROOT
HETATM    1  C4  UNL     1      -0.596   3.946  84.151  1.00  0.00     0.200 C 
ENDROOT
BRANCH   1   2
HETATM    2  C2  UNL     1      -0.371   5.402  83.933  1.00  0.00    -0.062 C 
HETATM    3  C1  UNL     1       0.324   6.136  84.757  1.00  0.00     0.016 C 
HETATM    4  C3  UNL     1      -0.939   6.058  82.714  1.00  0.00     0.045 C 
ENDBRANCH   1   2
BRANCH   1   5
HETATM    5  C5  UNL     1      -0.575   3.225  82.903  1.00  0.00     0.244 C 
HETATM    6  O1  UNL     1       0.604   3.023  82.416  1.00  0.00    -0.271 OA
HETATM    7  N1  UNL     1      -1.614   2.701  82.122  1.00  0.00    -0.363 N 
HETATM    8  C6  UNL     1      -1.409   1.994  80.875  1.00  0.00     0.149 C 
ATOM      9  H1  UNL     1      -2.572   2.825  82.452  1.00  0.00     0.161 HD
ENDBRANCH   1   5
BRANCH   1  10
HETATM   10  N2  UNL     1      -1.654   3.748  85.057  1.00  0.00    -0.394 N 
HETATM   11  C7  UNL     1      -2.822   4.508  85.029  1.00  0.00     0.145 C 
HETATM   12  C8  UNL     1      -3.293   4.637  86.496  1.00  0.00     0.251 C 
HETATM   13  N3  UNL     1      -3.649   3.329  86.991  1.00  0.00    -0.072 N 
HETATM   14  C9  UNL     1      -2.510   2.447  86.961  1.00  0.00     0.251 C 
ATOM     15  H32 UNL     1      -4.066   3.377  87.921  1.00  0.00     0.277 HD
ATOM     16  H31 UNL     1      -4.444   2.937  86.487  1.00  0.00     0.277 HD
HETATM   17  C10 UNL     1      -1.328   3.031  86.232  1.00  0.00     0.145 C 
ENDBRANCH   1  10
TORSDOF 3
ENDMDL
MODEL 4
REMARK VINA RESULT: -5.295837580      1.871      4.249
REMARK  3 active torsions:
REMARK  status: ('A' for Active; 'I' for Inactive)
REMARK    1  A    between atoms: C2_2  and  C4_4 
REMARK    2  A    between atoms: C4_4  and  C5_5 
REMARK    3  A    between atoms: C4_4  and  N2_10 
REMARK       I    between atoms: C5_5  and  N1_7 
ROOT
HETATM    1  C4  UNL     1      -1.563   4.679  84.054  1.00  0.00     0.200 C 
ENDROOT
BRANCH   1   2
HETATM    2  C2  UNL     1      -1.749   4.127  85.425  1.00  0.00    -0.062 C 
HETATM    3  C1  UNL     1      -2.904   4.130  86.032  1.00  0.00     0.016 C 
HETATM    4  C3  UNL     1      -0.582   3.521  86.138  1.00  0.00     0.045 C 
ENDBRANCH   1   2
BRANCH   1   5
HETATM    5  C5  UNL     1      -1.558   3.628  83.069  1.00  0.00     0.244 C 
HETATM    6  O1  UNL     1      -2.323   3.839  82.051  1.00  0.00    -0.271 OA
HETATM    7  N1  UNL     1      -0.863   2.411  83.020  1.00  0.00    -0.363 N 
HETATM    8  C6  UNL     1      -0.979   1.458  81.935  1.00  0.00     0.149 C 
ATOM      9  H1  UNL     1      -0.238   2.183  83.794  1.00  0.00     0.161 HD
ENDBRANCH   1   5
BRANCH   1  10
HETATM   10  N2  UNL     1      -0.538   5.644  84.054  1.00  0.00    -0.394 N 
HETATM   11  C7  UNL     1      -0.657   6.869  84.709  1.00  0.00     0.145 C 
HETATM   12  C8  UNL     1       0.138   7.893  83.865  1.00  0.00     0.251 C 
HETATM   13  N3  UNL     1       1.536   7.532  83.885  1.00  0.00    -0.072 N 
HETATM   14  C9  UNL     1       1.732   6.226  83.310  1.00  0.00     0.251 C 
ATOM     15  H32 UNL     1       2.114   8.238  83.430  1.00  0.00     0.277 HD
ATOM     16  H31 UNL     1       1.929   7.595  84.825  1.00  0.00     0.277 HD
HETATM   17  C10 UNL     1       0.442   5.496  83.046  1.00  0.00     0.145 C 
ENDBRANCH   1  10
TORSDOF 3
ENDMDL
MODEL 5
REMARK VINA RESULT: -5.293587154      0.394      1.339
REMARK  3 active torsions:
REMARK  status: ('A' for Active; 'I' for Inactive)
REMARK    1  A    between atoms: C2_2  and  C4_4 
REMARK    2  A    between atoms: C4_4  and  C5_5 
REMARK    3  A    between atoms: C4_4  and  N2_10 
REMARK       I    between atoms: C5_5  and  N1_7 
ROOT
HETATM    1  C4  UNL     1      -0.518   4.296  84.661  1.00  0.00     0.200 C 
ENDROOT
BRANCH   1   2
HETATM    2  C2  UNL     1      -1.760   4.251  85.481  1.00  0.00    -0.062 C 
HETATM    3  C1  UNL     1      -2.853   4.873  85.134  1.00  0.00     0.016 C 
HETATM    4  C3  UNL     1      -1.780   3.447  86.742  1.00  0.00     0.045 C 
ENDBRANCH   1   2
BRANCH   1   5
HETATM    5  C5  UNL     1       0.057   5.617  84.665  1.00  0.00     0.244 C 
HETATM    6  O1  UNL     1       1.343   5.646  84.774  1.00  0.00    -0.271 OA
HETATM    7  N1  UNL     1      -0.537   6.884  84.570  1.00  0.00    -0.363 N 
HETATM    8  C6  UNL     1       0.206   8.127  84.591  1.00  0.00     0.149 C 
ATOM      9  H1  UNL     1      -1.552   6.932  84.479  1.00  0.00     0.161 HD
ENDBRANCH   1   5
BRANCH   1  10
HETATM   10  N2  UNL     1      -0.716   3.622  83.442  1.00  0.00    -0.394 N 
HETATM   11  C7  UNL     1      -0.991   4.287  82.248  1.00  0.00     0.145 C 
HETATM   12  C8  UNL     1      -1.922   3.358  81.436  1.00  0.00     0.251 C 
HETATM   13  N3  UNL     1      -1.202   2.154  81.095  1.00  0.00    -0.072 N 
HETATM   14  C9  UNL     1      -0.794   1.453  82.285  1.00  0.00     0.251 C 
ATOM     15  H32 UNL     1      -1.741   1.556  80.468  1.00  0.00     0.277 HD
ATOM     16  H31 UNL     1      -0.411   2.348  80.480  1.00  0.00     0.277 HD
HETATM   17  C10 UNL     1      -1.020   2.245  83.546  1.00  0.00     0.145 C 
ENDBRANCH   1  10
TORSDOF 3
ENDMDL
