MODEL 1
REMARK VINA RESULT: -6.906180190      0.000      0.000
REMARK  3 active torsions:
REMARK  status: ('A' for Active; 'I' for Inactive)
REMARK    1  A    between atoms: C5_9  and  C6_10 
REMARK       I    between atoms: C6_10  and  N2_12 
REMARK    2  A    between atoms: N2_12  and  C7_14 
REMARK    3  A    between atoms: C7_14  and  C8_15 
ROOT
HETATM    1  C1  UNL     1      -1.008   4.432  81.207  1.00  0.00     0.043 C 
HETATM    2  C2  UNL     1      -1.654   3.185  81.819  1.00  0.00     0.220 C 
HETATM    3  N1  UNL     1      -1.956   2.309  80.732  1.00  0.00    -0.066 N 
ATOM      4  H11 UNL     1      -2.123   2.845  79.881  1.00  0.00     0.277 HD
ATOM      5  H12 UNL     1      -2.878   1.891  80.860  1.00  0.00     0.277 HD
HETATM    6  C3  UNL     1      -0.971   1.282  80.493  1.00  0.00     0.259 C 
HETATM    7  C4  UNL     1      -0.601   0.544  81.756  1.00  0.00     0.196 C 
HETATM    8  O1  UNL     1      -1.211   1.154  82.879  1.00  0.00    -0.373 OA
HETATM    9  C5  UNL     1      -0.795   2.497  82.814  1.00  0.00     0.243 C 
ENDROOT
BRANCH   9  10
HETATM   10  C6  UNL     1      -0.778   3.112  84.163  1.00  0.00     0.248 C 
HETATM   11  O2  UNL     1      -0.115   4.172  84.288  1.00  0.00    -0.271 OA
HETATM   12  N2  UNL     1      -1.463   2.553  85.266  1.00  0.00    -0.358 N 
ATOM     13  H2  UNL     1      -1.995   1.693  85.133  1.00  0.00     0.162 HD
BRANCH  12  14
HETATM   14  C7  UNL     1      -1.432   3.161  86.571  1.00  0.00     0.127 C 
BRANCH  14  15
HETATM   15  C8  UNL     1      -2.804   3.646  86.926  1.00  0.00     0.003 A 
HETATM   16  C9  UNL     1      -3.208   3.482  88.384  1.00  0.00     0.007 A 
HETATM   17  C10 UNL     1      -3.881   2.666  87.307  1.00  0.00     0.007 A 
ENDBRANCH  14  15
ENDBRANCH  12  14
ENDBRANCH   9  10
TORSDOF 3
ENDMDL
MODEL 2
REMARK VINA RESULT: -6.349541796      1.772      2.388
REMARK  3 active torsions:
REMARK  status: ('A' for Active; 'I' for Inactive)
REMARK    1  A    between atoms: C5_9  and  C6_10 
REMARK       I    between atoms: C6_10  and  N2_12 
REMARK    2  A    between atoms: N2_12  and  C7_14 
REMARK    3  A    between atoms: C7_14  and  C8_15 
ROOT
HETATM    1  C1  UNL     1      -1.464   1.931  81.261  1.00  0.00     0.043 C 
HETATM    2  C2  UNL     1      -0.304   2.391  82.147  1.00  0.00     0.220 C 
HETATM    3  N1  UNL     1       0.898   2.018  81.471  1.00  0.00    -0.066 N 
ATOM      4  H11 UNL     1       0.736   1.195  80.890  1.00  0.00     0.277 HD
ATOM      5  H12 UNL     1       1.573   1.635  82.134  1.00  0.00     0.277 HD
HETATM    6  C3  UNL     1       1.503   3.070  80.692  1.00  0.00     0.259 C 
HETATM    7  C4  UNL     1       1.648   4.349  81.479  1.00  0.00     0.196 C 
HETATM    8  O1  UNL     1       1.011   4.227  82.738  1.00  0.00    -0.373 OA
HETATM    9  C5  UNL     1      -0.309   3.849  82.426  1.00  0.00     0.243 C 
ENDROOT
BRANCH   9  10
HETATM   10  C6  UNL     1      -1.250   4.285  83.484  1.00  0.00     0.248 C 
HETATM   11  O2  UNL     1      -1.903   5.334  83.257  1.00  0.00    -0.271 OA
HETATM   12  N2  UNL     1      -1.420   3.575  84.694  1.00  0.00    -0.358 N 
ATOM     13  H2  UNL     1      -0.878   2.725  84.849  1.00  0.00     0.162 HD
BRANCH  12  14
HETATM   14  C7  UNL     1      -2.336   4.015  85.714  1.00  0.00     0.127 C 
BRANCH  14  15
HETATM   15  C8  UNL     1      -2.566   2.902  86.690  1.00  0.00     0.003 A 
HETATM   16  C9  UNL     1      -3.992   2.755  87.203  1.00  0.00     0.007 A 
HETATM   17  C10 UNL     1      -2.889   3.207  88.128  1.00  0.00     0.007 A 
ENDBRANCH  14  15
ENDBRANCH  12  14
ENDBRANCH   9  10
TORSDOF 3
ENDMDL
MODEL 3
REMARK VINA RESULT: -6.265779177      1.598      2.626
REMARK  3 active torsions:
REMARK  status: ('A' for Active; 'I' for Inactive)
REMARK    1  A    between atoms: C5_9  and  C6_10 
REMARK       I    between atoms: C6_10  and  N2_12 
REMARK    2  A    between atoms: N2_12  and  C7_14 
REMARK    3  A    between atoms: C7_14  and  C8_15 
ROOT
HETATM    1  C1  UNL     1      -0.004   1.409  80.548  1.00  0.00     0.043 C 
HETATM    2  C2  UNL     1       0.773   2.244  81.569  1.00  0.00     0.220 C 
HETATM    3  N1  UNL     1       1.705   3.032  80.828  1.00  0.00    -0.066 N 
ATOM      4  H11 UNL     1       1.962   2.556  79.964  1.00  0.00     0.277 HD
ATOM      5  H12 UNL     1       2.610   3.046  81.297  1.00  0.00     0.277 HD
HETATM    6  C3  UNL     1       1.267   4.378  80.547  1.00  0.00     0.259 C 
HETATM    7  C4  UNL     1       0.759   5.080  81.782  1.00  0.00     0.196 C 
HETATM    8  O1  UNL     1       0.704   4.179  82.873  1.00  0.00    -0.373 OA
HETATM    9  C5  UNL     1      -0.090   3.115  82.406  1.00  0.00     0.243 C 
ENDROOT
BRANCH   9  10
HETATM   10  C6  UNL     1      -0.774   2.431  83.530  1.00  0.00     0.248 C 
HETATM   11  O2  UNL     1      -1.266   1.302  83.284  1.00  0.00    -0.271 OA
HETATM   12  N2  UNL     1      -0.880   3.001  84.819  1.00  0.00    -0.358 N 
ATOM     13  H2  UNL     1      -0.467   3.919  84.989  1.00  0.00     0.162 HD
BRANCH  12  14
HETATM   14  C7  UNL     1      -1.551   2.326  85.898  1.00  0.00     0.127 C 
BRANCH  14  15
HETATM   15  C8  UNL     1      -2.504   3.272  86.562  1.00  0.00     0.003 A 
HETATM   16  C9  UNL     1      -2.702   3.073  88.058  1.00  0.00     0.007 A 
HETATM   17  C10 UNL     1      -3.822   2.776  87.091  1.00  0.00     0.007 A 
ENDBRANCH  14  15
ENDBRANCH  12  14
ENDBRANCH   9  10
TORSDOF 3
ENDMDL
MODEL 4
REMARK VINA RESULT: -6.253493504      1.231      2.389
REMARK  3 active torsions:
REMARK  status: ('A' for Active; 'I' for Inactive)
REMARK    1  A    between atoms: C5_9  and  C6_10 
REMARK       I    between atoms: C6_10  and  N2_12 
REMARK    2  A    between atoms: N2_12  and  C7_14 
REMARK    3  A    between atoms: C7_14  and  C8_15 
ROOT
HETATM    1  C1  UNL     1      -1.451   1.733  81.207  1.00  0.00     0.043 C 
HETATM    2  C2  UNL     1      -0.273   2.325  81.985  1.00  0.00     0.220 C 
HETATM    3  N1  UNL     1       0.510   3.059  81.043  1.00  0.00    -0.066 N 
ATOM      4  H11 UNL     1       0.410   2.657  80.111  1.00  0.00     0.277 HD
ATOM      5  H12 UNL     1       1.504   2.891  81.201  1.00  0.00     0.277 HD
HETATM    6  C3  UNL     1       0.242   4.476  81.010  1.00  0.00     0.259 C 
HETATM    7  C4  UNL     1       0.257   5.090  82.387  1.00  0.00     0.196 C 
HETATM    8  O1  UNL     1       0.383   4.082  83.374  1.00  0.00    -0.373 OA
HETATM    9  C5  UNL     1      -0.683   3.201  83.110  1.00  0.00     0.243 C 
ENDROOT
BRANCH   9  10
HETATM   10  C6  UNL     1      -1.100   2.491  84.343  1.00  0.00     0.248 C 
HETATM   11  O2  UNL     1      -1.396   1.276  84.217  1.00  0.00    -0.271 OA
HETATM   12  N2  UNL     1      -1.170   3.126  85.603  1.00  0.00    -0.358 N 
ATOM     13  H2  UNL     1      -0.921   4.112  85.675  1.00  0.00     0.162 HD
BRANCH  12  14
HETATM   14  C7  UNL     1      -1.581   2.422  86.790  1.00  0.00     0.127 C 
BRANCH  14  15
HETATM   15  C8  UNL     1      -2.638   3.214  87.497  1.00  0.00     0.003 A 
HETATM   16  C9  UNL     1      -4.074   2.780  87.240  1.00  0.00     0.007 A 
HETATM   17  C10 UNL     1      -3.569   4.103  86.718  1.00  0.00     0.007 A 
ENDBRANCH  14  15
ENDBRANCH  12  14
ENDBRANCH   9  10
TORSDOF 3
ENDMDL
MODEL 5
REMARK VINA RESULT: -6.175694116      1.136      1.260
REMARK  3 active torsions:
REMARK  status: ('A' for Active; 'I' for Inactive)
REMARK    1  A    between atoms: C5_9  and  C6_10 
REMARK       I    between atoms: C6_10  and  N2_12 
REMARK    2  A    between atoms: N2_12  and  C7_14 
REMARK    3  A    between atoms: C7_14  and  C8_15 
ROOT
HETATM    1  C1  UNL     1       1.072   3.787  81.617  1.00  0.00     0.043 C 
HETATM    2  C2  UNL     1      -0.250   3.015  81.589  1.00  0.00     0.220 C 
HETATM    3  N1  UNL     1      -0.186   2.137  80.464  1.00  0.00    -0.066 N 
ATOM      4  H11 UNL     1       0.417   2.532  79.742  1.00  0.00     0.277 HD
ATOM      5  H12 UNL     1      -1.077   2.134  79.966  1.00  0.00     0.277 HD
HETATM    6  C3  UNL     1       0.220   0.788  80.773  1.00  0.00     0.259 C 
HETATM    7  C4  UNL     1      -0.565   0.208  81.923  1.00  0.00     0.196 C 
HETATM    8  O1  UNL     1      -1.397   1.197  82.501  1.00  0.00    -0.373 OA
HETATM    9  C5  UNL     1      -0.516   2.245  82.830  1.00  0.00     0.243 C 
ENDROOT
BRANCH   9  10
HETATM   10  C6  UNL     1      -1.040   3.041  83.965  1.00  0.00     0.248 C 
HETATM   11  O2  UNL     1      -1.785   4.010  83.675  1.00  0.00    -0.271 OA
HETATM   12  N2  UNL     1      -0.731   2.745  85.312  1.00  0.00    -0.358 N 
ATOM     13  H2  UNL     1      -0.126   1.950  85.517  1.00  0.00     0.162 HD
BRANCH  12  14
HETATM   14  C7  UNL     1      -1.246   3.531  86.403  1.00  0.00     0.127 C 
BRANCH  14  15
HETATM   15  C8  UNL     1      -2.243   2.720  87.173  1.00  0.00     0.003 A 
HETATM   16  C9  UNL     1      -3.698   3.143  87.024  1.00  0.00     0.007 A 
HETATM   17  C10 UNL     1      -2.979   3.328  88.337  1.00  0.00     0.007 A 
ENDBRANCH  14  15
ENDBRANCH  12  14
ENDBRANCH   9  10
TORSDOF 3
ENDMDL
