MODEL 1
REMARK VINA RESULT: -4.898553194      0.000      0.000
REMARK  4 active torsions:
REMARK  status: ('A' for Active; 'I' for Inactive)
REMARK    1  A    between atoms: C5_8  and  N2_9 
REMARK    2  A    between atoms: N2_9  and  C6_11 
REMARK    3  A    between atoms: C6_11  and  C7_13 
REMARK    4  A    between atoms: C7_13  and  N3_14 
ROOT
HETATM    1  C1  UNL     1       0.039   5.331  85.108  1.00  0.00     0.014 C 
HETATM    2  C2  UNL     1      -1.057   4.295  85.072  1.00  0.00     0.031 C 
HETATM    3  C3  UNL     1      -1.058   3.450  86.321  1.00  0.00     0.238 C 
HETATM    4  N1  UNL     1      -1.637   2.211  85.900  1.00  0.00    -0.073 N 
ATOM      5  H11 UNL     1      -2.657   2.205  85.894  1.00  0.00     0.277 HD
ATOM      6  H12 UNL     1      -1.526   1.448  86.567  1.00  0.00     0.277 HD
HETATM    7  C4  UNL     1      -1.026   1.961  84.593  1.00  0.00     0.257 C 
HETATM    8  C5  UNL     1      -0.901   3.307  83.953  1.00  0.00     0.113 C 
ENDROOT
BRANCH   8   9
HETATM    9  N2  UNL     1       0.254   3.510  83.151  1.00  0.00    -0.373 N 
ATOM     10  H2  UNL     1       1.165   3.596  83.602  1.00  0.00     0.161 HD
BRANCH   9  11
HETATM   11  C6  UNL     1       0.168   3.594  81.746  1.00  0.00     0.112 C 
HETATM   12  S1  UNL     1      -0.487   4.940  81.095  1.00  0.00    -0.059 SA
BRANCH  11  13
HETATM   13  C7  UNL     1       0.671   2.479  80.902  1.00  0.00     0.126 C 
BRANCH  13  14
HETATM   14  N3  UNL     1      -0.194   1.386  80.774  1.00  0.00    -0.396 N 
HETATM   15  C8  UNL     1       0.145   0.188  81.460  1.00  0.00     0.148 C 
HETATM   16  C9  UNL     1      -1.592   1.646  80.721  1.00  0.00     0.148 C 
ENDBRANCH  13  14
ENDBRANCH  11  13
ENDBRANCH   9  11
ENDBRANCH   8   9
TORSDOF 4
ENDMDL
MODEL 2
REMARK VINA RESULT: -4.846551353      1.467      4.453
REMARK  4 active torsions:
REMARK  status: ('A' for Active; 'I' for Inactive)
REMARK    1  A    between atoms: C5_8  and  N2_9 
REMARK    2  A    between atoms: N2_9  and  C6_11 
REMARK    3  A    between atoms: C6_11  and  C7_13 
REMARK    4  A    between atoms: C7_13  and  N3_14 
ROOT
HETATM    1  C1  UNL     1       1.704   2.335  81.326  1.00  0.00     0.014 C 
HETATM    2  C2  UNL     1       0.301   1.837  81.563  1.00  0.00     0.031 C 
HETATM    3  C3  UNL     1      -0.459   1.691  80.269  1.00  0.00     0.238 C 
HETATM    4  N1  UNL     1      -1.828   1.851  80.651  1.00  0.00    -0.073 N 
ATOM      5  H11 UNL     1      -2.267   1.002  81.005  1.00  0.00     0.277 HD
ATOM      6  H12 UNL     1      -2.469   1.989  79.870  1.00  0.00     0.277 HD
HETATM    7  C4  UNL     1      -1.800   2.959  81.608  1.00  0.00     0.257 C 
HETATM    8  C5  UNL     1      -0.532   2.781  82.380  1.00  0.00     0.113 C 
ENDROOT
BRANCH   8   9
HETATM    9  N2  UNL     1       0.139   3.975  82.758  1.00  0.00    -0.373 N 
ATOM     10  H2  UNL     1       1.056   4.179  82.361  1.00  0.00     0.161 HD
BRANCH   9  11
HETATM   11  C6  UNL     1      -0.436   4.884  83.670  1.00  0.00     0.112 C 
HETATM   12  S1  UNL     1      -0.926   6.335  83.105  1.00  0.00    -0.059 SA
BRANCH  11  13
HETATM   13  C7  UNL     1      -0.585   4.509  85.100  1.00  0.00     0.126 C 
BRANCH  13  14
HETATM   14  N3  UNL     1      -1.731   3.767  85.410  1.00  0.00    -0.396 N 
HETATM   15  C8  UNL     1      -1.553   2.495  86.020  1.00  0.00     0.148 C 
HETATM   16  C9  UNL     1      -2.876   4.474  85.871  1.00  0.00     0.148 C 
ENDBRANCH  13  14
ENDBRANCH  11  13
ENDBRANCH   9  11
ENDBRANCH   8   9
TORSDOF 4
ENDMDL
MODEL 3
REMARK VINA RESULT: -4.801596765      2.047      2.874
REMARK  4 active torsions:
REMARK  status: ('A' for Active; 'I' for Inactive)
REMARK    1  A    between atoms: C5_8  and  N2_9 
REMARK    2  A    between atoms: N2_9  and  C6_11 
REMARK    3  A    between atoms: C6_11  and  C7_13 
REMARK    4  A    between atoms: C7_13  and  N3_14 
ROOT
HETATM    1  C1  UNL     1      -3.725   4.973  87.116  1.00  0.00     0.014 C 
HETATM    2  C2  UNL     1      -3.413   3.563  86.681  1.00  0.00     0.031 C 
HETATM    3  C3  UNL     1      -2.990   2.706  87.847  1.00  0.00     0.238 C 
HETATM    4  N1  UNL     1      -2.160   1.702  87.255  1.00  0.00    -0.073 N 
ATOM      5  H11 UNL     1      -2.673   0.913  86.862  1.00  0.00     0.277 HD
ATOM      6  H12 UNL     1      -1.618   1.157  87.926  1.00  0.00     0.277 HD
HETATM    7  C4  UNL     1      -1.350   2.439  86.284  1.00  0.00     0.257 C 
HETATM    8  C5  UNL     1      -2.263   3.481  85.721  1.00  0.00     0.113 C 
ENDROOT
BRANCH   8   9
HETATM    9  N2  UNL     1      -1.665   4.733  85.417  1.00  0.00    -0.373 N 
ATOM     10  H2  UNL     1      -1.805   5.520  86.051  1.00  0.00     0.161 HD
BRANCH   9  11
HETATM   11  C6  UNL     1      -0.880   4.912  84.259  1.00  0.00     0.112 C 
HETATM   12  S1  UNL     1       0.431   5.880  84.359  1.00  0.00    -0.059 SA
BRANCH  11  13
HETATM   13  C7  UNL     1      -1.253   4.225  82.995  1.00  0.00     0.126 C 
BRANCH  13  14
HETATM   14  N3  UNL     1      -0.395   3.194  82.596  1.00  0.00    -0.396 N 
HETATM   15  C8  UNL     1      -0.901   1.865  82.616  1.00  0.00     0.148 C 
HETATM   16  C9  UNL     1       0.506   3.454  81.526  1.00  0.00     0.148 C 
ENDBRANCH  13  14
ENDBRANCH  11  13
ENDBRANCH   9  11
ENDBRANCH   8   9
TORSDOF 4
ENDMDL
MODEL 4
REMARK VINA RESULT: -4.761229753      1.439      1.785
REMARK  4 active torsions:
REMARK  status: ('A' for Active; 'I' for Inactive)
REMARK    1  A    between atoms: C5_8  and  N2_9 
REMARK    2  A    between atoms: N2_9  and  C6_11 
REMARK    3  A    between atoms: C6_11  and  C7_13 
REMARK    4  A    between atoms: C7_13  and  N3_14 
ROOT
HETATM    1  C1  UNL     1      -2.539   5.432  85.547  1.00  0.00     0.014 C 
HETATM    2  C2  UNL     1      -2.594   3.925  85.594  1.00  0.00     0.031 C 
HETATM    3  C3  UNL     1      -2.566   3.415  87.013  1.00  0.00     0.238 C 
HETATM    4  N1  UNL     1      -1.995   2.109  86.900  1.00  0.00    -0.073 N 
ATOM      5  H11 UNL     1      -2.662   1.380  86.651  1.00  0.00     0.277 HD
ATOM      6  H12 UNL     1      -1.709   1.697  87.788  1.00  0.00     0.277 HD
HETATM    7  C4  UNL     1      -0.904   2.281  85.938  1.00  0.00     0.257 C 
HETATM    8  C5  UNL     1      -1.413   3.269  84.939  1.00  0.00     0.113 C 
ENDROOT
BRANCH   8   9
HETATM    9  N2  UNL     1      -0.454   4.179  84.419  1.00  0.00    -0.373 N 
ATOM     10  H2  UNL     1       0.126   4.716  85.065  1.00  0.00     0.161 HD
BRANCH   9  11
HETATM   11  C6  UNL     1      -0.285   4.357  83.030  1.00  0.00     0.112 C 
HETATM   12  S1  UNL     1       0.470   5.708  82.513  1.00  0.00    -0.059 SA
BRANCH  11  13
HETATM   13  C7  UNL     1      -0.785   3.326  82.083  1.00  0.00     0.126 C 
BRANCH  13  14
HETATM   14  N3  UNL     1      -0.041   2.142  82.036  1.00  0.00    -0.396 N 
HETATM   15  C8  UNL     1      -0.753   0.913  81.971  1.00  0.00     0.148 C 
HETATM   16  C9  UNL     1       1.172   2.147  81.293  1.00  0.00     0.148 C 
ENDBRANCH  13  14
ENDBRANCH  11  13
ENDBRANCH   9  11
ENDBRANCH   8   9
TORSDOF 4
ENDMDL
MODEL 5
REMARK VINA RESULT: -4.730439798      1.737      2.302
REMARK  4 active torsions:
REMARK  status: ('A' for Active; 'I' for Inactive)
REMARK    1  A    between atoms: C5_8  and  N2_9 
REMARK    2  A    between atoms: N2_9  and  C6_11 
REMARK    3  A    between atoms: C6_11  and  C7_13 
REMARK    4  A    between atoms: C7_13  and  N3_14 
ROOT
HETATM    1  C1  UNL     1      -3.320   5.255  86.411  1.00  0.00     0.014 C 
HETATM    2  C2  UNL     1      -3.306   3.748  86.484  1.00  0.00     0.031 C 
HETATM    3  C3  UNL     1      -3.080   3.267  87.896  1.00  0.00     0.238 C 
HETATM    4  N1  UNL     1      -2.474   1.982  87.730  1.00  0.00    -0.073 N 
ATOM      5  H11 UNL     1      -3.137   1.223  87.577  1.00  0.00     0.277 HD
ATOM      6  H12 UNL     1      -2.063   1.599  88.581  1.00  0.00     0.277 HD
HETATM    7  C4  UNL     1      -1.521   2.178  86.637  1.00  0.00     0.257 C 
HETATM    8  C5  UNL     1      -2.191   3.127  85.695  1.00  0.00     0.113 C 
ENDROOT
BRANCH   8   9
HETATM    9  N2  UNL     1      -1.342   4.064  85.047  1.00  0.00    -0.373 N 
ATOM     10  H2  UNL     1      -0.988   4.863  85.572  1.00  0.00     0.161 HD
BRANCH   9  11
HETATM   11  C6  UNL     1      -0.979   3.912  83.693  1.00  0.00     0.112 C 
HETATM   12  S1  UNL     1      -0.800   5.259  82.788  1.00  0.00    -0.059 SA
BRANCH  11  13
HETATM   13  C7  UNL     1      -0.766   2.554  83.128  1.00  0.00     0.126 C 
BRANCH  13  14
HETATM   14  N3  UNL     1      -0.498   2.510  81.754  1.00  0.00    -0.396 N 
HETATM   15  C8  UNL     1       0.820   2.168  81.346  1.00  0.00     0.148 C 
HETATM   16  C9  UNL     1      -1.517   2.015  80.893  1.00  0.00     0.148 C 
ENDBRANCH  13  14
ENDBRANCH  11  13
ENDBRANCH   9  11
ENDBRANCH   8   9
TORSDOF 4
ENDMDL
