MODEL 1
REMARK VINA RESULT: -5.117599700      0.000      0.000
REMARK  5 active torsions:
REMARK  status: ('A' for Active; 'I' for Inactive)
REMARK    1  A    between atoms: O1_2  and  N1_3 
REMARK    2  A    between atoms: N1_3  and  C2_5 
REMARK    3  A    between atoms: C2_5  and  N2_7 
REMARK    4  A    between atoms: N2_7  and  C3_9 
REMARK    5  A    between atoms: C3_9  and  C4_10 
ROOT
HETATM    1  N2  UNL     1      -1.021   2.476  83.648  1.00  0.00    -0.365 N 
ATOM      2  H2  UNL     1      -0.723   1.543  83.362  1.00  0.00     0.161 HD
ENDROOT
BRANCH   1   3
HETATM    3  C2  UNL     1      -0.945   2.843  85.020  1.00  0.00     0.191 C 
HETATM    4  S1  UNL     1      -0.647   4.407  85.445  1.00  0.00    -0.039 SA
BRANCH   3   5
HETATM    5  N1  UNL     1      -1.124   1.877  86.043  1.00  0.00    -0.242 N 
ATOM      6  H1  UNL     1      -0.298   1.465  86.477  1.00  0.00     0.197 HD
BRANCH   5   7
HETATM    7  O1  UNL     1      -2.338   1.481  86.463  1.00  0.00    -0.283 OA
HETATM    8  C1  UNL     1      -2.728   2.123  87.636  1.00  0.00     0.237 C 
ENDBRANCH   5   7
ENDBRANCH   3   5
ENDBRANCH   1   3
BRANCH   1   9
HETATM    9  C3  UNL     1      -1.519   3.414  82.639  1.00  0.00     0.128 C 
BRANCH   9  10
HETATM   10  C4  UNL     1      -0.552   3.409  81.498  1.00  0.00     0.033 C 
HETATM   11  C5  UNL     1       0.154   2.117  81.292  1.00  0.00     0.038 C 
HETATM   12  C6  UNL     1       1.623   2.440  81.265  1.00  0.00     0.272 C 
HETATM   13  N3  UNL     1       1.765   3.867  81.297  1.00  0.00     0.084 N 
HETATM   14  C7  UNL     1       2.030   4.442  79.995  1.00  0.00     0.309 C 
HETATM   15  C8  UNL     1       0.538   4.420  81.818  1.00  0.00     0.278 C 
ENDBRANCH   9  10
ENDBRANCH   1   9
TORSDOF 5
ENDMDL
MODEL 2
REMARK VINA RESULT: -5.066407965      2.757      5.520
REMARK  5 active torsions:
REMARK  status: ('A' for Active; 'I' for Inactive)
REMARK    1  A    between atoms: O1_2  and  N1_3 
REMARK    2  A    between atoms: N1_3  and  C2_5 
REMARK    3  A    between atoms: C2_5  and  N2_7 
REMARK    4  A    between atoms: N2_7  and  C3_9 
REMARK    5  A    between atoms: C3_9  and  C4_10 
ROOT
HETATM    1  N2  UNL     1      -0.118   3.515  83.542  1.00  0.00    -0.365 N 
ATOM      2  H2  UNL     1       0.900   3.451  83.574  1.00  0.00     0.161 HD
ENDROOT
BRANCH   1   3
HETATM    3  C2  UNL     1      -0.843   2.680  82.649  1.00  0.00     0.191 C 
HETATM    4  S1  UNL     1      -1.651   3.335  81.371  1.00  0.00    -0.039 SA
BRANCH   3   5
HETATM    5  N1  UNL     1      -0.882   1.274  82.837  1.00  0.00    -0.242 N 
ATOM      6  H1  UNL     1      -0.780   0.905  83.782  1.00  0.00     0.197 HD
BRANCH   5   7
HETATM    7  O1  UNL     1      -1.049   0.410  81.822  1.00  0.00    -0.283 OA
HETATM    8  C1  UNL     1       0.110  -0.309  81.541  1.00  0.00     0.237 C 
ENDBRANCH   5   7
ENDBRANCH   3   5
ENDBRANCH   1   3
BRANCH   1   9
HETATM    9  C3  UNL     1      -0.807   4.466  84.419  1.00  0.00     0.128 C 
BRANCH   9  10
HETATM   10  C4  UNL     1      -1.849   3.710  85.179  1.00  0.00     0.033 C 
HETATM   11  C5  UNL     1      -3.018   4.526  85.603  1.00  0.00     0.038 C 
HETATM   12  C6  UNL     1      -3.170   4.306  87.083  1.00  0.00     0.272 C 
HETATM   13  N3  UNL     1      -2.235   3.293  87.480  1.00  0.00     0.084 N 
HETATM   14  C7  UNL     1      -2.843   1.988  87.636  1.00  0.00     0.309 C 
HETATM   15  C8  UNL     1      -1.209   3.219  86.468  1.00  0.00     0.278 C 
ENDBRANCH   9  10
ENDBRANCH   1   9
TORSDOF 5
ENDMDL
MODEL 3
REMARK VINA RESULT: -5.038907844      1.969      2.714
REMARK  5 active torsions:
REMARK  status: ('A' for Active; 'I' for Inactive)
REMARK    1  A    between atoms: O1_2  and  N1_3 
REMARK    2  A    between atoms: N1_3  and  C2_5 
REMARK    3  A    between atoms: C2_5  and  N2_7 
REMARK    4  A    between atoms: N2_7  and  C3_9 
REMARK    5  A    between atoms: C3_9  and  C4_10 
ROOT
HETATM    1  N2  UNL     1       0.433   4.887  83.819  1.00  0.00    -0.365 N 
ATOM      2  H2  UNL     1       1.385   5.220  83.977  1.00  0.00     0.161 HD
ENDROOT
BRANCH   1   3
HETATM    3  C2  UNL     1      -0.468   4.802  84.916  1.00  0.00     0.191 C 
HETATM    4  S1  UNL     1      -1.941   5.536  84.839  1.00  0.00    -0.039 SA
BRANCH   3   5
HETATM    5  N1  UNL     1      -0.118   4.087  86.090  1.00  0.00    -0.242 N 
ATOM      6  H1  UNL     1       0.070   4.611  86.944  1.00  0.00     0.197 HD
BRANCH   5   7
HETATM    7  O1  UNL     1      -0.026   2.747  86.123  1.00  0.00    -0.283 OA
HETATM    8  C1  UNL     1      -1.231   2.124  85.808  1.00  0.00     0.237 C 
ENDBRANCH   5   7
ENDBRANCH   3   5
ENDBRANCH   1   3
BRANCH   1   9
HETATM    9  C3  UNL     1       0.019   4.506  82.466  1.00  0.00     0.128 C 
BRANCH   9  10
HETATM   10  C4  UNL     1       0.185   3.026  82.340  1.00  0.00     0.033 C 
HETATM   11  C5  UNL     1       1.024   2.594  81.191  1.00  0.00     0.038 C 
HETATM   12  C6  UNL     1       0.207   1.587  80.428  1.00  0.00     0.272 C 
HETATM   13  N3  UNL     1      -0.988   1.326  81.177  1.00  0.00     0.084 N 
HETATM   14  C7  UNL     1      -0.927   0.095  81.935  1.00  0.00     0.309 C 
HETATM   15  C8  UNL     1      -1.190   2.431  82.084  1.00  0.00     0.278 C 
ENDBRANCH   9  10
ENDBRANCH   1   9
TORSDOF 5
ENDMDL
MODEL 4
REMARK VINA RESULT: -5.023036979      1.998      2.521
REMARK  5 active torsions:
REMARK  status: ('A' for Active; 'I' for Inactive)
REMARK    1  A    between atoms: O1_2  and  N1_3 
REMARK    2  A    between atoms: N1_3  and  C2_5 
REMARK    3  A    between atoms: C2_5  and  N2_7 
REMARK    4  A    between atoms: N2_7  and  C3_9 
REMARK    5  A    between atoms: C3_9  and  C4_10 
ROOT
HETATM    1  N2  UNL     1      -0.446   3.792  84.481  1.00  0.00    -0.365 N 
ATOM      2  H2  UNL     1       0.459   3.375  84.698  1.00  0.00     0.161 HD
ENDROOT
BRANCH   1   3
HETATM    3  C2  UNL     1      -1.386   4.005  85.527  1.00  0.00     0.191 C 
HETATM    4  S1  UNL     1      -2.693   4.979  85.283  1.00  0.00    -0.039 SA
BRANCH   3   5
HETATM    5  N1  UNL     1      -1.219   3.385  86.792  1.00  0.00    -0.242 N 
ATOM      6  H1  UNL     1      -0.829   3.934  87.558  1.00  0.00     0.197 HD
BRANCH   5   7
HETATM    7  O1  UNL     1      -1.554   2.104  87.023  1.00  0.00    -0.283 OA
HETATM    8  C1  UNL     1      -2.796   1.983  87.641  1.00  0.00     0.237 C 
ENDBRANCH   5   7
ENDBRANCH   3   5
ENDBRANCH   1   3
BRANCH   1   9
HETATM    9  C3  UNL     1      -0.755   4.163  83.097  1.00  0.00     0.128 C 
BRANCH   9  10
HETATM   10  C4  UNL     1      -0.316   3.036  82.217  1.00  0.00     0.033 C 
HETATM   11  C5  UNL     1      -0.961   3.013  80.877  1.00  0.00     0.038 C 
HETATM   12  C6  UNL     1      -1.533   1.631  80.710  1.00  0.00     0.272 C 
HETATM   13  N3  UNL     1      -1.112   0.838  81.829  1.00  0.00     0.084 N 
HETATM   14  C7  UNL     1       0.005  -0.030  81.522  1.00  0.00     0.309 C 
HETATM   15  C8  UNL     1      -0.733   1.739  82.891  1.00  0.00     0.278 C 
ENDBRANCH   9  10
ENDBRANCH   1   9
TORSDOF 5
ENDMDL
MODEL 5
REMARK VINA RESULT: -5.001448397      2.952      5.835
REMARK  5 active torsions:
REMARK  status: ('A' for Active; 'I' for Inactive)
REMARK    1  A    between atoms: O1_2  and  N1_3 
REMARK    2  A    between atoms: N1_3  and  C2_5 
REMARK    3  A    between atoms: C2_5  and  N2_7 
REMARK    4  A    between atoms: N2_7  and  C3_9 
REMARK    5  A    between atoms: C3_9  and  C4_10 
ROOT
HETATM    1  N2  UNL     1      -0.646   2.977  83.752  1.00  0.00    -0.365 N 
ATOM      2  H2  UNL     1       0.095   2.472  84.237  1.00  0.00     0.161 HD
ENDROOT
BRANCH   1   3
HETATM    3  C2  UNL     1      -1.096   2.510  82.485  1.00  0.00     0.191 C 
HETATM    4  S1  UNL     1      -0.763   0.970  82.003  1.00  0.00    -0.039 SA
BRANCH   3   5
HETATM    5  N1  UNL     1      -1.835   3.356  81.619  1.00  0.00    -0.242 N 
ATOM      6  H1  UNL     1      -2.803   3.573  81.856  1.00  0.00     0.197 HD
BRANCH   5   7
HETATM    7  O1  UNL     1      -1.313   3.883  80.498  1.00  0.00    -0.283 OA
HETATM    8  C1  UNL     1      -0.537   5.011  80.754  1.00  0.00     0.237 C 
ENDBRANCH   5   7
ENDBRANCH   3   5
ENDBRANCH   1   3
BRANCH   1   9
HETATM    9  C3  UNL     1      -1.230   4.170  84.370  1.00  0.00     0.128 C 
BRANCH   9  10
HETATM   10  C4  UNL     1      -1.389   3.893  85.831  1.00  0.00     0.033 C 
HETATM   11  C5  UNL     1      -1.085   2.492  86.230  1.00  0.00     0.038 C 
HETATM   12  C6  UNL     1      -2.282   2.006  87.000  1.00  0.00     0.272 C 
HETATM   13  N3  UNL     1      -3.176   3.113  87.178  1.00  0.00     0.084 N 
HETATM   14  C7  UNL     1      -3.085   3.713  88.492  1.00  0.00     0.309 C 
HETATM   15  C8  UNL     1      -2.853   4.106  86.181  1.00  0.00     0.278 C 
ENDBRANCH   9  10
ENDBRANCH   1   9
TORSDOF 5
ENDMDL
