MODEL 1
REMARK VINA RESULT: -6.852541662      0.000      0.000
REMARK  9 active torsions:
REMARK  status: ('A' for Active; 'I' for Inactive)
REMARK    1  A    between atoms: C2_3  and  N2_4 
REMARK    2  A    between atoms: N2_4  and  C3_6 
REMARK    3  A    between atoms: C3_6  and  C4_7 
REMARK    4  A    between atoms: C4_7  and  N3_8 
REMARK    5  A    between atoms: C7_17  and  N5_18 
REMARK    6  A    between atoms: N5_18  and  C8_20 
REMARK    7  A    between atoms: C8_20  and  C9_21 
REMARK    8  A    between atoms: C9_21  and  O2_22 
REMARK    9  A    between atoms: C10_26  and  N7_27 
ROOT
HETATM    1  C1  UNL     1     -43.167 -31.165   1.109  1.00  0.00     0.177 C 
HETATM    2  N1  UNL     1     -44.539 -30.849   1.509  1.00  0.00    -0.171 N 
HETATM    3  C2  UNL     1     -44.793 -30.160   2.623  1.00  0.00     0.684 A 
HETATM    4  N4  UNL     1     -46.074 -29.904   2.933  1.00  0.00    -0.155 N 
ATOM      5  H4  UNL     1     -46.282 -29.379   3.781  1.00  0.00     0.187 HD
HETATM    6  C5  UNL     1     -47.097 -30.325   2.149  1.00  0.00     0.277 A 
HETATM    7  O1  UNL     1     -48.299 -30.096   2.422  1.00  0.00    -0.266 OA
HETATM    8  C6  UNL     1     -46.811 -31.035   1.004  1.00  0.00     0.122 A 
HETATM    9  C7  UNL     1     -47.819 -31.482   0.176  1.00  0.00     0.136 A 
HETATM   10  N6  UNL     1     -47.492 -32.174  -0.936  1.00  0.00    -0.176 N 
ATOM     11  H6  UNL     1     -48.231 -32.510  -1.553  1.00  0.00     0.186 HD
HETATM   12  C10 UNL     1     -46.209 -32.429  -1.244  1.00  0.00     0.679 A 
HETATM   13  N8  UNL     1     -45.214 -32.001  -0.450  1.00  0.00    -0.175 N 
ATOM     14  H8  UNL     1     -44.244 -32.202  -0.694  1.00  0.00     0.186 HD
HETATM   15  C11 UNL     1     -45.499 -31.303   0.677  1.00  0.00     0.158 A 
ENDROOT
BRANCH   3  16
HETATM   16  N2  UNL     1     -43.799 -29.776   3.344  1.00  0.00    -0.224 N 
ATOM     17  H2  UNL     1     -42.869 -29.790   2.927  1.00  0.00     0.177 HD
BRANCH  16  18
HETATM   18  C3  UNL     1     -43.926 -29.327   4.711  1.00  0.00     0.165 C 
BRANCH  18  19
HETATM   19  C4  UNL     1     -42.977 -30.138   5.565  1.00  0.00     0.249 C 
BRANCH  19  20
HETATM   20  N3  UNL     1     -41.648 -30.062   5.013  1.00  0.00    -0.078 N 
ATOM     21  H33 UNL     1     -41.002 -29.572   5.633  1.00  0.00     0.274 HD
ATOM     22  H32 UNL     1     -41.182 -30.969   5.004  1.00  0.00     0.274 HD
ATOM     23  H31 UNL     1     -41.687 -29.639   4.085  1.00  0.00     0.274 HD
ENDBRANCH  19  20
ENDBRANCH  18  19
ENDBRANCH  16  18
ENDBRANCH   3  16
BRANCH   9  24
HETATM   24  N5  UNL     1     -49.036 -31.231   0.484  1.00  0.00    -0.373 N 
ATOM     25  H5  UNL     1     -49.269 -30.297   0.821  1.00  0.00     0.161 HD
BRANCH  24  26
HETATM   26  C8  UNL     1     -50.097 -32.213   0.376  1.00  0.00     0.147 C 
BRANCH  26  27
HETATM   27  C9  UNL     1     -51.397 -31.425   0.242  1.00  0.00     0.183 C 
BRANCH  27  28
HETATM   28  O2  UNL     1     -51.240 -30.286  -0.514  1.00  0.00    -0.399 OA
ATOM     29  H2  UNL     1     -51.676 -29.535  -0.129  1.00  0.00     0.209 HD
ENDBRANCH  27  28
ENDBRANCH  26  27
ENDBRANCH  24  26
ENDBRANCH   9  24
BRANCH  12  30
HETATM   30  N7  UNL     1     -45.886 -33.085  -2.298  1.00  0.00    -0.234 N 
ATOM     31  H72 UNL     1     -46.146 -32.685  -3.199  1.00  0.00     0.174 HD
ATOM     32  H71 UNL     1     -45.389 -33.974  -2.245  1.00  0.00     0.174 HD
ENDBRANCH  12  30
TORSDOF 9
ENDMDL
MODEL 2
REMARK VINA RESULT: -6.792257480      1.338      1.495
REMARK  9 active torsions:
REMARK  status: ('A' for Active; 'I' for Inactive)
REMARK    1  A    between atoms: C2_3  and  N2_4 
REMARK    2  A    between atoms: N2_4  and  C3_6 
REMARK    3  A    between atoms: C3_6  and  C4_7 
REMARK    4  A    between atoms: C4_7  and  N3_8 
REMARK    5  A    between atoms: C7_17  and  N5_18 
REMARK    6  A    between atoms: N5_18  and  C8_20 
REMARK    7  A    between atoms: C8_20  and  C9_21 
REMARK    8  A    between atoms: C9_21  and  O2_22 
REMARK    9  A    between atoms: C10_26  and  N7_27 
ROOT
HETATM    1  C1  UNL     1     -42.607 -31.747   1.338  1.00  0.00     0.177 C 
HETATM    2  N1  UNL     1     -43.913 -31.271   1.796  1.00  0.00    -0.171 N 
HETATM    3  C2  UNL     1     -44.068 -30.741   3.010  1.00  0.00     0.684 A 
HETATM    4  N4  UNL     1     -45.293 -30.325   3.369  1.00  0.00    -0.155 N 
ATOM      5  H4  UNL     1     -45.426 -29.917   4.295  1.00  0.00     0.187 HD
HETATM    6  C5  UNL     1     -46.356 -30.431   2.536  1.00  0.00     0.277 A 
HETATM    7  O1  UNL     1     -47.507 -30.047   2.853  1.00  0.00    -0.266 OA
HETATM    8  C6  UNL     1     -46.173 -30.982   1.287  1.00  0.00     0.122 A 
HETATM    9  C7  UNL     1     -47.226 -31.109   0.406  1.00  0.00     0.136 A 
HETATM   10  N6  UNL     1     -46.999 -31.655  -0.808  1.00  0.00    -0.176 N 
ATOM     11  H6  UNL     1     -47.772 -31.753  -1.465  1.00  0.00     0.186 HD
HETATM   12  C10 UNL     1     -45.773 -32.071  -1.164  1.00  0.00     0.679 A 
HETATM   13  N8  UNL     1     -44.735 -31.955  -0.320  1.00  0.00    -0.175 N 
ATOM     14  H8  UNL     1     -43.808 -32.275  -0.602  1.00  0.00     0.186 HD
HETATM   15  C11 UNL     1     -44.919 -31.412   0.909  1.00  0.00     0.158 A 
ENDROOT
BRANCH   3  16
HETATM   16  N2  UNL     1     -43.038 -30.655   3.776  1.00  0.00    -0.224 N 
ATOM     17  H2  UNL     1     -42.192 -30.229   3.398  1.00  0.00     0.177 HD
BRANCH  16  18
HETATM   18  C3  UNL     1     -43.011 -31.129   5.140  1.00  0.00     0.165 C 
BRANCH  18  19
HETATM   19  C4  UNL     1     -43.305 -32.613   5.131  1.00  0.00     0.249 C 
BRANCH  19  20
HETATM   20  N3  UNL     1     -42.625 -33.246   6.232  1.00  0.00    -0.078 N 
ATOM     21  H33 UNL     1     -42.070 -32.583   6.774  1.00  0.00     0.274 HD
ATOM     22  H32 UNL     1     -43.268 -33.534   6.969  1.00  0.00     0.274 HD
ATOM     23  H31 UNL     1     -42.063 -34.024   5.884  1.00  0.00     0.274 HD
ENDBRANCH  19  20
ENDBRANCH  18  19
ENDBRANCH  16  18
ENDBRANCH   3  16
BRANCH   9  24
HETATM   24  N5  UNL     1     -48.388 -30.708   0.762  1.00  0.00    -0.373 N 
ATOM     25  H5  UNL     1     -48.461 -29.846   1.302  1.00  0.00     0.161 HD
BRANCH  24  26
HETATM   26  C8  UNL     1     -49.606 -31.423   0.433  1.00  0.00     0.147 C 
BRANCH  26  27
HETATM   27  C9  UNL     1     -50.450 -31.437   1.704  1.00  0.00     0.183 C 
BRANCH  27  28
HETATM   28  O2  UNL     1     -50.295 -30.288   2.446  1.00  0.00    -0.399 OA
ATOM     29  H2  UNL     1     -50.968 -29.645   2.258  1.00  0.00     0.209 HD
ENDBRANCH  27  28
ENDBRANCH  26  27
ENDBRANCH  24  26
ENDBRANCH   9  24
BRANCH  12  30
HETATM   30  N7  UNL     1     -45.545 -32.590  -2.315  1.00  0.00    -0.234 N 
ATOM     31  H72 UNL     1     -44.857 -33.342  -2.365  1.00  0.00     0.174 HD
ATOM     32  H71 UNL     1     -46.029 -32.269  -3.154  1.00  0.00     0.174 HD
ENDBRANCH  12  30
TORSDOF 9
ENDMDL
MODEL 3
REMARK VINA RESULT: -6.719417709      2.481      5.828
REMARK  9 active torsions:
REMARK  status: ('A' for Active; 'I' for Inactive)
REMARK    1  A    between atoms: C2_3  and  N2_4 
REMARK    2  A    between atoms: N2_4  and  C3_6 
REMARK    3  A    between atoms: C3_6  and  C4_7 
REMARK    4  A    between atoms: C4_7  and  N3_8 
REMARK    5  A    between atoms: C7_17  and  N5_18 
REMARK    6  A    between atoms: N5_18  and  C8_20 
REMARK    7  A    between atoms: C8_20  and  C9_21 
REMARK    8  A    between atoms: C9_21  and  O2_22 
REMARK    9  A    between atoms: C10_26  and  N7_27 
ROOT
HETATM    1  C1  UNL     1     -46.635 -31.858  -1.246  1.00  0.00     0.177 C 
HETATM    2  N1  UNL     1     -46.440 -32.084   0.186  1.00  0.00    -0.171 N 
HETATM    3  C2  UNL     1     -47.368 -32.700   0.922  1.00  0.00     0.684 A 
HETATM    4  N4  UNL     1     -47.127 -32.876   2.230  1.00  0.00    -0.155 N 
ATOM      5  H4  UNL     1     -47.828 -33.345   2.804  1.00  0.00     0.187 HD
HETATM    6  C5  UNL     1     -45.978 -32.449   2.809  1.00  0.00     0.277 A 
HETATM    7  O1  UNL     1     -45.735 -32.605   4.029  1.00  0.00    -0.266 OA
HETATM    8  C6  UNL     1     -45.034 -31.816   2.031  1.00  0.00     0.122 A 
HETATM    9  C7  UNL     1     -43.851 -31.366   2.577  1.00  0.00     0.136 A 
HETATM   10  N6  UNL     1     -42.954 -30.752   1.776  1.00  0.00    -0.176 N 
ATOM     11  H6  UNL     1     -42.077 -30.415   2.172  1.00  0.00     0.186 HD
HETATM   12  C10 UNL     1     -43.198 -30.576   0.467  1.00  0.00     0.679 A 
HETATM   13  N8  UNL     1     -44.345 -31.008  -0.083  1.00  0.00    -0.175 N 
ATOM     14  H8  UNL     1     -44.519 -30.868  -1.078  1.00  0.00     0.186 HD
HETATM   15  C11 UNL     1     -45.272 -31.631   0.686  1.00  0.00     0.158 A 
ENDROOT
BRANCH   3  16
HETATM   16  N2  UNL     1     -48.447 -33.092   0.340  1.00  0.00    -0.224 N 
ATOM     17  H2  UNL     1     -48.361 -33.708  -0.467  1.00  0.00     0.177 HD
BRANCH  16  18
HETATM   18  C3  UNL     1     -49.772 -32.709   0.768  1.00  0.00     0.165 C 
BRANCH  18  19
HETATM   19  C4  UNL     1     -49.901 -31.209   0.620  1.00  0.00     0.249 C 
BRANCH  19  20
HETATM   20  N3  UNL     1     -50.275 -30.631   1.887  1.00  0.00    -0.078 N 
ATOM     21  H33 UNL     1     -50.538 -31.341   2.571  1.00  0.00     0.274 HD
ATOM     22  H32 UNL     1     -49.475 -30.240   2.383  1.00  0.00     0.274 HD
ATOM     23  H31 UNL     1     -51.014 -29.943   1.743  1.00  0.00     0.274 HD
ENDBRANCH  19  20
ENDBRANCH  18  19
ENDBRANCH  16  18
ENDBRANCH   3  16
BRANCH   9  24
HETATM   24  N5  UNL     1     -43.634 -31.541   3.826  1.00  0.00    -0.373 N 
ATOM     25  H5  UNL     1     -43.973 -32.398   4.263  1.00  0.00     0.161 HD
BRANCH  24  26
HETATM   26  C8  UNL     1     -42.930 -30.577   4.648  1.00  0.00     0.147 C 
BRANCH  26  27
HETATM   27  C9  UNL     1     -43.838 -29.355   4.749  1.00  0.00     0.183 C 
BRANCH  27  28
HETATM   28  O2  UNL     1     -43.407 -28.318   3.953  1.00  0.00    -0.399 OA
ATOM     29  H2  UNL     1     -43.168 -27.551   4.459  1.00  0.00     0.209 HD
ENDBRANCH  27  28
ENDBRANCH  26  27
ENDBRANCH  24  26
ENDBRANCH   9  24
BRANCH  12  30
HETATM   30  N7  UNL     1     -42.354 -29.994  -0.305  1.00  0.00    -0.234 N 
ATOM     31  H72 UNL     1     -41.370 -30.239  -0.195  1.00  0.00     0.174 HD
ATOM     32  H71 UNL     1     -42.648 -29.311  -1.003  1.00  0.00     0.174 HD
ENDBRANCH  12  30
TORSDOF 9
ENDMDL
MODEL 4
REMARK VINA RESULT: -6.696724510      2.529      6.134
REMARK  9 active torsions:
REMARK  status: ('A' for Active; 'I' for Inactive)
REMARK    1  A    between atoms: C2_3  and  N2_4 
REMARK    2  A    between atoms: N2_4  and  C3_6 
REMARK    3  A    between atoms: C3_6  and  C4_7 
REMARK    4  A    between atoms: C4_7  and  N3_8 
REMARK    5  A    between atoms: C7_17  and  N5_18 
REMARK    6  A    between atoms: N5_18  and  C8_20 
REMARK    7  A    between atoms: C8_20  and  C9_21 
REMARK    8  A    between atoms: C9_21  and  O2_22 
REMARK    9  A    between atoms: C10_26  and  N7_27 
ROOT
HETATM    1  C1  UNL     1     -46.367 -32.200  -1.622  1.00  0.00     0.177 C 
HETATM    2  N1  UNL     1     -46.394 -32.320  -0.164  1.00  0.00    -0.171 N 
HETATM    3  C2  UNL     1     -47.358 -33.003   0.456  1.00  0.00     0.684 A 
HETATM    4  N4  UNL     1     -47.324 -33.075   1.795  1.00  0.00    -0.155 N 
ATOM      5  H4  UNL     1     -48.055 -33.594   2.282  1.00  0.00     0.187 HD
HETATM    6  C5  UNL     1     -46.346 -32.477   2.519  1.00  0.00     0.277 A 
HETATM    7  O1  UNL     1     -46.299 -32.533   3.771  1.00  0.00    -0.266 OA
HETATM    8  C6  UNL     1     -45.362 -31.776   1.858  1.00  0.00     0.122 A 
HETATM    9  C7  UNL     1     -44.348 -31.152   2.553  1.00  0.00     0.136 A 
HETATM   10  N6  UNL     1     -43.403 -30.477   1.864  1.00  0.00    -0.176 N 
ATOM     11  H6  UNL     1     -42.650 -30.011   2.370  1.00  0.00     0.186 HD
HETATM   12  C10 UNL     1     -43.439 -30.406   0.523  1.00  0.00     0.679 A 
HETATM   13  N8  UNL     1     -44.419 -31.008  -0.171  1.00  0.00    -0.175 N 
ATOM     14  H8  UNL     1     -44.436 -30.947  -1.189  1.00  0.00     0.186 HD
HETATM   15  C11 UNL     1     -45.387 -31.697   0.483  1.00  0.00     0.158 A 
ENDROOT
BRANCH   3  16
HETATM   16  N2  UNL     1     -48.270 -33.559  -0.261  1.00  0.00    -0.224 N 
ATOM     17  H2  UNL     1     -48.504 -33.131  -1.157  1.00  0.00     0.177 HD
BRANCH  16  18
HETATM   18  C3  UNL     1     -48.981 -34.753   0.130  1.00  0.00     0.165 C 
BRANCH  18  19
HETATM   19  C4  UNL     1     -48.374 -35.927  -0.606  1.00  0.00     0.249 C 
BRANCH  19  20
HETATM   20  N3  UNL     1     -47.562 -36.697   0.303  1.00  0.00    -0.078 N 
ATOM     21  H33 UNL     1     -48.071 -36.959   1.147  1.00  0.00     0.274 HD
ATOM     22  H32 UNL     1     -47.372 -37.635  -0.050  1.00  0.00     0.274 HD
ATOM     23  H31 UNL     1     -46.705 -36.183   0.513  1.00  0.00     0.274 HD
ENDBRANCH  19  20
ENDBRANCH  18  19
ENDBRANCH  16  18
ENDBRANCH   3  16
BRANCH   9  24
HETATM   24  N5  UNL     1     -44.328 -31.228   3.831  1.00  0.00    -0.373 N 
ATOM     25  H5  UNL     1     -45.215 -31.320   4.326  1.00  0.00     0.161 HD
BRANCH  24  26
HETATM   26  C8  UNL     1     -43.104 -31.190   4.606  1.00  0.00     0.147 C 
BRANCH  26  27
HETATM   27  C9  UNL     1     -43.141 -29.886   5.399  1.00  0.00     0.183 C 
BRANCH  27  28
HETATM   28  O2  UNL     1     -42.904 -28.786   4.606  1.00  0.00    -0.399 OA
ATOM     29  H2  UNL     1     -43.409 -28.029   4.879  1.00  0.00     0.209 HD
ENDBRANCH  27  28
ENDBRANCH  26  27
ENDBRANCH  24  26
ENDBRANCH   9  24
BRANCH  12  30
HETATM   30  N7  UNL     1     -42.547 -29.768  -0.143  1.00  0.00    -0.234 N 
ATOM     31  H72 UNL     1     -42.759 -28.807  -0.412  1.00  0.00     0.174 HD
ATOM     32  H71 UNL     1     -41.658 -30.199  -0.398  1.00  0.00     0.174 HD
ENDBRANCH  12  30
TORSDOF 9
ENDMDL
MODEL 5
REMARK VINA RESULT: -6.659078358      1.830      5.973
REMARK  9 active torsions:
REMARK  status: ('A' for Active; 'I' for Inactive)
REMARK    1  A    between atoms: C2_3  and  N2_4 
REMARK    2  A    between atoms: N2_4  and  C3_6 
REMARK    3  A    between atoms: C3_6  and  C4_7 
REMARK    4  A    between atoms: C4_7  and  N3_8 
REMARK    5  A    between atoms: C7_17  and  N5_18 
REMARK    6  A    between atoms: N5_18  and  C8_20 
REMARK    7  A    between atoms: C8_20  and  C9_21 
REMARK    8  A    between atoms: C9_21  and  O2_22 
REMARK    9  A    between atoms: C10_26  and  N7_27 
ROOT
HETATM    1  C1  UNL     1     -47.246 -32.726  -1.564  1.00  0.00     0.177 C 
HETATM    2  N1  UNL     1     -47.182 -31.933  -0.336  1.00  0.00    -0.171 N 
HETATM    3  C2  UNL     1     -48.291 -31.570   0.311  1.00  0.00     0.684 A 
HETATM    4  N4  UNL     1     -48.163 -30.843   1.432  1.00  0.00    -0.155 N 
ATOM      5  H4  UNL     1     -49.002 -30.558   1.936  1.00  0.00     0.187 HD
HETATM    6  C5  UNL     1     -46.949 -30.476   1.911  1.00  0.00     0.277 A 
HETATM    7  O1  UNL     1     -46.809 -29.797   2.956  1.00  0.00    -0.266 OA
HETATM    8  C6  UNL     1     -45.818 -30.862   1.227  1.00  0.00     0.122 A 
HETATM    9  C7  UNL     1     -44.562 -30.513   1.677  1.00  0.00     0.136 A 
HETATM   10  N6  UNL     1     -43.481 -30.914   0.974  1.00  0.00    -0.176 N 
ATOM     11  H6  UNL     1     -42.549 -30.659   1.300  1.00  0.00     0.186 HD
HETATM   12  C10 UNL     1     -43.612 -31.641  -0.147  1.00  0.00     0.679 A 
HETATM   13  N8  UNL     1     -44.827 -31.991  -0.601  1.00  0.00    -0.175 N 
ATOM     14  H8  UNL     1     -44.913 -32.544  -1.454  1.00  0.00     0.186 HD
HETATM   15  C11 UNL     1     -45.939 -31.609   0.075  1.00  0.00     0.158 A 
ENDROOT
BRANCH   3  16
HETATM   16  N2  UNL     1     -49.427 -31.934  -0.171  1.00  0.00    -0.224 N 
ATOM     17  H2  UNL     1     -49.469 -32.198  -1.156  1.00  0.00     0.177 HD
BRANCH  16  18
HETATM   18  C3  UNL     1     -50.645 -31.991   0.602  1.00  0.00     0.165 C 
BRANCH  18  19
HETATM   19  C4  UNL     1     -51.680 -31.127  -0.084  1.00  0.00     0.249 C 
BRANCH  19  20
HETATM   20  N3  UNL     1     -52.209 -30.171   0.856  1.00  0.00    -0.078 N 
ATOM     21  H33 UNL     1     -52.640 -30.622   1.663  1.00  0.00     0.274 HD
ATOM     22  H32 UNL     1     -51.472 -29.666   1.349  1.00  0.00     0.274 HD
ATOM     23  H31 UNL     1     -52.853 -29.541   0.376  1.00  0.00     0.274 HD
ENDBRANCH  19  20
ENDBRANCH  18  19
ENDBRANCH  16  18
ENDBRANCH   3  16
BRANCH   9  24
HETATM   24  N5  UNL     1     -44.455 -29.819   2.747  1.00  0.00    -0.373 N 
ATOM     25  H5  UNL     1     -44.854 -28.880   2.761  1.00  0.00     0.161 HD
BRANCH  24  26
HETATM   26  C8  UNL     1     -43.790 -30.304   3.941  1.00  0.00     0.147 C 
BRANCH  26  27
HETATM   27  C9  UNL     1     -43.573 -29.086   4.835  1.00  0.00     0.183 C 
BRANCH  27  28
HETATM   28  O2  UNL     1     -43.007 -28.033   4.153  1.00  0.00    -0.399 OA
ATOM     29  H2  UNL     1     -43.576 -27.698   3.470  1.00  0.00     0.209 HD
ENDBRANCH  27  28
ENDBRANCH  26  27
ENDBRANCH  24  26
ENDBRANCH   9  24
BRANCH  12  30
HETATM   30  N7  UNL     1     -42.593 -32.028  -0.823  1.00  0.00    -0.234 N 
ATOM     31  H72 UNL     1     -42.087 -32.847  -0.485  1.00  0.00     0.174 HD
ATOM     32  H71 UNL     1     -42.293 -31.540  -1.667  1.00  0.00     0.174 HD
ENDBRANCH  12  30
TORSDOF 9
ENDMDL
