MODEL 1
REMARK VINA RESULT: -6.941766416      0.000      0.000
REMARK  8 active torsions:
REMARK  status: ('A' for Active; 'I' for Inactive)
REMARK    1  A    between atoms: N1_1  and  N2_4 
REMARK    2  A    between atoms: N2_4  and  C1_6 
REMARK    3  A    between atoms: C2_11  and  N5_12 
REMARK    4  A    between atoms: C7_20  and  N7_21 
REMARK    5  A    between atoms: N7_21  and  C8_23 
REMARK    6  A    between atoms: C8_23  and  C9_24 
REMARK    7  A    between atoms: C9_24  and  C10_25 
REMARK    8  A    between atoms: C10_25  and  C11_26 
ROOT
HETATM    1  C1  UNL     1     -44.316 -31.968  -0.462  1.00  0.00     0.712 A 
HETATM    2  N3  UNL     1     -43.273 -31.193  -0.188  1.00  0.00    -0.129 N 
ATOM      3  H3  UNL     1     -42.631 -30.907  -0.927  1.00  0.00     0.205 HD
HETATM    4  N4  UNL     1     -43.082 -30.800   1.054  1.00  0.00    -0.268 N 
ATOM      5  H4  UNL     1     -42.279 -30.204   1.258  1.00  0.00     0.189 HD
HETATM    6  C2  UNL     1     -43.898 -31.147   2.069  1.00  0.00     0.164 A 
HETATM    7  C7  UNL     1     -44.982 -31.950   1.798  1.00  0.00     0.162 A 
HETATM    8  N8  UNL     1     -45.159 -32.340   0.528  1.00  0.00    -0.170 N 
ATOM      9  H8  UNL     1     -45.956 -32.935   0.301  1.00  0.00     0.186 HD
ENDROOT
BRANCH   6  10
HETATM   10  N5  UNL     1     -43.622 -30.680   3.384  1.00  0.00    -0.360 N 
HETATM   11  C3  UNL     1     -43.002 -31.523   4.395  1.00  0.00     0.152 C 
HETATM   12  C4  UNL     1     -42.023 -30.660   5.160  1.00  0.00     0.252 C 
HETATM   13  N6  UNL     1     -42.737 -29.651   5.896  1.00  0.00    -0.072 N 
HETATM   14  C5  UNL     1     -44.008 -29.307   5.312  1.00  0.00     0.252 C 
ATOM     15  H62 UNL     1     -42.849 -29.926   6.872  1.00  0.00     0.277 HD
ATOM     16  H61 UNL     1     -42.160 -28.818   6.021  1.00  0.00     0.277 HD
HETATM   17  C6  UNL     1     -43.950 -29.316   3.795  1.00  0.00     0.152 C 
ENDBRANCH   6  10
BRANCH   7  18
HETATM   18  N7  UNL     1     -45.810 -32.330   2.694  1.00  0.00    -0.373 N 
ATOM     19  H7  UNL     1     -45.470 -33.030   3.355  1.00  0.00     0.161 HD
BRANCH  18  20
HETATM   20  C8  UNL     1     -47.151 -31.891   2.878  1.00  0.00     0.122 C 
BRANCH  20  21
HETATM   21  C9  UNL     1     -47.296 -30.392   2.945  1.00  0.00     0.030 C 
BRANCH  21  22
HETATM   22  C10 UNL     1     -48.241 -29.859   1.905  1.00  0.00     0.114 C 
BRANCH  22  23
HETATM   23  C11 UNL     1     -47.563 -29.776   0.591  1.00  0.00     0.172 C 
HETATM   24  O1  UNL     1     -46.870 -28.765   0.322  1.00  0.00    -0.648 OA
HETATM   25  O2  UNL     1     -47.668 -30.778  -0.357  1.00  0.00    -0.648 OA
ENDBRANCH  22  23
ENDBRANCH  21  22
ENDBRANCH  20  21
ENDBRANCH  18  20
ENDBRANCH   7  18
BRANCH   1  26
HETATM   26  N2  UNL     1     -44.562 -32.389  -1.656  1.00  0.00    -0.137 N 
ATOM     27  H2  UNL     1     -43.801 -32.783  -2.210  1.00  0.00     0.205 HD
BRANCH  26  28
HETATM   28  N1  UNL     1     -45.818 -32.321  -2.202  1.00  0.00    -0.331 N 
ATOM     29  H12 UNL     1     -46.572 -31.947  -1.626  1.00  0.00     0.177 HD
ATOM     30  H11 UNL     1     -46.008 -32.633  -3.155  1.00  0.00     0.177 HD
ENDBRANCH  26  28
ENDBRANCH   1  26
TORSDOF 8
ENDMDL
MODEL 2
REMARK VINA RESULT: -6.826750180      1.020      1.561
REMARK  8 active torsions:
REMARK  status: ('A' for Active; 'I' for Inactive)
REMARK    1  A    between atoms: N1_1  and  N2_4 
REMARK    2  A    between atoms: N2_4  and  C1_6 
REMARK    3  A    between atoms: C2_11  and  N5_12 
REMARK    4  A    between atoms: C7_20  and  N7_21 
REMARK    5  A    between atoms: N7_21  and  C8_23 
REMARK    6  A    between atoms: C8_23  and  C9_24 
REMARK    7  A    between atoms: C9_24  and  C10_25 
REMARK    8  A    between atoms: C10_25  and  C11_26 
ROOT
HETATM    1  C1  UNL     1     -44.131 -32.101  -0.512  1.00  0.00     0.712 A 
HETATM    2  N3  UNL     1     -42.911 -31.851  -0.050  1.00  0.00    -0.129 N 
ATOM      3  H3  UNL     1     -42.101 -31.912  -0.666  1.00  0.00     0.205 HD
HETATM    4  N4  UNL     1     -42.766 -31.523   1.217  1.00  0.00    -0.268 N 
ATOM      5  H4  UNL     1     -41.826 -31.333   1.565  1.00  0.00     0.189 HD
HETATM    6  C2  UNL     1     -43.800 -31.428   2.075  1.00  0.00     0.164 A 
HETATM    7  C7  UNL     1     -45.069 -31.684   1.609  1.00  0.00     0.162 A 
HETATM    8  N8  UNL     1     -45.197 -32.015   0.317  1.00  0.00    -0.170 N 
ATOM      9  H8  UNL     1     -46.127 -32.210  -0.053  1.00  0.00     0.186 HD
ENDROOT
BRANCH   6  10
HETATM   10  N5  UNL     1     -43.559 -31.068   3.430  1.00  0.00    -0.360 N 
HETATM   11  C3  UNL     1     -43.399 -29.684   3.851  1.00  0.00     0.152 C 
HETATM   12  C4  UNL     1     -44.111 -29.532   5.177  1.00  0.00     0.252 C 
HETATM   13  N6  UNL     1     -43.438 -30.313   6.181  1.00  0.00    -0.072 N 
HETATM   14  C5  UNL     1     -42.717 -31.439   5.645  1.00  0.00     0.252 C 
ATOM     15  H62 UNL     1     -42.824 -29.725   6.745  1.00  0.00     0.277 HD
ATOM     16  H61 UNL     1     -44.093 -30.614   6.904  1.00  0.00     0.277 HD
HETATM   17  C6  UNL     1     -43.457 -32.077   4.483  1.00  0.00     0.152 C 
ENDBRANCH   6  10
BRANCH   7  18
HETATM   18  N7  UNL     1     -46.110 -31.618   2.347  1.00  0.00    -0.373 N 
ATOM     19  H7  UNL     1     -46.429 -32.496   2.757  1.00  0.00     0.161 HD
BRANCH  18  20
HETATM   20  C8  UNL     1     -46.876 -30.461   2.665  1.00  0.00     0.122 C 
BRANCH  20  21
HETATM   21  C9  UNL     1     -48.358 -30.721   2.763  1.00  0.00     0.030 C 
BRANCH  21  22
HETATM   22  C10 UNL     1     -48.832 -31.732   1.758  1.00  0.00     0.114 C 
BRANCH  22  23
HETATM   23  C11 UNL     1     -48.897 -31.122   0.409  1.00  0.00     0.172 C 
HETATM   24  O1  UNL     1     -49.909 -30.451   0.089  1.00  0.00    -0.648 OA
HETATM   25  O2  UNL     1     -47.878 -31.266  -0.515  1.00  0.00    -0.648 OA
ENDBRANCH  22  23
ENDBRANCH  21  22
ENDBRANCH  20  21
ENDBRANCH  18  20
ENDBRANCH   7  18
BRANCH   1  26
HETATM   26  N2  UNL     1     -44.345 -32.427  -1.741  1.00  0.00    -0.137 N 
ATOM     27  H2  UNL     1     -43.560 -32.728  -2.318  1.00  0.00     0.205 HD
BRANCH  26  28
HETATM   28  N1  UNL     1     -45.600 -32.380  -2.294  1.00  0.00    -0.331 N 
ATOM     29  H12 UNL     1     -45.844 -33.084  -2.990  1.00  0.00     0.177 HD
ATOM     30  H11 UNL     1     -46.279 -31.667  -2.027  1.00  0.00     0.177 HD
ENDBRANCH  26  28
ENDBRANCH   1  26
TORSDOF 8
ENDMDL
MODEL 3
REMARK VINA RESULT: -6.808614574      2.843      5.200
REMARK  8 active torsions:
REMARK  status: ('A' for Active; 'I' for Inactive)
REMARK    1  A    between atoms: N1_1  and  N2_4 
REMARK    2  A    between atoms: N2_4  and  C1_6 
REMARK    3  A    between atoms: C2_11  and  N5_12 
REMARK    4  A    between atoms: C7_20  and  N7_21 
REMARK    5  A    between atoms: N7_21  and  C8_23 
REMARK    6  A    between atoms: C8_23  and  C9_24 
REMARK    7  A    between atoms: C9_24  and  C10_25 
REMARK    8  A    between atoms: C10_25  and  C11_26 
ROOT
HETATM    1  C1  UNL     1     -43.470 -30.745   0.492  1.00  0.00     0.712 A 
HETATM    2  N3  UNL     1     -44.417 -31.361  -0.207  1.00  0.00    -0.129 N 
ATOM      3  H3  UNL     1     -44.248 -31.645  -1.172  1.00  0.00     0.205 HD
HETATM    4  N4  UNL     1     -45.577 -31.599   0.368  1.00  0.00    -0.268 N 
ATOM      5  H4  UNL     1     -46.300 -32.072  -0.174  1.00  0.00     0.189 HD
HETATM    6  C2  UNL     1     -45.855 -31.246   1.638  1.00  0.00     0.164 A 
HETATM    7  C7  UNL     1     -44.882 -30.607   2.373  1.00  0.00     0.162 A 
HETATM    8  N8  UNL     1     -43.708 -30.375   1.771  1.00  0.00    -0.170 N 
ATOM      9  H8  UNL     1     -42.970 -29.903   2.294  1.00  0.00     0.186 HD
ENDROOT
BRANCH   6  10
HETATM   10  N5  UNL     1     -47.134 -31.539   2.186  1.00  0.00    -0.360 N 
HETATM   11  C3  UNL     1     -48.028 -30.501   2.676  1.00  0.00     0.152 C 
HETATM   12  C4  UNL     1     -49.431 -30.882   2.259  1.00  0.00     0.252 C 
HETATM   13  N6  UNL     1     -49.834 -32.081   2.945  1.00  0.00    -0.072 N 
HETATM   14  C5  UNL     1     -48.727 -32.918   3.333  1.00  0.00     0.252 C 
ATOM     15  H62 UNL     1     -50.418 -31.857   3.751  1.00  0.00     0.277 HD
ATOM     16  H61 UNL     1     -50.508 -32.607   2.389  1.00  0.00     0.277 HD
HETATM   17  C6  UNL     1     -47.626 -32.913   2.287  1.00  0.00     0.152 C 
ENDBRANCH   6  10
BRANCH   7  18
HETATM   18  N7  UNL     1     -45.053 -30.236   3.583  1.00  0.00    -0.373 N 
ATOM     19  H7  UNL     1     -45.914 -30.546   4.033  1.00  0.00     0.161 HD
BRANCH  18  20
HETATM   20  C8  UNL     1     -44.180 -29.441   4.378  1.00  0.00     0.122 C 
BRANCH  20  21
HETATM   21  C9  UNL     1     -43.726 -30.118   5.647  1.00  0.00     0.030 C 
BRANCH  21  22
HETATM   22  C10 UNL     1     -42.598 -31.081   5.413  1.00  0.00     0.114 C 
BRANCH  22  23
HETATM   23  C11 UNL     1     -43.087 -32.476   5.508  1.00  0.00     0.172 C 
HETATM   24  O1  UNL     1     -43.635 -33.003   4.509  1.00  0.00    -0.648 OA
HETATM   25  O2  UNL     1     -42.961 -33.224   6.665  1.00  0.00    -0.648 OA
ENDBRANCH  22  23
ENDBRANCH  21  22
ENDBRANCH  20  21
ENDBRANCH  18  20
ENDBRANCH   7  18
BRANCH   1  26
HETATM   26  N2  UNL     1     -42.311 -30.481  -0.009  1.00  0.00    -0.137 N 
ATOM     27  H2  UNL     1     -41.617 -31.226  -0.073  1.00  0.00     0.205 HD
BRANCH  26  28
HETATM   28  N1  UNL     1     -41.986 -29.227  -0.458  1.00  0.00    -0.331 N 
ATOM     29  H12 UNL     1     -42.152 -29.011  -1.441  1.00  0.00     0.177 HD
ATOM     30  H11 UNL     1     -41.588 -28.521   0.161  1.00  0.00     0.177 HD
ENDBRANCH  26  28
ENDBRANCH   1  26
TORSDOF 8
ENDMDL
MODEL 4
REMARK VINA RESULT: -6.749996671      0.954      1.141
REMARK  8 active torsions:
REMARK  status: ('A' for Active; 'I' for Inactive)
REMARK    1  A    between atoms: N1_1  and  N2_4 
REMARK    2  A    between atoms: N2_4  and  C1_6 
REMARK    3  A    between atoms: C2_11  and  N5_12 
REMARK    4  A    between atoms: C7_20  and  N7_21 
REMARK    5  A    between atoms: N7_21  and  C8_23 
REMARK    6  A    between atoms: C8_23  and  C9_24 
REMARK    7  A    between atoms: C9_24  and  C10_25 
REMARK    8  A    between atoms: C10_25  and  C11_26 
ROOT
HETATM    1  C1  UNL     1     -44.208 -32.090  -0.519  1.00  0.00     0.712 A 
HETATM    2  N3  UNL     1     -42.999 -31.732  -0.100  1.00  0.00    -0.129 N 
ATOM      3  H3  UNL     1     -42.198 -31.778  -0.730  1.00  0.00     0.205 HD
HETATM    4  N4  UNL     1     -42.852 -31.318   1.140  1.00  0.00    -0.268 N 
ATOM      5  H4  UNL     1     -41.921 -31.045   1.455  1.00  0.00     0.189 HD
HETATM    6  C2  UNL     1     -43.875 -31.238   2.015  1.00  0.00     0.164 A 
HETATM    7  C7  UNL     1     -45.132 -31.605   1.594  1.00  0.00     0.162 A 
HETATM    8  N8  UNL     1     -45.261 -32.024   0.328  1.00  0.00    -0.170 N 
ATOM      9  H8  UNL     1     -46.183 -32.301  -0.009  1.00  0.00     0.186 HD
ENDROOT
BRANCH   6  10
HETATM   10  N5  UNL     1     -43.633 -30.779   3.339  1.00  0.00    -0.360 N 
HETATM   11  C3  UNL     1     -43.314 -31.687   4.431  1.00  0.00     0.152 C 
HETATM   12  C4  UNL     1     -42.249 -31.021   5.273  1.00  0.00     0.252 C 
HETATM   13  N6  UNL     1     -42.793 -29.847   5.904  1.00  0.00    -0.072 N 
HETATM   14  C5  UNL     1     -43.894 -29.265   5.181  1.00  0.00     0.252 C 
ATOM     15  H62 UNL     1     -43.058 -30.045   6.869  1.00  0.00     0.277 HD
ATOM     16  H61 UNL     1     -42.062 -29.154   6.069  1.00  0.00     0.277 HD
HETATM   17  C6  UNL     1     -43.692 -29.358   3.679  1.00  0.00     0.152 C 
ENDBRANCH   6  10
BRANCH   7  18
HETATM   18  N7  UNL     1     -46.161 -31.562   2.350  1.00  0.00    -0.373 N 
ATOM     19  H7  UNL     1     -46.414 -32.432   2.818  1.00  0.00     0.161 HD
BRANCH  18  20
HETATM   20  C8  UNL     1     -46.996 -30.441   2.615  1.00  0.00     0.122 C 
BRANCH  20  21
HETATM   21  C9  UNL     1     -48.458 -30.787   2.743  1.00  0.00     0.030 C 
BRANCH  21  22
HETATM   22  C10 UNL     1     -48.903 -31.792   1.718  1.00  0.00     0.114 C 
BRANCH  22  23
HETATM   23  C11 UNL     1     -48.957 -31.166   0.377  1.00  0.00     0.172 C 
HETATM   24  O1  UNL     1     -49.964 -30.487   0.059  1.00  0.00    -0.648 OA
HETATM   25  O2  UNL     1     -47.934 -31.305  -0.543  1.00  0.00    -0.648 OA
ENDBRANCH  22  23
ENDBRANCH  21  22
ENDBRANCH  20  21
ENDBRANCH  18  20
ENDBRANCH   7  18
BRANCH   1  26
HETATM   26  N2  UNL     1     -44.422 -32.505  -1.721  1.00  0.00    -0.137 N 
ATOM     27  H2  UNL     1     -43.654 -32.924  -2.245  1.00  0.00     0.205 HD
BRANCH  26  28
HETATM   28  N1  UNL     1     -45.654 -32.398  -2.313  1.00  0.00    -0.331 N 
ATOM     29  H12 UNL     1     -45.982 -31.469  -2.575  1.00  0.00     0.177 HD
ATOM     30  H11 UNL     1     -46.237 -33.216  -2.493  1.00  0.00     0.177 HD
ENDBRANCH  26  28
ENDBRANCH   1  26
TORSDOF 8
ENDMDL
MODEL 5
REMARK VINA RESULT: -6.506611390      3.302      5.725
REMARK  8 active torsions:
REMARK  status: ('A' for Active; 'I' for Inactive)
REMARK    1  A    between atoms: N1_1  and  N2_4 
REMARK    2  A    between atoms: N2_4  and  C1_6 
REMARK    3  A    between atoms: C2_11  and  N5_12 
REMARK    4  A    between atoms: C7_20  and  N7_21 
REMARK    5  A    between atoms: N7_21  and  C8_23 
REMARK    6  A    between atoms: C8_23  and  C9_24 
REMARK    7  A    between atoms: C9_24  and  C10_25 
REMARK    8  A    between atoms: C10_25  and  C11_26 
ROOT
HETATM    1  C1  UNL     1     -45.662 -30.119   0.599  1.00  0.00     0.712 A 
HETATM    2  N3  UNL     1     -46.597 -29.176   0.634  1.00  0.00    -0.129 N 
ATOM      3  H3  UNL     1     -46.354 -28.199   0.470  1.00  0.00     0.205 HD
HETATM    4  N4  UNL     1     -47.842 -29.524   0.883  1.00  0.00    -0.268 N 
ATOM      5  H4  UNL     1     -48.555 -28.796   0.908  1.00  0.00     0.189 HD
HETATM    6  C2  UNL     1     -48.218 -30.799   1.106  1.00  0.00     0.164 A 
HETATM    7  C7  UNL     1     -47.259 -31.785   1.072  1.00  0.00     0.162 A 
HETATM    8  N8  UNL     1     -45.998 -31.411   0.817  1.00  0.00    -0.170 N 
ATOM      9  H8  UNL     1     -45.268 -32.123   0.787  1.00  0.00     0.186 HD
ENDROOT
BRANCH   6  10
HETATM   10  N5  UNL     1     -49.585 -31.093   1.367  1.00  0.00    -0.360 N 
HETATM   11  C3  UNL     1     -50.549 -31.324   0.303  1.00  0.00     0.152 C 
HETATM   12  C4  UNL     1     -51.449 -32.455   0.748  1.00  0.00     0.252 C 
HETATM   13  N6  UNL     1     -52.231 -32.036   1.882  1.00  0.00    -0.072 N 
HETATM   14  C5  UNL     1     -51.605 -30.995   2.656  1.00  0.00     0.252 C 
ATOM     15  H62 UNL     1     -53.168 -31.758   1.591  1.00  0.00     0.277 HD
ATOM     16  H61 UNL     1     -52.467 -32.834   2.473  1.00  0.00     0.277 HD
HETATM   17  C6  UNL     1     -50.100 -31.179   2.733  1.00  0.00     0.152 C 
ENDBRANCH   6  10
BRANCH   7  18
HETATM   18  N7  UNL     1     -47.521 -33.020   1.271  1.00  0.00    -0.373 N 
ATOM     19  H7  UNL     1     -47.442 -33.349   2.233  1.00  0.00     0.161 HD
BRANCH  18  20
HETATM   20  C8  UNL     1     -47.909 -33.990   0.305  1.00  0.00     0.122 C 
BRANCH  20  21
HETATM   21  C9  UNL     1     -47.997 -33.449  -1.100  1.00  0.00     0.030 C 
BRANCH  21  22
HETATM   22  C10 UNL     1     -46.849 -33.895  -1.961  1.00  0.00     0.114 C 
BRANCH  22  23
HETATM   23  C11 UNL     1     -46.039 -32.728  -2.379  1.00  0.00     0.172 C 
HETATM   24  O1  UNL     1     -46.544 -31.580  -2.323  1.00  0.00    -0.648 OA
HETATM   25  O2  UNL     1     -44.739 -32.858  -2.833  1.00  0.00    -0.648 OA
ENDBRANCH  22  23
ENDBRANCH  21  22
ENDBRANCH  20  21
ENDBRANCH  18  20
ENDBRANCH   7  18
BRANCH   1  26
HETATM   26  N2  UNL     1     -44.423 -29.848   0.361  1.00  0.00    -0.137 N 
ATOM     27  H2  UNL     1     -43.967 -30.280  -0.443  1.00  0.00     0.205 HD
BRANCH  26  28
HETATM   28  N1  UNL     1     -43.704 -28.995   1.158  1.00  0.00    -0.331 N 
ATOM     29  H12 UNL     1     -44.200 -28.223   1.605  1.00  0.00     0.177 HD
ATOM     30  H11 UNL     1     -42.702 -29.115   1.308  1.00  0.00     0.177 HD
ENDBRANCH  26  28
ENDBRANCH   1  26
TORSDOF 8
ENDMDL
