MODEL 1
REMARK VINA RESULT: -8.222904676      0.000      0.000
REMARK  5 active torsions:
REMARK  status: ('A' for Active; 'I' for Inactive)
REMARK    1  A    between atoms: N1_1  and  C1_4 
REMARK    2  A    between atoms: N6_19  and  C7_20 
REMARK    3  A    between atoms: C7_20  and  C8_21 
REMARK    4  A    between atoms: C8_21  and  C9_22 
REMARK    5  A    between atoms: C9_22  and  N7_23 
ROOT
HETATM    1  C1  UNL     1     -43.428 -31.537  -0.152  1.00  0.00     0.678 A 
HETATM    2  N2  UNL     1     -44.551 -31.253   0.532  1.00  0.00    -0.175 N 
ATOM      3  H2  UNL     1     -44.478 -30.759   1.422  1.00  0.00     0.186 HD
HETATM    4  C2  UNL     1     -45.784 -31.605   0.070  1.00  0.00     0.146 A 
HETATM    5  C3  UNL     1     -45.820 -32.259  -1.122  1.00  0.00     0.118 A 
HETATM    6  C4  UNL     1     -44.672 -32.539  -1.803  1.00  0.00     0.151 A 
HETATM    7  N3  UNL     1     -44.809 -33.228  -3.044  1.00  0.00    -0.081 NA
HETATM    8  N4  UNL     1     -43.484 -32.179  -1.319  1.00  0.00    -0.178 N 
ATOM      9  H4  UNL     1     -42.630 -32.392  -1.834  1.00  0.00     0.185 HD
HETATM   10  C5  UNL     1     -47.077 -32.640  -1.605  1.00  0.00     0.266 A 
HETATM   11  O1  UNL     1     -47.118 -33.244  -2.702  1.00  0.00    -0.267 OA
HETATM   12  N5  UNL     1     -48.156 -32.339  -0.869  1.00  0.00    -0.274 N 
ATOM     13  H5  UNL     1     -49.071 -32.618  -1.224  1.00  0.00     0.173 HD
HETATM   14  C6  UNL     1     -48.108 -31.696   0.301  1.00  0.00     0.331 A 
HETATM   15  O2  UNL     1     -49.168 -31.432   0.966  1.00  0.00    -0.246 OA
HETATM   16  N6  UNL     1     -46.895 -31.324   0.773  1.00  0.00    -0.284 N 
ENDROOT
BRANCH  16  17
HETATM   17  C7  UNL     1     -46.824 -30.613   2.003  1.00  0.00     0.137 C 
BRANCH  17  18
HETATM   18  C8  UNL     1     -46.581 -31.398   3.235  1.00  0.00     0.040 C 
BRANCH  18  19
HETATM   19  C9  UNL     1     -45.190 -31.337   3.796  1.00  0.00     0.123 C 
BRANCH  19  20
HETATM   20  N7  UNL     1     -44.642 -29.983   3.684  1.00  0.00    -0.367 N 
HETATM   21  C10 UNL     1     -43.881 -29.485   4.594  1.00  0.00     0.196 C 
HETATM   22  N8  UNL     1     -43.389 -28.165   4.414  1.00  0.00    -0.067 NA
HETATM   23  N9  UNL     1     -43.510 -30.191   5.769  1.00  0.00    -0.067 NA
ATOM     24  H7  UNL     1     -44.869 -29.420   2.864  1.00  0.00     0.161 HD
ENDBRANCH  19  20
ENDBRANCH  18  19
ENDBRANCH  17  18
ENDBRANCH  16  17
BRANCH   1  25
HETATM   25  N1  UNL     1     -42.281 -31.190   0.313  1.00  0.00    -0.234 N 
ATOM     26  H12 UNL     1     -41.681 -30.586  -0.249  1.00  0.00     0.174 HD
ATOM     27  H11 UNL     1     -41.979 -31.513   1.233  1.00  0.00     0.174 HD
ENDBRANCH   1  25
TORSDOF 5
ENDMDL
MODEL 2
REMARK VINA RESULT: -8.146360041      2.594      5.570
REMARK  5 active torsions:
REMARK  status: ('A' for Active; 'I' for Inactive)
REMARK    1  A    between atoms: N1_1  and  C1_4 
REMARK    2  A    between atoms: N6_19  and  C7_20 
REMARK    3  A    between atoms: C7_20  and  C8_21 
REMARK    4  A    between atoms: C8_21  and  C9_22 
REMARK    5  A    between atoms: C9_22  and  N7_23 
ROOT
HETATM    1  C1  UNL     1     -48.179 -33.602   0.408  1.00  0.00     0.678 A 
HETATM    2  N2  UNL     1     -47.058 -33.119   0.974  1.00  0.00    -0.175 N 
ATOM      3  H2  UNL     1     -46.189 -33.645   0.879  1.00  0.00     0.186 HD
HETATM    4  C2  UNL     1     -47.050 -31.947   1.670  1.00  0.00     0.146 A 
HETATM    5  C3  UNL     1     -48.236 -31.289   1.762  1.00  0.00     0.118 A 
HETATM    6  C4  UNL     1     -49.364 -31.791   1.182  1.00  0.00     0.151 A 
HETATM    7  N3  UNL     1     -50.561 -31.031   1.332  1.00  0.00    -0.081 NA
HETATM    8  N4  UNL     1     -49.333 -32.941   0.510  1.00  0.00    -0.178 N 
ATOM      9  H4  UNL     1     -50.180 -33.311   0.079  1.00  0.00     0.185 HD
HETATM   10  C5  UNL     1     -48.248 -30.090   2.485  1.00  0.00     0.266 A 
HETATM   11  O1  UNL     1     -49.338 -29.479   2.574  1.00  0.00    -0.267 OA
HETATM   12  N5  UNL     1     -47.100 -29.671   3.036  1.00  0.00    -0.274 N 
ATOM     13  H5  UNL     1     -47.113 -28.797   3.561  1.00  0.00     0.173 HD
HETATM   14  C6  UNL     1     -45.941 -30.328   2.939  1.00  0.00     0.331 A 
HETATM   15  O2  UNL     1     -44.872 -29.884   3.483  1.00  0.00    -0.246 OA
HETATM   16  N6  UNL     1     -45.922 -31.487   2.240  1.00  0.00    -0.284 N 
ENDROOT
BRANCH  16  17
HETATM   17  C7  UNL     1     -44.691 -32.185   2.100  1.00  0.00     0.137 C 
BRANCH  17  18
HETATM   18  C8  UNL     1     -43.747 -31.709   1.064  1.00  0.00     0.040 C 
BRANCH  18  19
HETATM   19  C9  UNL     1     -44.354 -31.281  -0.240  1.00  0.00     0.123 C 
BRANCH  19  20
HETATM   20  N7  UNL     1     -44.324 -32.377  -1.213  1.00  0.00    -0.367 N 
HETATM   21  C10 UNL     1     -45.295 -32.582  -2.031  1.00  0.00     0.196 C 
HETATM   22  N8  UNL     1     -45.191 -33.665  -2.944  1.00  0.00    -0.067 NA
HETATM   23  N9  UNL     1     -46.466 -31.779  -2.064  1.00  0.00    -0.067 NA
ATOM     24  H7  UNL     1     -43.511 -32.993  -1.242  1.00  0.00     0.161 HD
ENDBRANCH  19  20
ENDBRANCH  18  19
ENDBRANCH  17  18
ENDBRANCH  16  17
BRANCH   1  25
HETATM   25  N1  UNL     1     -48.151 -34.711  -0.242  1.00  0.00    -0.234 N 
ATOM     26  H12 UNL     1     -48.679 -35.507   0.116  1.00  0.00     0.174 HD
ATOM     27  H11 UNL     1     -47.609 -34.789  -1.103  1.00  0.00     0.174 HD
ENDBRANCH   1  25
TORSDOF 5
ENDMDL
MODEL 3
REMARK VINA RESULT: -8.099422796      2.289      4.809
REMARK  5 active torsions:
REMARK  status: ('A' for Active; 'I' for Inactive)
REMARK    1  A    between atoms: N1_1  and  C1_4 
REMARK    2  A    between atoms: N6_19  and  C7_20 
REMARK    3  A    between atoms: C7_20  and  C8_21 
REMARK    4  A    between atoms: C8_21  and  C9_22 
REMARK    5  A    between atoms: C9_22  and  N7_23 
ROOT
HETATM    1  C1  UNL     1     -43.891 -30.548   3.517  1.00  0.00     0.678 A 
HETATM    2  N2  UNL     1     -45.120 -30.479   2.976  1.00  0.00    -0.175 N 
ATOM      3  H2  UNL     1     -45.893 -30.134   3.546  1.00  0.00     0.186 HD
HETATM    4  C2  UNL     1     -45.363 -30.857   1.690  1.00  0.00     0.146 A 
HETATM    5  C3  UNL     1     -44.296 -31.307   0.978  1.00  0.00     0.118 A 
HETATM    6  C4  UNL     1     -43.055 -31.370   1.541  1.00  0.00     0.151 A 
HETATM    7  N3  UNL     1     -41.996 -31.856   0.718  1.00  0.00    -0.081 NA
HETATM    8  N4  UNL     1     -42.856 -30.993   2.803  1.00  0.00    -0.178 N 
ATOM      9  H4  UNL     1     -41.925 -31.043   3.218  1.00  0.00     0.185 HD
HETATM   10  C5  UNL     1     -44.530 -31.712  -0.341  1.00  0.00     0.266 A 
HETATM   11  O1  UNL     1     -43.550 -32.128  -1.002  1.00  0.00    -0.267 OA
HETATM   12  N5  UNL     1     -45.781 -31.631  -0.816  1.00  0.00    -0.274 N 
ATOM     13  H5  UNL     1     -45.947 -31.926  -1.778  1.00  0.00     0.173 HD
HETATM   14  C6  UNL     1     -46.822 -31.187  -0.106  1.00  0.00     0.331 A 
HETATM   15  O2  UNL     1     -47.998 -31.129  -0.606  1.00  0.00    -0.246 OA
HETATM   16  N6  UNL     1     -46.602 -30.793   1.170  1.00  0.00    -0.284 N 
ENDROOT
BRANCH  16  17
HETATM   17  C7  UNL     1     -47.693 -30.290   1.932  1.00  0.00     0.137 C 
BRANCH  17  18
HETATM   18  C8  UNL     1     -48.397 -31.236   2.827  1.00  0.00     0.040 C 
BRANCH  18  19
HETATM   19  C9  UNL     1     -49.810 -31.575   2.454  1.00  0.00     0.123 C 
BRANCH  19  20
HETATM   20  N7  UNL     1     -50.266 -30.746   1.334  1.00  0.00    -0.367 N 
HETATM   21  C10 UNL     1     -51.180 -31.150   0.524  1.00  0.00     0.196 C 
HETATM   22  N8  UNL     1     -51.569 -30.288  -0.537  1.00  0.00    -0.067 NA
HETATM   23  N9  UNL     1     -51.820 -32.412   0.640  1.00  0.00    -0.067 NA
ATOM     24  H7  UNL     1     -49.848 -29.827   1.194  1.00  0.00     0.161 HD
ENDBRANCH  19  20
ENDBRANCH  18  19
ENDBRANCH  17  18
ENDBRANCH  16  17
BRANCH   1  25
HETATM   25  N1  UNL     1     -43.697 -30.183   4.734  1.00  0.00    -0.234 N 
ATOM     26  H12 UNL     1     -44.385 -29.581   5.186  1.00  0.00     0.174 HD
ATOM     27  H11 UNL     1     -42.867 -30.495   5.239  1.00  0.00     0.174 HD
ENDBRANCH   1  25
TORSDOF 5
ENDMDL
MODEL 4
REMARK VINA RESULT: -7.982815588      1.080      1.442
REMARK  5 active torsions:
REMARK  status: ('A' for Active; 'I' for Inactive)
REMARK    1  A    between atoms: N1_1  and  C1_4 
REMARK    2  A    between atoms: N6_19  and  C7_20 
REMARK    3  A    between atoms: C7_20  and  C8_21 
REMARK    4  A    between atoms: C8_21  and  C9_22 
REMARK    5  A    between atoms: C9_22  and  N7_23 
ROOT
HETATM    1  C1  UNL     1     -43.271 -31.532  -0.150  1.00  0.00     0.678 A 
HETATM    2  N2  UNL     1     -44.363 -31.197   0.560  1.00  0.00    -0.175 N 
ATOM      3  H2  UNL     1     -44.247 -30.697   1.441  1.00  0.00     0.186 HD
HETATM    4  C2  UNL     1     -45.620 -31.507   0.135  1.00  0.00     0.146 A 
HETATM    5  C3  UNL     1     -45.714 -32.173  -1.047  1.00  0.00     0.118 A 
HETATM    6  C4  UNL     1     -44.597 -32.504  -1.756  1.00  0.00     0.151 A 
HETATM    7  N3  UNL     1     -44.793 -33.201  -2.984  1.00  0.00    -0.081 NA
HETATM    8  N4  UNL     1     -43.383 -32.185  -1.308  1.00  0.00    -0.178 N 
ATOM      9  H4  UNL     1     -42.551 -32.436  -1.843  1.00  0.00     0.185 HD
HETATM   10  C5  UNL     1     -46.997 -32.511  -1.492  1.00  0.00     0.266 A 
HETATM   11  O1  UNL     1     -47.090 -33.125  -2.580  1.00  0.00    -0.267 OA
HETATM   12  N5  UNL     1     -48.044 -32.161  -0.731  1.00  0.00    -0.274 N 
ATOM     13  H5  UNL     1     -48.977 -32.408  -1.058  1.00  0.00     0.173 HD
HETATM   14  C6  UNL     1     -47.939 -31.507   0.430  1.00  0.00     0.331 A 
HETATM   15  O2  UNL     1     -48.970 -31.195   1.119  1.00  0.00    -0.246 OA
HETATM   16  N6  UNL     1     -46.700 -31.176   0.864  1.00  0.00    -0.284 N 
ENDROOT
BRANCH  16  17
HETATM   17  C7  UNL     1     -46.569 -30.455   2.083  1.00  0.00     0.137 C 
BRANCH  17  18
HETATM   18  C8  UNL     1     -46.160 -31.213   3.287  1.00  0.00     0.040 C 
BRANCH  18  19
HETATM   19  C9  UNL     1     -44.777 -30.943   3.803  1.00  0.00     0.123 C 
BRANCH  19  20
HETATM   20  N7  UNL     1     -44.251 -32.108   4.519  1.00  0.00    -0.367 N 
HETATM   21  C10 UNL     1     -43.196 -32.031   5.251  1.00  0.00     0.196 C 
HETATM   22  N8  UNL     1     -42.749 -33.206   5.914  1.00  0.00    -0.067 NA
HETATM   23  N9  UNL     1     -42.458 -30.832   5.428  1.00  0.00    -0.067 NA
ATOM     24  H7  UNL     1     -44.734 -33.003   4.435  1.00  0.00     0.161 HD
ENDBRANCH  19  20
ENDBRANCH  18  19
ENDBRANCH  17  18
ENDBRANCH  16  17
BRANCH   1  25
HETATM   25  N1  UNL     1     -42.099 -31.224   0.280  1.00  0.00    -0.234 N 
ATOM     26  H12 UNL     1     -42.015 -30.623   1.100  1.00  0.00     0.174 HD
ATOM     27  H11 UNL     1     -41.267 -31.577  -0.194  1.00  0.00     0.174 HD
ENDBRANCH   1  25
TORSDOF 5
ENDMDL
MODEL 5
REMARK VINA RESULT: -7.961724181      1.616      3.566
REMARK  5 active torsions:
REMARK  status: ('A' for Active; 'I' for Inactive)
REMARK    1  A    between atoms: N1_1  and  C1_4 
REMARK    2  A    between atoms: N6_19  and  C7_20 
REMARK    3  A    between atoms: C7_20  and  C8_21 
REMARK    4  A    between atoms: C8_21  and  C9_22 
REMARK    5  A    between atoms: C9_22  and  N7_23 
ROOT
HETATM    1  C1  UNL     1     -47.326 -30.143   1.731  1.00  0.00     0.678 A 
HETATM    2  N2  UNL     1     -46.052 -30.356   1.357  1.00  0.00    -0.175 N 
ATOM      3  H2  UNL     1     -45.299 -29.926   1.894  1.00  0.00     0.186 HD
HETATM    4  C2  UNL     1     -45.737 -31.130   0.280  1.00  0.00     0.146 A 
HETATM    5  C3  UNL     1     -46.781 -31.678  -0.398  1.00  0.00     0.118 A 
HETATM    6  C4  UNL     1     -48.068 -31.453  -0.006  1.00  0.00     0.151 A 
HETATM    7  N3  UNL     1     -49.096 -32.069  -0.777  1.00  0.00    -0.081 NA
HETATM    8  N4  UNL     1     -48.336 -30.689   1.053  1.00  0.00    -0.178 N 
ATOM      9  H4  UNL     1     -49.301 -30.524   1.341  1.00  0.00     0.185 HD
HETATM   10  C5  UNL     1     -46.477 -32.465  -1.515  1.00  0.00     0.266 A 
HETATM   11  O1  UNL     1     -47.434 -32.972  -2.144  1.00  0.00    -0.267 OA
HETATM   12  N5  UNL     1     -45.187 -32.627  -1.843  1.00  0.00    -0.274 N 
ATOM     13  H5  UNL     1     -44.969 -33.202  -2.657  1.00  0.00     0.173 HD
HETATM   14  C6  UNL     1     -44.170 -32.083  -1.169  1.00  0.00     0.331 A 
HETATM   15  O2  UNL     1     -42.955 -32.269  -1.523  1.00  0.00    -0.246 OA
HETATM   16  N6  UNL     1     -44.458 -31.322  -0.088  1.00  0.00    -0.284 N 
ENDROOT
BRANCH  16  17
HETATM   17  C7  UNL     1     -43.387 -30.757   0.660  1.00  0.00     0.137 C 
BRANCH  17  18
HETATM   18  C8  UNL     1     -42.713 -31.626   1.652  1.00  0.00     0.040 C 
BRANCH  18  19
HETATM   19  C9  UNL     1     -43.527 -32.025   2.847  1.00  0.00     0.123 C 
BRANCH  19  20
HETATM   20  N7  UNL     1     -43.004 -31.401   4.066  1.00  0.00    -0.367 N 
HETATM   21  C10 UNL     1     -43.527 -30.332   4.554  1.00  0.00     0.196 C 
HETATM   22  N8  UNL     1     -42.963 -29.787   5.739  1.00  0.00    -0.067 NA
HETATM   23  N9  UNL     1     -44.638 -29.671   3.968  1.00  0.00    -0.067 NA
ATOM     24  H7  UNL     1     -42.206 -31.825   4.538  1.00  0.00     0.161 HD
ENDBRANCH  19  20
ENDBRANCH  18  19
ENDBRANCH  17  18
ENDBRANCH  16  17
BRANCH   1  25
HETATM   25  N1  UNL     1     -47.586 -29.407   2.752  1.00  0.00    -0.234 N 
ATOM     26  H12 UNL     1     -47.590 -29.832   3.680  1.00  0.00     0.174 HD
ATOM     27  H11 UNL     1     -47.784 -28.413   2.633  1.00  0.00     0.174 HD
ENDBRANCH   1  25
TORSDOF 5
ENDMDL
