MODEL 1
REMARK VINA RESULT: -8.307237299      0.000      0.000
REMARK  8 active torsions:
REMARK  status: ('A' for Active; 'I' for Inactive)
REMARK    1  A    between atoms: C2_2  and  C3_3 
REMARK    2  A    between atoms: C3_3  and  C4_4 
REMARK    3  A    between atoms: C4_4  and  C5_5 
REMARK    4  A    between atoms: C5_5  and  C6_6 
REMARK    5  A    between atoms: C7_7  and  C8_8 
REMARK    6  A    between atoms: N1_10  and  C10_11 
REMARK    7  A    between atoms: C12_13  and  O1_14 
REMARK    8  A    between atoms: C13_16  and  C14_17 
ROOT
HETATM    1  C8  UNL     1     -14.443 -40.145 -11.813  1.00  0.00     0.101 A 
HETATM    2  C9  UNL     1     -13.408 -39.292 -11.531  1.00  0.00     0.124 A 
HETATM    3  N1  UNL     1     -13.001 -38.309 -12.368  1.00  0.00    -0.281 N 
HETATM    4  C20 UNL     1     -13.676 -38.198 -13.527  1.00  0.00     0.331 A 
HETATM    5  O3  UNL     1     -13.310 -37.293 -14.312  1.00  0.00    -0.246 OA
HETATM    6  N2  UNL     1     -14.706 -39.027 -13.838  1.00  0.00    -0.274 N 
ATOM      7  H2  UNL     1     -15.188 -38.905 -14.729  1.00  0.00     0.173 HD
HETATM    8  C21 UNL     1     -15.108 -40.003 -13.006  1.00  0.00     0.269 A 
HETATM    9  O4  UNL     1     -16.060 -40.787 -13.265  1.00  0.00    -0.266 OA
ENDROOT
BRANCH   3  10
HETATM   10  C10 UNL     1     -11.916 -37.486 -11.968  1.00  0.00     0.235 C 
HETATM   11  C11 UNL     1     -10.958 -38.204 -11.002  1.00  0.00     0.088 C 
HETATM   12  C12 UNL     1     -10.305 -36.912 -10.451  1.00  0.00     0.151 C 
HETATM   13  C13 UNL     1     -11.553 -36.155 -10.214  1.00  0.00     0.157 C 
HETATM   14  O2  UNL     1     -12.257 -36.289 -11.394  1.00  0.00    -0.358 OA
BRANCH  12  15
HETATM   15  O1  UNL     1      -9.586 -36.456 -11.580  1.00  0.00    -0.393 OA
ATOM     16  H1  UNL     1      -9.765 -35.524 -11.554  1.00  0.00     0.210 HD
ENDBRANCH  12  15
BRANCH  13  17
HETATM   17  C14 UNL     1     -11.457 -34.770  -9.678  1.00  0.00     0.017 C 
HETATM   18  C15 UNL     1     -10.516 -34.568  -8.555  1.00  0.00     0.007 C 
HETATM   19  C16 UNL     1     -11.101 -34.422  -7.191  1.00  0.00     0.000 C 
HETATM   20  C17 UNL     1     -12.183 -33.336  -7.275  1.00  0.00     0.000 C 
HETATM   21  C18 UNL     1     -13.288 -34.008  -8.103  1.00  0.00     0.000 C 
HETATM   22  C19 UNL     1     -12.836 -34.207  -9.496  1.00  0.00     0.007 C 
ENDBRANCH  13  17
ENDBRANCH   3  10
BRANCH   1  23
HETATM   23  C7  UNL     1     -14.860 -41.183 -10.909  1.00  0.00    -0.060 C 
HETATM   24  C6  UNL     1     -15.193 -42.050 -10.141  1.00  0.00    -0.101 C 
BRANCH  24  25
HETATM   25  C5  UNL     1     -15.589 -43.110  -9.178  1.00  0.00     0.094 C 
BRANCH  25  26
HETATM   26  C4  UNL     1     -15.233 -44.466  -9.686  1.00  0.00     0.012 C 
BRANCH  26  27
HETATM   27  C3  UNL     1     -14.881 -45.368  -8.537  1.00  0.00     0.000 C 
BRANCH  27  28
HETATM   28  C2  UNL     1     -14.512 -44.641  -7.278  1.00  0.00    -0.005 C 
HETATM   29  C1  UNL     1     -14.157 -45.638  -6.169  1.00  0.00     0.005 C 
ENDBRANCH  27  28
ENDBRANCH  26  27
ENDBRANCH  25  26
ENDBRANCH  24  25
ENDBRANCH   1  23
TORSDOF 8
ENDMDL
MODEL 2
REMARK VINA RESULT: -7.752736004      1.815      7.842
REMARK  8 active torsions:
REMARK  status: ('A' for Active; 'I' for Inactive)
REMARK    1  A    between atoms: C2_2  and  C3_3 
REMARK    2  A    between atoms: C3_3  and  C4_4 
REMARK    3  A    between atoms: C4_4  and  C5_5 
REMARK    4  A    between atoms: C5_5  and  C6_6 
REMARK    5  A    between atoms: C7_7  and  C8_8 
REMARK    6  A    between atoms: N1_10  and  C10_11 
REMARK    7  A    between atoms: C12_13  and  O1_14 
REMARK    8  A    between atoms: C13_16  and  C14_17 
ROOT
HETATM    1  C8  UNL     1     -11.219 -37.222 -11.478  1.00  0.00     0.101 A 
HETATM    2  C9  UNL     1     -12.394 -37.806 -11.873  1.00  0.00     0.124 A 
HETATM    3  N1  UNL     1     -12.473 -38.735 -12.854  1.00  0.00    -0.281 N 
HETATM    4  C20 UNL     1     -11.314 -39.073 -13.448  1.00  0.00     0.331 A 
HETATM    5  O3  UNL     1     -11.371 -39.932 -14.358  1.00  0.00    -0.246 OA
HETATM    6  N2  UNL     1     -10.132 -38.513 -13.081  1.00  0.00    -0.274 N 
ATOM      7  H2  UNL     1      -9.278 -38.800 -13.560  1.00  0.00     0.173 HD
HETATM    8  C21 UNL     1     -10.055 -37.590 -12.107  1.00  0.00     0.269 A 
HETATM    9  O4  UNL     1      -8.975 -37.053 -11.744  1.00  0.00    -0.266 OA
ENDROOT
BRANCH   3  10
HETATM   10  C10 UNL     1     -13.747 -39.272 -13.176  1.00  0.00     0.235 C 
HETATM   11  C11 UNL     1     -14.866 -38.220 -13.094  1.00  0.00     0.088 C 
HETATM   12  C12 UNL     1     -16.026 -39.242 -12.992  1.00  0.00     0.151 C 
HETATM   13  C13 UNL     1     -15.419 -40.114 -11.963  1.00  0.00     0.157 C 
HETATM   14  O2  UNL     1     -14.143 -40.353 -12.432  1.00  0.00    -0.358 OA
BRANCH  12  15
HETATM   15  O1  UNL     1     -16.009 -39.817 -14.285  1.00  0.00    -0.393 OA
ATOM     16  H1  UNL     1     -16.880 -39.603 -14.597  1.00  0.00     0.210 HD
ENDBRANCH  12  15
BRANCH  13  17
HETATM   17  C14 UNL     1     -16.172 -41.316 -11.512  1.00  0.00     0.017 C 
HETATM   18  C15 UNL     1     -16.121 -41.615 -10.065  1.00  0.00     0.007 C 
HETATM   19  C16 UNL     1     -15.237 -42.734  -9.629  1.00  0.00     0.000 C 
HETATM   20  C17 UNL     1     -15.600 -43.957 -10.485  1.00  0.00     0.000 C 
HETATM   21  C18 UNL     1     -15.082 -43.572 -11.879  1.00  0.00     0.000 C 
HETATM   22  C19 UNL     1     -15.885 -42.463 -12.435  1.00  0.00     0.007 C 
ENDBRANCH  13  17
ENDBRANCH   3  10
BRANCH   1  23
HETATM   23  C7  UNL     1     -11.157 -36.236 -10.432  1.00  0.00    -0.060 C 
HETATM   24  C6  UNL     1     -11.103 -35.425  -9.542  1.00  0.00    -0.101 C 
BRANCH  24  25
HETATM   25  C5  UNL     1     -11.030 -34.442  -8.431  1.00  0.00     0.094 C 
BRANCH  25  26
HETATM   26  C4  UNL     1     -12.376 -33.886  -8.108  1.00  0.00     0.012 C 
BRANCH  26  27
HETATM   27  C3  UNL     1     -12.482 -33.623  -6.632  1.00  0.00     0.000 C 
BRANCH  27  28
HETATM   28  C2  UNL     1     -11.253 -33.989  -5.855  1.00  0.00    -0.005 C 
HETATM   29  C1  UNL     1     -11.534 -33.929  -4.349  1.00  0.00     0.005 C 
ENDBRANCH  27  28
ENDBRANCH  26  27
ENDBRANCH  25  26
ENDBRANCH  24  25
ENDBRANCH   1  23
TORSDOF 8
ENDMDL
MODEL 3
REMARK VINA RESULT: -7.730751091      1.805      7.861
REMARK  8 active torsions:
REMARK  status: ('A' for Active; 'I' for Inactive)
REMARK    1  A    between atoms: C2_2  and  C3_3 
REMARK    2  A    between atoms: C3_3  and  C4_4 
REMARK    3  A    between atoms: C4_4  and  C5_5 
REMARK    4  A    between atoms: C5_5  and  C6_6 
REMARK    5  A    between atoms: C7_7  and  C8_8 
REMARK    6  A    between atoms: N1_10  and  C10_11 
REMARK    7  A    between atoms: C12_13  and  O1_14 
REMARK    8  A    between atoms: C13_16  and  C14_17 
ROOT
HETATM    1  C8  UNL     1     -11.233 -37.192 -11.435  1.00  0.00     0.101 A 
HETATM    2  C9  UNL     1     -12.400 -37.785 -11.841  1.00  0.00     0.124 A 
HETATM    3  N1  UNL     1     -12.468 -38.684 -12.851  1.00  0.00    -0.281 N 
HETATM    4  C20 UNL     1     -11.307 -38.982 -13.461  1.00  0.00     0.331 A 
HETATM    5  O3  UNL     1     -11.354 -39.812 -14.398  1.00  0.00    -0.246 OA
HETATM    6  N2  UNL     1     -10.133 -38.412 -13.084  1.00  0.00    -0.274 N 
ATOM      7  H2  UNL     1      -9.277 -38.669 -13.576  1.00  0.00     0.173 HD
HETATM    8  C21 UNL     1     -10.067 -37.520 -12.081  1.00  0.00     0.269 A 
HETATM    9  O4  UNL     1      -8.994 -36.974 -11.707  1.00  0.00    -0.266 OA
ENDROOT
BRANCH   3  10
HETATM   10  C10 UNL     1     -13.735 -39.233 -13.183  1.00  0.00     0.235 C 
HETATM   11  C11 UNL     1     -14.863 -38.190 -13.119  1.00  0.00     0.088 C 
HETATM   12  C12 UNL     1     -16.015 -39.221 -13.023  1.00  0.00     0.151 C 
HETATM   13  C13 UNL     1     -15.412 -40.082 -11.982  1.00  0.00     0.157 C 
HETATM   14  O2  UNL     1     -14.129 -40.312 -12.437  1.00  0.00    -0.358 OA
BRANCH  12  15
HETATM   15  O1  UNL     1     -15.980 -39.803 -14.312  1.00  0.00    -0.393 OA
ATOM     16  H1  UNL     1     -15.163 -39.458 -14.652  1.00  0.00     0.210 HD
ENDBRANCH  12  15
BRANCH  13  17
HETATM   17  C14 UNL     1     -16.160 -41.287 -11.531  1.00  0.00     0.017 C 
HETATM   18  C15 UNL     1     -16.151 -41.556 -10.078  1.00  0.00     0.007 C 
HETATM   19  C16 UNL     1     -15.265 -42.652  -9.591  1.00  0.00     0.000 C 
HETATM   20  C17 UNL     1     -15.579 -43.897 -10.433  1.00  0.00     0.000 C 
HETATM   21  C18 UNL     1     -15.021 -43.531 -11.817  1.00  0.00     0.000 C 
HETATM   22  C19 UNL     1     -15.823 -42.447 -12.422  1.00  0.00     0.007 C 
ENDBRANCH  13  17
ENDBRANCH   3  10
BRANCH   1  23
HETATM   23  C7  UNL     1     -11.182 -36.239 -10.359  1.00  0.00    -0.060 C 
HETATM   24  C6  UNL     1     -11.155 -35.430  -9.466  1.00  0.00    -0.101 C 
BRANCH  24  25
HETATM   25  C5  UNL     1     -11.142 -34.426  -8.370  1.00  0.00     0.094 C 
BRANCH  25  26
HETATM   26  C4  UNL     1     -12.483 -33.796  -8.195  1.00  0.00     0.012 C 
BRANCH  26  27
HETATM   27  C3  UNL     1     -12.731 -33.514  -6.741  1.00  0.00     0.000 C 
BRANCH  27  28
HETATM   28  C2  UNL     1     -14.180 -33.382  -6.381  1.00  0.00    -0.005 C 
HETATM   29  C1  UNL     1     -15.022 -33.120  -7.635  1.00  0.00     0.005 C 
ENDBRANCH  27  28
ENDBRANCH  26  27
ENDBRANCH  25  26
ENDBRANCH  24  25
ENDBRANCH   1  23
TORSDOF 8
ENDMDL
MODEL 4
REMARK VINA RESULT: -7.710782918      7.340     12.899
REMARK  8 active torsions:
REMARK  status: ('A' for Active; 'I' for Inactive)
REMARK    1  A    between atoms: C2_2  and  C3_3 
REMARK    2  A    between atoms: C3_3  and  C4_4 
REMARK    3  A    between atoms: C4_4  and  C5_5 
REMARK    4  A    between atoms: C5_5  and  C6_6 
REMARK    5  A    between atoms: C7_7  and  C8_8 
REMARK    6  A    between atoms: N1_10  and  C10_11 
REMARK    7  A    between atoms: C12_13  and  O1_14 
REMARK    8  A    between atoms: C13_16  and  C14_17 
ROOT
HETATM    1  C8  UNL     1     -14.937 -45.686  -6.804  1.00  0.00     0.101 A 
HETATM    2  C9  UNL     1     -15.771 -46.758  -6.984  1.00  0.00     0.124 A 
HETATM    3  N1  UNL     1     -15.802 -47.827  -6.154  1.00  0.00    -0.281 N 
HETATM    4  C20 UNL     1     -14.953 -47.795  -5.111  1.00  0.00     0.331 A 
HETATM    5  O3  UNL     1     -14.971 -48.778  -4.334  1.00  0.00    -0.246 OA
HETATM    6  N2  UNL     1     -14.113 -46.748  -4.904  1.00  0.00    -0.274 N 
ATOM      7  H2  UNL     1     -13.487 -46.768  -4.098  1.00  0.00     0.173 HD
HETATM    8  C21 UNL     1     -14.083 -45.688  -5.728  1.00  0.00     0.269 A 
HETATM    9  O4  UNL     1     -13.316 -44.702  -5.563  1.00  0.00    -0.266 OA
ENDROOT
BRANCH   3  10
HETATM   10  C10 UNL     1     -16.710 -48.880  -6.442  1.00  0.00     0.235 C 
HETATM   11  C11 UNL     1     -16.548 -49.423  -7.872  1.00  0.00     0.088 C 
HETATM   12  C12 UNL     1     -17.941 -50.097  -7.936  1.00  0.00     0.151 C 
HETATM   13  C13 UNL     1     -18.724 -48.963  -7.399  1.00  0.00     0.157 C 
HETATM   14  O2  UNL     1     -18.037 -48.587  -6.262  1.00  0.00    -0.358 OA
BRANCH  12  15
HETATM   15  O1  UNL     1     -17.785 -51.153  -7.007  1.00  0.00    -0.393 OA
ATOM     16  H1  UNL     1     -18.410 -50.906  -6.335  1.00  0.00     0.210 HD
ENDBRANCH  12  15
BRANCH  13  17
HETATM   17  C14 UNL     1     -20.195 -49.126  -7.236  1.00  0.00     0.017 C 
HETATM   18  C15 UNL     1     -20.655 -49.630  -5.925  1.00  0.00     0.007 C 
HETATM   19  C16 UNL     1     -21.086 -51.056  -5.854  1.00  0.00     0.000 C 
HETATM   20  C17 UNL     1     -22.109 -51.276  -6.978  1.00  0.00     0.000 C 
HETATM   21  C18 UNL     1     -21.251 -51.192  -8.250  1.00  0.00     0.000 C 
HETATM   22  C19 UNL     1     -20.759 -49.812  -8.445  1.00  0.00     0.007 C 
ENDBRANCH  13  17
ENDBRANCH   3  10
BRANCH   1  23
HETATM   23  C7  UNL     1     -14.919 -44.558  -7.697  1.00  0.00    -0.060 C 
HETATM   24  C6  UNL     1     -14.920 -43.622  -8.456  1.00  0.00    -0.101 C 
BRANCH  24  25
HETATM   25  C5  UNL     1     -14.943 -42.473  -9.397  1.00  0.00     0.094 C 
BRANCH  25  26
HETATM   26  C4  UNL     1     -15.872 -42.723 -10.538  1.00  0.00     0.012 C 
BRANCH  26  27
HETATM   27  C3  UNL     1     -15.187 -43.558 -11.582  1.00  0.00     0.000 C 
BRANCH  27  28
HETATM   28  C2  UNL     1     -15.831 -44.891 -11.820  1.00  0.00    -0.005 C 
HETATM   29  C1  UNL     1     -14.983 -46.011 -11.206  1.00  0.00     0.005 C 
ENDBRANCH  27  28
ENDBRANCH  26  27
ENDBRANCH  25  26
ENDBRANCH  24  25
ENDBRANCH   1  23
TORSDOF 8
ENDMDL
MODEL 5
REMARK VINA RESULT: -7.705724141      2.875      4.149
REMARK  8 active torsions:
REMARK  status: ('A' for Active; 'I' for Inactive)
REMARK    1  A    between atoms: C2_2  and  C3_3 
REMARK    2  A    between atoms: C3_3  and  C4_4 
REMARK    3  A    between atoms: C4_4  and  C5_5 
REMARK    4  A    between atoms: C5_5  and  C6_6 
REMARK    5  A    between atoms: C7_7  and  C8_8 
REMARK    6  A    between atoms: N1_10  and  C10_11 
REMARK    7  A    between atoms: C12_13  and  O1_14 
REMARK    8  A    between atoms: C13_16  and  C14_17 
ROOT
HETATM    1  C8  UNL     1     -17.639 -39.717 -12.636  1.00  0.00     0.101 A 
HETATM    2  C9  UNL     1     -16.921 -38.602 -12.980  1.00  0.00     0.124 A 
HETATM    3  N1  UNL     1     -17.485 -37.468 -13.457  1.00  0.00    -0.281 N 
HETATM    4  C20 UNL     1     -18.824 -37.479 -13.586  1.00  0.00     0.331 A 
HETATM    5  O3  UNL     1     -19.361 -36.436 -14.027  1.00  0.00    -0.246 OA
HETATM    6  N2  UNL     1     -19.566 -38.567 -13.255  1.00  0.00    -0.274 N 
ATOM      7  H2  UNL     1     -20.579 -38.529 -13.370  1.00  0.00     0.173 HD
HETATM    8  C21 UNL     1     -19.004 -39.692 -12.782  1.00  0.00     0.269 A 
HETATM    9  O4  UNL     1     -19.665 -40.718 -12.466  1.00  0.00    -0.266 OA
ENDROOT
BRANCH   3  10
HETATM   10  C10 UNL     1     -16.638 -36.374 -13.779  1.00  0.00     0.235 C 
HETATM   11  C11 UNL     1     -16.023 -36.501 -15.183  1.00  0.00     0.088 C 
HETATM   12  C12 UNL     1     -14.870 -35.496 -14.933  1.00  0.00     0.151 C 
HETATM   13  C13 UNL     1     -14.440 -36.025 -13.620  1.00  0.00     0.157 C 
HETATM   14  O2  UNL     1     -15.613 -36.137 -12.901  1.00  0.00    -0.358 OA
BRANCH  12  15
HETATM   15  O1  UNL     1     -15.578 -34.275 -14.833  1.00  0.00    -0.393 OA
ATOM     16  H1  UNL     1     -15.592 -34.141 -13.893  1.00  0.00     0.210 HD
ENDBRANCH  12  15
BRANCH  13  17
HETATM   17  C14 UNL     1     -13.316 -35.353 -12.914  1.00  0.00     0.017 C 
HETATM   18  C15 UNL     1     -12.280 -36.240 -12.342  1.00  0.00     0.007 C 
HETATM   19  C16 UNL     1     -12.300 -36.452 -10.867  1.00  0.00     0.000 C 
HETATM   20  C17 UNL     1     -12.336 -35.065 -10.210  1.00  0.00     0.000 C 
HETATM   21  C18 UNL     1     -13.745 -34.555 -10.549  1.00  0.00     0.000 C 
HETATM   22  C19 UNL     1     -13.860 -34.295 -11.999  1.00  0.00     0.007 C 
ENDBRANCH  13  17
ENDBRANCH   3  10
BRANCH   1  23
HETATM   23  C7  UNL     1     -17.020 -40.913 -12.130  1.00  0.00    -0.060 C 
HETATM   24  C6  UNL     1     -16.484 -41.903 -11.700  1.00  0.00    -0.101 C 
BRANCH  24  25
HETATM   25  C5  UNL     1     -15.811 -43.112 -11.159  1.00  0.00     0.094 C 
BRANCH  25  26
HETATM   26  C4  UNL     1     -15.518 -42.964  -9.704  1.00  0.00     0.012 C 
BRANCH  26  27
HETATM   27  C3  UNL     1     -15.141 -44.296  -9.119  1.00  0.00     0.000 C 
BRANCH  27  28
HETATM   28  C2  UNL     1     -14.793 -44.249  -7.662  1.00  0.00    -0.005 C 
HETATM   29  C1  UNL     1     -14.390 -45.641  -7.162  1.00  0.00     0.005 C 
ENDBRANCH  27  28
ENDBRANCH  26  27
ENDBRANCH  25  26
ENDBRANCH  24  25
ENDBRANCH   1  23
TORSDOF 8
ENDMDL
