MODEL 1
REMARK VINA RESULT: -7.077249260      0.000      0.000
REMARK  7 active torsions:
REMARK  status: ('A' for Active; 'I' for Inactive)
REMARK    1  A    between atoms: C2_2  and  C3_4 
REMARK    2  A    between atoms: C6_7  and  C7_8 
REMARK    3  A    between atoms: C13_16  and  O4_18 
REMARK    4  A    between atoms: O4_18  and  C15_19 
REMARK    5  A    between atoms: C15_19  and  C16_21 
REMARK    6  A    between atoms: C16_21  and  C17_22 
REMARK    7  A    between atoms: C17_22  and  C18_23 
ROOT
HETATM    1  C3  UNL     1     -15.021 -44.842  -8.924  1.00  0.00    -0.013 C 
HETATM    2  C4  UNL     1     -14.342 -44.084  -7.827  1.00  0.00     0.052 C 
HETATM    3  C5  UNL     1     -15.129 -46.146  -8.900  1.00  0.00    -0.048 C 
HETATM    4  C6  UNL     1     -14.658 -47.126  -7.845  1.00  0.00     0.122 C 
HETATM    5  C8  UNL     1     -15.824 -47.981  -8.330  1.00  0.00     0.019 C 
HETATM    6  C9  UNL     1     -15.622 -49.436  -8.235  1.00  0.00    -0.013 C 
HETATM    7  C10 UNL     1     -15.480 -49.934  -6.838  1.00  0.00     0.010 C 
HETATM    8  C11 UNL     1     -14.379 -49.895  -9.012  1.00  0.00     0.007 C 
HETATM    9  C12 UNL     1     -14.645 -49.479 -10.410  1.00  0.00     0.039 C 
HETATM   10  C13 UNL     1     -14.613 -48.002 -10.560  1.00  0.00     0.075 C 
HETATM   11  C14 UNL     1     -15.139 -47.766 -12.003  1.00  0.00     0.047 C 
HETATM   12  C19 UNL     1     -15.616 -47.325  -9.654  1.00  0.00     0.056 C 
ENDROOT
BRANCH  10  13
HETATM   13  O4  UNL     1     -13.409 -47.352 -10.395  1.00  0.00    -0.310 OA
BRANCH  13  14
HETATM   14  C15 UNL     1     -12.533 -47.147 -11.435  1.00  0.00     0.260 C 
HETATM   15  O5  UNL     1     -11.686 -48.050 -11.617  1.00  0.00    -0.265 OA
BRANCH  14  16
HETATM   16  C16 UNL     1     -12.566 -45.944 -12.302  1.00  0.00     0.121 C 
BRANCH  16  17
HETATM   17  C17 UNL     1     -11.973 -46.253 -13.647  1.00  0.00     0.123 C 
BRANCH  17  18
HETATM   18  C18 UNL     1     -11.855 -45.052 -14.499  1.00  0.00     0.172 C 
HETATM   19  O6  UNL     1     -11.457 -45.073 -15.686  1.00  0.00    -0.648 OA
HETATM   20  O7  UNL     1     -12.208 -43.802 -13.958  1.00  0.00    -0.648 OA
ENDBRANCH  17  18
ENDBRANCH  16  17
ENDBRANCH  14  16
ENDBRANCH  13  14
ENDBRANCH  10  13
BRANCH   1  21
HETATM   21  C2  UNL     1     -15.536 -44.043 -10.014  1.00  0.00     0.151 C 
HETATM   22  C1  UNL     1     -15.766 -42.573  -9.908  1.00  0.00     0.096 C 
HETATM   23  O1  UNL     1     -15.809 -44.576 -11.096  1.00  0.00    -0.293 OA
ENDBRANCH   1  21
BRANCH   4  24
HETATM   24  C7  UNL     1     -14.928 -46.724  -6.454  1.00  0.00     0.181 C 
HETATM   25  O2  UNL     1     -16.088 -46.582  -5.993  1.00  0.00    -0.647 OA
HETATM   26  O3  UNL     1     -13.892 -46.468  -5.532  1.00  0.00    -0.647 OA
ENDBRANCH   4  24
TORSDOF 7
ENDMDL
MODEL 2
REMARK VINA RESULT: -7.040923627      0.811      1.050
REMARK  7 active torsions:
REMARK  status: ('A' for Active; 'I' for Inactive)
REMARK    1  A    between atoms: C2_2  and  C3_4 
REMARK    2  A    between atoms: C6_7  and  C7_8 
REMARK    3  A    between atoms: C13_16  and  O4_18 
REMARK    4  A    between atoms: O4_18  and  C15_19 
REMARK    5  A    between atoms: C15_19  and  C16_21 
REMARK    6  A    between atoms: C16_21  and  C17_22 
REMARK    7  A    between atoms: C17_22  and  C18_23 
ROOT
HETATM    1  C3  UNL     1     -15.028 -44.672  -8.988  1.00  0.00    -0.013 C 
HETATM    2  C4  UNL     1     -14.311 -43.948  -7.892  1.00  0.00     0.052 C 
HETATM    3  C5  UNL     1     -15.130 -45.978  -9.004  1.00  0.00    -0.048 C 
HETATM    4  C6  UNL     1     -14.616 -46.990  -8.001  1.00  0.00     0.122 C 
HETATM    5  C8  UNL     1     -15.797 -47.834  -8.470  1.00  0.00     0.019 C 
HETATM    6  C9  UNL     1     -15.586 -49.290  -8.432  1.00  0.00    -0.013 C 
HETATM    7  C10 UNL     1     -15.391 -49.834  -7.058  1.00  0.00     0.010 C 
HETATM    8  C11 UNL     1     -14.371 -49.717  -9.269  1.00  0.00     0.007 C 
HETATM    9  C12 UNL     1     -14.690 -49.255 -10.642  1.00  0.00     0.039 C 
HETATM   10  C13 UNL     1     -14.669 -47.775 -10.743  1.00  0.00     0.075 C 
HETATM   11  C14 UNL     1     -15.249 -47.493 -12.157  1.00  0.00     0.047 C 
HETATM   12  C19 UNL     1     -15.641 -47.133  -9.779  1.00  0.00     0.056 C 
ENDROOT
BRANCH  10  13
HETATM   13  O4  UNL     1     -13.462 -47.124 -10.601  1.00  0.00    -0.310 OA
BRANCH  13  14
HETATM   14  C15 UNL     1     -12.457 -47.224 -11.534  1.00  0.00     0.260 C 
HETATM   15  O5  UNL     1     -11.703 -48.216 -11.416  1.00  0.00    -0.265 OA
BRANCH  14  16
HETATM   16  C16 UNL     1     -12.254 -46.235 -12.621  1.00  0.00     0.121 C 
BRANCH  16  17
HETATM   17  C17 UNL     1     -12.198 -46.926 -13.953  1.00  0.00     0.123 C 
BRANCH  17  18
HETATM   18  C18 UNL     1     -10.870 -46.812 -14.591  1.00  0.00     0.172 C 
HETATM   19  O6  UNL     1     -10.581 -45.950 -15.452  1.00  0.00    -0.648 OA
HETATM   20  O7  UNL     1      -9.861 -47.718 -14.218  1.00  0.00    -0.648 OA
ENDBRANCH  17  18
ENDBRANCH  16  17
ENDBRANCH  14  16
ENDBRANCH  13  14
ENDBRANCH  10  13
BRANCH   1  21
HETATM   21  C2  UNL     1     -15.586 -43.840 -10.031  1.00  0.00     0.151 C 
HETATM   22  C1  UNL     1     -15.834 -42.379  -9.862  1.00  0.00     0.096 C 
HETATM   23  O1  UNL     1     -15.883 -44.335 -11.125  1.00  0.00    -0.293 OA
ENDBRANCH   1  21
BRANCH   4  24
HETATM   24  C7  UNL     1     -14.836 -46.636  -6.588  1.00  0.00     0.181 C 
HETATM   25  O2  UNL     1     -15.979 -46.532  -6.075  1.00  0.00    -0.647 OA
HETATM   26  O3  UNL     1     -13.768 -46.385  -5.701  1.00  0.00    -0.647 OA
ENDBRANCH   4  24
TORSDOF 7
ENDMDL
MODEL 3
REMARK VINA RESULT: -6.673930483      1.639      1.875
REMARK  7 active torsions:
REMARK  status: ('A' for Active; 'I' for Inactive)
REMARK    1  A    between atoms: C2_2  and  C3_4 
REMARK    2  A    between atoms: C6_7  and  C7_8 
REMARK    3  A    between atoms: C13_16  and  O4_18 
REMARK    4  A    between atoms: O4_18  and  C15_19 
REMARK    5  A    between atoms: C15_19  and  C16_21 
REMARK    6  A    between atoms: C16_21  and  C17_22 
REMARK    7  A    between atoms: C17_22  and  C18_23 
ROOT
HETATM    1  C3  UNL     1     -14.952 -45.774  -8.550  1.00  0.00    -0.013 C 
HETATM    2  C4  UNL     1     -14.352 -45.383  -7.237  1.00  0.00     0.052 C 
HETATM    3  C5  UNL     1     -15.329 -47.003  -8.800  1.00  0.00    -0.048 C 
HETATM    4  C6  UNL     1     -15.279 -48.221  -7.901  1.00  0.00     0.122 C 
HETATM    5  C8  UNL     1     -16.483 -48.687  -8.714  1.00  0.00     0.019 C 
HETATM    6  C9  UNL     1     -16.608 -50.144  -8.878  1.00  0.00    -0.013 C 
HETATM    7  C10 UNL     1     -16.840 -50.876  -7.601  1.00  0.00     0.010 C 
HETATM    8  C11 UNL     1     -15.361 -50.756  -9.536  1.00  0.00     0.007 C 
HETATM    9  C12 UNL     1     -15.264 -50.072 -10.848  1.00  0.00     0.039 C 
HETATM   10  C13 UNL     1     -14.901 -48.641 -10.698  1.00  0.00     0.075 C 
HETATM   11  C14 UNL     1     -15.082 -48.062 -12.128  1.00  0.00     0.047 C 
HETATM   12  C19 UNL     1     -15.897 -47.898  -9.837  1.00  0.00     0.056 C 
ENDROOT
BRANCH  10  13
HETATM   13  O4  UNL     1     -13.642 -48.330 -10.229  1.00  0.00    -0.310 OA
BRANCH  13  14
HETATM   14  C15 UNL     1     -12.574 -48.122 -11.069  1.00  0.00     0.260 C 
HETATM   15  O5  UNL     1     -12.133 -46.951 -11.107  1.00  0.00    -0.265 OA
BRANCH  14  16
HETATM   16  C16 UNL     1     -11.964 -49.196 -11.891  1.00  0.00     0.121 C 
BRANCH  16  17
HETATM   17  C17 UNL     1     -11.178 -48.603 -13.026  1.00  0.00     0.123 C 
BRANCH  17  18
HETATM   18  C18 UNL     1     -11.987 -48.453 -14.253  1.00  0.00     0.172 C 
HETATM   19  O6  UNL     1     -12.270 -49.398 -15.023  1.00  0.00    -0.648 OA
HETATM   20  O7  UNL     1     -12.474 -47.177 -14.589  1.00  0.00    -0.648 OA
ENDBRANCH  17  18
ENDBRANCH  16  17
ENDBRANCH  14  16
ENDBRANCH  13  14
ENDBRANCH  10  13
BRANCH   1  21
HETATM   21  C2  UNL     1     -15.074 -44.714  -9.526  1.00  0.00     0.151 C 
HETATM   22  C1  UNL     1     -15.376 -43.300  -9.159  1.00  0.00     0.096 C 
HETATM   23  O1  UNL     1     -14.928 -44.960 -10.729  1.00  0.00    -0.293 OA
ENDBRANCH   1  21
BRANCH   4  24
HETATM   24  C7  UNL     1     -15.720 -47.991  -6.514  1.00  0.00     0.181 C 
HETATM   25  O2  UNL     1     -16.888 -47.637  -6.215  1.00  0.00    -0.647 OA
HETATM   26  O3  UNL     1     -14.854 -48.155  -5.414  1.00  0.00    -0.647 OA
ENDBRANCH   4  24
TORSDOF 7
ENDMDL
MODEL 4
REMARK VINA RESULT: -6.569875281      2.186      5.977
REMARK  7 active torsions:
REMARK  status: ('A' for Active; 'I' for Inactive)
REMARK    1  A    between atoms: C2_2  and  C3_4 
REMARK    2  A    between atoms: C6_7  and  C7_8 
REMARK    3  A    between atoms: C13_16  and  O4_18 
REMARK    4  A    between atoms: O4_18  and  C15_19 
REMARK    5  A    between atoms: C15_19  and  C16_21 
REMARK    6  A    between atoms: C16_21  and  C17_22 
REMARK    7  A    between atoms: C17_22  and  C18_23 
ROOT
HETATM    1  C3  UNL     1     -15.226 -44.618 -10.801  1.00  0.00    -0.013 C 
HETATM    2  C4  UNL     1     -15.818 -44.160 -12.096  1.00  0.00     0.052 C 
HETATM    3  C5  UNL     1     -14.602 -45.764 -10.692  1.00  0.00    -0.048 C 
HETATM    4  C6  UNL     1     -14.325 -46.808 -11.753  1.00  0.00     0.122 C 
HETATM    5  C8  UNL     1     -13.099 -47.132 -10.906  1.00  0.00     0.019 C 
HETATM    6  C9  UNL     1     -12.664 -48.537 -10.937  1.00  0.00    -0.013 C 
HETATM    7  C10 UNL     1     -12.198 -48.994 -12.277  1.00  0.00     0.010 C 
HETATM    8  C11 UNL     1     -13.781 -49.494 -10.491  1.00  0.00     0.007 C 
HETATM    9  C12 UNL     1     -14.106 -49.061  -9.111  1.00  0.00     0.039 C 
HETATM   10  C13 UNL     1     -14.769 -47.733  -9.091  1.00  0.00     0.075 C 
HETATM   11  C14 UNL     1     -14.808 -47.361  -7.584  1.00  0.00     0.047 C 
HETATM   12  C19 UNL     1     -13.913 -46.670  -9.743  1.00  0.00     0.056 C 
ENDROOT
BRANCH  10  13
HETATM   13  O4  UNL     1     -16.035 -47.624  -9.627  1.00  0.00    -0.310 OA
BRANCH  13  14
HETATM   14  C15 UNL     1     -16.854 -48.714  -9.807  1.00  0.00     0.260 C 
HETATM   15  O5  UNL     1     -17.205 -48.939 -10.988  1.00  0.00    -0.265 OA
BRANCH  14  16
HETATM   16  C16 UNL     1     -17.311 -49.582  -8.695  1.00  0.00     0.121 C 
BRANCH  16  17
HETATM   17  C17 UNL     1     -18.615 -49.081  -8.144  1.00  0.00     0.123 C 
BRANCH  17  18
HETATM   18  C18 UNL     1     -18.546 -48.810  -6.693  1.00  0.00     0.172 C 
HETATM   19  O6  UNL     1     -17.482 -48.582  -6.074  1.00  0.00    -0.648 OA
HETATM   20  O7  UNL     1     -19.741 -48.802  -5.950  1.00  0.00    -0.648 OA
ENDBRANCH  17  18
ENDBRANCH  16  17
ENDBRANCH  14  16
ENDBRANCH  13  14
ENDBRANCH  10  13
BRANCH   1  21
HETATM   21  C2  UNL     1     -15.402 -43.723  -9.679  1.00  0.00     0.151 C 
HETATM   22  C1  UNL     1     -15.730 -42.276  -9.835  1.00  0.00     0.096 C 
HETATM   23  O1  UNL     1     -15.281 -44.148  -8.524  1.00  0.00    -0.293 OA
ENDBRANCH   1  21
BRANCH   4  24
HETATM   24  C7  UNL     1     -13.863 -46.275 -13.047  1.00  0.00     0.181 C 
HETATM   25  O2  UNL     1     -14.448 -46.509 -14.135  1.00  0.00    -0.647 OA
HETATM   26  O3  UNL     1     -12.719 -45.457 -13.157  1.00  0.00    -0.647 OA
ENDBRANCH   4  24
TORSDOF 7
ENDMDL
MODEL 5
REMARK VINA RESULT: -6.338798505      7.856     11.397
REMARK  7 active torsions:
REMARK  status: ('A' for Active; 'I' for Inactive)
REMARK    1  A    between atoms: C2_2  and  C3_4 
REMARK    2  A    between atoms: C6_7  and  C7_8 
REMARK    3  A    between atoms: C13_16  and  O4_18 
REMARK    4  A    between atoms: O4_18  and  C15_19 
REMARK    5  A    between atoms: C15_19  and  C16_21 
REMARK    6  A    between atoms: C16_21  and  C17_22 
REMARK    7  A    between atoms: C17_22  and  C18_23 
ROOT
HETATM    1  C3  UNL     1     -15.620 -35.982 -14.361  1.00  0.00    -0.013 C 
HETATM    2  C4  UNL     1     -17.109 -35.856 -14.278  1.00  0.00     0.052 C 
HETATM    3  C5  UNL     1     -14.967 -36.917 -13.718  1.00  0.00    -0.048 C 
HETATM    4  C6  UNL     1     -15.503 -38.019 -12.829  1.00  0.00     0.122 C 
HETATM    5  C8  UNL     1     -14.269 -38.789 -13.289  1.00  0.00     0.019 C 
HETATM    6  C9  UNL     1     -13.716 -39.738 -12.309  1.00  0.00    -0.013 C 
HETATM    7  C10 UNL     1     -14.633 -40.865 -11.979  1.00  0.00     0.010 C 
HETATM    8  C11 UNL     1     -13.345 -39.047 -10.987  1.00  0.00     0.007 C 
HETATM    9  C12 UNL     1     -12.342 -38.027 -11.374  1.00  0.00     0.039 C 
HETATM   10  C13 UNL     1     -12.950 -36.931 -12.170  1.00  0.00     0.075 C 
HETATM   11  C14 UNL     1     -11.726 -36.114 -12.668  1.00  0.00     0.047 C 
HETATM   12  C19 UNL     1     -13.617 -37.453 -13.422  1.00  0.00     0.056 C 
ENDROOT
BRANCH  10  13
HETATM   13  O4  UNL     1     -13.847 -36.089 -11.549  1.00  0.00    -0.310 OA
BRANCH  13  14
HETATM   14  C15 UNL     1     -13.487 -34.848 -11.077  1.00  0.00     0.260 C 
HETATM   15  O5  UNL     1     -13.484 -33.926 -11.924  1.00  0.00    -0.265 OA
BRANCH  14  16
HETATM   16  C16 UNL     1     -13.120 -34.589  -9.664  1.00  0.00     0.121 C 
BRANCH  16  17
HETATM   17  C17 UNL     1     -11.653 -34.833  -9.452  1.00  0.00     0.123 C 
BRANCH  17  18
HETATM   18  C18 UNL     1     -11.170 -34.279  -8.170  1.00  0.00     0.172 C 
HETATM   19  O6  UNL     1     -11.806 -33.449  -7.483  1.00  0.00    -0.648 OA
HETATM   20  O7  UNL     1      -9.920 -34.702  -7.681  1.00  0.00    -0.648 OA
ENDBRANCH  17  18
ENDBRANCH  16  17
ENDBRANCH  14  16
ENDBRANCH  13  14
ENDBRANCH  10  13
BRANCH   1  21
HETATM   21  C2  UNL     1     -14.952 -34.998 -15.183  1.00  0.00     0.151 C 
HETATM   22  C1  UNL     1     -14.966 -33.537 -14.879  1.00  0.00     0.096 C 
HETATM   23  O1  UNL     1     -14.332 -35.352 -16.193  1.00  0.00    -0.293 OA
ENDBRANCH   1  21
BRANCH   4  24
HETATM   24  C7  UNL     1     -16.697 -38.713 -13.344  1.00  0.00     0.181 C 
HETATM   25  O2  UNL     1     -17.777 -38.787 -12.706  1.00  0.00    -0.647 OA
HETATM   26  O3  UNL     1     -16.711 -39.348 -14.603  1.00  0.00    -0.647 OA
ENDBRANCH   4  24
TORSDOF 7
ENDMDL
