MODEL 1
REMARK VINA RESULT: -6.736654742      0.000      0.000
REMARK  8 active torsions:
REMARK  status: ('A' for Active; 'I' for Inactive)
REMARK    1  A    between atoms: C2_2  and  C3_3 
REMARK    2  A    between atoms: C3_3  and  O1_4 
REMARK    3  A    between atoms: C3_3  and  C6_8 
REMARK    4  A    between atoms: O1_4  and  C4_5 
REMARK    5  A    between atoms: C8_11  and  C9_12 
REMARK    6  A    between atoms: C9_12  and  C10_13 
REMARK    7  A    between atoms: C20_23  and  O4_24 
REMARK    8  A    between atoms: C21_26  and  O5_27 
ROOT
HETATM    1  C6  UNL     1     -15.276 -48.228  -6.737  1.00  0.00     0.116 C 
HETATM    2  C7  UNL     1     -15.175 -47.817  -8.178  1.00  0.00     0.140 C 
HETATM    3  O3  UNL     1     -15.127 -48.702  -8.995  1.00  0.00    -0.297 OA
HETATM    4  C8  UNL     1     -15.131 -46.425  -8.635  1.00  0.00     0.059 C 
HETATM    5  C19 UNL     1     -14.424 -45.649  -7.481  1.00  0.00     0.046 C 
HETATM    6  C20 UNL     1     -15.257 -45.744  -6.249  1.00  0.00     0.148 C 
HETATM    7  C21 UNL     1     -15.359 -47.165  -5.744  1.00  0.00     0.160 C 
ENDROOT
BRANCH   4   8
HETATM    8  C9  UNL     1     -14.370 -46.111  -9.838  1.00  0.00     0.022 C 
BRANCH   8   9
HETATM    9  C10 UNL     1     -14.977 -45.843 -11.139  1.00  0.00     0.022 C 
HETATM   10  C11 UNL     1     -14.074 -46.470 -12.198  1.00  0.00    -0.083 C 
HETATM   11  C12 UNL     1     -13.691 -47.914 -11.914  1.00  0.00     0.043 C 
HETATM   12  C13 UNL     1     -13.655 -45.843 -13.256  1.00  0.00    -0.024 C 
HETATM   13  C14 UNL     1     -13.972 -44.436 -13.614  1.00  0.00     0.028 C 
HETATM   14  C15 UNL     1     -14.115 -43.753 -12.263  1.00  0.00     0.013 C 
HETATM   15  C16 UNL     1     -15.297 -44.482 -11.577  1.00  0.00    -0.040 C 
HETATM   16  C17 UNL     1     -15.824 -43.490 -10.604  1.00  0.00     0.015 C 
HETATM   17  C18 UNL     1     -16.353 -44.526 -12.712  1.00  0.00     0.015 C 
ENDBRANCH   8   9
ENDBRANCH   4   8
BRANCH   1  18
HETATM   18  C3  UNL     1     -16.300 -49.311  -6.528  1.00  0.00     0.145 C 
BRANCH  18  19
HETATM   19  C2  UNL     1     -15.967 -50.241  -5.401  1.00  0.00     0.029 C 
HETATM   20  C1  UNL     1     -16.581 -51.582  -5.395  1.00  0.00     0.007 C 
ENDBRANCH  18  19
BRANCH  18  21
HETATM   21  O1  UNL     1     -17.484 -48.538  -6.146  1.00  0.00    -0.315 OA
BRANCH  21  22
HETATM   22  C4  UNL     1     -18.726 -48.824  -6.673  1.00  0.00     0.255 C 
HETATM   23  C5  UNL     1     -18.884 -49.174  -8.132  1.00  0.00     0.126 C 
HETATM   24  O2  UNL     1     -19.714 -48.787  -5.909  1.00  0.00    -0.266 OA
ENDBRANCH  21  22
ENDBRANCH  18  21
ENDBRANCH   1  18
BRANCH   6  25
HETATM   25  O4  UNL     1     -14.648 -44.992  -5.247  1.00  0.00    -0.393 OA
ATOM     26  H4  UNL     1     -13.980 -45.527  -4.835  1.00  0.00     0.210 HD
ENDBRANCH   6  25
BRANCH   7  27
HETATM   27  O5  UNL     1     -14.236 -47.333  -4.864  1.00  0.00    -0.392 OA
ATOM     28  H5  UNL     1     -13.541 -47.725  -5.380  1.00  0.00     0.210 HD
ENDBRANCH   7  27
TORSDOF 8
ENDMDL
MODEL 2
REMARK VINA RESULT: -6.657507979      2.008      3.944
REMARK  8 active torsions:
REMARK  status: ('A' for Active; 'I' for Inactive)
REMARK    1  A    between atoms: C2_2  and  C3_3 
REMARK    2  A    between atoms: C3_3  and  O1_4 
REMARK    3  A    between atoms: C3_3  and  C6_8 
REMARK    4  A    between atoms: O1_4  and  C4_5 
REMARK    5  A    between atoms: C8_11  and  C9_12 
REMARK    6  A    between atoms: C9_12  and  C10_13 
REMARK    7  A    between atoms: C20_23  and  O4_24 
REMARK    8  A    between atoms: C21_26  and  O5_27 
ROOT
HETATM    1  C6  UNL     1     -14.801 -48.812  -9.599  1.00  0.00     0.116 C 
HETATM    2  C7  UNL     1     -15.459 -47.469  -9.730  1.00  0.00     0.140 C 
HETATM    3  O3  UNL     1     -16.623 -47.400  -9.420  1.00  0.00    -0.297 OA
HETATM    4  C8  UNL     1     -14.778 -46.261 -10.205  1.00  0.00     0.059 C 
HETATM    5  C19 UNL     1     -13.704 -46.781 -11.212  1.00  0.00     0.046 C 
HETATM    6  C20 UNL     1     -12.735 -47.647 -10.484  1.00  0.00     0.148 C 
HETATM    7  C21 UNL     1     -13.389 -48.900  -9.948  1.00  0.00     0.160 C 
ENDROOT
BRANCH   4   8
HETATM    8  C9  UNL     1     -15.552 -45.269 -10.941  1.00  0.00     0.022 C 
BRANCH   8   9
HETATM    9  C10 UNL     1     -15.075 -43.921 -11.238  1.00  0.00     0.022 C 
HETATM   10  C11 UNL     1     -15.494 -43.025 -10.077  1.00  0.00    -0.083 C 
HETATM   11  C12 UNL     1     -15.144 -43.580  -8.704  1.00  0.00     0.043 C 
HETATM   12  C13 UNL     1     -16.100 -41.885 -10.223  1.00  0.00    -0.024 C 
HETATM   13  C14 UNL     1     -16.486 -41.267 -11.518  1.00  0.00     0.028 C 
HETATM   14  C15 UNL     1     -16.773 -42.465 -12.408  1.00  0.00     0.013 C 
HETATM   15  C16 UNL     1     -15.430 -43.232 -12.482  1.00  0.00    -0.040 C 
HETATM   16  C17 UNL     1     -15.511 -43.991 -13.757  1.00  0.00     0.015 C 
HETATM   17  C18 UNL     1     -14.419 -42.090 -12.761  1.00  0.00     0.015 C 
ENDBRANCH   8   9
ENDBRANCH   4   8
BRANCH   1  18
HETATM   18  C3  UNL     1     -15.126 -49.477  -8.288  1.00  0.00     0.145 C 
BRANCH  18  19
HETATM   19  C2  UNL     1     -14.413 -50.779  -8.083  1.00  0.00     0.029 C 
HETATM   20  C1  UNL     1     -14.566 -51.464  -6.786  1.00  0.00     0.007 C 
ENDBRANCH  18  19
BRANCH  18  21
HETATM   21  O1  UNL     1     -14.599 -48.512  -7.321  1.00  0.00    -0.315 OA
BRANCH  21  22
HETATM   22  C4  UNL     1     -15.435 -47.838  -6.455  1.00  0.00     0.255 C 
HETATM   23  C5  UNL     1     -15.209 -46.379  -6.143  1.00  0.00     0.126 C 
HETATM   24  O2  UNL     1     -16.382 -48.467  -5.939  1.00  0.00    -0.266 OA
ENDBRANCH  21  22
ENDBRANCH  18  21
ENDBRANCH   1  18
BRANCH   6  25
HETATM   25  O4  UNL     1     -11.746 -48.049 -11.380  1.00  0.00    -0.393 OA
ATOM     26  H4  UNL     1     -11.469 -48.927 -11.147  1.00  0.00     0.210 HD
ENDBRANCH   6  25
BRANCH   7  27
HETATM   27  O5  UNL     1     -13.285 -49.864 -11.008  1.00  0.00    -0.392 OA
ATOM     28  H5  UNL     1     -12.600 -50.472 -10.758  1.00  0.00     0.210 HD
ENDBRANCH   7  27
TORSDOF 8
ENDMDL
MODEL 3
REMARK VINA RESULT: -6.473521100      0.995      2.260
REMARK  8 active torsions:
REMARK  status: ('A' for Active; 'I' for Inactive)
REMARK    1  A    between atoms: C2_2  and  C3_3 
REMARK    2  A    between atoms: C3_3  and  O1_4 
REMARK    3  A    between atoms: C3_3  and  C6_8 
REMARK    4  A    between atoms: O1_4  and  C4_5 
REMARK    5  A    between atoms: C8_11  and  C9_12 
REMARK    6  A    between atoms: C9_12  and  C10_13 
REMARK    7  A    between atoms: C20_23  and  O4_24 
REMARK    8  A    between atoms: C21_26  and  O5_27 
ROOT
HETATM    1  C6  UNL     1     -15.391 -48.560  -6.810  1.00  0.00     0.116 C 
HETATM    2  C7  UNL     1     -14.928 -48.223  -8.198  1.00  0.00     0.140 C 
HETATM    3  O3  UNL     1     -14.737 -49.148  -8.948  1.00  0.00    -0.297 OA
HETATM    4  C8  UNL     1     -14.699 -46.859  -8.681  1.00  0.00     0.059 C 
HETATM    5  C19 UNL     1     -14.243 -46.062  -7.418  1.00  0.00     0.046 C 
HETATM    6  C20 UNL     1     -15.349 -46.059  -6.420  1.00  0.00     0.148 C 
HETATM    7  C21 UNL     1     -15.648 -47.448  -5.904  1.00  0.00     0.160 C 
ENDROOT
BRANCH   4   8
HETATM    8  C9  UNL     1     -13.657 -46.638  -9.676  1.00  0.00     0.022 C 
BRANCH   8   9
HETATM    9  C10 UNL     1     -13.920 -46.421 -11.096  1.00  0.00     0.022 C 
HETATM   10  C11 UNL     1     -15.212 -45.615 -11.200  1.00  0.00    -0.083 C 
HETATM   11  C12 UNL     1     -15.251 -44.383 -10.307  1.00  0.00     0.043 C 
HETATM   12  C13 UNL     1     -16.205 -45.935 -11.974  1.00  0.00    -0.024 C 
HETATM   13  C14 UNL     1     -16.259 -47.117 -12.873  1.00  0.00     0.028 C 
HETATM   14  C15 UNL     1     -15.428 -48.156 -12.139  1.00  0.00     0.013 C 
HETATM   15  C16 UNL     1     -14.013 -47.534 -12.044  1.00  0.00    -0.040 C 
HETATM   16  C17 UNL     1     -13.107 -48.704 -11.911  1.00  0.00     0.015 C 
HETATM   17  C18 UNL     1     -13.788 -47.018 -13.489  1.00  0.00     0.015 C 
ENDBRANCH   8   9
ENDBRANCH   4   8
BRANCH   1  18
HETATM   18  C3  UNL     1     -16.495 -49.583  -6.814  1.00  0.00     0.145 C 
BRANCH  18  19
HETATM   19  C2  UNL     1     -16.183 -50.805  -6.005  1.00  0.00     0.029 C 
HETATM   20  C1  UNL     1     -14.831 -51.386  -6.108  1.00  0.00     0.007 C 
ENDBRANCH  18  19
BRANCH  18  21
HETATM   21  O1  UNL     1     -17.580 -48.860  -6.147  1.00  0.00    -0.315 OA
BRANCH  21  22
HETATM   22  C4  UNL     1     -18.876 -48.923  -6.616  1.00  0.00     0.255 C 
HETATM   23  C5  UNL     1     -19.156 -49.130  -8.084  1.00  0.00     0.126 C 
HETATM   24  O2  UNL     1     -19.808 -48.805  -5.793  1.00  0.00    -0.266 OA
ENDBRANCH  21  22
ENDBRANCH  18  21
ENDBRANCH   1  18
BRANCH   6  25
HETATM   25  O4  UNL     1     -14.954 -45.289  -5.328  1.00  0.00    -0.393 OA
ATOM     26  H4  UNL     1     -14.432 -45.834  -4.750  1.00  0.00     0.210 HD
ENDBRANCH   6  25
BRANCH   7  27
HETATM   27  O5  UNL     1     -14.777 -47.626  -4.775  1.00  0.00    -0.392 OA
ATOM     28  H5  UNL     1     -13.953 -47.208  -4.996  1.00  0.00     0.210 HD
ENDBRANCH   7  27
TORSDOF 8
ENDMDL
MODEL 4
REMARK VINA RESULT: -6.454964209      3.555      7.684
REMARK  8 active torsions:
REMARK  status: ('A' for Active; 'I' for Inactive)
REMARK    1  A    between atoms: C2_2  and  C3_3 
REMARK    2  A    between atoms: C3_3  and  O1_4 
REMARK    3  A    between atoms: C3_3  and  C6_8 
REMARK    4  A    between atoms: O1_4  and  C4_5 
REMARK    5  A    between atoms: C8_11  and  C9_12 
REMARK    6  A    between atoms: C9_12  and  C10_13 
REMARK    7  A    between atoms: C20_23  and  O4_24 
REMARK    8  A    between atoms: C21_26  and  O5_27 
ROOT
HETATM    1  C6  UNL     1     -15.168 -43.132 -11.040  1.00  0.00     0.116 C 
HETATM    2  C7  UNL     1     -15.398 -44.017  -9.849  1.00  0.00     0.140 C 
HETATM    3  O3  UNL     1     -15.563 -43.469  -8.787  1.00  0.00    -0.297 OA
HETATM    4  C8  UNL     1     -15.432 -45.481  -9.904  1.00  0.00     0.059 C 
HETATM    5  C19 UNL     1     -14.455 -45.857 -11.063  1.00  0.00     0.046 C 
HETATM    6  C20 UNL     1     -14.979 -45.296 -12.341  1.00  0.00     0.148 C 
HETATM    7  C21 UNL     1     -14.992 -43.785 -12.330  1.00  0.00     0.160 C 
ENDROOT
BRANCH   4   8
HETATM    8  C9  UNL     1     -14.967 -46.234  -8.746  1.00  0.00     0.022 C 
BRANCH   8   9
HETATM    9  C10 UNL     1     -15.855 -46.831  -7.753  1.00  0.00     0.022 C 
HETATM   10  C11 UNL     1     -15.177 -46.686  -6.393  1.00  0.00    -0.083 C 
HETATM   11  C12 UNL     1     -14.674 -45.282  -6.094  1.00  0.00     0.043 C 
HETATM   12  C13 UNL     1     -15.029 -47.663  -5.549  1.00  0.00    -0.024 C 
HETATM   13  C14 UNL     1     -15.482 -49.064  -5.755  1.00  0.00     0.028 C 
HETATM   14  C15 UNL     1     -15.359 -49.257  -7.258  1.00  0.00     0.013 C 
HETATM   15  C16 UNL     1     -16.326 -48.214  -7.869  1.00  0.00    -0.040 C 
HETATM   16  C17 UNL     1     -16.674 -48.772  -9.202  1.00  0.00     0.015 C 
HETATM   17  C18 UNL     1     -17.602 -48.411  -7.010  1.00  0.00     0.015 C 
ENDBRANCH   8   9
ENDBRANCH   4   8
BRANCH   1  18
HETATM   18  C3  UNL     1     -16.139 -41.983 -11.088  1.00  0.00     0.145 C 
BRANCH  18  19
HETATM   19  C2  UNL     1     -15.594 -40.714 -10.507  1.00  0.00     0.029 C 
HETATM   20  C1  UNL     1     -14.133 -40.517 -10.500  1.00  0.00     0.007 C 
ENDBRANCH  18  19
BRANCH  18  21
HETATM   21  O1  UNL     1     -16.307 -41.789 -12.530  1.00  0.00    -0.315 OA
BRANCH  21  22
HETATM   22  C4  UNL     1     -17.089 -40.768 -13.028  1.00  0.00     0.255 C 
HETATM   23  C5  UNL     1     -18.558 -40.687 -12.695  1.00  0.00     0.126 C 
HETATM   24  O2  UNL     1     -16.546 -39.913 -13.760  1.00  0.00    -0.266 OA
ENDBRANCH  21  22
ENDBRANCH  18  21
ENDBRANCH   1  18
BRANCH   6  25
HETATM   25  O4  UNL     1     -14.134 -45.695 -13.374  1.00  0.00    -0.393 OA
ATOM     26  H4  UNL     1     -13.522 -44.990 -13.551  1.00  0.00     0.210 HD
ENDBRANCH   6  25
BRANCH   7  27
HETATM   27  O5  UNL     1     -13.697 -43.393 -12.817  1.00  0.00    -0.392 OA
ATOM     28  H5  UNL     1     -13.232 -43.014 -12.081  1.00  0.00     0.210 HD
ENDBRANCH   7  27
TORSDOF 8
ENDMDL
MODEL 5
REMARK VINA RESULT: -6.330825423      7.225     11.087
REMARK  8 active torsions:
REMARK  status: ('A' for Active; 'I' for Inactive)
REMARK    1  A    between atoms: C2_2  and  C3_3 
REMARK    2  A    between atoms: C3_3  and  O1_4 
REMARK    3  A    between atoms: C3_3  and  C6_8 
REMARK    4  A    between atoms: O1_4  and  C4_5 
REMARK    5  A    between atoms: C8_11  and  C9_12 
REMARK    6  A    between atoms: C9_12  and  C10_13 
REMARK    7  A    between atoms: C20_23  and  O4_24 
REMARK    8  A    between atoms: C21_26  and  O5_27 
ROOT
HETATM    1  C6  UNL     1     -13.016 -36.945 -12.821  1.00  0.00     0.116 C 
HETATM    2  C7  UNL     1     -13.314 -38.415 -12.758  1.00  0.00     0.140 C 
HETATM    3  O3  UNL     1     -12.368 -39.161 -12.703  1.00  0.00    -0.297 OA
HETATM    4  C8  UNL     1     -14.665 -38.982 -12.761  1.00  0.00     0.059 C 
HETATM    5  C19 UNL     1     -15.515 -37.980 -13.605  1.00  0.00     0.046 C 
HETATM    6  C20 UNL     1     -15.530 -36.658 -12.918  1.00  0.00     0.148 C 
HETATM    7  C21 UNL     1     -14.154 -36.035 -12.863  1.00  0.00     0.160 C 
ENDROOT
BRANCH   4   8
HETATM    8  C9  UNL     1     -14.873 -40.285 -13.381  1.00  0.00     0.022 C 
BRANCH   8   9
HETATM    9  C10 UNL     1     -14.769 -41.553 -12.665  1.00  0.00     0.022 C 
HETATM   10  C11 UNL     1     -14.395 -42.622 -13.687  1.00  0.00    -0.083 C 
HETATM   11  C12 UNL     1     -13.219 -42.248 -14.577  1.00  0.00     0.043 C 
HETATM   12  C13 UNL     1     -15.014 -43.758 -13.808  1.00  0.00    -0.024 C 
HETATM   13  C14 UNL     1     -16.171 -44.207 -12.991  1.00  0.00     0.028 C 
HETATM   14  C15 UNL     1     -16.897 -42.912 -12.667  1.00  0.00     0.013 C 
HETATM   15  C16 UNL     1     -15.874 -42.078 -11.858  1.00  0.00    -0.040 C 
HETATM   16  C17 UNL     1     -16.711 -41.154 -11.050  1.00  0.00     0.015 C 
HETATM   17  C18 UNL     1     -15.338 -43.120 -10.842  1.00  0.00     0.015 C 
ENDBRANCH   8   9
ENDBRANCH   4   8
BRANCH   1  18
HETATM   18  C3  UNL     1     -11.971 -36.535 -11.818  1.00  0.00     0.145 C 
BRANCH  18  19
HETATM   19  C2  UNL     1     -10.609 -36.345 -12.414  1.00  0.00     0.029 C 
HETATM   20  C1  UNL     1      -9.518 -37.229 -11.965  1.00  0.00     0.007 C 
ENDBRANCH  18  19
BRANCH  18  21
HETATM   21  O1  UNL     1     -12.465 -35.227 -11.383  1.00  0.00    -0.315 OA
BRANCH  21  22
HETATM   22  C4  UNL     1     -12.442 -34.859 -10.054  1.00  0.00     0.255 C 
HETATM   23  C5  UNL     1     -11.157 -34.898  -9.264  1.00  0.00     0.126 C 
HETATM   24  O2  UNL     1     -13.512 -34.493  -9.524  1.00  0.00    -0.266 OA
ENDBRANCH  21  22
ENDBRANCH  18  21
ENDBRANCH   1  18
BRANCH   6  25
HETATM   25  O4  UNL     1     -16.345 -35.794 -13.647  1.00  0.00    -0.393 OA
ATOM     26  H4  UNL     1     -16.846 -35.268 -13.035  1.00  0.00     0.210 HD
ENDBRANCH   6  25
BRANCH   7  27
HETATM   27  O5  UNL     1     -14.032 -35.279 -14.079  1.00  0.00    -0.392 OA
ATOM     28  H5  UNL     1     -14.905 -35.217 -14.450  1.00  0.00     0.210 HD
ENDBRANCH   7  27
TORSDOF 8
ENDMDL
