MODEL 1
REMARK VINA RESULT: -6.451526214      0.000      0.000
REMARK  6 active torsions:
REMARK  status: ('A' for Active; 'I' for Inactive)
REMARK    1  A    between atoms: C2_2  and  O1_3 
REMARK    2  A    between atoms: O1_3  and  C3_4 
REMARK    3  A    between atoms: C3_4  and  C4_6 
REMARK    4  A    between atoms: C5_7  and  C6_8 
REMARK    5  A    between atoms: C14_18  and  C15_19 
REMARK    6  A    between atoms: C15_19  and  C16_20 
ROOT
HETATM    1  C4  UNL     1     -13.746 -40.089 -13.451  1.00  0.00     0.102 C 
HETATM    2  C5  UNL     1     -13.968 -39.586 -12.268  1.00  0.00     0.053 C 
HETATM    3  N1  UNL     1     -13.401 -38.314 -11.837  1.00  0.00    -0.375 N 
ATOM      4  H1  UNL     1     -13.203 -38.276 -10.837  1.00  0.00     0.161 HD
HETATM    5  C9  UNL     1     -13.054 -37.064 -12.554  1.00  0.00     0.055 C 
HETATM    6  C10 UNL     1     -13.934 -36.886 -13.729  1.00  0.00     0.036 C 
HETATM    7  C11 UNL     1     -14.909 -35.728 -13.725  1.00  0.00     0.003 C 
HETATM    8  C12 UNL     1     -14.101 -34.515 -13.287  1.00  0.00     0.004 C 
HETATM    9  C13 UNL     1     -13.953 -34.810 -11.815  1.00  0.00     0.037 C 
HETATM   10  C14 UNL     1     -13.043 -35.996 -11.532  1.00  0.00    -0.045 C 
HETATM   11  C17 UNL     1     -11.655 -37.336 -13.083  1.00  0.00     0.046 C 
HETATM   12  C18 UNL     1     -11.380 -38.508 -13.897  1.00  0.00     0.082 C 
HETATM   13  S1  UNL     1     -12.682 -39.334 -14.753  1.00  0.00    -0.121 SA
ENDROOT
BRANCH  10  14
HETATM   14  C15 UNL     1     -11.821 -35.446 -10.931  1.00  0.00     0.089 C 
BRANCH  14  15
HETATM   15  C16 UNL     1     -11.735 -34.938  -9.584  1.00  0.00     0.198 C 
HETATM   16  O3  UNL     1     -10.633 -34.898  -8.978  1.00  0.00    -0.644 OA
HETATM   17  O4  UNL     1     -12.784 -34.453  -8.813  1.00  0.00    -0.644 OA
ENDBRANCH  14  15
ENDBRANCH  10  14
BRANCH   2  18
HETATM   18  C6  UNL     1     -14.832 -40.278 -11.318  1.00  0.00    -0.060 C 
HETATM   19  C7  UNL     1     -16.308 -40.228 -11.360  1.00  0.00     0.045 C 
HETATM   20  C8  UNL     1     -14.183 -40.852 -10.086  1.00  0.00     0.045 C 
ENDBRANCH   2  18
BRANCH   1  21
HETATM   21  C3  UNL     1     -14.349 -41.297 -13.862  1.00  0.00     0.302 C 
HETATM   22  O2  UNL     1     -15.310 -41.557 -14.567  1.00  0.00    -0.259 OA
BRANCH  21  23
HETATM   23  O1  UNL     1     -13.749 -42.508 -13.372  1.00  0.00    -0.317 OA
BRANCH  23  24
HETATM   24  C2  UNL     1     -14.534 -43.717 -13.373  1.00  0.00     0.174 C 
HETATM   25  C1  UNL     1     -15.117 -43.935 -12.009  1.00  0.00     0.034 C 
ENDBRANCH  23  24
ENDBRANCH  21  23
ENDBRANCH   1  21
TORSDOF 6
ENDMDL
MODEL 2
REMARK VINA RESULT: -6.093164263      0.903      1.115
REMARK  6 active torsions:
REMARK  status: ('A' for Active; 'I' for Inactive)
REMARK    1  A    between atoms: C2_2  and  O1_3 
REMARK    2  A    between atoms: O1_3  and  C3_4 
REMARK    3  A    between atoms: C3_4  and  C4_6 
REMARK    4  A    between atoms: C5_7  and  C6_8 
REMARK    5  A    between atoms: C14_18  and  C15_19 
REMARK    6  A    between atoms: C15_19  and  C16_20 
ROOT
HETATM    1  C4  UNL     1     -13.604 -39.971 -13.421  1.00  0.00     0.102 C 
HETATM    2  C5  UNL     1     -13.871 -39.479 -12.243  1.00  0.00     0.053 C 
HETATM    3  N1  UNL     1     -13.341 -38.201 -11.787  1.00  0.00    -0.375 N 
ATOM      4  H1  UNL     1     -13.175 -38.166 -10.781  1.00  0.00     0.161 HD
HETATM    5  C9  UNL     1     -12.993 -36.941 -12.485  1.00  0.00     0.055 C 
HETATM    6  C10 UNL     1     -13.839 -36.771 -13.686  1.00  0.00     0.036 C 
HETATM    7  C11 UNL     1     -14.834 -35.629 -13.707  1.00  0.00     0.003 C 
HETATM    8  C12 UNL     1     -14.061 -34.405 -13.236  1.00  0.00     0.004 C 
HETATM    9  C13 UNL     1     -13.954 -34.707 -11.762  1.00  0.00     0.037 C 
HETATM   10  C14 UNL     1     -13.033 -35.879 -11.457  1.00  0.00    -0.045 C 
HETATM   11  C17 UNL     1     -11.573 -37.185 -12.972  1.00  0.00     0.046 C 
HETATM   12  C18 UNL     1     -11.253 -38.347 -13.784  1.00  0.00     0.082 C 
HETATM   13  S1  UNL     1     -12.513 -39.190 -14.685  1.00  0.00    -0.121 SA
ENDROOT
BRANCH  10  14
HETATM   14  C15 UNL     1     -11.840 -35.312 -10.815  1.00  0.00     0.089 C 
BRANCH  14  15
HETATM   15  C16 UNL     1     -11.787 -34.872  -9.442  1.00  0.00     0.198 C 
HETATM   16  O3  UNL     1     -10.716 -34.934  -8.785  1.00  0.00    -0.644 OA
HETATM   17  O4  UNL     1     -12.839 -34.352  -8.698  1.00  0.00    -0.644 OA
ENDBRANCH  14  15
ENDBRANCH  10  14
BRANCH   2  18
HETATM   18  C6  UNL     1     -14.753 -40.193 -11.324  1.00  0.00    -0.060 C 
HETATM   19  C7  UNL     1     -16.227 -40.088 -11.351  1.00  0.00     0.045 C 
HETATM   20  C8  UNL     1     -14.116 -40.855 -10.132  1.00  0.00     0.045 C 
ENDBRANCH   2  18
BRANCH   1  21
HETATM   21  C3  UNL     1     -14.173 -41.186 -13.858  1.00  0.00     0.302 C 
HETATM   22  O2  UNL     1     -13.847 -42.356 -13.739  1.00  0.00    -0.259 OA
BRANCH  21  23
HETATM   23  O1  UNL     1     -15.394 -41.084 -14.610  1.00  0.00    -0.317 OA
BRANCH  23  24
HETATM   24  C2  UNL     1     -16.168 -42.280 -14.837  1.00  0.00     0.174 C 
HETATM   25  C1  UNL     1     -17.450 -42.198 -14.064  1.00  0.00     0.034 C 
ENDBRANCH  23  24
ENDBRANCH  21  23
ENDBRANCH   1  21
TORSDOF 6
ENDMDL
MODEL 3
REMARK VINA RESULT: -6.010747302      8.617     10.632
REMARK  6 active torsions:
REMARK  status: ('A' for Active; 'I' for Inactive)
REMARK    1  A    between atoms: C2_2  and  O1_3 
REMARK    2  A    between atoms: O1_3  and  C3_4 
REMARK    3  A    between atoms: C3_4  and  C4_6 
REMARK    4  A    between atoms: C5_7  and  C6_8 
REMARK    5  A    between atoms: C14_18  and  C15_19 
REMARK    6  A    between atoms: C15_19  and  C16_20 
ROOT
HETATM    1  C4  UNL     1     -15.182 -47.829  -7.740  1.00  0.00     0.102 C 
HETATM    2  C5  UNL     1     -14.515 -46.780  -8.137  1.00  0.00     0.053 C 
HETATM    3  N1  UNL     1     -13.782 -46.745  -9.396  1.00  0.00    -0.375 N 
ATOM      4  H1  UNL     1     -12.947 -46.159  -9.363  1.00  0.00     0.161 HD
HETATM    5  C9  UNL     1     -13.998 -47.387 -10.713  1.00  0.00     0.055 C 
HETATM    6  C10 UNL     1     -15.442 -47.610 -10.943  1.00  0.00     0.036 C 
HETATM    7  C11 UNL     1     -16.120 -46.832 -12.050  1.00  0.00     0.003 C 
HETATM    8  C12 UNL     1     -15.208 -46.963 -13.261  1.00  0.00     0.004 C 
HETATM    9  C13 UNL     1     -14.091 -46.033 -12.857  1.00  0.00     0.037 C 
HETATM   10  C14 UNL     1     -13.262 -46.563 -11.696  1.00  0.00    -0.045 C 
HETATM   11  C17 UNL     1     -13.357 -48.756 -10.551  1.00  0.00     0.046 C 
HETATM   12  C18 UNL     1     -13.744 -49.637  -9.462  1.00  0.00     0.082 C 
HETATM   13  S1  UNL     1     -15.294 -49.430  -8.646  1.00  0.00    -0.121 SA
ENDROOT
BRANCH  10  14
HETATM   14  C15 UNL     1     -11.952 -46.923 -12.253  1.00  0.00     0.089 C 
BRANCH  14  15
HETATM   15  C16 UNL     1     -11.750 -47.453 -13.579  1.00  0.00     0.198 C 
HETATM   16  O3  UNL     1     -11.118 -46.797 -14.447  1.00  0.00    -0.644 OA
HETATM   17  O4  UNL     1     -12.195 -48.679 -14.058  1.00  0.00    -0.644 OA
ENDBRANCH  14  15
ENDBRANCH  10  14
BRANCH   2  18
HETATM   18  C6  UNL     1     -14.499 -45.564  -7.331  1.00  0.00    -0.060 C 
HETATM   19  C7  UNL     1     -15.073 -44.275  -7.774  1.00  0.00     0.045 C 
HETATM   20  C8  UNL     1     -13.625 -45.559  -6.105  1.00  0.00     0.045 C 
ENDBRANCH   2  18
BRANCH   1  21
HETATM   21  C3  UNL     1     -15.927 -47.818  -6.543  1.00  0.00     0.302 C 
HETATM   22  O2  UNL     1     -15.621 -47.877  -5.363  1.00  0.00    -0.259 OA
BRANCH  21  23
HETATM   23  O1  UNL     1     -17.355 -47.723  -6.682  1.00  0.00    -0.317 OA
BRANCH  23  24
HETATM   24  C2  UNL     1     -18.139 -48.931  -6.600  1.00  0.00     0.174 C 
HETATM   25  C1  UNL     1     -19.431 -48.739  -7.337  1.00  0.00     0.034 C 
ENDBRANCH  23  24
ENDBRANCH  21  23
ENDBRANCH   1  21
TORSDOF 6
ENDMDL
MODEL 4
REMARK VINA RESULT: -5.838874299      7.458      9.664
REMARK  6 active torsions:
REMARK  status: ('A' for Active; 'I' for Inactive)
REMARK    1  A    between atoms: C2_2  and  O1_3 
REMARK    2  A    between atoms: O1_3  and  C3_4 
REMARK    3  A    between atoms: C3_4  and  C4_6 
REMARK    4  A    between atoms: C5_7  and  C6_8 
REMARK    5  A    between atoms: C14_18  and  C15_19 
REMARK    6  A    between atoms: C15_19  and  C16_20 
ROOT
HETATM    1  C4  UNL     1     -15.468 -48.670 -11.472  1.00  0.00     0.102 C 
HETATM    2  C5  UNL     1     -16.093 -48.321 -10.381  1.00  0.00     0.053 C 
HETATM    3  N1  UNL     1     -15.580 -47.303  -9.473  1.00  0.00    -0.375 N 
ATOM      4  H1  UNL     1     -15.821 -47.472  -8.497  1.00  0.00     0.161 HD
HETATM    5  C9  UNL     1     -14.779 -46.073  -9.678  1.00  0.00     0.055 C 
HETATM    6  C10 UNL     1     -15.040 -45.510 -11.020  1.00  0.00     0.036 C 
HETATM    7  C11 UNL     1     -15.740 -44.171 -11.112  1.00  0.00     0.003 C 
HETATM    8  C12 UNL     1     -15.024 -43.266 -10.119  1.00  0.00     0.004 C 
HETATM    9  C13 UNL     1     -15.559 -43.817  -8.821  1.00  0.00     0.037 C 
HETATM   10  C14 UNL     1     -15.044 -45.213  -8.505  1.00  0.00    -0.045 C 
HETATM   11  C17 UNL     1     -13.345 -46.579  -9.679  1.00  0.00     0.046 C 
HETATM   12  C18 UNL     1     -12.929 -47.639 -10.582  1.00  0.00     0.082 C 
HETATM   13  S1  UNL     1     -13.852 -47.990 -12.043  1.00  0.00    -0.121 SA
ENDROOT
BRANCH  10  14
HETATM   14  C15 UNL     1     -14.125 -45.068  -7.369  1.00  0.00     0.089 C 
BRANCH  14  15
HETATM   15  C16 UNL     1     -14.025 -46.007  -6.279  1.00  0.00     0.198 C 
HETATM   16  O3  UNL     1     -14.715 -47.059  -6.268  1.00  0.00    -0.644 OA
HETATM   17  O4  UNL     1     -13.209 -45.894  -5.160  1.00  0.00    -0.644 OA
ENDBRANCH  14  15
ENDBRANCH  10  14
BRANCH   2  18
HETATM   18  C6  UNL     1     -17.371 -48.933 -10.032  1.00  0.00    -0.060 C 
HETATM   19  C7  UNL     1     -18.620 -48.716 -10.790  1.00  0.00     0.045 C 
HETATM   20  C8  UNL     1     -17.471 -49.602  -8.686  1.00  0.00     0.045 C 
ENDBRANCH   2  18
BRANCH   1  21
HETATM   21  C3  UNL     1     -16.012 -49.621 -12.360  1.00  0.00     0.302 C 
HETATM   22  O2  UNL     1     -16.522 -49.541 -13.466  1.00  0.00    -0.259 OA
BRANCH  21  23
HETATM   23  O1  UNL     1     -15.993 -50.989 -11.919  1.00  0.00    -0.317 OA
BRANCH  23  24
HETATM   24  C2  UNL     1     -14.759 -51.531 -11.405  1.00  0.00     0.174 C 
HETATM   25  C1  UNL     1     -15.025 -52.234 -10.107  1.00  0.00     0.034 C 
ENDBRANCH  23  24
ENDBRANCH  21  23
ENDBRANCH   1  21
TORSDOF 6
ENDMDL
MODEL 5
REMARK VINA RESULT: -5.759409551      1.664      1.733
REMARK  6 active torsions:
REMARK  status: ('A' for Active; 'I' for Inactive)
REMARK    1  A    between atoms: C2_2  and  O1_3 
REMARK    2  A    between atoms: O1_3  and  C3_4 
REMARK    3  A    between atoms: C3_4  and  C4_6 
REMARK    4  A    between atoms: C5_7  and  C6_8 
REMARK    5  A    between atoms: C14_18  and  C15_19 
REMARK    6  A    between atoms: C15_19  and  C16_20 
ROOT
HETATM    1  C4  UNL     1     -14.759 -40.569 -13.354  1.00  0.00     0.102 C 
HETATM    2  C5  UNL     1     -14.469 -40.059 -12.188  1.00  0.00     0.053 C 
HETATM    3  N1  UNL     1     -13.590 -38.908 -12.031  1.00  0.00    -0.375 N 
ATOM      4  H1  UNL     1     -13.052 -38.924 -11.165  1.00  0.00     0.161 HD
HETATM    5  C9  UNL     1     -13.318 -37.719 -12.872  1.00  0.00     0.055 C 
HETATM    6  C10 UNL     1     -14.511 -37.374 -13.674  1.00  0.00     0.036 C 
HETATM    7  C11 UNL     1     -15.223 -36.071 -13.377  1.00  0.00     0.003 C 
HETATM    8  C12 UNL     1     -14.128 -35.017 -13.294  1.00  0.00     0.004 C 
HETATM    9  C13 UNL     1     -13.524 -35.362 -11.956  1.00  0.00     0.037 C 
HETATM   10  C14 UNL     1     -12.778 -36.688 -11.960  1.00  0.00    -0.045 C 
HETATM   11  C17 UNL     1     -12.255 -38.207 -13.844  1.00  0.00     0.046 C 
HETATM   12  C18 UNL     1     -12.475 -39.392 -14.656  1.00  0.00     0.082 C 
HETATM   13  S1  UNL     1     -14.109 -39.974 -14.973  1.00  0.00    -0.121 SA
ENDROOT
BRANCH  10  14
HETATM   14  C15 UNL     1     -11.351 -36.360 -11.844  1.00  0.00     0.089 C 
BRANCH  14  15
HETATM   15  C16 UNL     1     -10.357 -37.242 -11.284  1.00  0.00     0.198 C 
HETATM   16  O3  UNL     1      -9.131 -36.981 -11.387  1.00  0.00    -0.644 OA
HETATM   17  O4  UNL     1     -10.593 -38.428 -10.600  1.00  0.00    -0.644 OA
ENDBRANCH  14  15
ENDBRANCH  10  14
BRANCH   2  18
HETATM   18  C6  UNL     1     -15.047 -40.619 -10.971  1.00  0.00    -0.060 C 
HETATM   19  C7  UNL     1     -16.472 -40.490 -10.602  1.00  0.00     0.045 C 
HETATM   20  C8  UNL     1     -14.091 -41.120  -9.920  1.00  0.00     0.045 C 
ENDBRANCH   2  18
BRANCH   1  21
HETATM   21  C3  UNL     1     -15.654 -41.652 -13.482  1.00  0.00     0.302 C 
HETATM   22  O2  UNL     1     -16.823 -41.738 -13.819  1.00  0.00    -0.259 OA
BRANCH  21  23
HETATM   23  O1  UNL     1     -15.134 -42.951 -13.155  1.00  0.00    -0.317 OA
BRANCH  23  24
HETATM   24  C2  UNL     1     -16.025 -43.927 -12.577  1.00  0.00     0.174 C 
HETATM   25  C1  UNL     1     -15.542 -44.292 -11.204  1.00  0.00     0.034 C 
ENDBRANCH  23  24
ENDBRANCH  21  23
ENDBRANCH   1  21
TORSDOF 6
ENDMDL
