MODEL 1
REMARK VINA RESULT: -6.774557175      0.000      0.000
REMARK  9 active torsions:
REMARK  status: ('A' for Active; 'I' for Inactive)
REMARK    1  A    between atoms: C2_2  and  C4_4 
REMARK    2  A    between atoms: C4_4  and  C5_5 
REMARK    3  A    between atoms: C5_5  and  C6_6 
REMARK    4  A    between atoms: C5_5  and  C17_22 
REMARK       I    between atoms: C6_6  and  N1_8 
REMARK    5  A    between atoms: C10_12  and  C11_13 
REMARK    6  A    between atoms: C11_13  and  O3_15 
REMARK    7  A    between atoms: O3_15  and  C12_16 
REMARK    8  A    between atoms: C17_22  and  O5_23 
REMARK    9  A    between atoms: N2_25  and  O6_27 
ROOT
HETATM    1  C6  UNL     1     -13.173 -36.216 -12.608  1.00  0.00     0.238 C 
HETATM    2  O1  UNL     1     -13.299 -35.162 -13.336  1.00  0.00    -0.272 OA
HETATM    3  N1  UNL     1     -13.718 -37.387 -13.134  1.00  0.00    -0.287 N 
HETATM    4  C7  UNL     1     -14.352 -37.299 -14.477  1.00  0.00     0.135 C 
HETATM    5  C8  UNL     1     -14.262 -38.696 -15.064  1.00  0.00     0.022 C 
HETATM    6  C9  UNL     1     -15.294 -39.533 -14.306  1.00  0.00     0.026 C 
HETATM    7  C10 UNL     1     -14.795 -39.666 -12.888  1.00  0.00     0.178 C 
HETATM    8  C16 UNL     1     -13.764 -38.667 -12.530  1.00  0.00     0.240 C 
HETATM    9  O4  UNL     1     -12.925 -38.971 -11.674  1.00  0.00    -0.272 OA
ENDROOT
BRANCH   1  10
HETATM   10  C5  UNL     1     -12.464 -35.990 -11.338  1.00  0.00     0.155 C 
BRANCH  10  11
HETATM   11  C4  UNL     1     -11.010 -35.757 -11.497  1.00  0.00     0.026 C 
BRANCH  11  12
HETATM   12  C2  UNL     1     -10.221 -36.839 -12.175  1.00  0.00    -0.021 C 
HETATM   13  C1  UNL     1      -9.956 -37.876 -11.064  1.00  0.00     0.009 C 
HETATM   14  C3  UNL     1      -8.844 -36.416 -12.628  1.00  0.00     0.009 C 
ENDBRANCH  11  12
ENDBRANCH  10  11
BRANCH  10  15
HETATM   15  C17 UNL     1     -13.171 -35.007 -10.466  1.00  0.00     0.148 C 
HETATM   16  N2  UNL     1     -12.618 -34.473  -9.439  1.00  0.00    -0.250 N 
ATOM     17  H2  UNL     1     -11.657 -34.726  -9.205  1.00  0.00     0.196 HD
BRANCH  15  18
HETATM   18  O5  UNL     1     -14.477 -34.638 -10.751  1.00  0.00    -0.347 OA
ATOM     19  H5  UNL     1     -14.778 -33.760 -10.548  1.00  0.00     0.219 HD
ENDBRANCH  15  18
BRANCH  16  20
HETATM   20  O6  UNL     1     -13.277 -33.576  -8.652  1.00  0.00    -0.288 OA
ATOM     21  H6  UNL     1     -12.813 -32.954  -8.103  1.00  0.00     0.244 HD
ENDBRANCH  16  20
ENDBRANCH  10  15
ENDBRANCH   1  10
BRANCH   7  22
HETATM   22  C11 UNL     1     -14.266 -41.064 -12.710  1.00  0.00     0.272 C 
HETATM   23  O2  UNL     1     -13.664 -41.634 -13.638  1.00  0.00    -0.264 OA
BRANCH  22  24
HETATM   24  O3  UNL     1     -14.427 -41.751 -11.530  1.00  0.00    -0.311 OA
BRANCH  24  25
HETATM   25  C12 UNL     1     -15.649 -42.298 -11.095  1.00  0.00     0.060 C 
HETATM   26  C13 UNL     1     -16.324 -41.246 -10.239  1.00  0.00     0.045 C 
HETATM   27  C14 UNL     1     -16.586 -42.614 -12.237  1.00  0.00     0.045 C 
HETATM   28  C15 UNL     1     -15.490 -43.534 -10.262  1.00  0.00     0.045 C 
ENDBRANCH  24  25
ENDBRANCH  22  24
ENDBRANCH   7  22
TORSDOF 9
ENDMDL
MODEL 2
REMARK VINA RESULT: -6.767299983      1.085      1.560
REMARK  9 active torsions:
REMARK  status: ('A' for Active; 'I' for Inactive)
REMARK    1  A    between atoms: C2_2  and  C4_4 
REMARK    2  A    between atoms: C4_4  and  C5_5 
REMARK    3  A    between atoms: C5_5  and  C6_6 
REMARK    4  A    between atoms: C5_5  and  C17_22 
REMARK       I    between atoms: C6_6  and  N1_8 
REMARK    5  A    between atoms: C10_12  and  C11_13 
REMARK    6  A    between atoms: C11_13  and  O3_15 
REMARK    7  A    between atoms: O3_15  and  C12_16 
REMARK    8  A    between atoms: C17_22  and  O5_23 
REMARK    9  A    between atoms: N2_25  and  O6_27 
ROOT
HETATM    1  C6  UNL     1     -12.676 -36.352 -12.365  1.00  0.00     0.238 C 
HETATM    2  O1  UNL     1     -12.936 -35.229 -12.936  1.00  0.00    -0.272 OA
HETATM    3  N1  UNL     1     -13.529 -37.409 -12.683  1.00  0.00    -0.287 N 
HETATM    4  C7  UNL     1     -14.617 -37.134 -13.660  1.00  0.00     0.135 C 
HETATM    5  C8  UNL     1     -14.943 -38.472 -14.297  1.00  0.00     0.022 C 
HETATM    6  C9  UNL     1     -15.700 -39.265 -13.229  1.00  0.00     0.026 C 
HETATM    7  C10 UNL     1     -14.713 -39.578 -12.132  1.00  0.00     0.178 C 
HETATM    8  C16 UNL     1     -13.504 -38.727 -12.167  1.00  0.00     0.240 C 
HETATM    9  O4  UNL     1     -12.445 -39.192 -11.728  1.00  0.00    -0.272 OA
ENDROOT
BRANCH   1  10
HETATM   10  C5  UNL     1     -11.507 -36.318 -11.471  1.00  0.00     0.155 C 
BRANCH  10  11
HETATM   11  C4  UNL     1     -10.240 -35.968 -12.153  1.00  0.00     0.026 C 
BRANCH  11  12
HETATM   12  C2  UNL     1      -9.197 -37.043 -12.238  1.00  0.00    -0.021 C 
HETATM   13  C1  UNL     1      -7.948 -36.325 -12.789  1.00  0.00     0.009 C 
HETATM   14  C3  UNL     1      -9.490 -38.119 -13.256  1.00  0.00     0.009 C 
ENDBRANCH  11  12
ENDBRANCH  10  11
BRANCH  10  15
HETATM   15  C17 UNL     1     -11.781 -35.556 -10.217  1.00  0.00     0.148 C 
HETATM   16  N2  UNL     1     -10.845 -35.137  -9.445  1.00  0.00    -0.250 N 
ATOM     17  H2  UNL     1      -9.874 -35.329  -9.694  1.00  0.00     0.196 HD
BRANCH  15  18
HETATM   18  O5  UNL     1     -13.087 -35.277  -9.844  1.00  0.00    -0.347 OA
ATOM     19  H5  UNL     1     -13.327 -34.398  -9.575  1.00  0.00     0.219 HD
ENDBRANCH  15  18
BRANCH  16  20
HETATM   20  O6  UNL     1     -11.111 -34.443  -8.303  1.00  0.00    -0.288 OA
ATOM     21  H6  UNL     1     -11.999 -34.308  -7.993  1.00  0.00     0.244 HD
ENDBRANCH  16  20
ENDBRANCH  10  15
ENDBRANCH   1  10
BRANCH   7  22
HETATM   22  C11 UNL     1     -14.342 -41.033 -12.240  1.00  0.00     0.272 C 
HETATM   23  O2  UNL     1     -14.063 -41.533 -13.344  1.00  0.00    -0.264 OA
BRANCH  22  24
HETATM   24  O3  UNL     1     -14.300 -41.851 -11.135  1.00  0.00    -0.311 OA
BRANCH  24  25
HETATM   25  C12 UNL     1     -15.438 -42.385 -10.503  1.00  0.00     0.060 C 
HETATM   26  C13 UNL     1     -16.013 -43.430 -11.437  1.00  0.00     0.045 C 
HETATM   27  C14 UNL     1     -15.111 -43.081  -9.202  1.00  0.00     0.045 C 
HETATM   28  C15 UNL     1     -16.508 -41.370 -10.236  1.00  0.00     0.045 C 
ENDBRANCH  24  25
ENDBRANCH  22  24
ENDBRANCH   7  22
TORSDOF 9
ENDMDL
MODEL 3
REMARK VINA RESULT: -6.670347568      1.074      1.466
REMARK  9 active torsions:
REMARK  status: ('A' for Active; 'I' for Inactive)
REMARK    1  A    between atoms: C2_2  and  C4_4 
REMARK    2  A    between atoms: C4_4  and  C5_5 
REMARK    3  A    between atoms: C5_5  and  C6_6 
REMARK    4  A    between atoms: C5_5  and  C17_22 
REMARK       I    between atoms: C6_6  and  N1_8 
REMARK    5  A    between atoms: C10_12  and  C11_13 
REMARK    6  A    between atoms: C11_13  and  O3_15 
REMARK    7  A    between atoms: O3_15  and  C12_16 
REMARK    8  A    between atoms: C17_22  and  O5_23 
REMARK    9  A    between atoms: N2_25  and  O6_27 
ROOT
HETATM    1  C6  UNL     1     -12.513 -36.385 -11.794  1.00  0.00     0.238 C 
HETATM    2  O1  UNL     1     -12.601 -35.176 -12.226  1.00  0.00    -0.272 OA
HETATM    3  N1  UNL     1     -13.278 -37.332 -12.475  1.00  0.00    -0.287 N 
HETATM    4  C7  UNL     1     -14.079 -36.853 -13.634  1.00  0.00     0.135 C 
HETATM    5  C8  UNL     1     -14.259 -38.062 -14.534  1.00  0.00     0.022 C 
HETATM    6  C9  UNL     1     -15.274 -38.960 -13.825  1.00  0.00     0.026 C 
HETATM    7  C10 UNL     1     -14.601 -39.488 -12.583  1.00  0.00     0.178 C 
HETATM    8  C16 UNL     1     -13.407 -38.711 -12.184  1.00  0.00     0.240 C 
HETATM    9  O4  UNL     1     -12.502 -39.296 -11.577  1.00  0.00    -0.272 OA
ENDROOT
BRANCH   1  10
HETATM   10  C5  UNL     1     -11.607 -36.550 -10.645  1.00  0.00     0.155 C 
BRANCH  10  11
HETATM   11  C4  UNL     1     -10.243 -36.990 -11.017  1.00  0.00     0.026 C 
BRANCH  11  12
HETATM   12  C2  UNL     1      -9.828 -36.776 -12.444  1.00  0.00    -0.021 C 
HETATM   13  C1  UNL     1      -9.479 -38.188 -12.958  1.00  0.00     0.009 C 
HETATM   14  C3  UNL     1      -8.550 -35.990 -12.612  1.00  0.00     0.009 C 
ENDBRANCH  11  12
ENDBRANCH  10  11
BRANCH  10  15
HETATM   15  C17 UNL     1     -11.665 -35.388  -9.711  1.00  0.00     0.148 C 
HETATM   16  N2  UNL     1     -10.630 -34.944  -9.096  1.00  0.00    -0.250 N 
ATOM     17  H2  UNL     1      -9.730 -35.400  -9.249  1.00  0.00     0.196 HD
BRANCH  15  18
HETATM   18  O5  UNL     1     -12.870 -34.743  -9.478  1.00  0.00    -0.347 OA
ATOM     19  H5  UNL     1     -13.342 -34.894  -8.668  1.00  0.00     0.219 HD
ENDBRANCH  15  18
BRANCH  16  20
HETATM   20  O6  UNL     1     -10.699 -33.882  -8.246  1.00  0.00    -0.288 OA
ATOM     21  H6  UNL     1      -9.934 -33.560  -7.783  1.00  0.00     0.244 HD
ENDBRANCH  16  20
ENDBRANCH  10  15
ENDBRANCH   1  10
BRANCH   7  22
HETATM   22  C11 UNL     1     -14.241 -40.930 -12.825  1.00  0.00     0.272 C 
HETATM   23  O2  UNL     1     -13.749 -41.284 -13.911  1.00  0.00    -0.264 OA
BRANCH  22  24
HETATM   24  O3  UNL     1     -14.443 -41.894 -11.865  1.00  0.00    -0.311 OA
BRANCH  24  25
HETATM   25  C12 UNL     1     -15.709 -42.289 -11.395  1.00  0.00     0.060 C 
HETATM   26  C13 UNL     1     -15.556 -43.686 -10.830  1.00  0.00     0.045 C 
HETATM   27  C14 UNL     1     -16.216 -41.408 -10.277  1.00  0.00     0.045 C 
HETATM   28  C15 UNL     1     -16.757 -42.339 -12.466  1.00  0.00     0.045 C 
ENDBRANCH  24  25
ENDBRANCH  22  24
ENDBRANCH   7  22
TORSDOF 9
ENDMDL
MODEL 4
REMARK VINA RESULT: -6.477874954      2.783      6.083
REMARK  9 active torsions:
REMARK  status: ('A' for Active; 'I' for Inactive)
REMARK    1  A    between atoms: C2_2  and  C4_4 
REMARK    2  A    between atoms: C4_4  and  C5_5 
REMARK    3  A    between atoms: C5_5  and  C6_6 
REMARK    4  A    between atoms: C5_5  and  C17_22 
REMARK       I    between atoms: C6_6  and  N1_8 
REMARK    5  A    between atoms: C10_12  and  C11_13 
REMARK    6  A    between atoms: C11_13  and  O3_15 
REMARK    7  A    between atoms: O3_15  and  C12_16 
REMARK    8  A    between atoms: C17_22  and  O5_23 
REMARK    9  A    between atoms: N2_25  and  O6_27 
ROOT
HETATM    1  C6  UNL     1     -12.754 -38.009 -11.973  1.00  0.00     0.238 C 
HETATM    2  O1  UNL     1     -12.853 -39.134 -11.356  1.00  0.00    -0.272 OA
HETATM    3  N1  UNL     1     -13.779 -37.716 -12.872  1.00  0.00    -0.287 N 
HETATM    4  C7  UNL     1     -14.880 -38.710 -12.997  1.00  0.00     0.135 C 
HETATM    5  C8  UNL     1     -16.089 -37.924 -13.469  1.00  0.00     0.022 C 
HETATM    6  C9  UNL     1     -15.822 -37.595 -14.940  1.00  0.00     0.026 C 
HETATM    7  C10 UNL     1     -14.676 -36.614 -14.969  1.00  0.00     0.178 C 
HETATM    8  C16 UNL     1     -13.896 -36.582 -13.712  1.00  0.00     0.240 C 
HETATM    9  O4  UNL     1     -13.331 -35.528 -13.399  1.00  0.00    -0.272 OA
ENDROOT
BRANCH   1  10
HETATM   10  C5  UNL     1     -11.562 -37.225 -11.611  1.00  0.00     0.155 C 
BRANCH  10  11
HETATM   11  C4  UNL     1     -11.636 -36.610 -10.265  1.00  0.00     0.026 C 
BRANCH  11  12
HETATM   12  C2  UNL     1     -11.763 -35.116 -10.209  1.00  0.00    -0.021 C 
HETATM   13  C1  UNL     1     -11.070 -34.721  -8.888  1.00  0.00     0.009 C 
HETATM   14  C3  UNL     1     -13.178 -34.613 -10.055  1.00  0.00     0.009 C 
ENDBRANCH  11  12
ENDBRANCH  10  11
BRANCH  10  15
HETATM   15  C17 UNL     1     -10.296 -37.959 -11.902  1.00  0.00     0.148 C 
HETATM   16  N2  UNL     1     -10.255 -38.987 -12.668  1.00  0.00    -0.250 N 
ATOM     17  H2  UNL     1     -11.119 -39.320 -13.098  1.00  0.00     0.196 HD
BRANCH  15  18
HETATM   18  O5  UNL     1      -9.102 -37.538 -11.337  1.00  0.00    -0.347 OA
ATOM     19  H5  UNL     1      -9.094 -36.807 -10.730  1.00  0.00     0.219 HD
ENDBRANCH  15  18
BRANCH  16  20
HETATM   20  O6  UNL     1      -9.091 -39.648 -12.925  1.00  0.00    -0.288 OA
ATOM     21  H6  UNL     1      -9.015 -40.274 -13.636  1.00  0.00     0.244 HD
ENDBRANCH  16  20
ENDBRANCH  10  15
ENDBRANCH   1  10
BRANCH   7  22
HETATM   22  C11 UNL     1     -15.237 -35.253 -15.282  1.00  0.00     0.272 C 
HETATM   23  O2  UNL     1     -16.207 -34.808 -14.644  1.00  0.00    -0.264 OA
BRANCH  22  24
HETATM   24  O3  UNL     1     -14.701 -34.463 -16.273  1.00  0.00    -0.311 OA
BRANCH  24  25
HETATM   25  C12 UNL     1     -14.944 -34.646 -17.647  1.00  0.00     0.060 C 
HETATM   26  C13 UNL     1     -14.895 -33.275 -18.290  1.00  0.00     0.045 C 
HETATM   27  C14 UNL     1     -13.888 -35.492 -18.319  1.00  0.00     0.045 C 
HETATM   28  C15 UNL     1     -16.286 -35.245 -17.944  1.00  0.00     0.045 C 
ENDBRANCH  24  25
ENDBRANCH  22  24
ENDBRANCH   7  22
TORSDOF 9
ENDMDL
MODEL 5
REMARK VINA RESULT: -6.366543848      1.624      2.775
REMARK  9 active torsions:
REMARK  status: ('A' for Active; 'I' for Inactive)
REMARK    1  A    between atoms: C2_2  and  C4_4 
REMARK    2  A    between atoms: C4_4  and  C5_5 
REMARK    3  A    between atoms: C5_5  and  C6_6 
REMARK    4  A    between atoms: C5_5  and  C17_22 
REMARK       I    between atoms: C6_6  and  N1_8 
REMARK    5  A    between atoms: C10_12  and  C11_13 
REMARK    6  A    between atoms: C11_13  and  O3_15 
REMARK    7  A    between atoms: O3_15  and  C12_16 
REMARK    8  A    between atoms: C17_22  and  O5_23 
REMARK    9  A    between atoms: N2_25  and  O6_27 
ROOT
HETATM    1  C6  UNL     1     -13.277 -35.862 -12.790  1.00  0.00     0.238 C 
HETATM    2  O1  UNL     1     -13.640 -34.842 -13.486  1.00  0.00    -0.272 OA
HETATM    3  N1  UNL     1     -13.945 -37.055 -13.066  1.00  0.00    -0.287 N 
HETATM    4  C7  UNL     1     -14.971 -37.027 -14.143  1.00  0.00     0.135 C 
HETATM    5  C8  UNL     1     -15.052 -38.449 -14.668  1.00  0.00     0.022 C 
HETATM    6  C9  UNL     1     -15.782 -39.249 -13.588  1.00  0.00     0.026 C 
HETATM    7  C10 UNL     1     -14.860 -39.319 -12.395  1.00  0.00     0.178 C 
HETATM    8  C16 UNL     1     -13.782 -38.306 -12.423  1.00  0.00     0.240 C 
HETATM    9  O4  UNL     1     -12.712 -38.572 -11.864  1.00  0.00    -0.272 OA
ENDROOT
BRANCH   1  10
HETATM   10  C5  UNL     1     -12.208 -35.580 -11.819  1.00  0.00     0.155 C 
BRANCH  10  11
HETATM   11  C4  UNL     1     -12.669 -35.552 -10.412  1.00  0.00     0.026 C 
BRANCH  11  12
HETATM   12  C2  UNL     1     -12.443 -34.279  -9.650  1.00  0.00    -0.021 C 
HETATM   13  C1  UNL     1     -11.335 -34.630  -8.635  1.00  0.00     0.009 C 
HETATM   14  C3  UNL     1     -13.610 -33.847  -8.796  1.00  0.00     0.009 C 
ENDBRANCH  11  12
ENDBRANCH  10  11
BRANCH  10  15
HETATM   15  C17 UNL     1     -10.989 -36.404 -12.069  1.00  0.00     0.148 C 
HETATM   16  N2  UNL     1     -10.205 -36.782 -11.126  1.00  0.00    -0.250 N 
ATOM     17  H2  UNL     1     -10.419 -36.512 -10.166  1.00  0.00     0.196 HD
BRANCH  15  18
HETATM   18  O5  UNL     1     -10.664 -36.791 -13.360  1.00  0.00    -0.347 OA
ATOM     19  H5  UNL     1     -10.854 -36.216 -14.092  1.00  0.00     0.219 HD
ENDBRANCH  15  18
BRANCH  16  20
HETATM   20  O6  UNL     1      -9.095 -37.534 -11.371  1.00  0.00    -0.288 OA
ATOM     21  H6  UNL     1      -8.251 -37.138 -11.552  1.00  0.00     0.244 HD
ENDBRANCH  16  20
ENDBRANCH  10  15
ENDBRANCH   1  10
BRANCH   7  22
HETATM   22  C11 UNL     1     -14.284 -40.708 -12.333  1.00  0.00     0.272 C 
HETATM   23  O2  UNL     1     -13.766 -41.222 -13.340  1.00  0.00    -0.264 OA
BRANCH  22  24
HETATM   24  O3  UNL     1     -14.309 -41.448 -11.173  1.00  0.00    -0.311 OA
BRANCH  24  25
HETATM   25  C12 UNL     1     -15.457 -42.089 -10.670  1.00  0.00     0.060 C 
HETATM   26  C13 UNL     1     -15.032 -42.844  -9.428  1.00  0.00     0.045 C 
HETATM   27  C14 UNL     1     -16.534 -41.115 -10.255  1.00  0.00     0.045 C 
HETATM   28  C15 UNL     1     -16.059 -43.077 -11.624  1.00  0.00     0.045 C 
ENDBRANCH  24  25
ENDBRANCH  22  24
ENDBRANCH   7  22
TORSDOF 9
ENDMDL
