MODEL 1
REMARK VINA RESULT: -6.385397922      0.000      0.000
REMARK  11 active torsions:
REMARK  status: ('A' for Active; 'I' for Inactive)
REMARK    1  A    between atoms: O1_2  and  C2_3 
REMARK    2  A    between atoms: C2_3  and  C3_5 
REMARK    3  A    between atoms: C4_6  and  O3_7 
REMARK    4  A    between atoms: C5_9  and  O4_10 
REMARK    5  A    between atoms: C6_12  and  O5_13 
REMARK    6  A    between atoms: C7_15  and  N1_16 
REMARK    7  A    between atoms: C8_20  and  O6_21 
REMARK    8  A    between atoms: O6_21  and  C9_22 
REMARK    9  A    between atoms: C9_22  and  O8_24 
REMARK   10  A    between atoms: O8_24  and  C10_25 
REMARK   11  A    between atoms: C14_29  and  O9_30 
ROOT
HETATM    1  C3  UNL     1      29.536 -22.685 -22.272  1.00  0.00     0.148 C 
HETATM    2  C4  UNL     1      29.601 -23.538 -21.080  1.00  0.00     0.165 C 
HETATM    3  C5  UNL     1      28.987 -22.973 -19.836  1.00  0.00     0.178 C 
HETATM    4  C6  UNL     1      27.510 -23.071 -19.756  1.00  0.00     0.182 C 
HETATM    5  C7  UNL     1      26.741 -23.050 -21.025  1.00  0.00     0.246 C 
HETATM    6  C8  UNL     1      27.079 -22.002 -22.010  1.00  0.00     0.197 C 
HETATM    7  C14 UNL     1      28.453 -21.667 -22.321  1.00  0.00     0.166 C 
ENDROOT
BRANCH   6   8
HETATM    8  O6  UNL     1      26.353 -22.342 -23.209  1.00  0.00    -0.288 OA
BRANCH   8   9
HETATM    9  C9  UNL     1      25.837 -21.429 -24.082  1.00  0.00     0.407 C 
HETATM   10  O7  UNL     1      25.919 -20.208 -23.782  1.00  0.00    -0.229 OA
BRANCH   9  11
HETATM   11  O8  UNL     1      25.225 -21.763 -25.281  1.00  0.00    -0.288 OA
BRANCH  11  12
HETATM   12  C10 UNL     1      25.835 -21.651 -26.529  1.00  0.00     0.062 C 
HETATM   13  C11 UNL     1      25.462 -20.273 -27.087  1.00  0.00     0.046 C 
HETATM   14  C12 UNL     1      27.342 -21.688 -26.467  1.00  0.00     0.046 C 
HETATM   15  C13 UNL     1      25.349 -22.660 -27.535  1.00  0.00     0.046 C 
ENDBRANCH  11  12
ENDBRANCH   9  11
ENDBRANCH   8   9
ENDBRANCH   6   8
BRANCH   5  16
HETATM   16  N1  UNL     1      26.526 -24.363 -21.609  1.00  0.00    -0.070 N 
ATOM     17  H13 UNL     1      25.672 -24.371 -22.166  1.00  0.00     0.274 HD
ATOM     18  H12 UNL     1      27.211 -24.546 -22.342  1.00  0.00     0.274 HD
ATOM     19  H11 UNL     1      26.517 -25.124 -20.930  1.00  0.00     0.274 HD
ENDBRANCH   5  16
BRANCH   7  20
HETATM   20  O9  UNL     1      28.892 -20.546 -21.570  1.00  0.00    -0.392 OA
ATOM     21  H9  UNL     1      29.193 -19.891 -22.188  1.00  0.00     0.210 HD
ENDBRANCH   7  20
BRANCH   4  22
HETATM   22  O5  UNL     1      27.097 -24.229 -19.052  1.00  0.00    -0.391 OA
ATOM     23  H5  UNL     1      27.192 -25.016 -19.577  1.00  0.00     0.210 HD
ENDBRANCH   4  22
BRANCH   1  24
HETATM   24  C2  UNL     1      30.796 -21.894 -22.395  1.00  0.00     0.267 C 
HETATM   25  O2  UNL     1      31.285 -21.609 -23.512  1.00  0.00    -0.265 OA
BRANCH  24  26
HETATM   26  O1  UNL     1      31.490 -21.437 -21.284  1.00  0.00    -0.326 OA
HETATM   27  C1  UNL     1      32.490 -20.451 -21.445  1.00  0.00     0.213 C 
ENDBRANCH  24  26
ENDBRANCH   1  24
BRANCH   3  28
HETATM   28  O4  UNL     1      29.490 -23.764 -18.770  1.00  0.00    -0.390 OA
ATOM     29  H4  UNL     1      29.503 -23.191 -18.013  1.00  0.00     0.210 HD
ENDBRANCH   3  28
BRANCH   2  30
HETATM   30  O3  UNL     1      30.882 -23.981 -20.750  1.00  0.00    -0.392 OA
ATOM     31  H3  UNL     1      31.054 -24.890 -20.962  1.00  0.00     0.210 HD
ENDBRANCH   2  30
TORSDOF 11
ENDMDL
MODEL 2
REMARK VINA RESULT: -6.378613510      2.189      3.780
REMARK  11 active torsions:
REMARK  status: ('A' for Active; 'I' for Inactive)
REMARK    1  A    between atoms: O1_2  and  C2_3 
REMARK    2  A    between atoms: C2_3  and  C3_5 
REMARK    3  A    between atoms: C4_6  and  O3_7 
REMARK    4  A    between atoms: C5_9  and  O4_10 
REMARK    5  A    between atoms: C6_12  and  O5_13 
REMARK    6  A    between atoms: C7_15  and  N1_16 
REMARK    7  A    between atoms: C8_20  and  O6_21 
REMARK    8  A    between atoms: O6_21  and  C9_22 
REMARK    9  A    between atoms: C9_22  and  O8_24 
REMARK   10  A    between atoms: O8_24  and  C10_25 
REMARK   11  A    between atoms: C14_29  and  O9_30 
ROOT
HETATM    1  C3  UNL     1      29.324 -21.196 -20.745  1.00  0.00     0.148 C 
HETATM    2  C4  UNL     1      30.684 -21.730 -20.597  1.00  0.00     0.165 C 
HETATM    3  C5  UNL     1      31.030 -22.891 -21.477  1.00  0.00     0.178 C 
HETATM    4  C6  UNL     1      31.379 -22.547 -22.875  1.00  0.00     0.182 C 
HETATM    5  C7  UNL     1      30.754 -21.340 -23.472  1.00  0.00     0.246 C 
HETATM    6  C8  UNL     1      29.295 -21.175 -23.308  1.00  0.00     0.197 C 
HETATM    7  C14 UNL     1      28.639 -21.433 -22.043  1.00  0.00     0.166 C 
ENDROOT
BRANCH   6   8
HETATM    8  O6  UNL     1      28.995 -19.845 -23.776  1.00  0.00    -0.288 OA
BRANCH   8   9
HETATM    9  C9  UNL     1      27.747 -19.412 -24.119  1.00  0.00     0.407 C 
HETATM   10  O7  UNL     1      27.071 -18.801 -23.249  1.00  0.00    -0.229 OA
BRANCH   9  11
HETATM   11  O8  UNL     1      27.176 -19.606 -25.368  1.00  0.00    -0.288 OA
BRANCH  11  12
HETATM   12  C10 UNL     1      26.465 -20.747 -25.736  1.00  0.00     0.062 C 
HETATM   13  C11 UNL     1      25.334 -20.290 -26.664  1.00  0.00     0.046 C 
HETATM   14  C12 UNL     1      27.286 -21.738 -26.525  1.00  0.00     0.046 C 
HETATM   15  C13 UNL     1      25.806 -21.449 -24.579  1.00  0.00     0.046 C 
ENDBRANCH  11  12
ENDBRANCH   9  11
ENDBRANCH   8   9
ENDBRANCH   6   8
BRANCH   5  16
HETATM   16  N1  UNL     1      31.514 -20.118 -23.268  1.00  0.00    -0.070 N 
ATOM     17  H13 UNL     1      30.887 -19.321 -23.160  1.00  0.00     0.274 HD
ATOM     18  H12 UNL     1      31.951 -20.118 -22.346  1.00  0.00     0.274 HD
ATOM     19  H11 UNL     1      32.206 -19.933 -23.993  1.00  0.00     0.274 HD
ENDBRANCH   5  16
BRANCH   7  20
HETATM   20  O9  UNL     1      28.096 -22.744 -22.002  1.00  0.00    -0.392 OA
ATOM     21  H9  UNL     1      27.327 -22.714 -21.445  1.00  0.00     0.210 HD
ENDBRANCH   7  20
BRANCH   4  22
HETATM   22  O5  UNL     1      32.778 -22.407 -23.050  1.00  0.00    -0.391 OA
ATOM     23  H5  UNL     1      33.079 -21.538 -22.811  1.00  0.00     0.210 HD
ENDBRANCH   4  22
BRANCH   1  24
HETATM   24  C2  UNL     1      28.426 -21.820 -19.730  1.00  0.00     0.267 C 
HETATM   25  O2  UNL     1      27.519 -21.165 -19.165  1.00  0.00    -0.265 OA
BRANCH  24  26
HETATM   26  O1  UNL     1      28.546 -23.152 -19.358  1.00  0.00    -0.326 OA
HETATM   27  C1  UNL     1      27.908 -23.606 -18.182  1.00  0.00     0.213 C 
ENDBRANCH  24  26
ENDBRANCH   1  24
BRANCH   3  28
HETATM   28  O4  UNL     1      32.201 -23.462 -20.911  1.00  0.00    -0.390 OA
ATOM     29  H4  UNL     1      32.121 -23.328 -19.974  1.00  0.00     0.210 HD
ENDBRANCH   3  28
BRANCH   2  30
HETATM   30  O3  UNL     1      31.036 -22.074 -19.291  1.00  0.00    -0.392 OA
ATOM     31  H3  UNL     1      30.309 -22.341 -18.743  1.00  0.00     0.210 HD
ENDBRANCH   2  30
TORSDOF 11
ENDMDL
MODEL 3
REMARK VINA RESULT: -6.361082200      1.959      3.864
REMARK  11 active torsions:
REMARK  status: ('A' for Active; 'I' for Inactive)
REMARK    1  A    between atoms: O1_2  and  C2_3 
REMARK    2  A    between atoms: C2_3  and  C3_5 
REMARK    3  A    between atoms: C4_6  and  O3_7 
REMARK    4  A    between atoms: C5_9  and  O4_10 
REMARK    5  A    between atoms: C6_12  and  O5_13 
REMARK    6  A    between atoms: C7_15  and  N1_16 
REMARK    7  A    between atoms: C8_20  and  O6_21 
REMARK    8  A    between atoms: O6_21  and  C9_22 
REMARK    9  A    between atoms: C9_22  and  O8_24 
REMARK   10  A    between atoms: O8_24  and  C10_25 
REMARK   11  A    between atoms: C14_29  and  O9_30 
ROOT
HETATM    1  C3  UNL     1      30.386 -22.408 -20.481  1.00  0.00     0.148 C 
HETATM    2  C4  UNL     1      31.638 -21.838 -20.993  1.00  0.00     0.165 C 
HETATM    3  C5  UNL     1      32.123 -22.393 -22.297  1.00  0.00     0.178 C 
HETATM    4  C6  UNL     1      31.453 -21.855 -23.505  1.00  0.00     0.182 C 
HETATM    5  C7  UNL     1      30.041 -21.415 -23.378  1.00  0.00     0.246 C 
HETATM    6  C8  UNL     1      29.100 -22.327 -22.697  1.00  0.00     0.197 C 
HETATM    7  C14 UNL     1      29.459 -23.013 -21.473  1.00  0.00     0.166 C 
ENDROOT
BRANCH   6   8
HETATM    8  O6  UNL     1      27.882 -21.575 -22.521  1.00  0.00    -0.288 OA
BRANCH   8   9
HETATM    9  C9  UNL     1      26.676 -21.926 -23.054  1.00  0.00     0.407 C 
HETATM   10  O7  UNL     1      26.219 -23.070 -22.785  1.00  0.00    -0.229 OA
BRANCH   9  11
HETATM   11  O8  UNL     1      25.921 -21.101 -23.875  1.00  0.00    -0.288 OA
BRANCH  11  12
HETATM   12  C10 UNL     1      26.325 -20.674 -25.139  1.00  0.00     0.062 C 
HETATM   13  C11 UNL     1      25.051 -20.463 -25.966  1.00  0.00     0.046 C 
HETATM   14  C12 UNL     1      27.044 -19.348 -25.124  1.00  0.00     0.046 C 
HETATM   15  C13 UNL     1      27.152 -21.686 -25.886  1.00  0.00     0.046 C 
ENDBRANCH  11  12
ENDBRANCH   9  11
ENDBRANCH   8   9
ENDBRANCH   6   8
BRANCH   5  16
HETATM   16  N1  UNL     1      29.888 -20.019 -23.004  1.00  0.00    -0.070 N 
ATOM     17  H13 UNL     1      29.470 -19.941 -22.077  1.00  0.00     0.274 HD
ATOM     18  H12 UNL     1      30.797 -19.596 -22.819  1.00  0.00     0.274 HD
ATOM     19  H11 UNL     1      29.366 -19.462 -23.680  1.00  0.00     0.274 HD
ENDBRANCH   5  16
BRANCH   7  20
HETATM   20  O9  UNL     1      29.923 -24.328 -21.738  1.00  0.00    -0.392 OA
ATOM     21  H9  UNL     1      29.635 -24.560 -22.613  1.00  0.00     0.210 HD
ENDBRANCH   7  20
BRANCH   4  22
HETATM   22  O5  UNL     1      32.168 -20.768 -24.065  1.00  0.00    -0.391 OA
ATOM     23  H5  UNL     1      32.555 -20.993 -24.903  1.00  0.00     0.210 HD
ENDBRANCH   4  22
BRANCH   1  24
HETATM   24  C2  UNL     1      30.689 -23.517 -19.530  1.00  0.00     0.267 C 
HETATM   25  O2  UNL     1      29.989 -23.716 -18.510  1.00  0.00    -0.265 OA
BRANCH  24  26
HETATM   26  O1  UNL     1      31.758 -24.381 -19.721  1.00  0.00    -0.326 OA
HETATM   27  C1  UNL     1      31.934 -25.475 -18.843  1.00  0.00     0.213 C 
ENDBRANCH  24  26
ENDBRANCH   1  24
BRANCH   3  28
HETATM   28  O4  UNL     1      33.483 -21.996 -22.396  1.00  0.00    -0.390 OA
ATOM     29  H4  UNL     1      33.936 -22.468 -21.707  1.00  0.00     0.210 HD
ENDBRANCH   3  28
BRANCH   2  30
HETATM   30  O3  UNL     1      32.706 -21.881 -20.097  1.00  0.00    -0.392 OA
ATOM     31  H3  UNL     1      33.420 -22.451 -20.356  1.00  0.00     0.210 HD
ENDBRANCH   2  30
TORSDOF 11
ENDMDL
MODEL 4
REMARK VINA RESULT: -6.177428009      2.139      6.476
REMARK  11 active torsions:
REMARK  status: ('A' for Active; 'I' for Inactive)
REMARK    1  A    between atoms: O1_2  and  C2_3 
REMARK    2  A    between atoms: C2_3  and  C3_5 
REMARK    3  A    between atoms: C4_6  and  O3_7 
REMARK    4  A    between atoms: C5_9  and  O4_10 
REMARK    5  A    between atoms: C6_12  and  O5_13 
REMARK    6  A    between atoms: C7_15  and  N1_16 
REMARK    7  A    between atoms: C8_20  and  O6_21 
REMARK    8  A    between atoms: O6_21  and  C9_22 
REMARK    9  A    between atoms: C9_22  and  O8_24 
REMARK   10  A    between atoms: O8_24  and  C10_25 
REMARK   11  A    between atoms: C14_29  and  O9_30 
ROOT
HETATM    1  C3  UNL     1      28.139 -21.066 -22.996  1.00  0.00     0.148 C 
HETATM    2  C4  UNL     1      29.303 -21.209 -23.879  1.00  0.00     0.165 C 
HETATM    3  C5  UNL     1      30.582 -20.614 -23.374  1.00  0.00     0.178 C 
HETATM    4  C6  UNL     1      31.312 -21.430 -22.375  1.00  0.00     0.182 C 
HETATM    5  C7  UNL     1      30.518 -22.315 -21.487  1.00  0.00     0.246 C 
HETATM    6  C8  UNL     1      29.331 -21.733 -20.827  1.00  0.00     0.197 C 
HETATM    7  C14 UNL     1      28.404 -20.883 -21.545  1.00  0.00     0.166 C 
ENDROOT
BRANCH   6   8
HETATM    8  O6  UNL     1      28.639 -22.841 -20.217  1.00  0.00    -0.288 OA
BRANCH   8   9
HETATM    9  C9  UNL     1      28.495 -23.012 -18.871  1.00  0.00     0.407 C 
HETATM   10  O7  UNL     1      27.758 -22.204 -18.245  1.00  0.00    -0.229 OA
BRANCH   9  11
HETATM   11  O8  UNL     1      29.113 -24.022 -18.148  1.00  0.00    -0.288 OA
BRANCH  11  12
HETATM   12  C10 UNL     1      30.449 -23.997 -17.752  1.00  0.00     0.062 C 
HETATM   13  C11 UNL     1      30.531 -24.733 -16.410  1.00  0.00     0.046 C 
HETATM   14  C12 UNL     1      31.370 -24.732 -18.695  1.00  0.00     0.046 C 
HETATM   15  C13 UNL     1      30.983 -22.611 -17.508  1.00  0.00     0.046 C 
ENDBRANCH  11  12
ENDBRANCH   9  11
ENDBRANCH   8   9
ENDBRANCH   6   8
BRANCH   5  16
HETATM   16  N1  UNL     1      30.304 -23.650 -22.019  1.00  0.00    -0.070 N 
ATOM     17  H13 UNL     1      29.324 -23.783 -22.267  1.00  0.00     0.274 HD
ATOM     18  H12 UNL     1      30.729 -23.739 -22.942  1.00  0.00     0.274 HD
ATOM     19  H11 UNL     1      30.623 -24.399 -21.405  1.00  0.00     0.274 HD
ENDBRANCH   5  16
BRANCH   7  20
HETATM   20  O9  UNL     1      28.700 -19.510 -21.339  1.00  0.00    -0.392 OA
ATOM     21  H9  UNL     1      28.899 -19.398 -20.417  1.00  0.00     0.210 HD
ENDBRANCH   7  20
BRANCH   4  22
HETATM   22  O5  UNL     1      32.300 -22.244 -22.980  1.00  0.00    -0.391 OA
ATOM     23  H5  UNL     1      33.175 -22.019 -22.684  1.00  0.00     0.210 HD
ENDBRANCH   4  22
BRANCH   1  24
HETATM   24  C2  UNL     1      27.356 -19.857 -23.387  1.00  0.00     0.267 C 
HETATM   25  O2  UNL     1      27.905 -18.740 -23.534  1.00  0.00    -0.265 OA
BRANCH  24  26
HETATM   26  O1  UNL     1      25.987 -19.903 -23.606  1.00  0.00    -0.326 OA
HETATM   27  C1  UNL     1      25.497 -20.069 -24.922  1.00  0.00     0.213 C 
ENDBRANCH  24  26
ENDBRANCH   1  24
BRANCH   3  28
HETATM   28  O4  UNL     1      31.434 -20.529 -24.507  1.00  0.00    -0.390 OA
ATOM     29  H4  UNL     1      32.319 -20.567 -24.163  1.00  0.00     0.210 HD
ENDBRANCH   3  28
BRANCH   2  30
HETATM   30  O3  UNL     1      29.109 -20.743 -25.179  1.00  0.00    -0.392 OA
ATOM     31  H3  UNL     1      28.886 -21.415 -25.812  1.00  0.00     0.210 HD
ENDBRANCH   2  30
TORSDOF 11
ENDMDL
MODEL 5
REMARK VINA RESULT: -6.091197400      2.430      6.426
REMARK  11 active torsions:
REMARK  status: ('A' for Active; 'I' for Inactive)
REMARK    1  A    between atoms: O1_2  and  C2_3 
REMARK    2  A    between atoms: C2_3  and  C3_5 
REMARK    3  A    between atoms: C4_6  and  O3_7 
REMARK    4  A    between atoms: C5_9  and  O4_10 
REMARK    5  A    between atoms: C6_12  and  O5_13 
REMARK    6  A    between atoms: C7_15  and  N1_16 
REMARK    7  A    between atoms: C8_20  and  O6_21 
REMARK    8  A    between atoms: O6_21  and  C9_22 
REMARK    9  A    between atoms: C9_22  and  O8_24 
REMARK   10  A    between atoms: O8_24  and  C10_25 
REMARK   11  A    between atoms: C14_29  and  O9_30 
ROOT
HETATM    1  C3  UNL     1      29.347 -22.467 -22.301  1.00  0.00     0.148 C 
HETATM    2  C4  UNL     1      30.326 -22.105 -23.334  1.00  0.00     0.165 C 
HETATM    3  C5  UNL     1      31.092 -20.840 -23.094  1.00  0.00     0.178 C 
HETATM    4  C6  UNL     1      32.223 -20.953 -22.143  1.00  0.00     0.182 C 
HETATM    5  C7  UNL     1      32.123 -21.963 -21.059  1.00  0.00     0.246 C 
HETATM    6  C8  UNL     1      30.865 -22.012 -20.286  1.00  0.00     0.197 C 
HETATM    7  C14 UNL     1      29.572 -21.930 -20.933  1.00  0.00     0.166 C 
ENDROOT
BRANCH   6   8
HETATM    8  O6  UNL     1      30.952 -23.198 -19.470  1.00  0.00    -0.288 OA
BRANCH   8   9
HETATM    9  C9  UNL     1      30.604 -23.252 -18.151  1.00  0.00     0.407 C 
HETATM   10  O7  UNL     1      31.345 -22.667 -17.317  1.00  0.00    -0.229 OA
BRANCH   9  11
HETATM   11  O8  UNL     1      29.483 -23.915 -17.673  1.00  0.00    -0.288 OA
BRANCH  11  12
HETATM   12  C10 UNL     1      28.179 -23.437 -17.795  1.00  0.00     0.062 C 
HETATM   13  C11 UNL     1      27.347 -24.125 -16.707  1.00  0.00     0.046 C 
HETATM   14  C12 UNL     1      28.057 -21.953 -17.547  1.00  0.00     0.046 C 
HETATM   15  C13 UNL     1      27.528 -23.782 -19.108  1.00  0.00     0.046 C 
ENDBRANCH  11  12
ENDBRANCH   9  11
ENDBRANCH   8   9
ENDBRANCH   6   8
BRANCH   5  16
HETATM   16  N1  UNL     1      32.648 -23.269 -21.418  1.00  0.00    -0.070 N 
ATOM     17  H13 UNL     1      32.820 -23.827 -20.582  1.00  0.00     0.274 HD
ATOM     18  H12 UNL     1      31.924 -23.838 -21.858  1.00  0.00     0.274 HD
ATOM     19  H11 UNL     1      33.482 -23.236 -22.003  1.00  0.00     0.274 HD
ENDBRANCH   5  16
BRANCH   7  20
HETATM   20  O9  UNL     1      29.069 -20.602 -20.912  1.00  0.00    -0.392 OA
ATOM     21  H9  UNL     1      29.610 -20.086 -21.498  1.00  0.00     0.210 HD
ENDBRANCH   7  20
BRANCH   4  22
HETATM   22  O5  UNL     1      33.450 -21.194 -22.808  1.00  0.00    -0.391 OA
ATOM     23  H5  UNL     1      34.053 -20.466 -22.715  1.00  0.00     0.210 HD
ENDBRANCH   4  22
BRANCH   1  24
HETATM   24  C2  UNL     1      27.999 -21.956 -22.685  1.00  0.00     0.267 C 
HETATM   25  O2  UNL     1      26.956 -22.607 -22.438  1.00  0.00    -0.265 OA
BRANCH  24  26
HETATM   26  O1  UNL     1      27.827 -20.742 -23.335  1.00  0.00    -0.326 OA
HETATM   27  C1  UNL     1      26.559 -20.407 -23.861  1.00  0.00     0.213 C 
ENDBRANCH  24  26
ENDBRANCH   1  24
BRANCH   3  28
HETATM   28  O4  UNL     1      31.667 -20.501 -24.347  1.00  0.00    -0.390 OA
ATOM     29  H4  UNL     1      32.267 -21.209 -24.551  1.00  0.00     0.210 HD
ENDBRANCH   3  28
BRANCH   2  30
HETATM   30  O3  UNL     1      29.811 -22.043 -24.629  1.00  0.00    -0.392 OA
ATOM     31  H3  UNL     1      29.859 -21.186 -25.034  1.00  0.00     0.210 HD
ENDBRANCH   2  30
TORSDOF 11
ENDMDL
