MODEL 1
REMARK VINA RESULT: -6.237300151      0.000      0.000
REMARK  3 active torsions:
REMARK  status: ('A' for Active; 'I' for Inactive)
REMARK    1  A    between atoms: O1_2  and  C2_3 
REMARK       I    between atoms: C2_3  and  N1_5 
REMARK    2  A    between atoms: N1_5  and  C3_7 
REMARK    3  A    between atoms: C6_19  and  O6_20 
ROOT
HETATM    1  C3  UNL     1      32.105 -23.790 -19.624  1.00  0.00     0.239 C 
HETATM    2  N2  UNL     1      31.273 -24.621 -20.484  1.00  0.00    -0.272 N 
ATOM      3  H2  UNL     1      31.402 -25.575 -20.823  1.00  0.00     0.176 HD
HETATM    4  S1  UNL     1      29.982 -23.472 -20.754  1.00  0.00     0.360 S 
HETATM    5  O3  UNL     1      29.457 -23.497 -22.127  1.00  0.00    -0.176 OA
HETATM    6  O4  UNL     1      28.870 -23.685 -19.781  1.00  0.00    -0.176 OA
HETATM    7  O5  UNL     1      30.860 -22.074 -20.380  1.00  0.00    -0.240 OA
HETATM    8  C4  UNL     1      32.223 -22.505 -20.353  1.00  0.00     0.168 C 
HETATM    9  C5  UNL     1      32.915 -21.417 -19.576  1.00  0.00     0.209 C 
HETATM   10  S2  UNL     1      34.691 -21.415 -19.704  1.00  0.00    -0.069 SA
HETATM   11  N3  UNL     1      32.470 -20.166 -20.177  1.00  0.00    -0.126 NA
HETATM   12  N4  UNL     1      33.013 -20.140 -21.469  1.00  0.00    -0.114 NA
HETATM   13  C6  UNL     1      32.383 -21.132 -22.328  1.00  0.00     0.247 C 
HETATM   14  C7  UNL     1      32.630 -22.547 -21.777  1.00  0.00     0.181 C 
HETATM   15  C8  UNL     1      33.963 -22.998 -22.059  1.00  0.00     0.071 C 
HETATM   16  N5  UNL     1      35.021 -23.352 -22.304  1.00  0.00    -0.197 NA
ENDROOT
BRANCH  13  17
HETATM   17  O6  UNL     1      32.833 -20.984 -23.606  1.00  0.00    -0.377 OA
ATOM     18  H6  UNL     1      33.577 -20.393 -23.616  1.00  0.00     0.211 HD
ENDBRANCH  13  17
BRANCH   1  19
HETATM   19  N1  UNL     1      33.269 -24.415 -19.147  1.00  0.00    -0.312 N 
HETATM   20  C2  UNL     1      33.240 -25.715 -18.594  1.00  0.00     0.361 C 
HETATM   21  O2  UNL     1      32.163 -26.391 -18.497  1.00  0.00    -0.238 OA
ATOM     22  H1  UNL     1      34.158 -23.917 -19.200  1.00  0.00     0.167 HD
BRANCH  20  23
HETATM   23  O1  UNL     1      34.377 -26.367 -18.110  1.00  0.00    -0.309 OA
HETATM   24  C1  UNL     1      34.311 -27.240 -16.987  1.00  0.00     0.215 C 
ENDBRANCH  20  23
ENDBRANCH   1  19
TORSDOF 3
ENDMDL
MODEL 2
REMARK VINA RESULT: -6.203524606      1.719      2.231
REMARK  3 active torsions:
REMARK  status: ('A' for Active; 'I' for Inactive)
REMARK    1  A    between atoms: O1_2  and  C2_3 
REMARK       I    between atoms: C2_3  and  N1_5 
REMARK    2  A    between atoms: N1_5  and  C3_7 
REMARK    3  A    between atoms: C6_19  and  O6_20 
ROOT
HETATM    1  C3  UNL     1      31.555 -22.612 -20.888  1.00  0.00     0.239 C 
HETATM    2  N2  UNL     1      31.026 -22.795 -22.233  1.00  0.00    -0.272 N 
ATOM      3  H2  UNL     1      30.991 -23.619 -22.833  1.00  0.00     0.176 HD
HETATM    4  S1  UNL     1      30.467 -21.159 -22.497  1.00  0.00     0.360 S 
HETATM    5  O3  UNL     1      30.690 -20.681 -23.869  1.00  0.00    -0.176 OA
HETATM    6  O4  UNL     1      29.022 -21.029 -22.144  1.00  0.00    -0.176 OA
HETATM    7  O5  UNL     1      31.447 -20.409 -21.340  1.00  0.00    -0.240 OA
HETATM    8  C4  UNL     1      32.411 -21.406 -20.989  1.00  0.00     0.168 C 
HETATM    9  C5  UNL     1      32.949 -20.919 -19.670  1.00  0.00     0.209 C 
HETATM   10  S2  UNL     1      34.461 -21.695 -19.141  1.00  0.00    -0.069 SA
HETATM   11  N3  UNL     1      33.271 -19.513 -19.875  1.00  0.00    -0.126 NA
HETATM   12  N4  UNL     1      34.345 -19.488 -20.776  1.00  0.00    -0.114 NA
HETATM   13  C6  UNL     1      33.929 -19.903 -22.107  1.00  0.00     0.247 C 
HETATM   14  C7  UNL     1      33.416 -21.353 -22.077  1.00  0.00     0.181 C 
HETATM   15  C8  UNL     1      34.497 -22.295 -22.008  1.00  0.00     0.071 C 
HETATM   16  N5  UNL     1      35.367 -23.034 -21.971  1.00  0.00    -0.197 NA
ENDROOT
BRANCH  13  17
HETATM   17  O6  UNL     1      34.958 -19.733 -22.984  1.00  0.00    -0.377 OA
ATOM     18  H6  UNL     1      35.785 -19.886 -22.540  1.00  0.00     0.211 HD
ENDBRANCH  13  17
BRANCH   1  19
HETATM   19  N1  UNL     1      32.078 -23.774 -20.296  1.00  0.00    -0.312 N 
HETATM   20  C2  UNL     1      31.378 -25.000 -20.325  1.00  0.00     0.361 C 
HETATM   21  O2  UNL     1      30.239 -25.123 -20.886  1.00  0.00    -0.238 OA
ATOM     22  H1  UNL     1      32.987 -23.730 -19.833  1.00  0.00     0.167 HD
BRANCH  20  23
HETATM   23  O1  UNL     1      31.867 -26.175 -19.748  1.00  0.00    -0.309 OA
HETATM   24  C1  UNL     1      33.137 -26.214 -19.104  1.00  0.00     0.215 C 
ENDBRANCH  20  23
ENDBRANCH   1  19
TORSDOF 3
ENDMDL
MODEL 3
REMARK VINA RESULT: -6.194057036      3.555      5.396
REMARK  3 active torsions:
REMARK  status: ('A' for Active; 'I' for Inactive)
REMARK    1  A    between atoms: O1_2  and  C2_3 
REMARK       I    between atoms: C2_3  and  N1_5 
REMARK    2  A    between atoms: N1_5  and  C3_7 
REMARK    3  A    between atoms: C6_19  and  O6_20 
ROOT
HETATM    1  C3  UNL     1      30.368 -21.700 -23.205  1.00  0.00     0.239 C 
HETATM    2  N2  UNL     1      30.256 -20.256 -23.358  1.00  0.00    -0.272 N 
ATOM      3  H2  UNL     1      30.961 -19.520 -23.310  1.00  0.00     0.176 HD
HETATM    4  S1  UNL     1      28.533 -20.177 -23.651  1.00  0.00     0.360 S 
HETATM    5  O3  UNL     1      27.885 -19.025 -23.008  1.00  0.00    -0.176 OA
HETATM    6  O4  UNL     1      28.244 -20.170 -25.115  1.00  0.00    -0.176 OA
HETATM    7  O5  UNL     1      28.131 -21.667 -22.957  1.00  0.00    -0.240 OA
HETATM    8  C4  UNL     1      29.304 -22.053 -22.235  1.00  0.00     0.168 C 
HETATM    9  C5  UNL     1      29.117 -23.533 -22.037  1.00  0.00     0.209 C 
HETATM   10  S2  UNL     1      30.185 -24.270 -20.818  1.00  0.00    -0.069 SA
HETATM   11  N3  UNL     1      27.761 -23.691 -21.527  1.00  0.00    -0.126 NA
HETATM   12  N4  UNL     1      27.757 -23.114 -20.250  1.00  0.00    -0.114 NA
HETATM   13  C6  UNL     1      27.891 -21.666 -20.321  1.00  0.00     0.247 C 
HETATM   14  C7  UNL     1      29.233 -21.287 -20.969  1.00  0.00     0.181 C 
HETATM   15  C8  UNL     1      30.326 -21.446 -20.052  1.00  0.00     0.071 C 
HETATM   16  N5  UNL     1      31.184 -21.560 -19.308  1.00  0.00    -0.197 NA
ENDROOT
BRANCH  13  17
HETATM   17  O6  UNL     1      27.742 -21.129 -19.078  1.00  0.00    -0.377 OA
ATOM     18  H6  UNL     1      27.647 -20.186 -19.146  1.00  0.00     0.211 HD
ENDBRANCH  13  17
BRANCH   1  19
HETATM   19  N1  UNL     1      31.674 -22.172 -22.989  1.00  0.00    -0.312 N 
HETATM   20  C2  UNL     1      32.702 -21.321 -22.527  1.00  0.00     0.361 C 
HETATM   21  O2  UNL     1      32.506 -20.085 -22.281  1.00  0.00    -0.238 OA
ATOM     22  H1  UNL     1      31.884 -23.154 -23.171  1.00  0.00     0.167 HD
BRANCH  20  23
HETATM   23  O1  UNL     1      34.011 -21.755 -22.300  1.00  0.00    -0.309 OA
HETATM   24  C1  UNL     1      34.282 -22.985 -21.638  1.00  0.00     0.215 C 
ENDBRANCH  20  23
ENDBRANCH   1  19
TORSDOF 3
ENDMDL
MODEL 4
REMARK VINA RESULT: -6.188851720      5.024      6.552
REMARK  3 active torsions:
REMARK  status: ('A' for Active; 'I' for Inactive)
REMARK    1  A    between atoms: O1_2  and  C2_3 
REMARK       I    between atoms: C2_3  and  N1_5 
REMARK    2  A    between atoms: N1_5  and  C3_7 
REMARK    3  A    between atoms: C6_19  and  O6_20 
ROOT
HETATM    1  C3  UNL     1      28.525 -21.665 -22.569  1.00  0.00     0.239 C 
HETATM    2  N2  UNL     1      28.381 -23.110 -22.456  1.00  0.00    -0.272 N 
ATOM      3  H2  UNL     1      29.004 -23.869 -22.733  1.00  0.00     0.176 HD
HETATM    4  S1  UNL     1      26.806 -23.136 -21.696  1.00  0.00     0.360 S 
HETATM    5  O3  UNL     1      25.942 -24.222 -22.182  1.00  0.00    -0.176 OA
HETATM    6  O4  UNL     1      26.936 -23.217 -20.211  1.00  0.00    -0.176 OA
HETATM    7  O5  UNL     1      26.309 -21.594 -22.182  1.00  0.00    -0.240 OA
HETATM    8  C4  UNL     1      27.255 -21.214 -23.185  1.00  0.00     0.168 C 
HETATM    9  C5  UNL     1      27.102 -19.718 -23.257  1.00  0.00     0.209 C 
HETATM   10  S2  UNL     1      27.827 -18.955 -24.693  1.00  0.00    -0.069 SA
HETATM   11  N3  UNL     1      25.668 -19.477 -23.359  1.00  0.00    -0.126 NA
HETATM   12  N4  UNL     1      25.278 -19.978 -24.609  1.00  0.00    -0.114 NA
HETATM   13  C6  UNL     1      25.346 -21.432 -24.642  1.00  0.00     0.247 C 
HETATM   14  C7  UNL     1      26.793 -21.901 -24.414  1.00  0.00     0.181 C 
HETATM   15  C8  UNL     1      27.595 -21.734 -25.592  1.00  0.00     0.071 C 
HETATM   16  N5  UNL     1      28.217 -21.611 -26.542  1.00  0.00    -0.197 NA
ENDROOT
BRANCH  13  17
HETATM   17  O6  UNL     1      24.829 -21.889 -25.817  1.00  0.00    -0.377 OA
ATOM     18  H6  UNL     1      24.595 -22.806 -25.727  1.00  0.00     0.211 HD
ENDBRANCH  13  17
BRANCH   1  19
HETATM   19  N1  UNL     1      29.743 -21.234 -23.122  1.00  0.00    -0.312 N 
HETATM   20  C2  UNL     1      30.985 -21.638 -22.583  1.00  0.00     0.361 C 
HETATM   21  O2  UNL     1      31.072 -22.410 -21.572  1.00  0.00    -0.238 OA
ATOM     22  H1  UNL     1      29.730 -20.615 -23.933  1.00  0.00     0.167 HD
BRANCH  20  23
HETATM   23  O1  UNL     1      32.216 -21.230 -23.106  1.00  0.00    -0.309 OA
HETATM   24  C1  UNL     1      33.215 -20.642 -22.280  1.00  0.00     0.215 C 
ENDBRANCH  20  23
ENDBRANCH   1  19
TORSDOF 3
ENDMDL
MODEL 5
REMARK VINA RESULT: -6.102033340      3.558      6.516
REMARK  3 active torsions:
REMARK  status: ('A' for Active; 'I' for Inactive)
REMARK    1  A    between atoms: O1_2  and  C2_3 
REMARK       I    between atoms: C2_3  and  N1_5 
REMARK    2  A    between atoms: N1_5  and  C3_7 
REMARK    3  A    between atoms: C6_19  and  O6_20 
ROOT
HETATM    1  C3  UNL     1      29.670 -21.594 -22.946  1.00  0.00     0.239 C 
HETATM    2  N2  UNL     1      30.672 -22.308 -23.726  1.00  0.00    -0.272 N 
ATOM      3  H2  UNL     1      30.578 -22.928 -24.531  1.00  0.00     0.176 HD
HETATM    4  S1  UNL     1      32.087 -21.770 -22.851  1.00  0.00     0.360 S 
HETATM    5  O3  UNL     1      33.104 -22.819 -22.685  1.00  0.00    -0.176 OA
HETATM    6  O4  UNL     1      32.695 -20.574 -23.508  1.00  0.00    -0.176 OA
HETATM    7  O5  UNL     1      31.301 -21.343 -21.415  1.00  0.00    -0.240 OA
HETATM    8  C4  UNL     1      29.997 -21.919 -21.538  1.00  0.00     0.168 C 
HETATM    9  C5  UNL     1      29.185 -21.156 -20.525  1.00  0.00     0.209 C 
HETATM   10  S2  UNL     1      27.616 -21.889 -20.112  1.00  0.00    -0.069 SA
HETATM   11  N3  UNL     1      29.971 -21.178 -19.298  1.00  0.00    -0.126 NA
HETATM   12  N4  UNL     1      29.988 -22.513 -18.872  1.00  0.00    -0.114 NA
HETATM   13  C6  UNL     1      30.787 -23.344 -19.761  1.00  0.00     0.247 C 
HETATM   14  C7  UNL     1      30.182 -23.343 -21.175  1.00  0.00     0.181 C 
HETATM   15  C8  UNL     1      29.025 -24.189 -21.256  1.00  0.00     0.071 C 
HETATM   16  N5  UNL     1      28.117 -24.878 -21.311  1.00  0.00    -0.197 NA
ENDROOT
BRANCH  13  17
HETATM   17  O6  UNL     1      30.897 -24.599 -19.242  1.00  0.00    -0.377 OA
ATOM     18  H6  UNL     1      30.289 -24.700 -18.518  1.00  0.00     0.211 HD
ENDBRANCH  13  17
BRANCH   1  19
HETATM   19  N1  UNL     1      28.349 -21.753 -23.396  1.00  0.00    -0.312 N 
HETATM   20  C2  UNL     1      27.890 -21.139 -24.582  1.00  0.00     0.361 C 
HETATM   21  O2  UNL     1      28.643 -20.410 -25.308  1.00  0.00    -0.238 OA
ATOM     22  H1  UNL     1      27.704 -22.327 -22.851  1.00  0.00     0.167 HD
BRANCH  20  23
HETATM   23  O1  UNL     1      26.583 -21.275 -25.059  1.00  0.00    -0.309 OA
HETATM   24  C1  UNL     1      25.634 -20.221 -24.936  1.00  0.00     0.215 C 
ENDBRANCH  20  23
ENDBRANCH   1  19
TORSDOF 3
ENDMDL
