MODEL 1
REMARK VINA RESULT: -7.187386322      0.000      0.000
REMARK  7 active torsions:
REMARK  status: ('A' for Active; 'I' for Inactive)
REMARK    1  A    between atoms: O1_2  and  C2_3 
REMARK    2  A    between atoms: C2_3  and  C3_5 
REMARK    3  A    between atoms: C3_5  and  O3_6 
REMARK    4  A    between atoms: C6_11  and  O5_12 
REMARK    5  A    between atoms: C7_14  and  O6_15 
REMARK    6  A    between atoms: C8_17  and  O7_18 
REMARK    7  A    between atoms: C13_25  and  O9_26 
ROOT
HETATM    1  C3  UNL     1      27.563 -20.812 -23.583  1.00  0.00     0.275 C 
HETATM    2  C4  UNL     1      28.962 -20.622 -23.225  1.00  0.00     0.215 C 
HETATM    3  O4  UNL     1      29.414 -19.491 -23.541  1.00  0.00    -0.288 OA
HETATM    4  C5  UNL     1      29.891 -21.524 -22.573  1.00  0.00     0.065 A 
HETATM    5  C6  UNL     1      31.193 -21.128 -22.789  1.00  0.00     0.116 A 
HETATM    6  C7  UNL     1      32.202 -21.853 -22.261  1.00  0.00     0.134 A 
HETATM    7  C8  UNL     1      31.917 -22.994 -21.502  1.00  0.00     0.108 A 
HETATM    8  C9  UNL     1      30.631 -23.442 -21.250  1.00  0.00    -0.011 A 
HETATM    9  C10 UNL     1      30.335 -24.661 -20.466  1.00  0.00     0.052 C 
HETATM   10  C11 UNL     1      29.630 -22.663 -21.814  1.00  0.00     0.038 A 
HETATM   11  C12 UNL     1      28.320 -23.181 -21.492  1.00  0.00     0.197 C 
HETATM   12  O8  UNL     1      28.280 -23.783 -20.398  1.00  0.00    -0.289 OA
HETATM   13  C13 UNL     1      27.032 -23.133 -22.203  1.00  0.00     0.266 C 
HETATM   14  C14 UNL     1      26.903 -22.045 -23.188  1.00  0.00     0.215 C 
HETATM   15  O10 UNL     1      25.904 -22.259 -23.907  1.00  0.00    -0.290 OA
ENDROOT
BRANCH   1  16
HETATM   16  C2  UNL     1      27.507 -20.738 -25.091  1.00  0.00     0.309 C 
HETATM   17  O2  UNL     1      28.133 -21.552 -25.785  1.00  0.00    -0.261 OA
BRANCH  16  18
HETATM   18  O1  UNL     1      26.762 -19.767 -25.732  1.00  0.00    -0.323 OA
HETATM   19  C1  UNL     1      25.614 -20.015 -26.498  1.00  0.00     0.213 C 
ENDBRANCH  16  18
ENDBRANCH   1  16
BRANCH   1  20
HETATM   20  O3  UNL     1      26.787 -19.742 -23.076  1.00  0.00    -0.366 OA
ATOM     21  H3  UNL     1      26.493 -19.989 -22.208  1.00  0.00     0.212 HD
ENDBRANCH   1  20
BRANCH  13  22
HETATM   22  O9  UNL     1      25.957 -23.124 -21.314  1.00  0.00    -0.380 OA
ATOM     23  H9  UNL     1      25.165 -22.801 -21.728  1.00  0.00     0.211 HD
ENDBRANCH  13  22
BRANCH   5  24
HETATM   24  O5  UNL     1      31.467 -19.998 -23.541  1.00  0.00    -0.357 OA
ATOM     25  H5  UNL     1      32.226 -19.461 -23.343  1.00  0.00     0.217 HD
ENDBRANCH   5  24
BRANCH   6  26
HETATM   26  O6  UNL     1      33.527 -21.491 -22.454  1.00  0.00    -0.356 OA
ATOM     27  H6  UNL     1      34.193 -21.697 -21.809  1.00  0.00     0.218 HD
ENDBRANCH   6  26
BRANCH   7  28
HETATM   28  O7  UNL     1      33.031 -23.661 -21.007  1.00  0.00    -0.357 OA
ATOM     29  H7  UNL     1      32.976 -24.609 -21.037  1.00  0.00     0.217 HD
ENDBRANCH   7  28
TORSDOF 7
ENDMDL
MODEL 2
REMARK VINA RESULT: -7.108684574      1.341      1.481
REMARK  7 active torsions:
REMARK  status: ('A' for Active; 'I' for Inactive)
REMARK    1  A    between atoms: O1_2  and  C2_3 
REMARK    2  A    between atoms: C2_3  and  C3_5 
REMARK    3  A    between atoms: C3_5  and  O3_6 
REMARK    4  A    between atoms: C6_11  and  O5_12 
REMARK    5  A    between atoms: C7_14  and  O6_15 
REMARK    6  A    between atoms: C8_17  and  O7_18 
REMARK    7  A    between atoms: C13_25  and  O9_26 
ROOT
HETATM    1  C3  UNL     1      28.758 -20.534 -22.863  1.00  0.00     0.275 C 
HETATM    2  C4  UNL     1      30.202 -20.707 -22.789  1.00  0.00     0.215 C 
HETATM    3  O4  UNL     1      30.847 -19.852 -23.450  1.00  0.00    -0.288 OA
HETATM    4  C5  UNL     1      30.989 -21.696 -22.080  1.00  0.00     0.065 A 
HETATM    5  C6  UNL     1      32.268 -21.763 -22.590  1.00  0.00     0.116 A 
HETATM    6  C7  UNL     1      33.149 -22.637 -22.058  1.00  0.00     0.134 A 
HETATM    7  C8  UNL     1      32.757 -23.461 -20.997  1.00  0.00     0.108 A 
HETATM    8  C9  UNL     1      31.488 -23.441 -20.442  1.00  0.00    -0.011 A 
HETATM    9  C10 UNL     1      31.072 -24.330 -19.336  1.00  0.00     0.052 C 
HETATM   10  C11 UNL     1      30.621 -22.526 -21.024  1.00  0.00     0.038 A 
HETATM   11  C12 UNL     1      29.327 -22.549 -20.380  1.00  0.00     0.197 C 
HETATM   12  O8  UNL     1      29.378 -22.878 -19.176  1.00  0.00    -0.289 OA
HETATM   13  C13 UNL     1      27.970 -22.259 -20.871  1.00  0.00     0.266 C 
HETATM   14  C14 UNL     1      27.908 -21.405 -22.069  1.00  0.00     0.215 C 
HETATM   15  O10 UNL     1      26.754 -21.448 -22.544  1.00  0.00    -0.290 OA
ENDROOT
BRANCH   1  16
HETATM   16  C2  UNL     1      28.389 -20.751 -24.313  1.00  0.00     0.309 C 
HETATM   17  O2  UNL     1      28.599 -21.844 -24.859  1.00  0.00    -0.261 OA
BRANCH  16  18
HETATM   18  O1  UNL     1      27.812 -19.744 -25.063  1.00  0.00    -0.323 OA
HETATM   19  C1  UNL     1      26.482 -19.741 -25.510  1.00  0.00     0.213 C 
ENDBRANCH  16  18
ENDBRANCH   1  16
BRANCH   1  20
HETATM   20  O3  UNL     1      28.415 -19.201 -22.534  1.00  0.00    -0.366 OA
ATOM     21  H3  UNL     1      28.581 -19.084 -21.606  1.00  0.00     0.212 HD
ENDBRANCH   1  20
BRANCH  13  22
HETATM   22  O9  UNL     1      27.158 -21.748 -19.857  1.00  0.00    -0.380 OA
ATOM     23  H9  UNL     1      26.664 -20.993 -20.154  1.00  0.00     0.211 HD
ENDBRANCH  13  22
BRANCH   5  24
HETATM   24  O5  UNL     1      32.648 -20.943 -23.639  1.00  0.00    -0.357 OA
ATOM     25  H5  UNL     1      32.297 -20.063 -23.714  1.00  0.00     0.217 HD
ENDBRANCH   5  24
BRANCH   6  26
HETATM   26  O6  UNL     1      34.445 -22.737 -22.540  1.00  0.00    -0.356 OA
ATOM     27  H6  UNL     1      34.705 -23.451 -23.110  1.00  0.00     0.218 HD
ENDBRANCH   6  26
BRANCH   7  28
HETATM   28  O7  UNL     1      33.743 -24.319 -20.526  1.00  0.00    -0.357 OA
ATOM     29  H7  UNL     1      33.424 -25.058 -20.022  1.00  0.00     0.217 HD
ENDBRANCH   7  28
TORSDOF 7
ENDMDL
MODEL 3
REMARK VINA RESULT: -6.856305324      1.480      2.124
REMARK  7 active torsions:
REMARK  status: ('A' for Active; 'I' for Inactive)
REMARK    1  A    between atoms: O1_2  and  C2_3 
REMARK    2  A    between atoms: C2_3  and  C3_5 
REMARK    3  A    between atoms: C3_5  and  O3_6 
REMARK    4  A    between atoms: C6_11  and  O5_12 
REMARK    5  A    between atoms: C7_14  and  O6_15 
REMARK    6  A    between atoms: C8_17  and  O7_18 
REMARK    7  A    between atoms: C13_25  and  O9_26 
ROOT
HETATM    1  C3  UNL     1      29.283 -21.042 -22.241  1.00  0.00     0.275 C 
HETATM    2  C4  UNL     1      30.738 -21.081 -22.185  1.00  0.00     0.215 C 
HETATM    3  O4  UNL     1      31.289 -20.052 -22.658  1.00  0.00    -0.288 OA
HETATM    4  C5  UNL     1      31.626 -22.106 -21.675  1.00  0.00     0.065 A 
HETATM    5  C6  UNL     1      32.901 -21.944 -22.173  1.00  0.00     0.116 A 
HETATM    6  C7  UNL     1      33.869 -22.812 -21.811  1.00  0.00     0.134 A 
HETATM    7  C8  UNL     1      33.571 -23.864 -20.938  1.00  0.00     0.108 A 
HETATM    8  C9  UNL     1      32.310 -24.080 -20.405  1.00  0.00    -0.011 A 
HETATM    9  C10 UNL     1      31.994 -25.207 -19.500  1.00  0.00     0.052 C 
HETATM   10  C11 UNL     1      31.352 -23.160 -20.806  1.00  0.00     0.038 A 
HETATM   11  C12 UNL     1      30.072 -23.439 -20.195  1.00  0.00     0.197 C 
HETATM   12  O8  UNL     1      30.165 -23.991 -19.078  1.00  0.00    -0.289 OA
HETATM   13  C13 UNL     1      28.688 -23.195 -20.635  1.00  0.00     0.266 C 
HETATM   14  C14 UNL     1      28.532 -22.132 -21.643  1.00  0.00     0.215 C 
HETATM   15  O10 UNL     1      27.384 -22.196 -22.132  1.00  0.00    -0.290 OA
ENDROOT
BRANCH   1  16
HETATM   16  C2  UNL     1      28.927 -21.006 -23.709  1.00  0.00     0.309 C 
HETATM   17  O2  UNL     1      29.237 -21.945 -24.456  1.00  0.00    -0.261 OA
BRANCH  16  18
HETATM   18  O1  UNL     1      28.250 -19.931 -24.255  1.00  0.00    -0.323 OA
HETATM   19  C1  UNL     1      27.049 -20.024 -24.974  1.00  0.00     0.213 C 
ENDBRANCH  16  18
ENDBRANCH   1  16
BRANCH   1  20
HETATM   20  O3  UNL     1      28.811 -19.840 -21.661  1.00  0.00    -0.366 OA
ATOM     21  H3  UNL     1      29.551 -19.414 -21.245  1.00  0.00     0.212 HD
ENDBRANCH   1  20
BRANCH  13  22
HETATM   22  O9  UNL     1      27.838 -22.977 -19.551  1.00  0.00    -0.380 OA
ATOM     23  H9  UNL     1      27.375 -23.770 -19.307  1.00  0.00     0.211 HD
ENDBRANCH  13  22
BRANCH   5  24
HETATM   24  O5  UNL     1      33.189 -20.900 -23.036  1.00  0.00    -0.357 OA
ATOM     25  H5  UNL     1      34.016 -20.436 -22.971  1.00  0.00     0.217 HD
ENDBRANCH   5  24
BRANCH   6  26
HETATM   26  O6  UNL     1      35.165 -22.685 -22.289  1.00  0.00    -0.356 OA
ATOM     27  H6  UNL     1      35.854 -23.275 -22.007  1.00  0.00     0.218 HD
ENDBRANCH   6  26
BRANCH   7  28
HETATM   28  O7  UNL     1      34.642 -24.695 -20.633  1.00  0.00    -0.357 OA
ATOM     29  H7  UNL     1      34.682 -24.982 -19.729  1.00  0.00     0.217 HD
ENDBRANCH   7  28
TORSDOF 7
ENDMDL
MODEL 4
REMARK VINA RESULT: -6.843443634      1.470      3.984
REMARK  7 active torsions:
REMARK  status: ('A' for Active; 'I' for Inactive)
REMARK    1  A    between atoms: O1_2  and  C2_3 
REMARK    2  A    between atoms: C2_3  and  C3_5 
REMARK    3  A    between atoms: C3_5  and  O3_6 
REMARK    4  A    between atoms: C6_11  and  O5_12 
REMARK    5  A    between atoms: C7_14  and  O6_15 
REMARK    6  A    between atoms: C8_17  and  O7_18 
REMARK    7  A    between atoms: C13_25  and  O9_26 
ROOT
HETATM    1  C3  UNL     1      27.423 -21.412 -24.020  1.00  0.00     0.275 C 
HETATM    2  C4  UNL     1      27.219 -22.343 -22.919  1.00  0.00     0.215 C 
HETATM    3  O4  UNL     1      26.207 -23.078 -23.061  1.00  0.00    -0.288 OA
HETATM    4  C5  UNL     1      27.993 -22.545 -21.710  1.00  0.00     0.065 A 
HETATM    5  C6  UNL     1      27.252 -23.211 -20.758  1.00  0.00     0.116 A 
HETATM    6  C7  UNL     1      27.808 -23.485 -19.558  1.00  0.00     0.134 A 
HETATM    7  C8  UNL     1      29.125 -23.092 -19.295  1.00  0.00     0.108 A 
HETATM    8  C9  UNL     1      29.919 -22.419 -20.209  1.00  0.00    -0.011 A 
HETATM    9  C10 UNL     1      31.303 -21.986 -19.918  1.00  0.00     0.052 C 
HETATM   10  C11 UNL     1      29.303 -22.163 -21.426  1.00  0.00     0.038 A 
HETATM   11  C12 UNL     1      30.198 -21.479 -22.332  1.00  0.00     0.197 C 
HETATM   12  O8  UNL     1      31.402 -21.752 -22.140  1.00  0.00    -0.289 OA
HETATM   13  C13 UNL     1      29.961 -20.529 -23.431  1.00  0.00     0.266 C 
HETATM   14  C14 UNL     1      28.609 -20.573 -24.015  1.00  0.00     0.215 C 
HETATM   15  O10 UNL     1      28.440 -19.566 -24.734  1.00  0.00    -0.290 OA
ENDROOT
BRANCH   1  16
HETATM   16  C2  UNL     1      26.225 -20.492 -24.011  1.00  0.00     0.309 C 
HETATM   17  O2  UNL     1      26.102 -19.625 -23.133  1.00  0.00    -0.261 OA
BRANCH  16  18
HETATM   18  O1  UNL     1      25.239 -20.591 -24.975  1.00  0.00    -0.323 OA
HETATM   19  C1  UNL     1      25.122 -19.747 -26.090  1.00  0.00     0.213 C 
ENDBRANCH  16  18
ENDBRANCH   1  16
BRANCH   1  20
HETATM   20  O3  UNL     1      27.411 -22.112 -25.251  1.00  0.00    -0.366 OA
ATOM     21  H3  UNL     1      28.294 -22.091 -25.599  1.00  0.00     0.212 HD
ENDBRANCH   1  20
BRANCH  13  22
HETATM   22  O9  UNL     1      30.933 -20.645 -24.425  1.00  0.00    -0.380 OA
ATOM     23  H9  UNL     1      30.977 -19.863 -24.962  1.00  0.00     0.211 HD
ENDBRANCH  13  22
BRANCH   5  24
HETATM   24  O5  UNL     1      25.950 -23.598 -21.027  1.00  0.00    -0.357 OA
ATOM     25  H5  UNL     1      25.541 -24.293 -20.524  1.00  0.00     0.217 HD
ENDBRANCH   5  24
BRANCH   6  26
HETATM   26  O6  UNL     1      27.098 -24.154 -18.572  1.00  0.00    -0.356 OA
ATOM     27  H6  UNL     1      26.557 -24.907 -18.779  1.00  0.00     0.218 HD
ENDBRANCH   6  26
BRANCH   7  28
HETATM   28  O7  UNL     1      29.594 -23.426 -18.030  1.00  0.00    -0.357 OA
ATOM     29  H7  UNL     1      30.310 -22.888 -17.714  1.00  0.00     0.217 HD
ENDBRANCH   7  28
TORSDOF 7
ENDMDL
MODEL 5
REMARK VINA RESULT: -6.726974705      1.798      5.653
REMARK  7 active torsions:
REMARK  status: ('A' for Active; 'I' for Inactive)
REMARK    1  A    between atoms: O1_2  and  C2_3 
REMARK    2  A    between atoms: C2_3  and  C3_5 
REMARK    3  A    between atoms: C3_5  and  O3_6 
REMARK    4  A    between atoms: C6_11  and  O5_12 
REMARK    5  A    between atoms: C7_14  and  O6_15 
REMARK    6  A    between atoms: C8_17  and  O7_18 
REMARK    7  A    between atoms: C13_25  and  O9_26 
ROOT
HETATM    1  C3  UNL     1      32.653 -22.174 -20.722  1.00  0.00     0.275 C 
HETATM    2  C4  UNL     1      32.021 -21.946 -22.014  1.00  0.00     0.215 C 
HETATM    3  O4  UNL     1      32.840 -21.728 -22.945  1.00  0.00    -0.288 OA
HETATM    4  C5  UNL     1      30.618 -21.936 -22.379  1.00  0.00     0.065 A 
HETATM    5  C6  UNL     1      30.428 -21.288 -23.581  1.00  0.00     0.116 A 
HETATM    6  C7  UNL     1      29.180 -21.173 -24.082  1.00  0.00     0.134 A 
HETATM    7  C8  UNL     1      28.095 -21.711 -23.379  1.00  0.00     0.108 A 
HETATM    8  C9  UNL     1      28.222 -22.371 -22.168  1.00  0.00    -0.011 A 
HETATM    9  C10 UNL     1      27.070 -22.918 -21.418  1.00  0.00     0.052 C 
HETATM   10  C11 UNL     1      29.524 -22.464 -21.697  1.00  0.00     0.038 A 
HETATM   11  C12 UNL     1      29.577 -23.181 -20.443  1.00  0.00     0.197 C 
HETATM   12  O8  UNL     1      28.669 -24.030 -20.318  1.00  0.00    -0.289 OA
HETATM   13  C13 UNL     1      30.493 -23.102 -19.293  1.00  0.00     0.266 C 
HETATM   14  C14 UNL     1      31.817 -22.526 -19.588  1.00  0.00     0.215 C 
HETATM   15  O10 UNL     1      32.397 -22.262 -18.514  1.00  0.00    -0.290 OA
ENDROOT
BRANCH   1  16
HETATM   16  C2  UNL     1      33.358 -20.884 -20.374  1.00  0.00     0.309 C 
HETATM   17  O2  UNL     1      32.716 -19.835 -20.225  1.00  0.00    -0.261 OA
BRANCH  16  18
HETATM   18  O1  UNL     1      34.731 -20.840 -20.213  1.00  0.00    -0.323 OA
HETATM   19  C1  UNL     1      35.628 -20.296 -21.144  1.00  0.00     0.213 C 
ENDBRANCH  16  18
ENDBRANCH   1  16
BRANCH   1  20
HETATM   20  O3  UNL     1      33.643 -23.179 -20.841  1.00  0.00    -0.366 OA
ATOM     21  H3  UNL     1      34.448 -22.756 -21.116  1.00  0.00     0.212 HD
ENDBRANCH   1  20
BRANCH  13  22
HETATM   22  O9  UNL     1      30.622 -24.337 -18.657  1.00  0.00    -0.380 OA
ATOM     23  H9  UNL     1      30.574 -24.248 -17.712  1.00  0.00     0.211 HD
ENDBRANCH  13  22
BRANCH   5  24
HETATM   24  O5  UNL     1      31.506 -20.760 -24.271  1.00  0.00    -0.357 OA
ATOM     25  H5  UNL     1      32.390 -20.868 -23.938  1.00  0.00     0.217 HD
ENDBRANCH   5  24
BRANCH   6  26
HETATM   26  O6  UNL     1      28.944 -20.530 -25.288  1.00  0.00    -0.356 OA
ATOM     27  H6  UNL     1      29.520 -19.843 -25.600  1.00  0.00     0.218 HD
ENDBRANCH   6  26
BRANCH   7  28
HETATM   28  O7  UNL     1      26.858 -21.536 -23.987  1.00  0.00    -0.357 OA
ATOM     29  H7  UNL     1      26.465 -22.330 -24.330  1.00  0.00     0.217 HD
ENDBRANCH   7  28
TORSDOF 7
ENDMDL
