MODEL 1
REMARK VINA RESULT: -6.666684753      0.000      0.000
REMARK  6 active torsions:
REMARK  status: ('A' for Active; 'I' for Inactive)
REMARK    1  A    between atoms: C2_2  and  O2_4 
REMARK    2  A    between atoms: O2_4  and  C3_5 
REMARK    3  A    between atoms: C3_5  and  C4_6 
REMARK    4  A    between atoms: C8_12  and  O5_13 
REMARK    5  A    between atoms: C12_18  and  O6_19 
REMARK    6  A    between atoms: O6_19  and  C13_20 
ROOT
HETATM    1  C4  UNL     1     -12.460 -37.471 -12.757  1.00  0.00     0.134 C 
HETATM    2  O3  UNL     1     -11.849 -38.358 -11.786  1.00  0.00    -0.303 OA
HETATM    3  C5  UNL     1     -10.918 -37.544 -11.151  1.00  0.00     0.266 C 
HETATM    4  O4  UNL     1      -9.866 -37.946 -10.605  1.00  0.00    -0.265 OA
HETATM    5  C6  UNL     1     -11.335 -36.122 -11.202  1.00  0.00     0.119 C 
HETATM    6  C7  UNL     1     -11.472 -35.554  -9.781  1.00  0.00     0.024 C 
HETATM    7  C8  UNL     1     -12.726 -36.344 -11.815  1.00  0.00     0.105 C 
HETATM    8  C9  UNL     1     -13.386 -35.146 -12.319  1.00  0.00     0.042 C 
HETATM    9  C10 UNL     1     -14.861 -35.337 -12.287  1.00  0.00     0.011 C 
HETATM   10  C11 UNL     1     -15.447 -36.355 -13.152  1.00  0.00     0.024 C 
HETATM   11  C12 UNL     1     -14.988 -37.770 -13.018  1.00  0.00     0.148 C 
HETATM   12  C15 UNL     1     -13.582 -38.038 -13.494  1.00  0.00     0.020 C 
HETATM   13  C16 UNL     1     -13.484 -39.576 -13.373  1.00  0.00     0.021 C 
HETATM   14  C17 UNL     1     -13.640 -37.759 -14.983  1.00  0.00     0.016 C 
HETATM   15  C18 UNL     1     -14.250 -36.457 -15.373  1.00  0.00     0.010 C 
HETATM   16  C19 UNL     1     -15.451 -36.028 -14.628  1.00  0.00    -0.042 C 
HETATM   17  C20 UNL     1     -16.665 -36.720 -15.267  1.00  0.00     0.015 C 
HETATM   18  C21 UNL     1     -15.684 -34.546 -14.796  1.00  0.00     0.015 C 
ENDROOT
BRANCH   1  19
HETATM   19  C3  UNL     1     -11.269 -37.194 -13.672  1.00  0.00     0.221 C 
BRANCH  19  20
HETATM   20  O2  UNL     1     -10.782 -38.416 -14.233  1.00  0.00    -0.319 OA
BRANCH  20  21
HETATM   21  C2  UNL     1      -9.463 -38.750 -14.293  1.00  0.00     0.254 C 
HETATM   22  C1  UNL     1      -8.635 -38.170 -15.386  1.00  0.00     0.126 C 
HETATM   23  O1  UNL     1      -8.971 -39.520 -13.451  1.00  0.00    -0.266 OA
ENDBRANCH  20  21
ENDBRANCH  19  20
ENDBRANCH   1  19
BRANCH   7  24
HETATM   24  O5  UNL     1     -13.424 -36.791 -10.670  1.00  0.00    -0.386 OA
ATOM     25  H5  UNL     1     -14.304 -36.434 -10.645  1.00  0.00     0.210 HD
ENDBRANCH   7  24
BRANCH  11  26
HETATM   26  O6  UNL     1     -15.386 -38.434 -11.863  1.00  0.00    -0.315 OA
BRANCH  26  27
HETATM   27  C13 UNL     1     -16.521 -39.166 -11.651  1.00  0.00     0.255 C 
HETATM   28  C14 UNL     1     -16.610 -40.263 -10.652  1.00  0.00     0.126 C 
HETATM   29  O7  UNL     1     -17.532 -38.868 -12.358  1.00  0.00    -0.266 OA
ENDBRANCH  26  27
ENDBRANCH  11  26
TORSDOF 6
ENDMDL
MODEL 2
REMARK VINA RESULT: -6.548138089      1.658      3.050
REMARK  6 active torsions:
REMARK  status: ('A' for Active; 'I' for Inactive)
REMARK    1  A    between atoms: C2_2  and  O2_4 
REMARK    2  A    between atoms: O2_4  and  C3_5 
REMARK    3  A    between atoms: C3_5  and  C4_6 
REMARK    4  A    between atoms: C8_12  and  O5_13 
REMARK    5  A    between atoms: C12_18  and  O6_19 
REMARK    6  A    between atoms: O6_19  and  C13_20 
ROOT
HETATM    1  C4  UNL     1     -13.523 -36.887 -12.473  1.00  0.00     0.134 C 
HETATM    2  O3  UNL     1     -13.509 -36.282 -11.155  1.00  0.00    -0.303 OA
HETATM    3  C5  UNL     1     -13.671 -34.927 -11.425  1.00  0.00     0.266 C 
HETATM    4  O4  UNL     1     -13.261 -33.997 -10.696  1.00  0.00    -0.265 OA
HETATM    5  C6  UNL     1     -14.400 -34.723 -12.699  1.00  0.00     0.119 C 
HETATM    6  C7  UNL     1     -15.684 -33.915 -12.457  1.00  0.00     0.024 C 
HETATM    7  C8  UNL     1     -14.750 -36.196 -12.967  1.00  0.00     0.105 C 
HETATM    8  C9  UNL     1     -15.231 -36.490 -14.311  1.00  0.00     0.042 C 
HETATM    9  C10 UNL     1     -16.096 -37.700 -14.278  1.00  0.00     0.011 C 
HETATM   10  C11 UNL     1     -15.487 -38.977 -13.920  1.00  0.00     0.024 C 
HETATM   11  C12 UNL     1     -14.793 -39.105 -12.604  1.00  0.00     0.148 C 
HETATM   12  C15 UNL     1     -13.496 -38.345 -12.484  1.00  0.00     0.020 C 
HETATM   13  C16 UNL     1     -12.972 -38.808 -11.107  1.00  0.00     0.021 C 
HETATM   14  C17 UNL     1     -12.587 -39.009 -13.501  1.00  0.00     0.016 C 
HETATM   15  C18 UNL     1     -13.156 -39.168 -14.869  1.00  0.00     0.010 C 
HETATM   16  C19 UNL     1     -14.572 -39.574 -14.964  1.00  0.00    -0.042 C 
HETATM   17  C20 UNL     1     -14.626 -41.104 -14.829  1.00  0.00     0.015 C 
HETATM   18  C21 UNL     1     -15.128 -39.261 -16.333  1.00  0.00     0.015 C 
ENDROOT
BRANCH   1  19
HETATM   19  C3  UNL     1     -12.245 -36.296 -13.065  1.00  0.00     0.221 C 
BRANCH  19  20
HETATM   20  O2  UNL     1     -11.219 -36.239 -12.070  1.00  0.00    -0.319 OA
BRANCH  20  21
HETATM   21  C2  UNL     1     -10.022 -36.878 -12.179  1.00  0.00     0.254 C 
HETATM   22  C1  UNL     1      -9.369 -36.935 -13.516  1.00  0.00     0.126 C 
HETATM   23  O1  UNL     1      -9.493 -37.397 -11.182  1.00  0.00    -0.266 OA
ENDBRANCH  20  21
ENDBRANCH  19  20
ENDBRANCH   1  19
BRANCH   7  24
HETATM   24  O5  UNL     1     -15.824 -36.355 -12.061  1.00  0.00    -0.386 OA
ATOM     25  H5  UNL     1     -16.545 -36.823 -12.466  1.00  0.00     0.210 HD
ENDBRANCH   7  24
BRANCH  11  26
HETATM   26  O6  UNL     1     -15.612 -39.110 -11.480  1.00  0.00    -0.315 OA
BRANCH  26  27
HETATM   27  C13 UNL     1     -16.349 -40.141 -10.969  1.00  0.00     0.255 C 
HETATM   28  C14 UNL     1     -15.748 -41.402 -10.463  1.00  0.00     0.126 C 
HETATM   29  O7  UNL     1     -17.608 -39.981 -10.939  1.00  0.00    -0.266 OA
ENDBRANCH  26  27
ENDBRANCH  11  26
TORSDOF 6
ENDMDL
MODEL 3
REMARK VINA RESULT: -6.269727766      2.140      4.698
REMARK  6 active torsions:
REMARK  status: ('A' for Active; 'I' for Inactive)
REMARK    1  A    between atoms: C2_2  and  O2_4 
REMARK    2  A    between atoms: O2_4  and  C3_5 
REMARK    3  A    between atoms: C3_5  and  C4_6 
REMARK    4  A    between atoms: C8_12  and  O5_13 
REMARK    5  A    between atoms: C12_18  and  O6_19 
REMARK    6  A    between atoms: O6_19  and  C13_20 
ROOT
HETATM    1  C4  UNL     1     -12.930 -36.512 -12.824  1.00  0.00     0.134 C 
HETATM    2  O3  UNL     1     -11.792 -35.644 -13.057  1.00  0.00    -0.303 OA
HETATM    3  C5  UNL     1     -10.750 -36.304 -12.417  1.00  0.00     0.266 C 
HETATM    4  O4  UNL     1      -9.731 -35.751 -11.946  1.00  0.00    -0.265 OA
HETATM    5  C6  UNL     1     -11.001 -37.765 -12.364  1.00  0.00     0.119 C 
HETATM    6  C7  UNL     1      -9.867 -38.528 -13.065  1.00  0.00     0.024 C 
HETATM    7  C8  UNL     1     -12.264 -37.782 -13.238  1.00  0.00     0.105 C 
HETATM    8  C9  UNL     1     -13.030 -39.022 -13.205  1.00  0.00     0.042 C 
HETATM    9  C10 UNL     1     -13.793 -39.171 -14.474  1.00  0.00     0.011 C 
HETATM   10  C11 UNL     1     -14.848 -38.206 -14.766  1.00  0.00     0.024 C 
HETATM   11  C12 UNL     1     -14.504 -36.754 -14.827  1.00  0.00     0.148 C 
HETATM   12  C15 UNL     1     -14.158 -36.119 -13.503  1.00  0.00     0.020 C 
HETATM   13  C16 UNL     1     -14.020 -34.628 -13.883  1.00  0.00     0.021 C 
HETATM   14  C17 UNL     1     -15.446 -36.210 -12.706  1.00  0.00     0.016 C 
HETATM   15  C18 UNL     1     -16.087 -37.553 -12.666  1.00  0.00     0.010 C 
HETATM   16  C19 UNL     1     -16.094 -38.332 -13.921  1.00  0.00    -0.042 C 
HETATM   17  C20 UNL     1     -17.290 -37.853 -14.758  1.00  0.00     0.015 C 
HETATM   18  C21 UNL     1     -16.345 -39.795 -13.641  1.00  0.00     0.015 C 
ENDROOT
BRANCH   1  19
HETATM   19  C3  UNL     1     -13.064 -36.395 -11.307  1.00  0.00     0.221 C 
BRANCH  19  20
HETATM   20  O2  UNL     1     -12.928 -35.029 -10.902  1.00  0.00    -0.319 OA
BRANCH  20  21
HETATM   21  C2  UNL     1     -12.710 -34.639  -9.616  1.00  0.00     0.254 C 
HETATM   22  C1  UNL     1     -11.324 -34.720  -9.077  1.00  0.00     0.126 C 
HETATM   23  O1  UNL     1     -13.650 -34.225  -8.917  1.00  0.00    -0.266 OA
ENDBRANCH  20  21
ENDBRANCH  19  20
ENDBRANCH   1  19
BRANCH   7  24
HETATM   24  O5  UNL     1     -11.674 -37.654 -14.516  1.00  0.00    -0.386 OA
ATOM     25  H5  UNL     1     -10.774 -37.358 -14.448  1.00  0.00     0.210 HD
ENDBRANCH   7  24
BRANCH  11  26
HETATM   26  O6  UNL     1     -13.747 -36.351 -15.921  1.00  0.00    -0.315 OA
BRANCH  26  27
HETATM   27  C13 UNL     1     -14.175 -36.017 -17.176  1.00  0.00     0.255 C 
HETATM   28  C14 UNL     1     -15.610 -35.920 -17.549  1.00  0.00     0.126 C 
HETATM   29  O7  UNL     1     -13.276 -35.782 -18.041  1.00  0.00    -0.266 OA
ENDBRANCH  26  27
ENDBRANCH  11  26
TORSDOF 6
ENDMDL
MODEL 4
REMARK VINA RESULT: -6.149617852      2.146      5.687
REMARK  6 active torsions:
REMARK  status: ('A' for Active; 'I' for Inactive)
REMARK    1  A    between atoms: C2_2  and  O2_4 
REMARK    2  A    between atoms: O2_4  and  C3_5 
REMARK    3  A    between atoms: C3_5  and  C4_6 
REMARK    4  A    between atoms: C8_12  and  O5_13 
REMARK    5  A    between atoms: C12_18  and  O6_19 
REMARK    6  A    between atoms: O6_19  and  C13_20 
ROOT
HETATM    1  C4  UNL     1     -14.293 -40.052 -13.339  1.00  0.00     0.134 C 
HETATM    2  O3  UNL     1     -13.799 -41.346 -12.909  1.00  0.00    -0.303 OA
HETATM    3  C5  UNL     1     -13.839 -42.106 -14.073  1.00  0.00     0.266 C 
HETATM    4  O4  UNL     1     -13.967 -43.350 -14.114  1.00  0.00    -0.265 OA
HETATM    5  C6  UNL     1     -13.711 -41.245 -15.273  1.00  0.00     0.119 C 
HETATM    6  C7  UNL     1     -12.489 -41.666 -16.104  1.00  0.00     0.024 C 
HETATM    7  C8  UNL     1     -13.419 -39.926 -14.542  1.00  0.00     0.105 C 
HETATM    8  C9  UNL     1     -13.515 -38.723 -15.359  1.00  0.00     0.042 C 
HETATM    9  C10 UNL     1     -12.646 -37.659 -14.787  1.00  0.00     0.011 C 
HETATM   10  C11 UNL     1     -12.980 -37.123 -13.472  1.00  0.00     0.024 C 
HETATM   11  C12 UNL     1     -13.065 -38.057 -12.310  1.00  0.00     0.148 C 
HETATM   12  C15 UNL     1     -14.239 -39.003 -12.329  1.00  0.00     0.020 C 
HETATM   13  C16 UNL     1     -14.125 -39.693 -10.951  1.00  0.00     0.021 C 
HETATM   14  C17 UNL     1     -15.446 -38.090 -12.219  1.00  0.00     0.016 C 
HETATM   15  C18 UNL     1     -15.481 -36.948 -13.173  1.00  0.00     0.010 C 
HETATM   16  C19 UNL     1     -14.208 -36.243 -13.424  1.00  0.00    -0.042 C 
HETATM   17  C20 UNL     1     -14.016 -35.216 -12.297  1.00  0.00     0.015 C 
HETATM   18  C21 UNL     1     -14.282 -35.442 -14.703  1.00  0.00     0.015 C 
ENDROOT
BRANCH   1  19
HETATM   19  C3  UNL     1     -15.733 -40.410 -13.703  1.00  0.00     0.221 C 
BRANCH  19  20
HETATM   20  O2  UNL     1     -16.324 -41.199 -12.666  1.00  0.00    -0.319 OA
BRANCH  20  21
HETATM   21  C2  UNL     1     -17.662 -41.245 -12.419  1.00  0.00     0.254 C 
HETATM   22  C1  UNL     1     -18.239 -40.265 -11.458  1.00  0.00     0.126 C 
HETATM   23  O1  UNL     1     -18.376 -42.087 -12.987  1.00  0.00    -0.266 OA
ENDBRANCH  20  21
ENDBRANCH  19  20
ENDBRANCH   1  19
BRANCH   7  24
HETATM   24  O5  UNL     1     -12.060 -40.132 -14.208  1.00  0.00    -0.386 OA
ATOM     25  H5  UNL     1     -11.648 -39.321 -13.936  1.00  0.00     0.210 HD
ENDBRANCH   7  24
BRANCH  11  26
HETATM   26  O6  UNL     1     -11.858 -38.580 -11.859  1.00  0.00    -0.315 OA
BRANCH  26  27
HETATM   27  C13 UNL     1     -10.768 -37.911 -11.375  1.00  0.00     0.255 C 
HETATM   28  C14 UNL     1     -10.866 -36.673 -10.559  1.00  0.00     0.126 C 
HETATM   29  O7  UNL     1      -9.630 -38.398 -11.655  1.00  0.00    -0.266 OA
ENDBRANCH  26  27
ENDBRANCH  11  26
TORSDOF 6
ENDMDL
MODEL 5
REMARK VINA RESULT: -5.999408972      1.928      2.743
REMARK  6 active torsions:
REMARK  status: ('A' for Active; 'I' for Inactive)
REMARK    1  A    between atoms: C2_2  and  O2_4 
REMARK    2  A    between atoms: O2_4  and  C3_5 
REMARK    3  A    between atoms: C3_5  and  C4_6 
REMARK    4  A    between atoms: C8_12  and  O5_13 
REMARK    5  A    between atoms: C12_18  and  O6_19 
REMARK    6  A    between atoms: O6_19  and  C13_20 
ROOT
HETATM    1  C4  UNL     1     -11.386 -36.530 -11.638  1.00  0.00     0.134 C 
HETATM    2  O3  UNL     1     -10.848 -36.659 -10.297  1.00  0.00    -0.303 OA
HETATM    3  C5  UNL     1     -10.986 -35.378  -9.773  1.00  0.00     0.266 C 
HETATM    4  O4  UNL     1     -10.266 -34.889  -8.875  1.00  0.00    -0.265 OA
HETATM    5  C6  UNL     1     -12.107 -34.657 -10.423  1.00  0.00     0.119 C 
HETATM    6  C7  UNL     1     -13.146 -34.232  -9.375  1.00  0.00     0.024 C 
HETATM    7  C8  UNL     1     -12.648 -35.834 -11.250  1.00  0.00     0.105 C 
HETATM    8  C9  UNL     1     -13.605 -35.480 -12.291  1.00  0.00     0.042 C 
HETATM    9  C10 UNL     1     -14.494 -36.640 -12.568  1.00  0.00     0.011 C 
HETATM   10  C11 UNL     1     -13.903 -37.845 -13.140  1.00  0.00     0.024 C 
HETATM   11  C12 UNL     1     -12.793 -38.525 -12.408  1.00  0.00     0.148 C 
HETATM   12  C15 UNL     1     -11.484 -37.777 -12.387  1.00  0.00     0.020 C 
HETATM   13  C16 UNL     1     -10.536 -38.796 -11.715  1.00  0.00     0.021 C 
HETATM   14  C17 UNL     1     -11.061 -37.739 -13.843  1.00  0.00     0.016 C 
HETATM   15  C18 UNL     1     -12.095 -37.267 -14.804  1.00  0.00     0.010 C 
HETATM   16  C19 UNL     1     -13.479 -37.736 -14.586  1.00  0.00    -0.042 C 
HETATM   17  C20 UNL     1     -13.604 -39.126 -15.228  1.00  0.00     0.015 C 
HETATM   18  C21 UNL     1     -14.464 -36.854 -15.316  1.00  0.00     0.015 C 
ENDROOT
BRANCH   1  19
HETATM   19  C3  UNL     1     -10.365 -35.579 -12.258  1.00  0.00     0.221 C 
BRANCH  19  20
HETATM   20  O2  UNL     1      -9.036 -36.028 -11.978  1.00  0.00    -0.319 OA
BRANCH  20  21
HETATM   21  C2  UNL     1      -7.954 -35.713 -12.742  1.00  0.00     0.254 C 
HETATM   22  C1  UNL     1      -7.864 -36.286 -14.114  1.00  0.00     0.126 C 
HETATM   23  O1  UNL     1      -7.067 -34.965 -12.297  1.00  0.00    -0.266 OA
ENDBRANCH  20  21
ENDBRANCH  19  20
ENDBRANCH   1  19
BRANCH   7  24
HETATM   24  O5  UNL     1     -13.331 -36.546 -10.237  1.00  0.00    -0.386 OA
ATOM     25  H5  UNL     1     -13.210 -36.134  -9.390  1.00  0.00     0.210 HD
ENDBRANCH   7  24
BRANCH  11  26
HETATM   26  O6  UNL     1     -13.148 -39.180 -11.234  1.00  0.00    -0.315 OA
BRANCH  26  27
HETATM   27  C13 UNL     1     -14.117 -40.126 -11.047  1.00  0.00     0.255 C 
HETATM   28  C14 UNL     1     -14.495 -41.123 -12.082  1.00  0.00     0.126 C 
HETATM   29  O7  UNL     1     -14.704 -40.126  -9.921  1.00  0.00    -0.266 OA
ENDBRANCH  26  27
ENDBRANCH  11  26
TORSDOF 6
ENDMDL
