MODEL 1
REMARK VINA RESULT: -7.325534988      0.000      0.000
REMARK  6 active torsions:
REMARK  status: ('A' for Active; 'I' for Inactive)
REMARK    1  A    between atoms: C2_2  and  C5_5 
REMARK    2  A    between atoms: C10_10  and  C11_11 
REMARK    3  A    between atoms: N1_13  and  C12_14 
REMARK    4  A    between atoms: C13_15  and  C14_16 
REMARK       I    between atoms: C14_16  and  N2_18 
REMARK    5  A    between atoms: N2_18  and  S2_20 
REMARK    6  A    between atoms: C16_24  and  N3_25 
ROOT
HETATM    1  C11 UNL     1     -15.417 -43.237 -10.984  1.00  0.00     0.029 A 
HETATM    2  S1  UNL     1     -15.396 -43.211  -9.293  1.00  0.00    -0.009 SA
HETATM    3  N1  UNL     1     -14.873 -44.814  -8.994  1.00  0.00    -0.277 N 
HETATM    4  C16 UNL     1     -14.730 -45.327 -10.214  1.00  0.00     0.133 A 
HETATM    5  C17 UNL     1     -15.018 -44.492 -11.277  1.00  0.00     0.103 A 
HETATM    6  C18 UNL     1     -14.894 -44.930 -12.680  1.00  0.00     0.104 C 
HETATM    7  N4  UNL     1     -14.818 -45.271 -13.804  1.00  0.00    -0.191 NA
ENDROOT
BRANCH   1   8
HETATM    8  C10 UNL     1     -15.818 -42.127 -11.937  1.00  0.00     0.033 C 
HETATM    9  C5  UNL     1     -15.855 -40.821 -11.201  1.00  0.00     0.002 C 
HETATM   10  C6  UNL     1     -17.189 -40.194 -11.053  1.00  0.00     0.006 C 
HETATM   11  C7  UNL     1     -18.096 -40.253 -12.210  1.00  0.00     0.000 C 
HETATM   12  C8  UNL     1     -18.006 -41.499 -13.032  1.00  0.00     0.001 C 
HETATM   13  C9  UNL     1     -17.149 -42.564 -12.460  1.00  0.00     0.010 C 
BRANCH   9  14
HETATM   14  C2  UNL     1     -14.803 -39.860 -11.745  1.00  0.00    -0.047 C 
HETATM   15  C1  UNL     1     -13.738 -39.630 -10.736  1.00  0.00     0.015 C 
HETATM   16  C3  UNL     1     -15.340 -38.589 -12.285  1.00  0.00     0.015 C 
HETATM   17  C4  UNL     1     -14.151 -40.601 -12.927  1.00  0.00     0.015 C 
ENDBRANCH   9  14
ENDBRANCH   1   8
BRANCH   4  18
HETATM   18  N3  UNL     1     -14.362 -46.522 -10.407  1.00  0.00    -0.383 N 
ATOM     19  H32 UNL     1     -13.439 -46.841 -10.113  1.00  0.00     0.157 HD
ATOM     20  H31 UNL     1     -14.958 -47.209 -10.869  1.00  0.00     0.157 HD
ENDBRANCH   4  18
BRANCH   3  21
HETATM   21  C12 UNL     1     -14.732 -45.350  -7.672  1.00  0.00     0.112 C 
HETATM   22  C13 UNL     1     -14.238 -44.718  -6.670  1.00  0.00     0.093 C 
BRANCH  22  23
HETATM   23  C14 UNL     1     -14.125 -45.360  -5.348  1.00  0.00     0.255 C 
HETATM   24  O1  UNL     1     -14.972 -46.250  -5.010  1.00  0.00    -0.268 OA
HETATM   25  N2  UNL     1     -13.113 -45.042  -4.419  1.00  0.00    -0.251 N 
ATOM     26  H2  UNL     1     -12.420 -44.327  -4.643  1.00  0.00     0.181 HD
BRANCH  25  27
HETATM   27  S2  UNL     1     -13.046 -45.874  -2.881  1.00  0.00     0.229 S 
HETATM   28  C15 UNL     1     -11.358 -45.846  -2.323  1.00  0.00     0.186 C 
HETATM   29  O2  UNL     1     -13.467 -47.293  -3.028  1.00  0.00    -0.206 OA
HETATM   30  O3  UNL     1     -13.873 -45.108  -1.910  1.00  0.00    -0.206 OA
ENDBRANCH  25  27
ENDBRANCH  22  23
ENDBRANCH   3  21
TORSDOF 6
ENDMDL
MODEL 2
REMARK VINA RESULT: -7.146840437      0.881      1.670
REMARK  6 active torsions:
REMARK  status: ('A' for Active; 'I' for Inactive)
REMARK    1  A    between atoms: C2_2  and  C5_5 
REMARK    2  A    between atoms: C10_10  and  C11_11 
REMARK    3  A    between atoms: N1_13  and  C12_14 
REMARK    4  A    between atoms: C13_15  and  C14_16 
REMARK       I    between atoms: C14_16  and  N2_18 
REMARK    5  A    between atoms: N2_18  and  S2_20 
REMARK    6  A    between atoms: C16_24  and  N3_25 
ROOT
HETATM    1  C11 UNL     1     -15.402 -43.246 -10.975  1.00  0.00     0.029 A 
HETATM    2  S1  UNL     1     -15.260 -43.163  -9.292  1.00  0.00    -0.009 SA
HETATM    3  N1  UNL     1     -14.980 -44.817  -8.953  1.00  0.00    -0.277 N 
HETATM    4  C16 UNL     1     -15.004 -45.390 -10.154  1.00  0.00     0.133 A 
HETATM    5  C17 UNL     1     -15.228 -44.558 -11.234  1.00  0.00     0.103 A 
HETATM    6  C18 UNL     1     -15.273 -45.061 -12.621  1.00  0.00     0.104 C 
HETATM    7  N4  UNL     1     -15.330 -45.449 -13.730  1.00  0.00    -0.191 NA
ENDROOT
BRANCH   1   8
HETATM    8  C10 UNL     1     -15.685 -42.120 -11.953  1.00  0.00     0.033 C 
HETATM    9  C5  UNL     1     -14.408 -41.410 -12.286  1.00  0.00     0.002 C 
HETATM   10  C6  UNL     1     -14.300 -40.008 -11.818  1.00  0.00     0.006 C 
HETATM   11  C7  UNL     1     -15.499 -39.163 -11.930  1.00  0.00     0.000 C 
HETATM   12  C8  UNL     1     -16.801 -39.866 -11.711  1.00  0.00     0.001 C 
HETATM   13  C9  UNL     1     -16.682 -41.265 -11.237  1.00  0.00     0.010 C 
BRANCH   9  14
HETATM   14  C2  UNL     1     -14.066 -41.572 -13.764  1.00  0.00    -0.047 C 
HETATM   15  C1  UNL     1     -13.170 -42.739 -13.966  1.00  0.00     0.015 C 
HETATM   16  C3  UNL     1     -13.544 -40.350 -14.420  1.00  0.00     0.015 C 
HETATM   17  C4  UNL     1     -15.402 -41.906 -14.454  1.00  0.00     0.015 C 
ENDBRANCH   9  14
ENDBRANCH   1   8
BRANCH   4  18
HETATM   18  N3  UNL     1     -14.845 -46.635 -10.314  1.00  0.00    -0.383 N 
ATOM     19  H32 UNL     1     -15.276 -47.123 -11.099  1.00  0.00     0.157 HD
ATOM     20  H31 UNL     1     -14.297 -47.202  -9.667  1.00  0.00     0.157 HD
ENDBRANCH   4  18
BRANCH   3  21
HETATM   21  C12 UNL     1     -14.835 -45.321  -7.618  1.00  0.00     0.112 C 
HETATM   22  C13 UNL     1     -14.190 -44.735  -6.676  1.00  0.00     0.093 C 
BRANCH  22  23
HETATM   23  C14 UNL     1     -14.089 -45.340  -5.335  1.00  0.00     0.255 C 
HETATM   24  O1  UNL     1     -14.971 -46.178  -4.958  1.00  0.00    -0.268 OA
HETATM   25  N2  UNL     1     -13.051 -45.039  -4.429  1.00  0.00    -0.251 N 
ATOM     26  H2  UNL     1     -12.329 -44.365  -4.684  1.00  0.00     0.181 HD
BRANCH  25  27
HETATM   27  S2  UNL     1     -13.001 -45.825  -2.866  1.00  0.00     0.229 S 
HETATM   28  C15 UNL     1     -11.324 -45.760  -2.281  1.00  0.00     0.186 C 
HETATM   29  O2  UNL     1     -13.404 -47.252  -2.978  1.00  0.00    -0.206 OA
HETATM   30  O3  UNL     1     -13.854 -45.040  -1.933  1.00  0.00    -0.206 OA
ENDBRANCH  25  27
ENDBRANCH  22  23
ENDBRANCH   3  21
TORSDOF 6
ENDMDL
MODEL 3
REMARK VINA RESULT: -6.554396132      8.723     10.974
REMARK  6 active torsions:
REMARK  status: ('A' for Active; 'I' for Inactive)
REMARK    1  A    between atoms: C2_2  and  C5_5 
REMARK    2  A    between atoms: C10_10  and  C11_11 
REMARK    3  A    between atoms: N1_13  and  C12_14 
REMARK    4  A    between atoms: C13_15  and  C14_16 
REMARK       I    between atoms: C14_16  and  N2_18 
REMARK    5  A    between atoms: N2_18  and  S2_20 
REMARK    6  A    between atoms: C16_24  and  N3_25 
ROOT
HETATM    1  C11 UNL     1     -12.822 -36.350 -12.225  1.00  0.00     0.029 A 
HETATM    2  S1  UNL     1     -11.573 -36.928 -13.209  1.00  0.00    -0.009 SA
HETATM    3  N1  UNL     1     -10.229 -36.319 -12.342  1.00  0.00    -0.277 N 
HETATM    4  C16 UNL     1     -10.784 -35.682 -11.313  1.00  0.00     0.133 A 
HETATM    5  C17 UNL     1     -12.164 -35.695 -11.246  1.00  0.00     0.103 A 
HETATM    6  C18 UNL     1     -12.907 -35.035 -10.155  1.00  0.00     0.104 C 
HETATM    7  N4  UNL     1     -13.514 -34.498  -9.302  1.00  0.00    -0.191 NA
ENDROOT
BRANCH   1   8
HETATM    8  C10 UNL     1     -14.319 -36.505 -12.416  1.00  0.00     0.033 C 
HETATM    9  C5  UNL     1     -14.587 -37.521 -13.485  1.00  0.00     0.002 C 
HETATM   10  C6  UNL     1     -15.209 -37.009 -14.729  1.00  0.00     0.006 C 
HETATM   11  C7  UNL     1     -16.267 -35.997 -14.590  1.00  0.00     0.000 C 
HETATM   12  C8  UNL     1     -16.086 -35.032 -13.461  1.00  0.00     0.001 C 
HETATM   13  C9  UNL     1     -14.782 -35.126 -12.764  1.00  0.00     0.010 C 
BRANCH   9  14
HETATM   14  C2  UNL     1     -15.312 -38.734 -12.912  1.00  0.00    -0.047 C 
HETATM   15  C1  UNL     1     -15.486 -39.776 -13.955  1.00  0.00     0.015 C 
HETATM   16  C3  UNL     1     -16.584 -38.428 -12.215  1.00  0.00     0.015 C 
HETATM   17  C4  UNL     1     -14.357 -39.312 -11.852  1.00  0.00     0.015 C 
ENDBRANCH   9  14
ENDBRANCH   1   8
BRANCH   4  18
HETATM   18  N3  UNL     1     -10.095 -35.078 -10.440  1.00  0.00    -0.383 N 
ATOM     19  H32 UNL     1      -9.919 -35.499  -9.527  1.00  0.00     0.157 HD
ATOM     20  H31 UNL     1      -9.701 -34.152 -10.601  1.00  0.00     0.157 HD
ENDBRANCH   4  18
BRANCH   3  21
HETATM   21  C12 UNL     1      -8.877 -36.487 -12.790  1.00  0.00     0.112 C 
HETATM   22  C13 UNL     1      -8.529 -36.764 -13.994  1.00  0.00     0.093 C 
BRANCH  22  23
HETATM   23  C14 UNL     1      -7.110 -36.928 -14.355  1.00  0.00     0.255 C 
HETATM   24  O1  UNL     1      -6.238 -36.156 -13.839  1.00  0.00    -0.268 OA
HETATM   25  N2  UNL     1      -6.651 -37.913 -15.255  1.00  0.00    -0.251 N 
ATOM     26  H2  UNL     1      -7.315 -38.546 -15.702  1.00  0.00     0.181 HD
BRANCH  25  27
HETATM   27  S2  UNL     1      -4.942 -38.047 -15.606  1.00  0.00     0.229 S 
HETATM   28  C15 UNL     1      -4.718 -39.449 -16.676  1.00  0.00     0.186 C 
HETATM   29  O2  UNL     1      -4.162 -38.278 -14.361  1.00  0.00    -0.206 OA
HETATM   30  O3  UNL     1      -4.529 -36.823 -16.345  1.00  0.00    -0.206 OA
ENDBRANCH  25  27
ENDBRANCH  22  23
ENDBRANCH   3  21
TORSDOF 6
ENDMDL
MODEL 4
REMARK VINA RESULT: -6.546228142      9.438     11.439
REMARK  6 active torsions:
REMARK  status: ('A' for Active; 'I' for Inactive)
REMARK    1  A    between atoms: C2_2  and  C5_5 
REMARK    2  A    between atoms: C10_10  and  C11_11 
REMARK    3  A    between atoms: N1_13  and  C12_14 
REMARK    4  A    between atoms: C13_15  and  C14_16 
REMARK       I    between atoms: C14_16  and  N2_18 
REMARK    5  A    between atoms: N2_18  and  S2_20 
REMARK    6  A    between atoms: C16_24  and  N3_25 
ROOT
HETATM    1  C11 UNL     1      -8.223 -37.099 -14.787  1.00  0.00     0.029 A 
HETATM    2  S1  UNL     1      -8.149 -36.023 -13.484  1.00  0.00    -0.009 SA
HETATM    3  N1  UNL     1      -9.449 -36.625 -12.549  1.00  0.00    -0.277 N 
HETATM    4  C16 UNL     1      -9.908 -37.644 -13.272  1.00  0.00     0.133 A 
HETATM    5  C17 UNL     1      -9.259 -37.901 -14.465  1.00  0.00     0.103 A 
HETATM    6  C18 UNL     1      -9.660 -39.004 -15.360  1.00  0.00     0.104 C 
HETATM    7  N4  UNL     1      -9.979 -39.867 -16.092  1.00  0.00    -0.191 NA
ENDROOT
BRANCH   1   8
HETATM    8  C10 UNL     1      -7.354 -37.132 -16.031  1.00  0.00     0.033 C 
HETATM    9  C5  UNL     1      -5.960 -37.537 -15.660  1.00  0.00     0.002 C 
HETATM   10  C6  UNL     1      -4.913 -36.503 -15.833  1.00  0.00     0.006 C 
HETATM   11  C7  UNL     1      -4.988 -35.658 -17.035  1.00  0.00     0.000 C 
HETATM   12  C8  UNL     1      -6.371 -35.325 -17.498  1.00  0.00     0.001 C 
HETATM   13  C9  UNL     1      -7.455 -35.744 -16.578  1.00  0.00     0.010 C 
BRANCH   9  14
HETATM   14  C2  UNL     1      -5.591 -38.870 -16.302  1.00  0.00    -0.047 C 
HETATM   15  C1  UNL     1      -6.135 -38.951 -17.681  1.00  0.00     0.015 C 
HETATM   16  C3  UNL     1      -5.937 -40.066 -15.498  1.00  0.00     0.015 C 
HETATM   17  C4  UNL     1      -4.057 -38.850 -16.423  1.00  0.00     0.015 C 
ENDBRANCH   9  14
ENDBRANCH   1   8
BRANCH   4  18
HETATM   18  N3  UNL     1     -10.897 -38.344 -12.906  1.00  0.00    -0.383 N 
ATOM     19  H32 UNL     1     -11.508 -38.034 -12.151  1.00  0.00     0.157 HD
ATOM     20  H31 UNL     1     -11.118 -39.242 -13.336  1.00  0.00     0.157 HD
ENDBRANCH   4  18
BRANCH   3  21
HETATM   21  C12 UNL     1      -9.866 -36.018 -11.318  1.00  0.00     0.112 C 
HETATM   22  C13 UNL     1     -11.080 -35.742 -11.007  1.00  0.00     0.093 C 
BRANCH  22  23
HETATM   23  C14 UNL     1     -11.407 -35.107  -9.718  1.00  0.00     0.255 C 
HETATM   24  O1  UNL     1     -12.623 -35.045  -9.341  1.00  0.00    -0.268 OA
HETATM   25  N2  UNL     1     -10.433 -34.555  -8.860  1.00  0.00    -0.251 N 
ATOM     26  H2  UNL     1      -9.448 -34.572  -9.127  1.00  0.00     0.181 HD
BRANCH  25  27
HETATM   27  S2  UNL     1     -10.915 -33.841  -7.336  1.00  0.00     0.229 S 
HETATM   28  C15 UNL     1     -12.666 -33.543  -7.409  1.00  0.00     0.186 C 
HETATM   29  O2  UNL     1     -10.227 -32.541  -7.120  1.00  0.00    -0.206 OA
HETATM   30  O3  UNL     1     -10.653 -34.837  -6.262  1.00  0.00    -0.206 OA
ENDBRANCH  25  27
ENDBRANCH  22  23
ENDBRANCH   3  21
TORSDOF 6
ENDMDL
MODEL 5
REMARK VINA RESULT: -6.514494952      8.456     10.890
REMARK  6 active torsions:
REMARK  status: ('A' for Active; 'I' for Inactive)
REMARK    1  A    between atoms: C2_2  and  C5_5 
REMARK    2  A    between atoms: C10_10  and  C11_11 
REMARK    3  A    between atoms: N1_13  and  C12_14 
REMARK    4  A    between atoms: C13_15  and  C14_16 
REMARK       I    between atoms: C14_16  and  N2_18 
REMARK    5  A    between atoms: N2_18  and  S2_20 
REMARK    6  A    between atoms: C16_24  and  N3_25 
ROOT
HETATM    1  C11 UNL     1     -12.705 -36.933 -12.186  1.00  0.00     0.029 A 
HETATM    2  S1  UNL     1     -11.435 -37.542 -13.122  1.00  0.00    -0.009 SA
HETATM    3  N1  UNL     1     -10.135 -36.663 -12.437  1.00  0.00    -0.277 N 
HETATM    4  C16 UNL     1     -10.721 -35.919 -11.501  1.00  0.00     0.133 A 
HETATM    5  C17 UNL     1     -12.089 -36.059 -11.364  1.00  0.00     0.103 A 
HETATM    6  C18 UNL     1     -12.862 -35.300 -10.361  1.00  0.00     0.104 C 
HETATM    7  N4  UNL     1     -13.495 -34.689  -9.580  1.00  0.00    -0.191 NA
ENDROOT
BRANCH   1   8
HETATM    8  C10 UNL     1     -14.183 -37.267 -12.274  1.00  0.00     0.033 C 
HETATM    9  C5  UNL     1     -14.360 -38.585 -12.964  1.00  0.00     0.002 C 
HETATM   10  C6  UNL     1     -15.029 -38.544 -14.286  1.00  0.00     0.006 C 
HETATM   11  C7  UNL     1     -16.174 -37.633 -14.436  1.00  0.00     0.000 C 
HETATM   12  C8  UNL     1     -16.078 -36.351 -13.671  1.00  0.00     0.001 C 
HETATM   13  C9  UNL     1     -14.769 -36.110 -13.019  1.00  0.00     0.010 C 
BRANCH   9  14
HETATM   14  C2  UNL     1     -14.971 -39.615 -12.020  1.00  0.00    -0.047 C 
HETATM   15  C1  UNL     1     -16.359 -39.232 -11.659  1.00  0.00     0.015 C 
HETATM   16  C3  UNL     1     -14.152 -39.927 -10.824  1.00  0.00     0.015 C 
HETATM   17  C4  UNL     1     -15.062 -40.914 -12.842  1.00  0.00     0.015 C 
ENDBRANCH   9  14
ENDBRANCH   1   8
BRANCH   4  18
HETATM   18  N3  UNL     1     -10.073 -35.110 -10.776  1.00  0.00    -0.383 N 
ATOM     19  H32 UNL     1      -9.084 -34.929 -10.946  1.00  0.00     0.157 HD
ATOM     20  H31 UNL     1     -10.501 -34.618  -9.991  1.00  0.00     0.157 HD
ENDBRANCH   4  18
BRANCH   3  21
HETATM   21  C12 UNL     1      -8.788 -36.770 -12.918  1.00  0.00     0.112 C 
HETATM   22  C13 UNL     1      -8.445 -36.752 -14.154  1.00  0.00     0.093 C 
BRANCH  22  23
HETATM   23  C14 UNL     1      -7.031 -36.879 -14.551  1.00  0.00     0.255 C 
HETATM   24  O1  UNL     1      -6.164 -36.098 -14.038  1.00  0.00    -0.268 OA
HETATM   25  N2  UNL     1      -6.572 -37.835 -15.481  1.00  0.00    -0.251 N 
ATOM     26  H2  UNL     1      -7.233 -38.473 -15.925  1.00  0.00     0.181 HD
BRANCH  25  27
HETATM   27  S2  UNL     1      -4.869 -37.926 -15.873  1.00  0.00     0.229 S 
HETATM   28  C15 UNL     1      -4.644 -39.285 -16.996  1.00  0.00     0.186 C 
HETATM   29  O2  UNL     1      -4.058 -38.186 -14.654  1.00  0.00    -0.206 OA
HETATM   30  O3  UNL     1      -4.494 -36.669 -16.576  1.00  0.00    -0.206 OA
ENDBRANCH  25  27
ENDBRANCH  22  23
ENDBRANCH   3  21
TORSDOF 6
ENDMDL
