MODEL 1
REMARK VINA RESULT: -7.172863085      0.000      0.000
REMARK  5 active torsions:
REMARK  status: ('A' for Active; 'I' for Inactive)
REMARK    1  A    between atoms: C2_2  and  C4_4 
REMARK    2  A    between atoms: C6_6  and  O1_7 
REMARK    3  A    between atoms: C9_11  and  N1_12 
REMARK    4  A    between atoms: C10_16  and  O2_17 
REMARK    5  A    between atoms: O2_17  and  C11_18 
ROOT
HETATM    1  C4  UNL     1     -15.971 -41.241 -10.778  1.00  0.00     0.091 C 
HETATM    2  C5  UNL     1     -16.974 -41.354 -11.852  1.00  0.00     0.048 C 
HETATM    3  C6  UNL     1     -17.859 -40.184 -12.101  1.00  0.00     0.119 C 
HETATM    4  C7  UNL     1     -17.206 -38.828 -12.183  1.00  0.00     0.039 C 
HETATM    5  C8  UNL     1     -16.623 -38.515 -13.523  1.00  0.00     0.033 C 
HETATM    6  C9  UNL     1     -17.233 -37.220 -14.029  1.00  0.00     0.218 C 
HETATM    7  C10 UNL     1     -15.957 -36.549 -13.547  1.00  0.00     0.175 C 
HETATM    8  C12 UNL     1     -15.271 -37.880 -13.569  1.00  0.00     0.004 C 
HETATM    9  C13 UNL     1     -14.597 -38.035 -14.918  1.00  0.00     0.013 C 
HETATM   10  C14 UNL     1     -13.186 -37.554 -14.959  1.00  0.00     0.002 C 
HETATM   11  C15 UNL     1     -12.302 -37.966 -13.854  1.00  0.00     0.009 C 
HETATM   12  C16 UNL     1     -12.982 -37.746 -12.548  1.00  0.00    -0.038 C 
HETATM   13  C17 UNL     1     -12.055 -38.314 -11.488  1.00  0.00     0.015 C 
HETATM   14  C18 UNL     1     -12.924 -36.231 -12.280  1.00  0.00     0.015 C 
HETATM   15  C19 UNL     1     -14.373 -38.271 -12.440  1.00  0.00     0.081 C 
HETATM   16  C20 UNL     1     -14.399 -39.773 -12.322  1.00  0.00     0.294 A 
HETATM   17  O5  UNL     1     -14.588 -40.536 -13.493  1.00  0.00    -0.185 OA
HETATM   18  O6  UNL     1     -13.410 -40.528 -12.985  1.00  0.00    -0.185 OA
HETATM   19  C21 UNL     1     -14.806 -40.346 -11.049  1.00  0.00     0.202 C 
HETATM   20  O7  UNL     1     -14.144 -40.091 -10.037  1.00  0.00    -0.291 OA
ENDROOT
BRANCH   6  21
HETATM   21  N1  UNL     1     -17.591 -37.131 -15.392  1.00  0.00    -0.072 N 
ATOM     22  H13 UNL     1     -17.151 -37.898 -15.901  1.00  0.00     0.274 HD
ATOM     23  H12 UNL     1     -18.578 -37.369 -15.492  1.00  0.00     0.274 HD
ATOM     24  H11 UNL     1     -17.408 -36.258 -15.887  1.00  0.00     0.274 HD
ENDBRANCH   6  21
BRANCH   7  25
HETATM   25  O2  UNL     1     -15.603 -35.610 -14.550  1.00  0.00    -0.288 OA
BRANCH  25  26
HETATM   26  C11 UNL     1     -15.402 -34.301 -14.165  1.00  0.00     0.333 C 
HETATM   27  O3  UNL     1     -15.566 -33.983 -12.963  1.00  0.00    -0.624 OA
HETATM   28  O4  UNL     1     -15.023 -33.294 -15.038  1.00  0.00    -0.624 OA
ENDBRANCH  25  26
ENDBRANCH   7  25
BRANCH   3  29
HETATM   29  O1  UNL     1     -18.544 -40.443 -13.314  1.00  0.00    -0.396 OA
ATOM     30  H1  UNL     1     -19.367 -39.970 -13.269  1.00  0.00     0.210 HD
ENDBRANCH   3  29
BRANCH   1  31
HETATM   31  C2  UNL     1     -15.488 -42.625 -10.418  1.00  0.00    -0.082 C 
HETATM   32  C1  UNL     1     -15.215 -43.540 -11.316  1.00  0.00     0.015 C 
HETATM   33  C3  UNL     1     -15.309 -43.000  -8.978  1.00  0.00     0.043 C 
ENDBRANCH   1  31
TORSDOF 5
ENDMDL
MODEL 2
REMARK VINA RESULT: -7.049298254      4.083      7.195
REMARK  5 active torsions:
REMARK  status: ('A' for Active; 'I' for Inactive)
REMARK    1  A    between atoms: C2_2  and  C4_4 
REMARK    2  A    between atoms: C6_6  and  O1_7 
REMARK    3  A    between atoms: C9_11  and  N1_12 
REMARK    4  A    between atoms: C10_16  and  O2_17 
REMARK    5  A    between atoms: O2_17  and  C11_18 
ROOT
HETATM    1  C4  UNL     1      -7.977 -37.630 -15.441  1.00  0.00     0.091 C 
HETATM    2  C5  UNL     1      -7.336 -37.513 -14.120  1.00  0.00     0.048 C 
HETATM    3  C6  UNL     1      -7.635 -36.302 -13.308  1.00  0.00     0.119 C 
HETATM    4  C7  UNL     1      -9.080 -35.889 -13.189  1.00  0.00     0.039 C 
HETATM    5  C8  UNL     1      -9.838 -36.630 -12.135  1.00  0.00     0.033 C 
HETATM    6  C9  UNL     1     -10.439 -35.625 -11.170  1.00  0.00     0.218 C 
HETATM    7  C10 UNL     1     -11.736 -35.812 -11.941  1.00  0.00     0.175 C 
HETATM    8  C12 UNL     1     -11.213 -37.112 -12.469  1.00  0.00     0.004 C 
HETATM    9  C13 UNL     1     -11.686 -38.215 -11.542  1.00  0.00     0.013 C 
HETATM   10  C14 UNL     1     -12.987 -38.831 -11.935  1.00  0.00     0.002 C 
HETATM   11  C15 UNL     1     -13.158 -39.195 -13.353  1.00  0.00     0.009 C 
HETATM   12  C16 UNL     1     -12.732 -38.065 -14.224  1.00  0.00    -0.038 C 
HETATM   13  C17 UNL     1     -12.822 -38.574 -15.651  1.00  0.00     0.015 C 
HETATM   14  C18 UNL     1     -13.861 -37.020 -14.160  1.00  0.00     0.015 C 
HETATM   15  C19 UNL     1     -11.406 -37.461 -13.908  1.00  0.00     0.081 C 
HETATM   16  C20 UNL     1     -10.268 -38.355 -14.330  1.00  0.00     0.294 A 
HETATM   17  O5  UNL     1      -9.699 -39.217 -13.368  1.00  0.00    -0.185 OA
HETATM   18  O6  UNL     1     -10.438 -39.753 -14.269  1.00  0.00    -0.185 OA
HETATM   19  C21 UNL     1      -9.443 -37.921 -15.445  1.00  0.00     0.202 C 
HETATM   20  O7  UNL     1      -9.968 -37.755 -16.552  1.00  0.00    -0.291 OA
ENDROOT
BRANCH   6  21
HETATM   21  N1  UNL     1     -10.407 -35.915  -9.788  1.00  0.00    -0.072 N 
ATOM     22  H13 UNL     1     -10.591 -36.909  -9.654  1.00  0.00     0.274 HD
ATOM     23  H12 UNL     1      -9.444 -35.848  -9.457  1.00  0.00     0.274 HD
ATOM     24  H11 UNL     1     -11.011 -35.379  -9.165  1.00  0.00     0.274 HD
ENDBRANCH   6  21
BRANCH   7  25
HETATM   25  O2  UNL     1     -12.768 -35.864 -10.970  1.00  0.00    -0.288 OA
BRANCH  25  26
HETATM   26  C11 UNL     1     -13.469 -34.704 -10.713  1.00  0.00     0.333 C 
HETATM   27  O3  UNL     1     -13.729 -33.921 -11.658  1.00  0.00    -0.624 OA
HETATM   28  O4  UNL     1     -13.913 -34.340  -9.451  1.00  0.00    -0.624 OA
ENDBRANCH  25  26
ENDBRANCH   7  25
BRANCH   3  29
HETATM   29  O1  UNL     1      -7.112 -36.541 -12.014  1.00  0.00    -0.396 OA
ATOM     30  H1  UNL     1      -7.521 -35.910 -11.433  1.00  0.00     0.210 HD
ENDBRANCH   3  29
BRANCH   1  31
HETATM   31  C2  UNL     1      -7.240 -38.673 -16.247  1.00  0.00    -0.082 C 
HETATM   32  C1  UNL     1      -6.747 -39.765 -15.717  1.00  0.00     0.015 C 
HETATM   33  C3  UNL     1      -7.044 -38.474 -17.720  1.00  0.00     0.043 C 
ENDBRANCH   1  31
TORSDOF 5
ENDMDL
MODEL 3
REMARK VINA RESULT: -6.361772458      3.404      6.391
REMARK  5 active torsions:
REMARK  status: ('A' for Active; 'I' for Inactive)
REMARK    1  A    between atoms: C2_2  and  C4_4 
REMARK    2  A    between atoms: C6_6  and  O1_7 
REMARK    3  A    between atoms: C9_11  and  N1_12 
REMARK    4  A    between atoms: C10_16  and  O2_17 
REMARK    5  A    between atoms: O2_17  and  C11_18 
ROOT
HETATM    1  C4  UNL     1     -10.420 -38.518 -16.438  1.00  0.00     0.091 C 
HETATM    2  C5  UNL     1      -9.454 -38.946 -15.412  1.00  0.00     0.048 C 
HETATM    3  C6  UNL     1      -8.963 -37.922 -14.450  1.00  0.00     0.119 C 
HETATM    4  C7  UNL     1      -9.990 -37.025 -13.809  1.00  0.00     0.039 C 
HETATM    5  C8  UNL     1     -10.670 -37.632 -12.624  1.00  0.00     0.033 C 
HETATM    6  C9  UNL     1     -10.484 -36.710 -11.433  1.00  0.00     0.218 C 
HETATM    7  C10 UNL     1     -11.891 -36.214 -11.725  1.00  0.00     0.175 C 
HETATM    8  C12 UNL     1     -12.151 -37.466 -12.504  1.00  0.00     0.004 C 
HETATM    9  C13 UNL     1     -12.778 -38.478 -11.566  1.00  0.00     0.013 C 
HETATM   10  C14 UNL     1     -14.270 -38.448 -11.538  1.00  0.00     0.002 C 
HETATM   11  C15 UNL     1     -14.966 -38.399 -12.836  1.00  0.00     0.009 C 
HETATM   12  C16 UNL     1     -14.352 -37.357 -13.704  1.00  0.00    -0.038 C 
HETATM   13  C17 UNL     1     -15.044 -37.468 -15.051  1.00  0.00     0.015 C 
HETATM   14  C18 UNL     1     -14.852 -36.001 -13.172  1.00  0.00     0.015 C 
HETATM   15  C19 UNL     1     -12.866 -37.390 -13.814  1.00  0.00     0.081 C 
HETATM   16  C20 UNL     1     -12.392 -38.536 -14.672  1.00  0.00     0.294 A 
HETATM   17  O5  UNL     1     -12.011 -39.737 -14.037  1.00  0.00    -0.185 OA
HETATM   18  O6  UNL     1     -13.126 -39.739 -14.672  1.00  0.00    -0.185 OA
HETATM   19  C21 UNL     1     -11.804 -38.218 -15.963  1.00  0.00     0.202 C 
HETATM   20  O7  UNL     1     -12.490 -37.626 -16.805  1.00  0.00    -0.291 OA
ENDROOT
BRANCH   6  21
HETATM   21  N1  UNL     1     -10.200 -37.285 -10.174  1.00  0.00    -0.072 N 
ATOM     22  H13 UNL     1      -9.226 -37.099  -9.937  1.00  0.00     0.274 HD
ATOM     23  H12 UNL     1     -10.684 -36.754  -9.450  1.00  0.00     0.274 HD
ATOM     24  H11 UNL     1     -10.389 -38.279 -10.039  1.00  0.00     0.274 HD
ENDBRANCH   6  21
BRANCH   7  25
HETATM   25  O2  UNL     1     -12.531 -36.078 -10.467  1.00  0.00    -0.288 OA
BRANCH  25  26
HETATM   26  C11 UNL     1     -12.908 -34.812 -10.069  1.00  0.00     0.333 C 
HETATM   27  O3  UNL     1     -13.148 -33.942 -10.939  1.00  0.00    -0.624 OA
HETATM   28  O4  UNL     1     -13.040 -34.433  -8.742  1.00  0.00    -0.624 OA
ENDBRANCH  25  26
ENDBRANCH   7  25
BRANCH   3  29
HETATM   29  O1  UNL     1      -8.259 -38.619 -13.438  1.00  0.00    -0.396 OA
ATOM     30  H1  UNL     1      -7.334 -38.461 -13.589  1.00  0.00     0.210 HD
ENDBRANCH   3  29
BRANCH   1  31
HETATM   31  C2  UNL     1     -10.461 -39.559 -17.530  1.00  0.00    -0.082 C 
HETATM   32  C1  UNL     1     -10.942 -40.764 -17.346  1.00  0.00     0.015 C 
HETATM   33  C3  UNL     1      -9.932 -39.230 -18.893  1.00  0.00     0.043 C 
ENDBRANCH   1  31
TORSDOF 5
ENDMDL
MODEL 4
REMARK VINA RESULT: -6.255090248      7.445     10.637
REMARK  5 active torsions:
REMARK  status: ('A' for Active; 'I' for Inactive)
REMARK    1  A    between atoms: C2_2  and  C4_4 
REMARK    2  A    between atoms: C6_6  and  O1_7 
REMARK    3  A    between atoms: C9_11  and  N1_12 
REMARK    4  A    between atoms: C10_16  and  O2_17 
REMARK    5  A    between atoms: O2_17  and  C11_18 
ROOT
HETATM    1  C4  UNL     1     -15.337 -45.891  -9.162  1.00  0.00     0.091 C 
HETATM    2  C5  UNL     1     -15.203 -47.176  -8.453  1.00  0.00     0.048 C 
HETATM    3  C6  UNL     1     -15.930 -48.351  -9.003  1.00  0.00     0.119 C 
HETATM    4  C7  UNL     1     -15.825 -48.599 -10.486  1.00  0.00     0.039 C 
HETATM    5  C8  UNL     1     -14.586 -49.332 -10.891  1.00  0.00     0.033 C 
HETATM    6  C9  UNL     1     -14.988 -50.580 -11.655  1.00  0.00     0.218 C 
HETATM    7  C10 UNL     1     -14.682 -49.786 -12.915  1.00  0.00     0.175 C 
HETATM    8  C12 UNL     1     -13.849 -48.848 -12.098  1.00  0.00     0.004 C 
HETATM    9  C13 UNL     1     -12.414 -49.339 -12.142  1.00  0.00     0.013 C 
HETATM   10  C14 UNL     1     -11.598 -48.753 -13.245  1.00  0.00     0.002 C 
HETATM   11  C15 UNL     1     -11.685 -47.296 -13.445  1.00  0.00     0.009 C 
HETATM   12  C16 UNL     1     -13.111 -46.866 -13.449  1.00  0.00    -0.038 C 
HETATM   13  C17 UNL     1     -13.095 -45.350 -13.532  1.00  0.00     0.015 C 
HETATM   14  C18 UNL     1     -13.684 -47.279 -14.817  1.00  0.00     0.015 C 
HETATM   15  C19 UNL     1     -13.949 -47.375 -12.326  1.00  0.00     0.081 C 
HETATM   16  C20 UNL     1     -13.631 -46.678 -11.028  1.00  0.00     0.294 A 
HETATM   17  O5  UNL     1     -12.717 -47.289 -10.144  1.00  0.00    -0.185 OA
HETATM   18  O6  UNL     1     -12.309 -46.255 -10.785  1.00  0.00    -0.185 OA
HETATM   19  C21 UNL     1     -14.635 -45.782 -10.477  1.00  0.00     0.202 C 
HETATM   20  O7  UNL     1     -14.987 -44.797 -11.135  1.00  0.00    -0.291 OA
ENDROOT
BRANCH   6  21
HETATM   21  N1  UNL     1     -14.286 -51.779 -11.404  1.00  0.00    -0.072 N 
ATOM     22  H13 UNL     1     -13.291 -51.621 -11.565  1.00  0.00     0.274 HD
ATOM     23  H12 UNL     1     -14.295 -51.966 -10.401  1.00  0.00     0.274 HD
ATOM     24  H11 UNL     1     -14.571 -52.624 -11.901  1.00  0.00     0.274 HD
ENDBRANCH   6  21
BRANCH   7  25
HETATM   25  O2  UNL     1     -14.005 -50.677 -13.787  1.00  0.00    -0.288 OA
BRANCH  25  26
HETATM   26  C11 UNL     1     -14.493 -50.818 -15.069  1.00  0.00     0.333 C 
HETATM   27  O3  UNL     1     -15.711 -51.066 -15.239  1.00  0.00    -0.624 OA
HETATM   28  O4  UNL     1     -13.709 -50.700 -16.206  1.00  0.00    -0.624 OA
ENDBRANCH  25  26
ENDBRANCH   7  25
BRANCH   3  29
HETATM   29  O1  UNL     1     -15.451 -49.488  -8.307  1.00  0.00    -0.396 OA
ATOM     30  H1  UNL     1     -16.004 -50.218  -8.561  1.00  0.00     0.210 HD
ENDBRANCH   3  29
BRANCH   1  31
HETATM   31  C2  UNL     1     -14.890 -44.781  -8.243  1.00  0.00    -0.082 C 
HETATM   32  C1  UNL     1     -14.209 -44.996  -7.145  1.00  0.00     0.015 C 
HETATM   33  C3  UNL     1     -15.232 -43.358  -8.572  1.00  0.00     0.043 C 
ENDBRANCH   1  31
TORSDOF 5
ENDMDL
MODEL 5
REMARK VINA RESULT: -6.115067058      2.013      3.923
REMARK  5 active torsions:
REMARK  status: ('A' for Active; 'I' for Inactive)
REMARK    1  A    between atoms: C2_2  and  C4_4 
REMARK    2  A    between atoms: C6_6  and  O1_7 
REMARK    3  A    between atoms: C9_11  and  N1_12 
REMARK    4  A    between atoms: C10_16  and  O2_17 
REMARK    5  A    between atoms: O2_17  and  C11_18 
ROOT
HETATM    1  C4  UNL     1     -14.581 -40.722 -11.849  1.00  0.00     0.091 C 
HETATM    2  C5  UNL     1     -14.219 -39.610 -10.954  1.00  0.00     0.048 C 
HETATM    3  C6  UNL     1     -13.212 -38.628 -11.438  1.00  0.00     0.119 C 
HETATM    4  C7  UNL     1     -13.383 -38.093 -12.836  1.00  0.00     0.039 C 
HETATM    5  C8  UNL     1     -14.353 -36.960 -12.937  1.00  0.00     0.033 C 
HETATM    6  C9  UNL     1     -13.650 -35.773 -13.570  1.00  0.00     0.218 C 
HETATM    7  C10 UNL     1     -14.324 -36.193 -14.866  1.00  0.00     0.175 C 
HETATM    8  C12 UNL     1     -15.327 -36.970 -14.071  1.00  0.00     0.004 C 
HETATM    9  C13 UNL     1     -16.523 -36.071 -13.822  1.00  0.00     0.013 C 
HETATM   10  C14 UNL     1     -17.593 -36.171 -14.857  1.00  0.00     0.002 C 
HETATM   11  C15 UNL     1     -18.002 -37.525 -15.273  1.00  0.00     0.009 C 
HETATM   12  C16 UNL     1     -16.799 -38.355 -15.558  1.00  0.00    -0.038 C 
HETATM   13  C17 UNL     1     -17.312 -39.754 -15.851  1.00  0.00     0.015 C 
HETATM   14  C18 UNL     1     -16.268 -37.891 -16.926  1.00  0.00     0.015 C 
HETATM   15  C19 UNL     1     -15.731 -38.337 -14.518  1.00  0.00     0.081 C 
HETATM   16  C20 UNL     1     -16.123 -39.131 -13.298  1.00  0.00     0.294 A 
HETATM   17  O5  UNL     1     -16.695 -38.446 -12.205  1.00  0.00    -0.185 OA
HETATM   18  O6  UNL     1     -17.479 -39.173 -12.915  1.00  0.00    -0.185 OA
HETATM   19  C21 UNL     1     -15.411 -40.373 -13.041  1.00  0.00     0.202 C 
HETATM   20  O7  UNL     1     -15.466 -41.280 -13.879  1.00  0.00    -0.291 OA
ENDROOT
BRANCH   6  21
HETATM   21  N1  UNL     1     -13.899 -34.485 -13.046  1.00  0.00    -0.072 N 
ATOM     22  H13 UNL     1     -14.906 -34.356 -12.948  1.00  0.00     0.274 HD
ATOM     23  H12 UNL     1     -13.602 -34.461 -12.070  1.00  0.00     0.274 HD
ATOM     24  H11 UNL     1     -13.507 -33.678 -13.532  1.00  0.00     0.274 HD
ENDBRANCH   6  21
BRANCH   7  25
HETATM   25  O2  UNL     1     -14.763 -34.996 -15.488  1.00  0.00    -0.288 OA
BRANCH  25  26
HETATM   26  C11 UNL     1     -14.656 -34.907 -16.861  1.00  0.00     0.333 C 
HETATM   27  O3  UNL     1     -15.509 -34.247 -17.501  1.00  0.00    -0.624 OA
HETATM   28  O4  UNL     1     -13.647 -35.513 -17.592  1.00  0.00    -0.624 OA
ENDBRANCH  25  26
ENDBRANCH   7  25
BRANCH   3  29
HETATM   29  O1  UNL     1     -13.224 -37.547 -10.522  1.00  0.00    -0.396 OA
ATOM     30  H1  UNL     1     -12.944 -36.778 -11.004  1.00  0.00     0.210 HD
ENDBRANCH   3  29
BRANCH   1  31
HETATM   31  C2  UNL     1     -15.265 -41.795 -11.038  1.00  0.00    -0.082 C 
HETATM   32  C1  UNL     1     -16.082 -41.528 -10.049  1.00  0.00     0.015 C 
HETATM   33  C3  UNL     1     -15.013 -43.240 -11.351  1.00  0.00     0.043 C 
ENDBRANCH   1  31
TORSDOF 5
ENDMDL
