MODEL 1
REMARK VINA RESULT: -6.915284445      0.000      0.000
REMARK  6 active torsions:
REMARK  status: ('A' for Active; 'I' for Inactive)
REMARK    1  A    between atoms: C8_8  and  O1_9 
REMARK    2  A    between atoms: O1_9  and  C9_10 
REMARK    3  A    between atoms: C9_10  and  C10_12 
REMARK    4  A    between atoms: C17_21  and  O5_22 
REMARK    5  A    between atoms: O5_22  and  C18_23 
REMARK    6  A    between atoms: C19_26  and  O7_28 
ROOT
HETATM    1  C1  UNL     1     -10.042 -39.333 -15.519  1.00  0.00     0.017 C 
HETATM    2  C2  UNL     1     -11.256 -38.966 -15.211  1.00  0.00    -0.059 C 
HETATM    3  C3  UNL     1     -12.408 -38.830 -16.114  1.00  0.00     0.049 C 
HETATM    4  C4  UNL     1     -13.389 -37.938 -15.368  1.00  0.00    -0.016 C 
HETATM    5  C5  UNL     1     -13.819 -36.822 -16.256  1.00  0.00     0.020 C 
HETATM    6  C6  UNL     1     -14.492 -38.817 -14.904  1.00  0.00    -0.018 C 
HETATM    7  C7  UNL     1     -15.203 -38.472 -13.854  1.00  0.00     0.003 C 
HETATM    8  C8  UNL     1     -14.890 -37.210 -13.153  1.00  0.00     0.162 C 
HETATM    9  C13 UNL     1     -13.430 -36.852 -13.126  1.00  0.00     0.064 C 
HETATM   10  C14 UNL     1     -12.589 -37.405 -14.193  1.00  0.00     0.041 C 
HETATM   11  C15 UNL     1     -11.740 -38.602 -13.863  1.00  0.00     0.166 C 
HETATM   12  O3  UNL     1     -10.646 -38.315 -13.021  1.00  0.00    -0.309 OA
HETATM   13  C16 UNL     1     -10.527 -37.496 -11.929  1.00  0.00     0.292 C 
HETATM   14  O4  UNL     1      -9.465 -37.635 -11.283  1.00  0.00    -0.262 OA
HETATM   15  C17 UNL     1     -11.540 -36.501 -11.492  1.00  0.00     0.267 C 
HETATM   16  C19 UNL     1     -12.939 -37.039 -11.716  1.00  0.00     0.097 C 
HETATM   17  C20 UNL     1     -13.080 -38.415 -11.166  1.00  0.00     0.049 C 
ENDROOT
BRANCH   8  18
HETATM   18  O1  UNL     1     -15.670 -36.204 -13.791  1.00  0.00    -0.311 OA
BRANCH  18  19
HETATM   19  C9  UNL     1     -15.425 -34.870 -13.621  1.00  0.00     0.263 C 
HETATM   20  O2  UNL     1     -15.728 -34.375 -12.495  1.00  0.00    -0.265 OA
BRANCH  19  21
HETATM   21  C10 UNL     1     -14.847 -33.979 -14.628  1.00  0.00     0.077 C 
HETATM   22  C11 UNL     1     -15.732 -33.795 -15.838  1.00  0.00     0.020 C 
HETATM   23  C12 UNL     1     -14.638 -32.604 -13.990  1.00  0.00     0.020 C 
ENDBRANCH  19  21
ENDBRANCH  18  19
ENDBRANCH   8  18
BRANCH  16  24
HETATM   24  O7  UNL     1     -13.757 -36.201 -10.917  1.00  0.00    -0.387 OA
ATOM     25  H7  UNL     1     -13.264 -36.053 -10.118  1.00  0.00     0.210 HD
ENDBRANCH  16  24
BRANCH  15  26
HETATM   26  O5  UNL     1     -11.394 -36.320 -10.087  1.00  0.00    -0.288 OA
BRANCH  26  27
HETATM   27  C18 UNL     1     -11.241 -35.062  -9.523  1.00  0.00     0.373 C 
HETATM   28  N1  UNL     1     -12.358 -34.367  -9.005  1.00  0.00    -0.032 NA
HETATM   29  O6  UNL     1     -10.080 -34.562  -9.489  1.00  0.00    -0.242 OA
ENDBRANCH  26  27
ENDBRANCH  15  26
TORSDOF 6
ENDMDL
MODEL 2
REMARK VINA RESULT: -6.818285801      2.441      6.331
REMARK  6 active torsions:
REMARK  status: ('A' for Active; 'I' for Inactive)
REMARK    1  A    between atoms: C8_8  and  O1_9 
REMARK    2  A    between atoms: O1_9  and  C9_10 
REMARK    3  A    between atoms: C9_10  and  C10_12 
REMARK    4  A    between atoms: C17_21  and  O5_22 
REMARK    5  A    between atoms: O5_22  and  C18_23 
REMARK    6  A    between atoms: C19_26  and  O7_28 
ROOT
HETATM    1  C1  UNL     1     -13.067 -33.878  -8.835  1.00  0.00     0.017 C 
HETATM    2  C2  UNL     1     -12.553 -34.766  -9.640  1.00  0.00    -0.059 C 
HETATM    3  C3  UNL     1     -11.207 -35.355  -9.586  1.00  0.00     0.049 C 
HETATM    4  C4  UNL     1     -10.971 -35.923 -10.978  1.00  0.00    -0.016 C 
HETATM    5  C5  UNL     1      -9.661 -35.437 -11.496  1.00  0.00     0.020 C 
HETATM    6  C6  UNL     1     -11.077 -37.399 -10.856  1.00  0.00    -0.018 C 
HETATM    7  C7  UNL     1     -11.409 -38.118 -11.905  1.00  0.00     0.003 C 
HETATM    8  C8  UNL     1     -11.672 -37.439 -13.190  1.00  0.00     0.162 C 
HETATM    9  C13 UNL     1     -12.318 -36.088 -13.067  1.00  0.00     0.064 C 
HETATM   10  C14 UNL     1     -12.112 -35.364 -11.808  1.00  0.00     0.041 C 
HETATM   11  C15 UNL     1     -13.229 -35.382 -10.801  1.00  0.00     0.166 C 
HETATM   12  O3  UNL     1     -14.348 -34.609 -11.172  1.00  0.00    -0.309 OA
HETATM   13  C16 UNL     1     -14.973 -34.430 -12.378  1.00  0.00     0.292 C 
HETATM   14  O4  UNL     1     -16.074 -33.838 -12.315  1.00  0.00    -0.262 OA
HETATM   15  C17 UNL     1     -14.443 -34.878 -13.691  1.00  0.00     0.267 C 
HETATM   16  C19 UNL     1     -13.738 -36.213 -13.548  1.00  0.00     0.097 C 
HETATM   17  C20 UNL     1     -14.582 -37.188 -12.805  1.00  0.00     0.049 C 
ENDROOT
BRANCH   8  18
HETATM   18  O1  UNL     1     -10.417 -37.368 -13.859  1.00  0.00    -0.311 OA
BRANCH  18  19
HETATM   19  C9  UNL     1      -9.709 -38.484 -14.206  1.00  0.00     0.263 C 
HETATM   20  O2  UNL     1     -10.381 -39.494 -14.572  1.00  0.00    -0.265 OA
BRANCH  19  21
HETATM   21  C10 UNL     1      -8.250 -38.602 -14.189  1.00  0.00     0.077 C 
HETATM   22  C11 UNL     1      -7.668 -38.982 -15.529  1.00  0.00     0.020 C 
HETATM   23  C12 UNL     1      -7.663 -37.247 -13.792  1.00  0.00     0.020 C 
ENDBRANCH  19  21
ENDBRANCH  18  19
ENDBRANCH   8  18
BRANCH  16  24
HETATM   24  O7  UNL     1     -13.646 -36.693 -14.878  1.00  0.00    -0.387 OA
ATOM     25  H7  UNL     1     -14.047 -37.555 -14.864  1.00  0.00     0.210 HD
ENDBRANCH  16  24
BRANCH  15  26
HETATM   26  O5  UNL     1     -15.551 -35.096 -14.558  1.00  0.00    -0.288 OA
BRANCH  26  27
HETATM   27  C18 UNL     1     -15.794 -34.281 -15.654  1.00  0.00     0.373 C 
HETATM   28  N1  UNL     1     -15.260 -32.972 -15.707  1.00  0.00    -0.032 NA
HETATM   29  O6  UNL     1     -16.502 -34.742 -16.594  1.00  0.00    -0.242 OA
ENDBRANCH  26  27
ENDBRANCH  15  26
TORSDOF 6
ENDMDL
MODEL 3
REMARK VINA RESULT: -6.804550134      2.333      4.509
REMARK  6 active torsions:
REMARK  status: ('A' for Active; 'I' for Inactive)
REMARK    1  A    between atoms: C8_8  and  O1_9 
REMARK    2  A    between atoms: O1_9  and  C9_10 
REMARK    3  A    between atoms: C9_10  and  C10_12 
REMARK    4  A    between atoms: C17_21  and  O5_22 
REMARK    5  A    between atoms: O5_22  and  C18_23 
REMARK    6  A    between atoms: C19_26  and  O7_28 
ROOT
HETATM    1  C1  UNL     1     -13.022 -38.624 -16.441  1.00  0.00     0.017 C 
HETATM    2  C2  UNL     1     -12.997 -38.313 -15.175  1.00  0.00    -0.059 C 
HETATM    3  C3  UNL     1     -14.132 -37.937 -14.320  1.00  0.00     0.049 C 
HETATM    4  C4  UNL     1     -13.507 -37.228 -13.127  1.00  0.00    -0.016 C 
HETATM    5  C5  UNL     1     -14.190 -35.921 -12.915  1.00  0.00     0.020 C 
HETATM    6  C6  UNL     1     -13.600 -38.167 -11.980  1.00  0.00    -0.018 C 
HETATM    7  C7  UNL     1     -12.747 -38.067 -10.985  1.00  0.00     0.003 C 
HETATM    8  C8  UNL     1     -11.707 -37.019 -11.029  1.00  0.00     0.162 C 
HETATM    9  C13 UNL     1     -11.180 -36.713 -12.402  1.00  0.00     0.064 C 
HETATM   10  C14 UNL     1     -12.061 -37.012 -13.536  1.00  0.00     0.041 C 
HETATM   11  C15 UNL     1     -11.797 -38.273 -14.313  1.00  0.00     0.166 C 
HETATM   12  O3  UNL     1     -10.634 -38.223 -15.109  1.00  0.00    -0.309 OA
HETATM   13  C16 UNL     1      -9.392 -37.694 -14.876  1.00  0.00     0.292 C 
HETATM   14  O4  UNL     1      -8.522 -38.011 -15.717  1.00  0.00    -0.262 OA
HETATM   15  C17 UNL     1      -9.039 -36.811 -13.735  1.00  0.00     0.267 C 
HETATM   16  C19 UNL     1      -9.775 -37.245 -12.483  1.00  0.00     0.097 C 
HETATM   17  C20 UNL     1      -9.631 -38.709 -12.257  1.00  0.00     0.049 C 
ENDROOT
BRANCH   8  18
HETATM   18  O1  UNL     1     -12.284 -35.871 -10.415  1.00  0.00    -0.311 OA
BRANCH  18  19
HETATM   19  C9  UNL     1     -11.591 -35.085  -9.537  1.00  0.00     0.263 C 
HETATM   20  O2  UNL     1     -10.384 -35.402  -9.319  1.00  0.00    -0.265 OA
BRANCH  19  21
HETATM   21  C10 UNL     1     -12.129 -33.917  -8.837  1.00  0.00     0.077 C 
HETATM   22  C11 UNL     1     -13.636 -33.920  -8.748  1.00  0.00     0.020 C 
HETATM   23  C12 UNL     1     -11.577 -33.916  -7.410  1.00  0.00     0.020 C 
ENDBRANCH  19  21
ENDBRANCH  18  19
ENDBRANCH   8  18
BRANCH  16  24
HETATM   24  O7  UNL     1      -9.068 -36.605 -11.434  1.00  0.00    -0.387 OA
ATOM     25  H7  UNL     1      -9.715 -36.440 -10.757  1.00  0.00     0.210 HD
ENDBRANCH  16  24
BRANCH  15  26
HETATM   26  O5  UNL     1      -7.650 -36.976 -13.468  1.00  0.00    -0.288 OA
BRANCH  26  27
HETATM   27  C18 UNL     1      -6.770 -35.905 -13.481  1.00  0.00     0.373 C 
HETATM   28  N1  UNL     1      -6.798 -34.940 -12.447  1.00  0.00    -0.032 NA
HETATM   29  O6  UNL     1      -5.949 -35.820 -14.439  1.00  0.00    -0.242 OA
ENDBRANCH  26  27
ENDBRANCH  15  26
TORSDOF 6
ENDMDL
MODEL 4
REMARK VINA RESULT: -6.798206940      2.438      4.599
REMARK  6 active torsions:
REMARK  status: ('A' for Active; 'I' for Inactive)
REMARK    1  A    between atoms: C8_8  and  O1_9 
REMARK    2  A    between atoms: O1_9  and  C9_10 
REMARK    3  A    between atoms: C9_10  and  C10_12 
REMARK    4  A    between atoms: C17_21  and  O5_22 
REMARK    5  A    between atoms: O5_22  and  C18_23 
REMARK    6  A    between atoms: C19_26  and  O7_28 
ROOT
HETATM    1  C1  UNL     1     -14.759 -35.614 -17.074  1.00  0.00     0.017 C 
HETATM    2  C2  UNL     1     -14.827 -35.353 -15.798  1.00  0.00    -0.059 C 
HETATM    3  C3  UNL     1     -15.452 -34.190 -15.152  1.00  0.00     0.049 C 
HETATM    4  C4  UNL     1     -14.837 -34.136 -13.761  1.00  0.00    -0.016 C 
HETATM    5  C5  UNL     1     -14.325 -32.761 -13.499  1.00  0.00     0.020 C 
HETATM    6  C6  UNL     1     -15.885 -34.595 -12.816  1.00  0.00    -0.018 C 
HETATM    7  C7  UNL     1     -15.539 -35.120 -11.662  1.00  0.00     0.003 C 
HETATM    8  C8  UNL     1     -14.106 -35.243 -11.327  1.00  0.00     0.162 C 
HETATM    9  C13 UNL     1     -13.209 -35.537 -12.497  1.00  0.00     0.064 C 
HETATM   10  C14 UNL     1     -13.689 -35.128 -13.822  1.00  0.00     0.041 C 
HETATM   11  C15 UNL     1     -14.280 -36.189 -14.709  1.00  0.00     0.166 C 
HETATM   12  O3  UNL     1     -13.332 -37.095 -15.228  1.00  0.00    -0.309 OA
HETATM   13  C16 UNL     1     -12.235 -37.689 -14.663  1.00  0.00     0.292 C 
HETATM   14  O4  UNL     1     -11.730 -38.610 -15.343  1.00  0.00    -0.262 OA
HETATM   15  C17 UNL     1     -11.641 -37.319 -13.353  1.00  0.00     0.267 C 
HETATM   16  C19 UNL     1     -12.731 -36.957 -12.363  1.00  0.00     0.097 C 
HETATM   17  C20 UNL     1     -13.799 -37.992 -12.338  1.00  0.00     0.049 C 
ENDROOT
BRANCH   8  18
HETATM   18  O1  UNL     1     -13.749 -34.026 -10.679  1.00  0.00    -0.311 OA
BRANCH  18  19
HETATM   19  C9  UNL     1     -13.285 -33.990  -9.394  1.00  0.00     0.263 C 
HETATM   20  O2  UNL     1     -12.296 -34.734  -9.125  1.00  0.00    -0.265 OA
BRANCH  19  21
HETATM   21  C10 UNL     1     -13.837 -33.168  -8.315  1.00  0.00     0.077 C 
HETATM   22  C11 UNL     1     -15.322 -33.361  -8.121  1.00  0.00     0.020 C 
HETATM   23  C12 UNL     1     -13.141 -33.557  -7.010  1.00  0.00     0.020 C 
ENDBRANCH  19  21
ENDBRANCH  18  19
ENDBRANCH   8  18
BRANCH  16  24
HETATM   24  O7  UNL     1     -12.081 -37.019 -11.105  1.00  0.00    -0.387 OA
ATOM     25  H7  UNL     1     -12.701 -37.439 -10.520  1.00  0.00     0.210 HD
ENDBRANCH  16  24
BRANCH  15  26
HETATM   26  O5  UNL     1     -10.984 -38.469 -12.831  1.00  0.00    -0.288 OA
BRANCH  26  27
HETATM   27  C18 UNL     1      -9.618 -38.485 -12.591  1.00  0.00     0.373 C 
HETATM   28  N1  UNL     1      -8.783 -39.412 -13.259  1.00  0.00    -0.032 NA
HETATM   29  O6  UNL     1      -9.149 -37.653 -11.763  1.00  0.00    -0.242 OA
ENDBRANCH  26  27
ENDBRANCH  15  26
TORSDOF 6
ENDMDL
MODEL 5
REMARK VINA RESULT: -6.660291590      2.274      4.806
REMARK  6 active torsions:
REMARK  status: ('A' for Active; 'I' for Inactive)
REMARK    1  A    between atoms: C8_8  and  O1_9 
REMARK    2  A    between atoms: O1_9  and  C9_10 
REMARK    3  A    between atoms: C9_10  and  C10_12 
REMARK    4  A    between atoms: C17_21  and  O5_22 
REMARK    5  A    between atoms: O5_22  and  C18_23 
REMARK    6  A    between atoms: C19_26  and  O7_28 
ROOT
HETATM    1  C1  UNL     1     -16.290 -34.657 -16.300  1.00  0.00     0.017 C 
HETATM    2  C2  UNL     1     -15.844 -35.752 -15.748  1.00  0.00    -0.059 C 
HETATM    3  C3  UNL     1     -16.278 -37.131 -16.012  1.00  0.00     0.049 C 
HETATM    4  C4  UNL     1     -15.814 -37.928 -14.801  1.00  0.00    -0.016 C 
HETATM    5  C5  UNL     1     -16.955 -38.722 -14.264  1.00  0.00     0.020 C 
HETATM    6  C6  UNL     1     -14.653 -38.738 -15.247  1.00  0.00    -0.018 C 
HETATM    7  C7  UNL     1     -13.756 -39.130 -14.371  1.00  0.00     0.003 C 
HETATM    8  C8  UNL     1     -13.921 -38.753 -12.952  1.00  0.00     0.162 C 
HETATM    9  C13 UNL     1     -14.537 -37.401 -12.728  1.00  0.00     0.064 C 
HETATM   10  C14 UNL     1     -15.385 -36.870 -13.800  1.00  0.00     0.041 C 
HETATM   11  C15 UNL     1     -14.787 -35.839 -14.719  1.00  0.00     0.166 C 
HETATM   12  O3  UNL     1     -14.595 -34.578 -14.118  1.00  0.00    -0.309 OA
HETATM   13  C16 UNL     1     -14.162 -34.220 -12.869  1.00  0.00     0.292 C 
HETATM   14  O4  UNL     1     -13.904 -33.004 -12.732  1.00  0.00    -0.262 OA
HETATM   15  C17 UNL     1     -13.989 -35.151 -11.725  1.00  0.00     0.267 C 
HETATM   16  C19 UNL     1     -13.460 -36.488 -12.207  1.00  0.00     0.097 C 
HETATM   17  C20 UNL     1     -12.284 -36.309 -13.100  1.00  0.00     0.049 C 
ENDROOT
BRANCH   8  18
HETATM   18  O1  UNL     1     -14.694 -39.792 -12.359  1.00  0.00    -0.311 OA
BRANCH  18  19
HETATM   19  C9  UNL     1     -14.620 -40.089 -11.027  1.00  0.00     0.263 C 
HETATM   20  O2  UNL     1     -13.500 -39.907 -10.464  1.00  0.00    -0.265 OA
BRANCH  19  21
HETATM   21  C10 UNL     1     -15.723 -40.597 -10.209  1.00  0.00     0.077 C 
HETATM   22  C11 UNL     1     -17.083 -40.279 -10.782  1.00  0.00     0.020 C 
HETATM   23  C12 UNL     1     -15.597 -42.119 -10.123  1.00  0.00     0.020 C 
ENDBRANCH  19  21
ENDBRANCH  18  19
ENDBRANCH   8  18
BRANCH  16  24
HETATM   24  O7  UNL     1     -12.978 -37.108 -11.027  1.00  0.00    -0.387 OA
ATOM     25  H7  UNL     1     -12.545 -37.903 -11.318  1.00  0.00     0.210 HD
ENDBRANCH  16  24
BRANCH  15  26
HETATM   26  O5  UNL     1     -12.992 -34.606 -10.866  1.00  0.00    -0.288 OA
BRANCH  26  27
HETATM   27  C18 UNL     1     -13.256 -34.300  -9.539  1.00  0.00     0.373 C 
HETATM   28  N1  UNL     1     -12.209 -34.261  -8.590  1.00  0.00    -0.032 NA
HETATM   29  O6  UNL     1     -14.453 -34.059  -9.211  1.00  0.00    -0.242 OA
ENDBRANCH  26  27
ENDBRANCH  15  26
TORSDOF 6
ENDMDL
