MODEL 1
REMARK VINA RESULT: -7.149602910      0.000      0.000
REMARK  3 active torsions:
REMARK  status: ('A' for Active; 'I' for Inactive)
REMARK    1  A    between atoms: C4_5  and  N2_6 
REMARK    2  A    between atoms: C7_9  and  C8_10 
REMARK       I    between atoms: C8_10  and  N3_12 
REMARK    3  A    between atoms: N3_12  and  C9_14 
ROOT
HETATM    1  N2  UNL     1      19.551   8.909  13.798  1.00  0.00     0.093 N 
HETATM    2  C5  UNL     1      18.104   9.004  13.870  1.00  0.00     0.273 C 
HETATM    3  C6  UNL     1      17.550   7.876  14.713  1.00  0.00     0.044 C 
HETATM    4  C7  UNL     1      18.329   6.628  14.324  1.00  0.00     0.081 C 
HETATM    5  C16 UNL     1      18.854   6.802  12.921  1.00  0.00     0.044 C 
HETATM    6  C17 UNL     1      19.992   7.833  12.962  1.00  0.00     0.273 C 
ENDROOT
BRANCH   4   7
HETATM    7  C8  UNL     1      17.519   5.414  14.450  1.00  0.00     0.222 C 
HETATM    8  O1  UNL     1      17.595   4.503  13.592  1.00  0.00    -0.273 OA
HETATM    9  N3  UNL     1      16.618   5.212  15.539  1.00  0.00    -0.356 N 
ATOM     10  H3  UNL     1      16.536   5.936  16.253  1.00  0.00     0.162 HD
BRANCH   9  11
HETATM   11  C9  UNL     1      15.817   4.010  15.663  1.00  0.00     0.088 C 
HETATM   12  C10 UNL     1      14.353   4.396  15.542  1.00  0.00     0.030 C 
HETATM   13  C11 UNL     1      13.730   4.118  16.888  1.00  0.00    -0.012 C 
HETATM   14  C12 UNL     1      13.600   2.632  17.031  1.00  0.00     0.005 C 
HETATM   15  C15 UNL     1      14.945   4.375  17.799  1.00  0.00     0.011 C 
HETATM   16  C13 UNL     1      15.064   2.167  17.047  1.00  0.00     0.007 C 
HETATM   17  C14 UNL     1      15.890   3.433  17.055  1.00  0.00     0.009 C 
ENDBRANCH   9  11
ENDBRANCH   4   7
BRANCH   1  18
HETATM   18  C4  UNL     1      20.142  10.190  13.460  1.00  0.00     0.226 C 
HETATM   19  C3  UNL     1      20.047  11.201  14.533  1.00  0.00     0.066 C 
HETATM   20  C2  UNL     1      19.457  12.514  14.219  1.00  0.00     0.274 C 
HETATM   21  N1  UNL     1      18.873  12.682  12.928  1.00  0.00     0.084 N 
HETATM   22  C1  UNL     1      18.818  14.126  12.644  1.00  0.00     0.309 C 
HETATM   23  C19 UNL     1      19.697  12.102  11.901  1.00  0.00     0.274 C 
HETATM   24  C18 UNL     1      19.669  10.608  12.106  1.00  0.00     0.066 C 
ENDBRANCH   1  18
TORSDOF 3
ENDMDL
MODEL 2
REMARK VINA RESULT: -7.057254700      1.256      1.733
REMARK  3 active torsions:
REMARK  status: ('A' for Active; 'I' for Inactive)
REMARK    1  A    between atoms: C4_5  and  N2_6 
REMARK    2  A    between atoms: C7_9  and  C8_10 
REMARK       I    between atoms: C8_10  and  N3_12 
REMARK    3  A    between atoms: N3_12  and  C9_14 
ROOT
HETATM    1  N2  UNL     1      19.495   9.054  13.746  1.00  0.00     0.093 N 
HETATM    2  C5  UNL     1      18.046   9.115  13.811  1.00  0.00     0.273 C 
HETATM    3  C6  UNL     1      17.515   7.977  14.655  1.00  0.00     0.044 C 
HETATM    4  C7  UNL     1      18.326   6.746  14.274  1.00  0.00     0.081 C 
HETATM    5  C16 UNL     1      18.852   6.928  12.873  1.00  0.00     0.044 C 
HETATM    6  C17 UNL     1      19.965   7.986  12.916  1.00  0.00     0.273 C 
ENDROOT
BRANCH   4   7
HETATM    7  C8  UNL     1      17.544   5.514  14.401  1.00  0.00     0.222 C 
HETATM    8  O1  UNL     1      17.667   4.590  13.562  1.00  0.00    -0.273 OA
HETATM    9  N3  UNL     1      16.619   5.307  15.468  1.00  0.00    -0.356 N 
ATOM     10  H3  UNL     1      16.499   6.041  16.166  1.00  0.00     0.162 HD
BRANCH   9  11
HETATM   11  C9  UNL     1      15.846   4.087  15.593  1.00  0.00     0.088 C 
HETATM   12  C10 UNL     1      14.371   4.445  15.520  1.00  0.00     0.030 C 
HETATM   13  C11 UNL     1      13.793   4.130  16.878  1.00  0.00    -0.012 C 
HETATM   14  C12 UNL     1      13.697   2.640  16.997  1.00  0.00     0.005 C 
HETATM   15  C15 UNL     1      15.027   4.396  17.759  1.00  0.00     0.011 C 
HETATM   16  C13 UNL     1      15.170   2.205  16.964  1.00  0.00     0.007 C 
HETATM   17  C14 UNL     1      15.970   3.487  16.972  1.00  0.00     0.009 C 
ENDBRANCH   9  11
ENDBRANCH   4   7
BRANCH   1  18
HETATM   18  C4  UNL     1      20.057  10.348  13.406  1.00  0.00     0.226 C 
HETATM   19  C3  UNL     1      21.465  10.295  12.961  1.00  0.00     0.066 C 
HETATM   20  C2  UNL     1      22.454  11.154  13.635  1.00  0.00     0.274 C 
HETATM   21  N1  UNL     1      22.021  11.881  14.785  1.00  0.00     0.084 N 
HETATM   22  C1  UNL     1      22.949  13.008  14.980  1.00  0.00     0.309 C 
HETATM   23  C19 UNL     1      20.721  12.463  14.576  1.00  0.00     0.274 C 
HETATM   24  C18 UNL     1      19.737  11.323  14.493  1.00  0.00     0.066 C 
ENDBRANCH   1  18
TORSDOF 3
ENDMDL
MODEL 3
REMARK VINA RESULT: -6.774061099      1.934      8.510
REMARK  3 active torsions:
REMARK  status: ('A' for Active; 'I' for Inactive)
REMARK    1  A    between atoms: C4_5  and  N2_6 
REMARK    2  A    between atoms: C7_9  and  C8_10 
REMARK       I    between atoms: C8_10  and  N3_12 
REMARK    3  A    between atoms: N3_12  and  C9_14 
ROOT
HETATM    1  N2  UNL     1      16.459   5.884  13.732  1.00  0.00     0.093 N 
HETATM    2  C5  UNL     1      15.614   7.063  13.670  1.00  0.00     0.273 C 
HETATM    3  C6  UNL     1      16.210   8.081  12.722  1.00  0.00     0.044 C 
HETATM    4  C7  UNL     1      17.709   8.088  12.989  1.00  0.00     0.081 C 
HETATM    5  C16 UNL     1      17.952   7.622  14.403  1.00  0.00     0.044 C 
HETATM    6  C17 UNL     1      17.670   6.112  14.461  1.00  0.00     0.273 C 
ENDROOT
BRANCH   4   7
HETATM    7  C8  UNL     1      18.302   9.405  12.746  1.00  0.00     0.222 C 
HETATM    8  O1  UNL     1      17.872  10.140  11.826  1.00  0.00    -0.273 OA
HETATM    9  N3  UNL     1      19.383   9.907  13.533  1.00  0.00    -0.356 N 
ATOM     10  H3  UNL     1      19.753   9.331  14.288  1.00  0.00     0.162 HD
BRANCH   9  11
HETATM   11  C9  UNL     1      19.970  11.210  13.292  1.00  0.00     0.088 C 
HETATM   12  C10 UNL     1      21.480  11.082  13.394  1.00  0.00     0.030 C 
HETATM   13  C11 UNL     1      21.891  11.887  14.602  1.00  0.00    -0.012 C 
HETATM   14  C12 UNL     1      21.774  13.337  14.245  1.00  0.00     0.005 C 
HETATM   15  C15 UNL     1      20.634  11.718  15.474  1.00  0.00     0.011 C 
HETATM   16  C13 UNL     1      20.264  13.505  14.018  1.00  0.00     0.007 C 
HETATM   17  C14 UNL     1      19.648  12.180  14.402  1.00  0.00     0.009 C 
ENDBRANCH   9  11
ENDBRANCH   4   7
BRANCH   1  18
HETATM   18  C4  UNL     1      15.711   4.729  14.192  1.00  0.00     0.226 C 
HETATM   19  C3  UNL     1      14.621   5.052  15.135  1.00  0.00     0.066 C 
HETATM   20  C2  UNL     1      14.574   4.353  16.431  1.00  0.00     0.274 C 
HETATM   21  N1  UNL     1      15.675   3.508  16.764  1.00  0.00     0.084 N 
HETATM   22  C1  UNL     1      15.217   2.556  17.791  1.00  0.00     0.309 C 
HETATM   23  C19 UNL     1      16.085   2.714  15.636  1.00  0.00     0.274 C 
HETATM   24  C18 UNL     1      16.668   3.662  14.619  1.00  0.00     0.066 C 
ENDBRANCH   1  18
TORSDOF 3
ENDMDL
MODEL 4
REMARK VINA RESULT: -6.603852645      1.787      8.760
REMARK  3 active torsions:
REMARK  status: ('A' for Active; 'I' for Inactive)
REMARK    1  A    between atoms: C4_5  and  N2_6 
REMARK    2  A    between atoms: C7_9  and  C8_10 
REMARK       I    between atoms: C8_10  and  N3_12 
REMARK    3  A    between atoms: N3_12  and  C9_14 
ROOT
HETATM    1  N2  UNL     1      16.798   6.238  14.462  1.00  0.00     0.093 N 
HETATM    2  C5  UNL     1      18.012   5.868  13.756  1.00  0.00     0.273 C 
HETATM    3  C6  UNL     1      19.117   6.853  14.070  1.00  0.00     0.044 C 
HETATM    4  C7  UNL     1      18.477   8.234  14.053  1.00  0.00     0.081 C 
HETATM    5  C16 UNL     1      17.255   8.192  13.169  1.00  0.00     0.044 C 
HETATM    6  C17 UNL     1      16.166   7.395  13.902  1.00  0.00     0.273 C 
ENDROOT
BRANCH   4   7
HETATM    7  C8  UNL     1      19.419   9.270  13.620  1.00  0.00     0.222 C 
HETATM    8  O1  UNL     1      20.408   8.976  12.907  1.00  0.00    -0.273 OA
HETATM    9  N3  UNL     1      19.259  10.641  13.982  1.00  0.00    -0.356 N 
ATOM     10  H3  UNL     1      18.463  10.909  14.560  1.00  0.00     0.162 HD
BRANCH   9  11
HETATM   11  C9  UNL     1      20.192  11.665  13.553  1.00  0.00     0.088 C 
HETATM   12  C10 UNL     1      20.717  12.381  14.785  1.00  0.00     0.030 C 
HETATM   13  C11 UNL     1      20.199  13.796  14.705  1.00  0.00    -0.012 C 
HETATM   14  C12 UNL     1      20.975  14.505  13.637  1.00  0.00     0.005 C 
HETATM   15  C15 UNL     1      18.873  13.550  13.961  1.00  0.00     0.011 C 
HETATM   16  C13 UNL     1      20.567  13.745  12.365  1.00  0.00     0.007 C 
HETATM   17  C14 UNL     1      19.495  12.773  12.802  1.00  0.00     0.009 C 
ENDBRANCH   9  11
ENDBRANCH   4   7
BRANCH   1  18
HETATM   18  C4  UNL     1      15.910   5.100  14.605  1.00  0.00     0.226 C 
HETATM   19  C3  UNL     1      14.785   5.326  15.534  1.00  0.00     0.066 C 
HETATM   20  C2  UNL     1      14.569   4.369  16.633  1.00  0.00     0.274 C 
HETATM   21  N1  UNL     1      15.555   3.355  16.827  1.00  0.00     0.084 N 
HETATM   22  C1  UNL     1      14.929   2.257  17.584  1.00  0.00     0.309 C 
HETATM   23  C19 UNL     1      15.975   2.788  15.572  1.00  0.00     0.274 C 
HETATM   24  C18 UNL     1      16.724   3.867  14.831  1.00  0.00     0.066 C 
ENDBRANCH   1  18
TORSDOF 3
ENDMDL
MODEL 5
REMARK VINA RESULT: -6.583016650      3.961      5.698
REMARK  3 active torsions:
REMARK  status: ('A' for Active; 'I' for Inactive)
REMARK    1  A    between atoms: C4_5  and  N2_6 
REMARK    2  A    between atoms: C7_9  and  C8_10 
REMARK       I    between atoms: C8_10  and  N3_12 
REMARK    3  A    between atoms: N3_12  and  C9_14 
ROOT
HETATM    1  N2  UNL     1      21.657   6.777  10.785  1.00  0.00     0.093 N 
HETATM    2  C5  UNL     1      20.506   7.644  10.610  1.00  0.00     0.273 C 
HETATM    3  C6  UNL     1      19.954   8.053  11.958  1.00  0.00     0.044 C 
HETATM    4  C7  UNL     1      19.990   6.807  12.832  1.00  0.00     0.081 C 
HETATM    5  C16 UNL     1      19.941   5.590  11.943  1.00  0.00     0.044 C 
HETATM    6  C17 UNL     1      21.297   5.465  11.232  1.00  0.00     0.273 C 
ENDROOT
BRANCH   4   7
HETATM    7  C8  UNL     1      18.907   6.798  13.818  1.00  0.00     0.222 C 
HETATM    8  O1  UNL     1      18.568   7.853  14.406  1.00  0.00    -0.273 OA
HETATM    9  N3  UNL     1      18.196   5.606  14.154  1.00  0.00    -0.356 N 
ATOM     10  H3  UNL     1      18.449   4.733  13.692  1.00  0.00     0.162 HD
BRANCH   9  11
HETATM   11  C9  UNL     1      17.124   5.598  15.131  1.00  0.00     0.088 C 
HETATM   12  C10 UNL     1      17.112   4.243  15.817  1.00  0.00     0.030 C 
HETATM   13  C11 UNL     1      15.819   3.578  15.416  1.00  0.00    -0.012 C 
HETATM   14  C12 UNL     1      14.708   4.258  16.156  1.00  0.00     0.005 C 
HETATM   15  C15 UNL     1      15.629   4.190  14.016  1.00  0.00     0.011 C 
HETATM   16  C13 UNL     1      14.743   5.682  15.579  1.00  0.00     0.007 C 
HETATM   17  C14 UNL     1      15.768   5.642  14.470  1.00  0.00     0.009 C 
ENDBRANCH   9  11
ENDBRANCH   4   7
BRANCH   1  18
HETATM   18  C4  UNL     1      22.498   6.779   9.603  1.00  0.00     0.226 C 
HETATM   19  C3  UNL     1      21.765   6.557   8.340  1.00  0.00     0.066 C 
HETATM   20  C2  UNL     1      22.212   5.481   7.440  1.00  0.00     0.274 C 
HETATM   21  N1  UNL     1      23.243   4.613   7.912  1.00  0.00     0.084 N 
HETATM   22  C1  UNL     1      23.871   3.981   6.739  1.00  0.00     0.309 C 
HETATM   23  C19 UNL     1      24.284   5.351   8.576  1.00  0.00     0.274 C 
HETATM   24  C18 UNL     1      23.689   5.908   9.844  1.00  0.00     0.066 C 
ENDBRANCH   1  18
TORSDOF 3
ENDMDL
