MODEL 1
REMARK VINA RESULT: -7.277741741      0.000      0.000
REMARK  2 active torsions:
REMARK  status: ('A' for Active; 'I' for Inactive)
REMARK    1  A    between atoms: N2_7  and  C3_8 
REMARK    2  A    between atoms: C8_14  and  C9_15 
ROOT
HETATM    1  O1  UNL     1      18.534   9.542  14.334  1.00  0.00    -0.271 OA
HETATM    2  C1  UNL     1      18.247   8.450  13.787  1.00  0.00     0.249 C 
HETATM    3  N1  UNL     1      19.170   7.477  13.262  1.00  0.00    -0.277 N 
ATOM      4  H1  UNL     1      20.134   7.643  12.973  1.00  0.00     0.173 HD
HETATM    5  C2  UNL     1      18.459   6.221  13.225  1.00  0.00     0.326 C 
HETATM    6  O2  UNL     1      18.944   5.142  12.824  1.00  0.00    -0.247 OA
HETATM    7  N2  UNL     1      17.120   6.442  13.723  1.00  0.00    -0.315 N 
HETATM    8  C8  UNL     1      16.904   7.835  13.516  1.00  0.00     0.190 C 
ENDROOT
BRANCH   8   9
HETATM    9  C9  UNL     1      16.363   8.277  12.216  1.00  0.00    -0.010 C 
HETATM   10  C10 UNL     1      16.493   7.287  11.080  1.00  0.00     0.016 C 
HETATM   11  C11 UNL     1      15.987   7.925   9.804  1.00  0.00    -0.013 C 
HETATM   12  C12 UNL     1      16.856   9.110   9.496  1.00  0.00     0.009 C 
HETATM   13  C16 UNL     1      14.562   8.362   9.856  1.00  0.00     0.009 C 
HETATM   14  C13 UNL     1      16.644  10.149  10.560  1.00  0.00    -0.013 C 
HETATM   15  C14 UNL     1      15.204  10.551  10.728  1.00  0.00     0.009 C 
HETATM   16  C18 UNL     1      17.113   9.576  11.870  1.00  0.00     0.016 C 
HETATM   17  C15 UNL     1      14.418   9.308  11.033  1.00  0.00    -0.013 C 
HETATM   18  C17 UNL     1      14.868   8.603  12.292  1.00  0.00     0.016 C 
ENDBRANCH   8   9
BRANCH   7  19
HETATM   19  C3  UNL     1      16.265   5.433  14.315  1.00  0.00     0.093 C 
HETATM   20  C4  UNL     1      16.971   4.473  15.194  1.00  0.00     0.051 C 
HETATM   21  C5  UNL     1      16.126   3.847  16.261  1.00  0.00     0.169 C 
HETATM   22  O3  UNL     1      14.775   3.897  15.861  1.00  0.00    -0.391 OA
HETATM   23  C6  UNL     1      14.391   5.218  15.994  1.00  0.00     0.169 C 
HETATM   24  C7  UNL     1      15.043   6.060  14.962  1.00  0.00     0.051 C 
ENDBRANCH   7  19
TORSDOF 2
ENDMDL
MODEL 2
REMARK VINA RESULT: -7.277254596      1.036      2.090
REMARK  2 active torsions:
REMARK  status: ('A' for Active; 'I' for Inactive)
REMARK    1  A    between atoms: N2_7  and  C3_8 
REMARK    2  A    between atoms: C8_14  and  C9_15 
ROOT
HETATM    1  O1  UNL     1      18.080   9.377  15.002  1.00  0.00    -0.271 OA
HETATM    2  C1  UNL     1      18.132   8.400  14.218  1.00  0.00     0.249 C 
HETATM    3  N1  UNL     1      19.317   7.728  13.751  1.00  0.00    -0.277 N 
ATOM      4  H1  UNL     1      20.264   8.106  13.724  1.00  0.00     0.173 HD
HETATM    5  C2  UNL     1      18.899   6.411  13.330  1.00  0.00     0.326 C 
HETATM    6  O2  UNL     1      19.662   5.539  12.863  1.00  0.00    -0.247 OA
HETATM    7  N2  UNL     1      17.473   6.298  13.542  1.00  0.00    -0.315 N 
HETATM    8  C8  UNL     1      17.020   7.649  13.544  1.00  0.00     0.190 C 
ENDROOT
BRANCH   8   9
HETATM    9  C9  UNL     1      16.656   8.270  12.255  1.00  0.00    -0.010 C 
HETATM   10  C10 UNL     1      17.375   9.558  11.921  1.00  0.00     0.016 C 
HETATM   11  C11 UNL     1      16.821  10.116  10.627  1.00  0.00    -0.013 C 
HETATM   12  C12 UNL     1      15.368  10.430  10.837  1.00  0.00     0.009 C 
HETATM   13  C16 UNL     1      16.963   9.208   9.454  1.00  0.00     0.009 C 
HETATM   14  C13 UNL     1      14.626   9.142  11.053  1.00  0.00    -0.013 C 
HETATM   15  C14 UNL     1      14.820   8.143   9.945  1.00  0.00     0.009 C 
HETATM   16  C18 UNL     1      15.139   8.517  12.322  1.00  0.00     0.016 C 
HETATM   17  C15 UNL     1      16.294   7.893   9.811  1.00  0.00    -0.013 C 
HETATM   18  C17 UNL     1      16.929   7.341  11.068  1.00  0.00     0.016 C 
ENDBRANCH   8   9
BRANCH   7  19
HETATM   19  C3  UNL     1      16.747   5.059  13.734  1.00  0.00     0.093 C 
HETATM   20  C4  UNL     1      16.968   4.050  12.673  1.00  0.00     0.051 C 
HETATM   21  C5  UNL     1      16.775   2.627  13.099  1.00  0.00     0.169 C 
HETATM   22  O3  UNL     1      15.927   2.597  14.225  1.00  0.00    -0.391 OA
HETATM   23  C6  UNL     1      16.688   3.064  15.281  1.00  0.00     0.169 C 
HETATM   24  C7  UNL     1      16.950   4.516  15.138  1.00  0.00     0.051 C 
ENDBRANCH   7  19
TORSDOF 2
ENDMDL
MODEL 3
REMARK VINA RESULT: -7.173924395      2.778      4.634
REMARK  2 active torsions:
REMARK  status: ('A' for Active; 'I' for Inactive)
REMARK    1  A    between atoms: N2_7  and  C3_8 
REMARK    2  A    between atoms: C8_14  and  C9_15 
ROOT
HETATM    1  O1  UNL     1      14.087   5.654  15.390  1.00  0.00    -0.271 OA
HETATM    2  C1  UNL     1      15.200   5.104  15.210  1.00  0.00     0.249 C 
HETATM    3  N1  UNL     1      15.969   4.372  16.184  1.00  0.00    -0.277 N 
ATOM      4  H1  UNL     1      15.901   4.446  17.198  1.00  0.00     0.173 HD
HETATM    5  C2  UNL     1      16.858   3.513  15.437  1.00  0.00     0.326 C 
HETATM    6  O2  UNL     1      17.683   2.727  15.949  1.00  0.00    -0.247 OA
HETATM    7  N2  UNL     1      16.622   3.731  14.027  1.00  0.00    -0.315 N 
HETATM    8  C8  UNL     1      16.049   5.034  13.974  1.00  0.00     0.190 C 
ENDROOT
BRANCH   8   9
HETATM    9  C9  UNL     1      16.954   6.197  13.878  1.00  0.00    -0.010 C 
HETATM   10  C10 UNL     1      16.490   7.449  14.588  1.00  0.00     0.016 C 
HETATM   11  C11 UNL     1      17.471   8.569  14.311  1.00  0.00    -0.013 C 
HETATM   12  C12 UNL     1      17.469   8.839  12.834  1.00  0.00     0.009 C 
HETATM   13  C16 UNL     1      18.866   8.292  14.757  1.00  0.00     0.009 C 
HETATM   14  C13 UNL     1      18.038   7.641  12.128  1.00  0.00    -0.013 C 
HETATM   15  C14 UNL     1      19.407   7.251  12.615  1.00  0.00     0.009 C 
HETATM   16  C18 UNL     1      17.118   6.476  12.374  1.00  0.00     0.016 C 
HETATM   17  C15 UNL     1      19.309   7.001  14.092  1.00  0.00    -0.013 C 
HETATM   18  C17 UNL     1      18.341   5.900  14.456  1.00  0.00     0.016 C 
ENDBRANCH   8   9
BRANCH   7  19
HETATM   19  C3  UNL     1      16.900   2.779  12.971  1.00  0.00     0.093 C 
HETATM   20  C4  UNL     1      16.843   1.361  13.394  1.00  0.00     0.051 C 
HETATM   21  C5  UNL     1      16.512   0.386  12.307  1.00  0.00     0.169 C 
HETATM   22  O3  UNL     1      16.854   0.954  11.063  1.00  0.00    -0.391 OA
HETATM   23  C6  UNL     1      15.899   1.923  10.817  1.00  0.00     0.169 C 
HETATM   24  C7  UNL     1      16.071   3.075  11.733  1.00  0.00     0.051 C 
ENDBRANCH   7  19
TORSDOF 2
ENDMDL
MODEL 4
REMARK VINA RESULT: -7.027793232      0.285      1.572
REMARK  2 active torsions:
REMARK  status: ('A' for Active; 'I' for Inactive)
REMARK    1  A    between atoms: N2_7  and  C3_8 
REMARK    2  A    between atoms: C8_14  and  C9_15 
ROOT
HETATM    1  O1  UNL     1      18.729   9.656  14.499  1.00  0.00    -0.271 OA
HETATM    2  C1  UNL     1      18.469   8.587  13.897  1.00  0.00     0.249 C 
HETATM    3  N1  UNL     1      19.416   7.620  13.403  1.00  0.00    -0.277 N 
ATOM      4  H1  UNL     1      20.399   7.783  13.186  1.00  0.00     0.173 HD
HETATM    5  C2  UNL     1      18.696   6.375  13.276  1.00  0.00     0.326 C 
HETATM    6  O2  UNL     1      19.196   5.303  12.872  1.00  0.00    -0.247 OA
HETATM    7  N2  UNL     1      17.329   6.595  13.691  1.00  0.00    -0.315 N 
HETATM    8  C8  UNL     1      17.142   7.997  13.516  1.00  0.00     0.190 C 
ENDROOT
BRANCH   8   9
HETATM    9  C9  UNL     1      16.694   8.489  12.198  1.00  0.00    -0.010 C 
HETATM   10  C10 UNL     1      17.354   9.760  11.713  1.00  0.00     0.016 C 
HETATM   11  C11 UNL     1      16.718  10.182  10.405  1.00  0.00    -0.013 C 
HETATM   12  C12 UNL     1      15.267  10.474  10.663  1.00  0.00     0.009 C 
HETATM   13  C16 UNL     1      16.829   9.175   9.312  1.00  0.00     0.009 C 
HETATM   14  C13 UNL     1      14.579   9.191  11.032  1.00  0.00    -0.013 C 
HETATM   15  C14 UNL     1      14.749   8.102  10.009  1.00  0.00     0.009 C 
HETATM   16  C18 UNL     1      15.175   8.699  12.324  1.00  0.00     0.016 C 
HETATM   17  C15 UNL     1      16.222   7.880   9.821  1.00  0.00    -0.013 C 
HETATM   18  C17 UNL     1      16.936   7.463  11.086  1.00  0.00     0.016 C 
ENDBRANCH   8   9
BRANCH   7  19
HETATM   19  C3  UNL     1      16.426   5.578  14.189  1.00  0.00     0.093 C 
HETATM   20  C4  UNL     1      17.068   4.563  15.056  1.00  0.00     0.051 C 
HETATM   21  C5  UNL     1      16.157   3.906  16.047  1.00  0.00     0.169 C 
HETATM   22  O3  UNL     1      14.829   4.003  15.583  1.00  0.00    -0.391 OA
HETATM   23  C6  UNL     1      14.465   5.324  15.759  1.00  0.00     0.169 C 
HETATM   24  C7  UNL     1      15.184   6.200  14.803  1.00  0.00     0.051 C 
ENDBRANCH   7  19
TORSDOF 2
ENDMDL
MODEL 5
REMARK VINA RESULT: -6.872633125      2.501      5.687
REMARK  2 active torsions:
REMARK  status: ('A' for Active; 'I' for Inactive)
REMARK    1  A    between atoms: N2_7  and  C3_8 
REMARK    2  A    between atoms: C8_14  and  C9_15 
ROOT
HETATM    1  O1  UNL     1      16.573   4.299  10.273  1.00  0.00    -0.271 OA
HETATM    2  C1  UNL     1      16.996   5.479  10.296  1.00  0.00     0.249 C 
HETATM    3  N1  UNL     1      18.213   5.973   9.703  1.00  0.00    -0.277 N 
ATOM      4  H1  UNL     1      19.039   5.428   9.459  1.00  0.00     0.173 HD
HETATM    5  C2  UNL     1      18.029   7.394   9.522  1.00  0.00     0.326 C 
HETATM    6  O2  UNL     1      18.881   8.164   9.031  1.00  0.00    -0.247 OA
HETATM    7  N2  UNL     1      16.712   7.747  10.004  1.00  0.00    -0.315 N 
HETATM    8  C8  UNL     1      16.394   6.704  10.921  1.00  0.00     0.190 C 
ENDROOT
BRANCH   8   9
HETATM    9  C9  UNL     1      16.816   6.851  12.329  1.00  0.00    -0.010 C 
HETATM   10  C10 UNL     1      18.038   7.711  12.559  1.00  0.00     0.016 C 
HETATM   11  C11 UNL     1      18.397   7.679  14.031  1.00  0.00    -0.013 C 
HETATM   12  C12 UNL     1      18.741   6.264  14.398  1.00  0.00     0.009 C 
HETATM   13  C16 UNL     1      17.324   8.175  14.938  1.00  0.00     0.009 C 
HETATM   14  C13 UNL     1      17.501   5.425  14.283  1.00  0.00    -0.013 C 
HETATM   15  C14 UNL     1      16.348   5.941  15.099  1.00  0.00     0.009 C 
HETATM   16  C18 UNL     1      17.072   5.423  12.840  1.00  0.00     0.016 C 
HETATM   17  C15 UNL     1      16.078   7.352  14.662  1.00  0.00    -0.013 C 
HETATM   18  C17 UNL     1      15.719   7.473  13.199  1.00  0.00     0.016 C 
ENDBRANCH   8   9
BRANCH   7  19
HETATM   19  C3  UNL     1      15.941   8.898   9.580  1.00  0.00     0.093 C 
HETATM   20  C4  UNL     1      14.515   8.610   9.304  1.00  0.00     0.051 C 
HETATM   21  C5  UNL     1      13.588   9.775   9.469  1.00  0.00     0.169 C 
HETATM   22  O3  UNL     1      14.323  10.969   9.325  1.00  0.00    -0.391 OA
HETATM   23  C6  UNL     1      15.073  11.091  10.480  1.00  0.00     0.169 C 
HETATM   24  C7  UNL     1      16.151  10.074  10.516  1.00  0.00     0.051 C 
ENDBRANCH   7  19
TORSDOF 2
ENDMDL
