MODEL 1
REMARK VINA RESULT: -6.464710608      0.000      0.000
REMARK  5 active torsions:
REMARK  status: ('A' for Active; 'I' for Inactive)
REMARK    1  A    between atoms: C2_2  and  C4_4 
REMARK    2  A    between atoms: C9_10  and  C10_11 
REMARK    3  A    between atoms: C10_11  and  O2_12 
REMARK    4  A    between atoms: N1_20  and  O3_21 
REMARK    5  A    between atoms: C18_24  and  O4_25 
ROOT
HETATM    1  C4  UNL     1      17.084   4.872  12.362  1.00  0.00     0.128 A 
HETATM    2  O1  UNL     1      18.504   4.480  12.544  1.00  0.00    -0.364 OA
HETATM    3  C5  UNL     1      17.978   5.650  13.005  1.00  0.00     0.177 A 
HETATM    4  C6  UNL     1      17.686   6.795  12.038  1.00  0.00     0.070 C 
HETATM    5  C7  UNL     1      16.876   7.825  12.768  1.00  0.00     0.019 A 
HETATM    6  C8  UNL     1      17.522   8.140  14.101  1.00  0.00    -0.005 A 
HETATM    7  C9  UNL     1      16.322   7.558  14.114  1.00  0.00    -0.046 A 
HETATM    8  C11 UNL     1      16.530   9.051  12.014  1.00  0.00     0.019 C 
HETATM    9  C12 UNL     1      17.701   9.598  11.215  1.00  0.00     0.008 C 
HETATM   10  C13 UNL     1      18.264   8.497  10.391  1.00  0.00     0.013 C 
HETATM   11  C14 UNL     1      19.349   8.915   9.457  1.00  0.00     0.012 C 
HETATM   12  C15 UNL     1      18.782   7.312  11.227  1.00  0.00     0.073 C 
HETATM   13  C16 UNL     1      20.010   7.720  12.005  1.00  0.00     0.042 C 
HETATM   14  N1  UNL     1      19.071   6.301  10.239  1.00  0.00    -0.262 N 
HETATM   15  C17 UNL     1      18.103   5.472  10.207  1.00  0.00     0.132 C 
HETATM   16  C18 UNL     1      17.022   5.804  11.175  1.00  0.00     0.140 C 
ENDROOT
BRANCH   7  17
HETATM   17  C10 UNL     1      15.262   7.046  15.036  1.00  0.00     0.199 C 
BRANCH  17  18
HETATM   18  O2  UNL     1      14.440   6.109  14.418  1.00  0.00    -0.397 OA
ATOM     19  H2  UNL     1      14.207   6.367  13.534  1.00  0.00     0.209 HD
ENDBRANCH  17  18
ENDBRANCH   7  17
BRANCH  16  20
HETATM   20  O4  UNL     1      15.826   6.054  10.614  1.00  0.00    -0.380 OA
ATOM     21  H4  UNL     1      15.745   5.996   9.669  1.00  0.00     0.211 HD
ENDBRANCH  16  20
BRANCH   1  22
HETATM   22  C2  UNL     1      16.174   3.766  12.582  1.00  0.00     0.018 C 
HETATM   23  C1  UNL     1      16.121   2.708  11.537  1.00  0.00     0.012 C 
HETATM   24  C3  UNL     1      16.490   3.070  13.913  1.00  0.00     0.012 C 
ENDBRANCH   1  22
BRANCH  14  25
HETATM   25  O3  UNL     1      20.231   6.283   9.477  1.00  0.00    -0.287 OA
ATOM     26  H3  UNL     1      20.348   5.732   8.711  1.00  0.00     0.244 HD
ENDBRANCH  14  25
TORSDOF 5
ENDMDL
MODEL 2
REMARK VINA RESULT: -6.422759332      2.129      3.769
REMARK  5 active torsions:
REMARK  status: ('A' for Active; 'I' for Inactive)
REMARK    1  A    between atoms: C2_2  and  C4_4 
REMARK    2  A    between atoms: C9_10  and  C10_11 
REMARK    3  A    between atoms: C10_11  and  O2_12 
REMARK    4  A    between atoms: N1_20  and  O3_21 
REMARK    5  A    between atoms: C18_24  and  O4_25 
ROOT
HETATM    1  C4  UNL     1      16.635   6.409  14.378  1.00  0.00     0.128 A 
HETATM    2  O1  UNL     1      15.878   7.679  14.249  1.00  0.00    -0.364 OA
HETATM    3  C5  UNL     1      16.320   6.951  13.184  1.00  0.00     0.177 A 
HETATM    4  C6  UNL     1      17.797   6.974  12.798  1.00  0.00     0.070 C 
HETATM    5  C7  UNL     1      18.029   5.891  11.787  1.00  0.00     0.019 A 
HETATM    6  C8  UNL     1      16.986   5.974  10.693  1.00  0.00    -0.005 A 
HETATM    7  C9  UNL     1      16.984   4.892  11.472  1.00  0.00    -0.046 A 
HETATM    8  C11 UNL     1      19.400   5.780  11.239  1.00  0.00     0.019 C 
HETATM    9  C12 UNL     1      20.004   7.130  10.891  1.00  0.00     0.008 C 
HETATM   10  C13 UNL     1      19.873   8.023  12.071  1.00  0.00     0.013 C 
HETATM   11  C14 UNL     1      20.535   9.352  11.918  1.00  0.00     0.012 C 
HETATM   12  C15 UNL     1      18.414   8.261  12.498  1.00  0.00     0.073 C 
HETATM   13  C16 UNL     1      17.693   9.085  11.458  1.00  0.00     0.042 C 
HETATM   14  N1  UNL     1      18.538   8.957  13.756  1.00  0.00    -0.262 N 
HETATM   15  C17 UNL     1      18.369   8.121  14.704  1.00  0.00     0.132 C 
HETATM   16  C18 UNL     1      18.100   6.739  14.219  1.00  0.00     0.140 C 
ENDROOT
BRANCH   7  17
HETATM   17  C10 UNL     1      16.273   3.597  11.702  1.00  0.00     0.199 C 
BRANCH  17  18
HETATM   18  O2  UNL     1      15.111   3.497  10.945  1.00  0.00    -0.397 OA
ATOM     19  H2  UNL     1      14.400   3.098  11.432  1.00  0.00     0.209 HD
ENDBRANCH  17  18
ENDBRANCH   7  17
BRANCH  16  20
HETATM   20  O4  UNL     1      19.012   5.826  14.598  1.00  0.00    -0.380 OA
ATOM     21  H4  UNL     1      19.933   6.057  14.558  1.00  0.00     0.211 HD
ENDBRANCH  16  20
BRANCH   1  22
HETATM   22  C2  UNL     1      16.098   5.549  15.414  1.00  0.00     0.018 C 
HETATM   23  C1  UNL     1      14.648   5.224  15.346  1.00  0.00     0.012 C 
HETATM   24  C3  UNL     1      16.859   4.217  15.450  1.00  0.00     0.012 C 
ENDBRANCH   1  22
BRANCH  14  25
HETATM   25  O3  UNL     1      18.800  10.316  13.859  1.00  0.00    -0.287 OA
ATOM     26  H3  UNL     1      19.215  10.715  14.615  1.00  0.00     0.244 HD
ENDBRANCH  14  25
TORSDOF 5
ENDMDL
MODEL 3
REMARK VINA RESULT: -6.346990219      2.040      3.891
REMARK  5 active torsions:
REMARK  status: ('A' for Active; 'I' for Inactive)
REMARK    1  A    between atoms: C2_2  and  C4_4 
REMARK    2  A    between atoms: C9_10  and  C10_11 
REMARK    3  A    between atoms: C10_11  and  O2_12 
REMARK    4  A    between atoms: N1_20  and  O3_21 
REMARK    5  A    between atoms: C18_24  and  O4_25 
ROOT
HETATM    1  C4  UNL     1      16.030   6.868  13.646  1.00  0.00     0.128 A 
HETATM    2  O1  UNL     1      15.581   8.111  12.969  1.00  0.00    -0.364 OA
HETATM    3  C5  UNL     1      16.253   7.107  12.338  1.00  0.00     0.177 A 
HETATM    4  C6  UNL     1      17.754   6.931  12.555  1.00  0.00     0.070 C 
HETATM    5  C7  UNL     1      18.158   5.613  11.966  1.00  0.00     0.019 A 
HETATM    6  C8  UNL     1      17.602   5.482  10.564  1.00  0.00    -0.005 A 
HETATM    7  C9  UNL     1      17.150   4.639  11.492  1.00  0.00    -0.046 A 
HETATM    8  C11 UNL     1      19.598   5.274  12.027  1.00  0.00     0.019 C 
HETATM    9  C12 UNL     1      20.492   6.447  11.661  1.00  0.00     0.008 C 
HETATM   10  C13 UNL     1      20.091   7.619  12.481  1.00  0.00     0.013 C 
HETATM   11  C14 UNL     1      20.965   8.817  12.318  1.00  0.00     0.012 C 
HETATM   12  C15 UNL     1      18.633   8.054  12.252  1.00  0.00     0.073 C 
HETATM   13  C16 UNL     1      18.472   8.631  10.866  1.00  0.00     0.042 C 
HETATM   14  N1  UNL     1      18.407   9.039  13.282  1.00  0.00    -0.262 N 
HETATM   15  C17 UNL     1      17.779   8.487  14.245  1.00  0.00     0.132 C 
HETATM   16  C18 UNL     1      17.487   7.048  13.998  1.00  0.00     0.140 C 
ENDROOT
BRANCH   7  17
HETATM   17  C10 UNL     1      16.208   3.495  11.698  1.00  0.00     0.199 C 
BRANCH  17  18
HETATM   18  O2  UNL     1      15.056   3.622  10.929  1.00  0.00    -0.397 OA
ATOM     19  H2  UNL     1      14.305   3.876  11.452  1.00  0.00     0.209 HD
ENDBRANCH  17  18
ENDBRANCH   7  17
BRANCH  16  20
HETATM   20  O4  UNL     1      18.045   6.204  14.884  1.00  0.00    -0.380 OA
ATOM     21  H4  UNL     1      17.839   6.309  15.806  1.00  0.00     0.211 HD
ENDBRANCH  16  20
BRANCH   1  22
HETATM   22  C2  UNL     1      15.028   6.340  14.551  1.00  0.00     0.018 C 
HETATM   23  C1  UNL     1      15.176   4.922  14.978  1.00  0.00     0.012 C 
HETATM   24  C3  UNL     1      14.958   7.191  15.825  1.00  0.00     0.012 C 
ENDBRANCH   1  22
BRANCH  14  25
HETATM   25  O3  UNL     1      18.827  10.359  13.188  1.00  0.00    -0.287 OA
ATOM     26  H3  UNL     1      18.746  10.988  13.896  1.00  0.00     0.244 HD
ENDBRANCH  14  25
TORSDOF 5
ENDMDL
MODEL 4
REMARK VINA RESULT: -5.879187330      2.136      4.689
REMARK  5 active torsions:
REMARK  status: ('A' for Active; 'I' for Inactive)
REMARK    1  A    between atoms: C2_2  and  C4_4 
REMARK    2  A    between atoms: C9_10  and  C10_11 
REMARK    3  A    between atoms: C10_11  and  O2_12 
REMARK    4  A    between atoms: N1_20  and  O3_21 
REMARK    5  A    between atoms: C18_24  and  O4_25 
ROOT
HETATM    1  C4  UNL     1      17.357   7.206  11.262  1.00  0.00     0.128 A 
HETATM    2  O1  UNL     1      15.899   7.064  11.019  1.00  0.00    -0.364 OA
HETATM    3  C5  UNL     1      16.438   7.351  12.238  1.00  0.00     0.177 A 
HETATM    4  C6  UNL     1      17.122   6.255  13.052  1.00  0.00     0.070 C 
HETATM    5  C7  UNL     1      17.843   6.908  14.194  1.00  0.00     0.019 A 
HETATM    6  C8  UNL     1      16.920   7.877  14.902  1.00  0.00    -0.005 A 
HETATM    7  C9  UNL     1      17.986   8.378  14.277  1.00  0.00    -0.046 A 
HETATM    8  C11 UNL     1      18.533   6.005  15.143  1.00  0.00     0.019 C 
HETATM    9  C12 UNL     1      17.696   4.793  15.515  1.00  0.00     0.008 C 
HETATM   10  C13 UNL     1      17.225   4.144  14.264  1.00  0.00     0.013 C 
HETATM   11  C14 UNL     1      16.488   2.864  14.472  1.00  0.00     0.012 C 
HETATM   12  C15 UNL     1      16.354   5.063  13.389  1.00  0.00     0.073 C 
HETATM   13  C16 UNL     1      15.031   5.328  14.067  1.00  0.00     0.042 C 
HETATM   14  N1  UNL     1      16.201   4.317  12.163  1.00  0.00    -0.262 N 
HETATM   15  C17 UNL     1      17.024   4.771  11.302  1.00  0.00     0.132 C 
HETATM   16  C18 UNL     1      17.850   5.895  11.825  1.00  0.00     0.140 C 
ENDROOT
BRANCH   7  17
HETATM   17  C10 UNL     1      18.691   9.663  13.979  1.00  0.00     0.199 C 
BRANCH  17  18
HETATM   18  O2  UNL     1      18.954  10.394  15.132  1.00  0.00    -0.397 OA
ATOM     19  H2  UNL     1      19.642  10.000  15.656  1.00  0.00     0.209 HD
ENDBRANCH  17  18
ENDBRANCH   7  17
BRANCH  16  20
HETATM   20  O4  UNL     1      19.173   5.657  11.840  1.00  0.00    -0.380 OA
ATOM     21  H4  UNL     1      19.643   5.644  11.014  1.00  0.00     0.211 HD
ENDBRANCH  16  20
BRANCH   1  22
HETATM   22  C2  UNL     1      18.022   7.946  10.208  1.00  0.00     0.018 C 
HETATM   23  C1  UNL     1      19.283   8.652  10.561  1.00  0.00     0.012 C 
HETATM   24  C3  UNL     1      18.338   7.022   9.024  1.00  0.00     0.012 C 
ENDBRANCH   1  22
BRANCH  14  25
HETATM   25  O3  UNL     1      15.289   3.283  12.003  1.00  0.00    -0.287 OA
ATOM     26  H3  UNL     1      15.445   2.525  11.452  1.00  0.00     0.244 HD
ENDBRANCH  14  25
TORSDOF 5
ENDMDL
MODEL 5
REMARK VINA RESULT: -5.828490696      1.987      5.283
REMARK  5 active torsions:
REMARK  status: ('A' for Active; 'I' for Inactive)
REMARK    1  A    between atoms: C2_2  and  C4_4 
REMARK    2  A    between atoms: C9_10  and  C10_11 
REMARK    3  A    between atoms: C10_11  and  O2_12 
REMARK    4  A    between atoms: N1_20  and  O3_21 
REMARK    5  A    between atoms: C18_24  and  O4_25 
ROOT
HETATM    1  C4  UNL     1      17.335   8.622  11.638  1.00  0.00     0.128 A 
HETATM    2  O1  UNL     1      17.779   9.172  12.943  1.00  0.00    -0.364 OA
HETATM    3  C5  UNL     1      18.204   7.977  12.443  1.00  0.00     0.177 A 
HETATM    4  C6  UNL     1      17.281   6.761  12.473  1.00  0.00     0.070 C 
HETATM    5  C7  UNL     1      17.899   5.688  11.626  1.00  0.00     0.019 A 
HETATM    6  C8  UNL     1      19.356   5.511  11.998  1.00  0.00    -0.005 A 
HETATM    7  C9  UNL     1      19.078   5.961  10.774  1.00  0.00    -0.046 A 
HETATM    8  C11 UNL     1      17.180   4.396  11.566  1.00  0.00     0.019 C 
HETATM    9  C12 UNL     1      16.682   3.938  12.927  1.00  0.00     0.008 C 
HETATM   10  C13 UNL     1      15.917   5.050  13.548  1.00  0.00     0.013 C 
HETATM   11  C14 UNL     1      15.261   4.704  14.842  1.00  0.00     0.012 C 
HETATM   12  C15 UNL     1      16.755   6.324  13.761  1.00  0.00     0.073 C 
HETATM   13  C16 UNL     1      17.798   6.089  14.827  1.00  0.00     0.042 C 
HETATM   14  N1  UNL     1      15.779   7.309  14.159  1.00  0.00    -0.262 N 
HETATM   15  C17 UNL     1      15.487   8.028  13.147  1.00  0.00     0.132 C 
HETATM   16  C18 UNL     1      16.231   7.631  11.919  1.00  0.00     0.140 C 
ENDROOT
BRANCH   7  17
HETATM   17  C10 UNL     1      19.720   6.402   9.498  1.00  0.00     0.199 C 
BRANCH  17  18
HETATM   18  O2  UNL     1      19.131   5.811   8.385  1.00  0.00    -0.397 OA
ATOM     19  H2  UNL     1      18.853   4.920   8.560  1.00  0.00     0.209 HD
ENDBRANCH  17  18
ENDBRANCH   7  17
BRANCH  16  20
HETATM   20  O4  UNL     1      15.453   7.226  10.900  1.00  0.00    -0.380 OA
ATOM     21  H4  UNL     1      15.644   6.394  10.483  1.00  0.00     0.211 HD
ENDBRANCH  16  20
BRANCH   1  22
HETATM   22  C2  UNL     1      17.281   9.635  10.602  1.00  0.00     0.018 C 
HETATM   23  C1  UNL     1      17.484   9.185   9.199  1.00  0.00     0.012 C 
HETATM   24  C3  UNL     1      15.938  10.377  10.650  1.00  0.00     0.012 C 
ENDBRANCH   1  22
BRANCH  14  25
HETATM   25  O3  UNL     1      15.275   7.413  15.448  1.00  0.00    -0.287 OA
ATOM     26  H3  UNL     1      14.387   7.689  15.644  1.00  0.00     0.244 HD
ENDBRANCH  14  25
TORSDOF 5
ENDMDL
