MODEL 1
REMARK VINA RESULT: -7.465523329      0.000      0.000
REMARK  3 active torsions:
REMARK  status: ('A' for Active; 'I' for Inactive)
REMARK    1  A    between atoms: C2_2  and  N1_4 
REMARK    2  A    between atoms: C7_11  and  C8_12 
REMARK    3  A    between atoms: C17_23  and  C18_24 
ROOT
HETATM    1  N1  UNL     1      19.614   5.242  10.271  1.00  0.00    -0.371 N 
ATOM      2  H1  UNL     1      19.761   4.307  10.651  1.00  0.00     0.161 HD
HETATM    3  C4  UNL     1      18.433   5.687  10.314  1.00  0.00     0.143 C 
HETATM    4  N2  UNL     1      17.982   6.942   9.854  1.00  0.00    -0.332 N 
HETATM    5  C5  UNL     1      18.194   8.141   9.062  1.00  0.00     0.205 C 
HETATM    6  C6  UNL     1      16.858   8.245   8.370  1.00  0.00     0.153 C 
HETATM    7  O1  UNL     1      16.595   8.631   7.262  1.00  0.00    -0.296 OA
HETATM    8  C7  UNL     1      15.870   7.750   9.380  1.00  0.00     0.109 C 
HETATM    9  C11 UNL     1      16.672   7.122  10.471  1.00  0.00     0.240 C 
HETATM   10  O2  UNL     1      16.230   5.891  10.851  1.00  0.00    -0.322 OA
HETATM   11  C12 UNL     1      17.250   4.988  10.858  1.00  0.00     0.240 C 
HETATM   12  O3  UNL     1      16.981   3.853  10.105  1.00  0.00    -0.342 OA
HETATM   13  C13 UNL     1      16.321   2.952  10.893  1.00  0.00     0.130 C 
HETATM   14  C14 UNL     1      17.099   1.695  11.235  1.00  0.00     0.033 C 
HETATM   15  C15 UNL     1      16.919   2.022  12.703  1.00  0.00     0.011 C 
HETATM   16  C16 UNL     1      16.424   3.377  12.317  1.00  0.00     0.035 C 
HETATM   17  C17 UNL     1      17.501   4.454  12.255  1.00  0.00     0.164 C 
ENDROOT
BRANCH  17  18
HETATM   18  C18 UNL     1      17.217   5.452  13.303  1.00  0.00     0.183 C 
HETATM   19  O4  UNL     1      18.088   6.269  13.711  1.00  0.00    -0.648 OA
HETATM   20  O5  UNL     1      15.962   5.521  13.879  1.00  0.00    -0.648 OA
ENDBRANCH  17  18
BRANCH   1  21
HETATM   21  C2  UNL     1      20.765   5.901   9.750  1.00  0.00     0.074 C 
HETATM   22  C1  UNL     1      22.016   5.651  10.563  1.00  0.00     0.031 C 
HETATM   23  C3  UNL     1      21.036   5.303   8.363  1.00  0.00     0.031 C 
ENDBRANCH   1  21
BRANCH   8  24
HETATM   24  C8  UNL     1      15.076   8.947   9.841  1.00  0.00    -0.007 C 
HETATM   25  C9  UNL     1      13.732   8.925   9.140  1.00  0.00     0.010 C 
HETATM   26  C10 UNL     1      14.863   8.986  11.319  1.00  0.00     0.010 C 
ENDBRANCH   8  24
TORSDOF 3
ENDMDL
MODEL 2
REMARK VINA RESULT: -7.438535090      3.021      6.164
REMARK  3 active torsions:
REMARK  status: ('A' for Active; 'I' for Inactive)
REMARK    1  A    between atoms: C2_2  and  N1_4 
REMARK    2  A    between atoms: C7_11  and  C8_12 
REMARK    3  A    between atoms: C17_23  and  C18_24 
ROOT
HETATM    1  N1  UNL     1      18.615   4.769  11.982  1.00  0.00    -0.371 N 
ATOM      2  H1  UNL     1      19.109   5.579  11.609  1.00  0.00     0.161 HD
HETATM    3  C4  UNL     1      17.975   4.947  13.056  1.00  0.00     0.143 C 
HETATM    4  N2  UNL     1      17.221   3.988  13.763  1.00  0.00    -0.332 N 
HETATM    5  C5  UNL     1      16.873   2.601  14.018  1.00  0.00     0.205 C 
HETATM    6  C6  UNL     1      16.909   2.588  15.527  1.00  0.00     0.153 C 
HETATM    7  O1  UNL     1      17.250   1.715  16.279  1.00  0.00    -0.296 OA
HETATM    8  C7  UNL     1      16.411   3.942  15.928  1.00  0.00     0.109 C 
HETATM    9  C11 UNL     1      16.390   4.762  14.679  1.00  0.00     0.240 C 
HETATM   10  O2  UNL     1      16.963   5.991  14.809  1.00  0.00    -0.322 OA
HETATM   11  C12 UNL     1      17.875   6.209  13.819  1.00  0.00     0.240 C 
HETATM   12  O3  UNL     1      19.124   6.575  14.299  1.00  0.00    -0.342 OA
HETATM   13  C13 UNL     1      19.146   7.931  14.471  1.00  0.00     0.130 C 
HETATM   14  C14 UNL     1      20.054   8.692  13.522  1.00  0.00     0.033 C 
HETATM   15  C15 UNL     1      18.851   9.493  13.066  1.00  0.00     0.011 C 
HETATM   16  C16 UNL     1      17.966   8.532  13.788  1.00  0.00     0.035 C 
HETATM   17  C17 UNL     1      17.460   7.371  12.938  1.00  0.00     0.164 C 
ENDROOT
BRANCH  17  18
HETATM   18  C18 UNL     1      15.995   7.494  12.813  1.00  0.00     0.183 C 
HETATM   19  O4  UNL     1      15.225   7.421  13.810  1.00  0.00    -0.648 OA
HETATM   20  O5  UNL     1      15.415   7.697  11.575  1.00  0.00    -0.648 OA
ENDBRANCH  17  18
BRANCH   1  21
HETATM   21  C2  UNL     1      18.724   3.562  11.235  1.00  0.00     0.074 C 
HETATM   22  C1  UNL     1      17.476   3.230  10.448  1.00  0.00     0.031 C 
HETATM   23  C3  UNL     1      19.834   3.774  10.196  1.00  0.00     0.031 C 
ENDBRANCH   1  21
BRANCH   8  24
HETATM   24  C8  UNL     1      15.043   3.746  16.533  1.00  0.00    -0.007 C 
HETATM   25  C9  UNL     1      15.218   3.370  17.990  1.00  0.00     0.010 C 
HETATM   26  C10 UNL     1      14.171   4.955  16.434  1.00  0.00     0.010 C 
ENDBRANCH   8  24
TORSDOF 3
ENDMDL
MODEL 3
REMARK VINA RESULT: -7.317465400      0.743      1.087
REMARK  3 active torsions:
REMARK  status: ('A' for Active; 'I' for Inactive)
REMARK    1  A    between atoms: C2_2  and  N1_4 
REMARK    2  A    between atoms: C7_11  and  C8_12 
REMARK    3  A    between atoms: C17_23  and  C18_24 
ROOT
HETATM    1  N1  UNL     1      19.711   5.778  11.056  1.00  0.00    -0.371 N 
ATOM      2  H1  UNL     1      19.880   4.828  11.386  1.00  0.00     0.161 HD
HETATM    3  C4  UNL     1      18.506   6.099  10.861  1.00  0.00     0.143 C 
HETATM    4  N2  UNL     1      18.022   7.344  10.408  1.00  0.00    -0.332 N 
HETATM    5  C5  UNL     1      18.259   8.632   9.781  1.00  0.00     0.205 C 
HETATM    6  C6  UNL     1      17.105   8.676   8.810  1.00  0.00     0.153 C 
HETATM    7  O1  UNL     1      17.048   9.145   7.706  1.00  0.00    -0.296 OA
HETATM    8  C7  UNL     1      15.984   7.987   9.526  1.00  0.00     0.109 C 
HETATM    9  C11 UNL     1      16.597   7.332  10.720  1.00  0.00     0.240 C 
HETATM   10  O2  UNL     1      16.230   6.031  10.892  1.00  0.00    -0.322 OA
HETATM   11  C12 UNL     1      17.323   5.236  11.063  1.00  0.00     0.240 C 
HETATM   12  O3  UNL     1      17.362   4.163  10.183  1.00  0.00    -0.342 OA
HETATM   13  C13 UNL     1      16.656   3.126  10.727  1.00  0.00     0.130 C 
HETATM   14  C14 UNL     1      17.483   1.923  11.140  1.00  0.00     0.033 C 
HETATM   15  C15 UNL     1      16.947   2.080  12.548  1.00  0.00     0.011 C 
HETATM   16  C16 UNL     1      16.393   3.412  12.165  1.00  0.00     0.035 C 
HETATM   17  C17 UNL     1      17.323   4.590  12.435  1.00  0.00     0.164 C 
ENDROOT
BRANCH  17  18
HETATM   18  C18 UNL     1      16.700   5.444  13.464  1.00  0.00     0.183 C 
HETATM   19  O4  UNL     1      15.511   5.275  13.851  1.00  0.00    -0.648 OA
HETATM   20  O5  UNL     1      17.417   6.474  14.043  1.00  0.00    -0.648 OA
ENDBRANCH  17  18
BRANCH   1  21
HETATM   21  C2  UNL     1      20.862   6.595  10.865  1.00  0.00     0.074 C 
HETATM   22  C1  UNL     1      21.257   7.371  12.103  1.00  0.00     0.031 C 
HETATM   23  C3  UNL     1      22.037   5.656  10.563  1.00  0.00     0.031 C 
ENDBRANCH   1  21
BRANCH   8  24
HETATM   24  C8  UNL     1      14.973   9.047   9.883  1.00  0.00    -0.007 C 
HETATM   25  C9  UNL     1      13.735   8.827   9.038  1.00  0.00     0.010 C 
HETATM   26  C10 UNL     1      14.595   9.044  11.328  1.00  0.00     0.010 C 
ENDBRANCH   8  24
TORSDOF 3
ENDMDL
MODEL 4
REMARK VINA RESULT: -7.076445368      2.435      5.484
REMARK  3 active torsions:
REMARK  status: ('A' for Active; 'I' for Inactive)
REMARK    1  A    between atoms: C2_2  and  N1_4 
REMARK    2  A    between atoms: C7_11  and  C8_12 
REMARK    3  A    between atoms: C17_23  and  C18_24 
ROOT
HETATM    1  N1  UNL     1      18.311   2.706  11.119  1.00  0.00    -0.371 N 
ATOM      2  H1  UNL     1      18.968   2.694  10.339  1.00  0.00     0.161 HD
HETATM    3  C4  UNL     1      18.302   3.750  11.830  1.00  0.00     0.143 C 
HETATM    4  N2  UNL     1      17.489   4.003  12.954  1.00  0.00    -0.332 N 
HETATM    5  C5  UNL     1      16.609   3.520  14.003  1.00  0.00     0.205 C 
HETATM    6  C6  UNL     1      17.188   4.242  15.195  1.00  0.00     0.153 C 
HETATM    7  O1  UNL     1      17.288   3.881  16.336  1.00  0.00    -0.296 OA
HETATM    8  C7  UNL     1      17.638   5.564  14.653  1.00  0.00     0.109 C 
HETATM    9  C11 UNL     1      17.576   5.444  13.166  1.00  0.00     0.240 C 
HETATM   10  O2  UNL     1      18.695   5.883  12.524  1.00  0.00    -0.322 OA
HETATM   11  C12 UNL     1      19.148   4.947  11.642  1.00  0.00     0.240 C 
HETATM   12  O3  UNL     1      20.483   4.620  11.831  1.00  0.00    -0.342 OA
HETATM   13  C13 UNL     1      21.253   5.503  11.125  1.00  0.00     0.130 C 
HETATM   14  C14 UNL     1      21.995   4.914   9.940  1.00  0.00     0.033 C 
HETATM   15  C15 UNL     1      21.298   5.921   9.046  1.00  0.00     0.011 C 
HETATM   16  C16 UNL     1      20.389   6.262  10.180  1.00  0.00     0.035 C 
HETATM   17  C17 UNL     1      19.090   5.463  10.217  1.00  0.00     0.164 C 
ENDROOT
BRANCH  17  18
HETATM   18  C18 UNL     1      17.968   6.394   9.996  1.00  0.00     0.183 C 
HETATM   19  O4  UNL     1      16.779   5.997   9.857  1.00  0.00    -0.648 OA
HETATM   20  O5  UNL     1      18.194   7.757   9.933  1.00  0.00    -0.648 OA
ENDBRANCH  17  18
BRANCH   1  21
HETATM   21  C2  UNL     1      17.505   1.544  11.285  1.00  0.00     0.074 C 
HETATM   22  C1  UNL     1      16.338   1.482  10.325  1.00  0.00     0.031 C 
HETATM   23  C3  UNL     1      18.388   0.333  10.953  1.00  0.00     0.031 C 
ENDBRANCH   1  21
BRANCH   8  24
HETATM   24  C8  UNL     1      16.699   6.607  15.205  1.00  0.00    -0.007 C 
HETATM   25  C9  UNL     1      17.292   7.974  14.927  1.00  0.00     0.010 C 
HETATM   26  C10 UNL     1      15.324   6.535  14.626  1.00  0.00     0.010 C 
ENDBRANCH   8  24
TORSDOF 3
ENDMDL
MODEL 5
REMARK VINA RESULT: -7.037864599      2.958      5.089
REMARK  3 active torsions:
REMARK  status: ('A' for Active; 'I' for Inactive)
REMARK    1  A    between atoms: C2_2  and  N1_4 
REMARK    2  A    between atoms: C7_11  and  C8_12 
REMARK    3  A    between atoms: C17_23  and  C18_24 
ROOT
HETATM    1  N1  UNL     1      17.475   4.846  14.033  1.00  0.00    -0.371 N 
ATOM      2  H1  UNL     1      17.576   3.904  13.657  1.00  0.00     0.161 HD
HETATM    3  C4  UNL     1      18.046   5.772  13.391  1.00  0.00     0.143 C 
HETATM    4  N2  UNL     1      18.051   7.146  13.709  1.00  0.00    -0.332 N 
HETATM    5  C5  UNL     1      17.829   8.216  14.665  1.00  0.00     0.205 C 
HETATM    6  C6  UNL     1      19.088   9.023  14.463  1.00  0.00     0.153 C 
HETATM    7  O1  UNL     1      19.736   9.645  15.261  1.00  0.00    -0.296 OA
HETATM    8  C7  UNL     1      19.389   8.894  13.002  1.00  0.00     0.109 C 
HETATM    9  C11 UNL     1      18.495   7.813  12.489  1.00  0.00     0.240 C 
HETATM   10  O2  UNL     1      19.128   6.882  11.723  1.00  0.00    -0.322 OA
HETATM   11  C12 UNL     1      18.843   5.621  12.155  1.00  0.00     0.240 C 
HETATM   12  O3  UNL     1      19.976   4.862  12.411  1.00  0.00    -0.342 OA
HETATM   13  C13 UNL     1      20.370   4.259  11.249  1.00  0.00     0.130 C 
HETATM   14  C14 UNL     1      20.213   2.750  11.214  1.00  0.00     0.033 C 
HETATM   15  C15 UNL     1      19.330   2.903   9.992  1.00  0.00     0.011 C 
HETATM   16  C16 UNL     1      19.277   4.373  10.242  1.00  0.00     0.035 C 
HETATM   17  C17 UNL     1      18.100   4.832  11.095  1.00  0.00     0.164 C 
ENDROOT
BRANCH  17  18
HETATM   18  C18 UNL     1      17.229   5.683  10.261  1.00  0.00     0.183 C 
HETATM   19  O4  UNL     1      16.116   6.113  10.670  1.00  0.00    -0.648 OA
HETATM   20  O5  UNL     1      17.618   6.037   8.983  1.00  0.00    -0.648 OA
ENDBRANCH  17  18
BRANCH   1  21
HETATM   21  C2  UNL     1      16.704   4.972  15.224  1.00  0.00     0.074 C 
HETATM   22  C1  UNL     1      15.214   5.031  14.970  1.00  0.00     0.031 C 
HETATM   23  C3  UNL     1      16.942   3.701  16.050  1.00  0.00     0.031 C 
ENDBRANCH   1  21
BRANCH   8  24
HETATM   24  C8  UNL     1      19.115  10.239  12.376  1.00  0.00    -0.007 C 
HETATM   25  C9  UNL     1      20.401  10.744  11.754  1.00  0.00     0.010 C 
HETATM   26  C10 UNL     1      18.042  10.203  11.338  1.00  0.00     0.010 C 
ENDBRANCH   8  24
TORSDOF 3
ENDMDL
