MODEL 1
REMARK VINA RESULT: -7.462510562      0.000      0.000
REMARK  4 active torsions:
REMARK  status: ('A' for Active; 'I' for Inactive)
REMARK    1  A    between atoms: C2_2  and  C5_5 
REMARK       I    between atoms: C5_5  and  N1_7 
REMARK    2  A    between atoms: N1_7  and  C6_9 
REMARK    3  A    between atoms: C6_9  and  C7_10 
REMARK    4  A    between atoms: C7_10  and  C8_11 
REMARK       I    between atoms: C8_11  and  N2_13 
ROOT
HETATM    1  C8  UNL     1      17.228   4.173  10.962  1.00  0.00     0.222 C 
HETATM    2  O2  UNL     1      15.944   4.188  10.976  1.00  0.00    -0.273 OA
HETATM    3  N2  UNL     1      17.881   5.412  10.928  1.00  0.00    -0.343 N 
HETATM    4  C9  UNL     1      17.082   6.617  10.922  1.00  0.00     0.129 C 
HETATM    5  C10 UNL     1      17.526   7.553  12.045  1.00  0.00     0.058 C 
HETATM    6  C11 UNL     1      18.996   7.920  11.850  1.00  0.00     0.066 C 
HETATM    7  C12 UNL     1      19.591   8.061  13.212  1.00  0.00     0.059 C 
HETATM    8  C13 UNL     1      19.994   9.521  13.238  1.00  0.00     0.119 C 
HETATM    9  C14 UNL     1      19.786  10.052  14.588  1.00  0.00     0.066 C 
HETATM   10  N3  UNL     1      19.604  10.466  15.657  1.00  0.00    -0.197 NA
HETATM   11  C15 UNL     1      18.941  10.104  12.320  1.00  0.00     0.188 C 
HETATM   12  O3  UNL     1      18.961   9.197  11.270  1.00  0.00    -0.379 OA
HETATM   13  C16 UNL     1      19.712   7.039  10.907  1.00  0.00     0.068 C 
HETATM   14  C17 UNL     1      19.314   5.584  10.892  1.00  0.00     0.030 C 
HETATM   15  C18 UNL     1      20.041   4.817  11.981  1.00  0.00     0.038 C 
HETATM   16  C19 UNL     1      19.810   5.036   9.564  1.00  0.00     0.038 C 
ENDROOT
BRANCH   1  17
HETATM   17  C7  UNL     1      17.841   2.838  10.986  1.00  0.00     0.122 C 
BRANCH  17  18
HETATM   18  C6  UNL     1      17.474   2.060  12.236  1.00  0.00     0.132 C 
BRANCH  18  19
HETATM   19  N1  UNL     1      17.189   2.966  13.343  1.00  0.00    -0.360 N 
HETATM   20  C5  UNL     1      16.714   2.453  14.594  1.00  0.00     0.225 C 
HETATM   21  O1  UNL     1      16.535   1.220  14.763  1.00  0.00    -0.273 OA
ATOM     22  H1  UNL     1      17.328   3.969  13.226  1.00  0.00     0.162 HD
BRANCH  20  23
HETATM   23  C2  UNL     1      16.446   3.440  15.676  1.00  0.00     0.030 C 
HETATM   24  C1  UNL     1      15.842   2.770  16.882  1.00  0.00     0.024 C 
HETATM   25  C3  UNL     1      17.806   4.052  16.039  1.00  0.00     0.024 C 
HETATM   26  C4  UNL     1      15.536   4.513  15.100  1.00  0.00     0.024 C 
ENDBRANCH  20  23
ENDBRANCH  18  19
ENDBRANCH  17  18
ENDBRANCH   1  17
TORSDOF 4
ENDMDL
MODEL 2
REMARK VINA RESULT: -7.220140541      2.773      4.201
REMARK  4 active torsions:
REMARK  status: ('A' for Active; 'I' for Inactive)
REMARK    1  A    between atoms: C2_2  and  C5_5 
REMARK       I    between atoms: C5_5  and  N1_7 
REMARK    2  A    between atoms: N1_7  and  C6_9 
REMARK    3  A    between atoms: C6_9  and  C7_10 
REMARK    4  A    between atoms: C7_10  and  C8_11 
REMARK       I    between atoms: C8_11  and  N2_13 
ROOT
HETATM    1  C8  UNL     1      18.199   5.343  13.192  1.00  0.00     0.222 C 
HETATM    2  O2  UNL     1      18.559   5.637  14.389  1.00  0.00    -0.273 OA
HETATM    3  N2  UNL     1      18.915   5.939  12.145  1.00  0.00    -0.343 N 
HETATM    4  C9  UNL     1      20.009   6.827  12.471  1.00  0.00     0.129 C 
HETATM    5  C10 UNL     1      21.280   6.391  11.744  1.00  0.00     0.058 C 
HETATM    6  C11 UNL     1      21.039   6.418  10.236  1.00  0.00     0.066 C 
HETATM    7  C12 UNL     1      21.834   5.299   9.649  1.00  0.00     0.059 C 
HETATM    8  C13 UNL     1      22.817   6.033   8.760  1.00  0.00     0.119 C 
HETATM    9  C14 UNL     1      24.104   5.334   8.790  1.00  0.00     0.066 C 
HETATM   10  N3  UNL     1      25.124   4.782   8.831  1.00  0.00    -0.197 NA
HETATM   11  C15 UNL     1      22.951   7.331   9.529  1.00  0.00     0.188 C 
HETATM   12  O3  UNL     1      21.625   7.620   9.812  1.00  0.00    -0.379 OA
HETATM   13  C16 UNL     1      19.612   6.479   9.859  1.00  0.00     0.068 C 
HETATM   14  C17 UNL     1      18.639   5.737  10.743  1.00  0.00     0.030 C 
HETATM   15  C18 UNL     1      18.562   4.275  10.348  1.00  0.00     0.038 C 
HETATM   16  C19 UNL     1      17.276   6.342  10.450  1.00  0.00     0.038 C 
ENDROOT
BRANCH   1  17
HETATM   17  C7  UNL     1      17.070   4.409  13.087  1.00  0.00     0.122 C 
BRANCH  17  18
HETATM   18  C6  UNL     1      16.997   3.463  14.270  1.00  0.00     0.132 C 
BRANCH  18  19
HETATM   19  N1  UNL     1      15.919   3.847  15.174  1.00  0.00    -0.360 N 
HETATM   20  C5  UNL     1      15.803   3.234  16.464  1.00  0.00     0.225 C 
HETATM   21  O1  UNL     1      16.623   2.359  16.842  1.00  0.00    -0.273 OA
ATOM     22  H1  UNL     1      15.243   4.555  14.886  1.00  0.00     0.162 HD
BRANCH  20  23
HETATM   23  C2  UNL     1      14.675   3.679  17.330  1.00  0.00     0.030 C 
HETATM   24  C1  UNL     1      15.085   3.706  18.778  1.00  0.00     0.024 C 
HETATM   25  C3  UNL     1      14.312   5.094  16.858  1.00  0.00     0.024 C 
HETATM   26  C4  UNL     1      13.508   2.737  17.080  1.00  0.00     0.024 C 
ENDBRANCH  20  23
ENDBRANCH  18  19
ENDBRANCH  17  18
ENDBRANCH   1  17
TORSDOF 4
ENDMDL
MODEL 3
REMARK VINA RESULT: -7.208975056      2.775      4.255
REMARK  4 active torsions:
REMARK  status: ('A' for Active; 'I' for Inactive)
REMARK    1  A    between atoms: C2_2  and  C5_5 
REMARK       I    between atoms: C5_5  and  N1_7 
REMARK    2  A    between atoms: N1_7  and  C6_9 
REMARK    3  A    between atoms: C6_9  and  C7_10 
REMARK    4  A    between atoms: C7_10  and  C8_11 
REMARK       I    between atoms: C8_11  and  N2_13 
ROOT
HETATM    1  C8  UNL     1      18.076   5.217  12.872  1.00  0.00     0.222 C 
HETATM    2  O2  UNL     1      18.561   4.335  12.076  1.00  0.00    -0.273 OA
HETATM    3  N2  UNL     1      17.808   6.484  12.335  1.00  0.00    -0.343 N 
HETATM    4  C9  UNL     1      18.080   6.713  10.933  1.00  0.00     0.129 C 
HETATM    5  C10 UNL     1      16.838   7.270  10.238  1.00  0.00     0.058 C 
HETATM    6  C11 UNL     1      16.433   8.588  10.897  1.00  0.00     0.066 C 
HETATM    7  C12 UNL     1      14.943   8.659  10.845  1.00  0.00     0.059 C 
HETATM    8  C13 UNL     1      14.709   9.876   9.974  1.00  0.00     0.119 C 
HETATM    9  C14 UNL     1      13.526   9.647   9.139  1.00  0.00     0.066 C 
HETATM   10  N3  UNL     1      12.597   9.450   8.472  1.00  0.00    -0.197 NA
HETATM   11  C15 UNL     1      15.941   9.816   9.097  1.00  0.00     0.188 C 
HETATM   12  O3  UNL     1      16.934   9.576  10.035  1.00  0.00    -0.379 OA
HETATM   13  C16 UNL     1      17.057   8.812  12.216  1.00  0.00     0.068 C 
HETATM   14  C17 UNL     1      17.279   7.598  13.084  1.00  0.00     0.030 C 
HETATM   15  C18 UNL     1      16.023   7.258  13.864  1.00  0.00     0.038 C 
HETATM   16  C19 UNL     1      18.330   8.008  14.102  1.00  0.00     0.038 C 
ENDROOT
BRANCH   1  17
HETATM   17  C7  UNL     1      17.867   4.769  14.255  1.00  0.00     0.122 C 
BRANCH  17  18
HETATM   18  C6  UNL     1      16.920   3.587  14.337  1.00  0.00     0.132 C 
BRANCH  18  19
HETATM   19  N1  UNL     1      15.812   3.873  15.241  1.00  0.00    -0.360 N 
HETATM   20  C5  UNL     1      15.808   3.344  16.573  1.00  0.00     0.225 C 
HETATM   21  O1  UNL     1      16.753   2.628  16.988  1.00  0.00    -0.273 OA
ATOM     22  H1  UNL     1      15.035   4.453  14.923  1.00  0.00     0.162 HD
BRANCH  20  23
HETATM   23  C2  UNL     1      14.641   3.682  17.435  1.00  0.00     0.030 C 
HETATM   24  C1  UNL     1      15.023   3.665  18.891  1.00  0.00     0.024 C 
HETATM   25  C3  UNL     1      14.202   5.093  17.021  1.00  0.00     0.024 C 
HETATM   26  C4  UNL     1      13.537   2.685  17.120  1.00  0.00     0.024 C 
ENDBRANCH  20  23
ENDBRANCH  18  19
ENDBRANCH  17  18
ENDBRANCH   1  17
TORSDOF 4
ENDMDL
MODEL 4
REMARK VINA RESULT: -7.060834241      2.312      7.419
REMARK  4 active torsions:
REMARK  status: ('A' for Active; 'I' for Inactive)
REMARK    1  A    between atoms: C2_2  and  C5_5 
REMARK       I    between atoms: C5_5  and  N1_7 
REMARK    2  A    between atoms: N1_7  and  C6_9 
REMARK    3  A    between atoms: C6_9  and  C7_10 
REMARK    4  A    between atoms: C7_10  and  C8_11 
REMARK       I    between atoms: C8_11  and  N2_13 
ROOT
HETATM    1  C8  UNL     1      19.395   6.553  13.273  1.00  0.00     0.222 C 
HETATM    2  O2  UNL     1      20.513   6.910  12.753  1.00  0.00    -0.273 OA
HETATM    3  N2  UNL     1      18.621   5.633  12.552  1.00  0.00    -0.343 N 
HETATM    4  C9  UNL     1      19.127   5.141  11.290  1.00  0.00     0.129 C 
HETATM    5  C10 UNL     1      19.127   3.613  11.280  1.00  0.00     0.058 C 
HETATM    6  C11 UNL     1      17.702   3.102  11.488  1.00  0.00     0.066 C 
HETATM    7  C12 UNL     1      17.806   1.837  12.273  1.00  0.00     0.059 C 
HETATM    8  C13 UNL     1      17.244   0.812  11.309  1.00  0.00     0.119 C 
HETATM    9  C14 UNL     1      17.980  -0.446  11.463  1.00  0.00     0.066 C 
HETATM   10  N3  UNL     1      18.578  -1.433  11.583  1.00  0.00    -0.197 NA
HETATM   11  C15 UNL     1      17.636   1.445   9.991  1.00  0.00     0.188 C 
HETATM   12  O3  UNL     1      17.263   2.765  10.199  1.00  0.00    -0.379 OA
HETATM   13  C16 UNL     1      16.771   4.123  12.006  1.00  0.00     0.068 C 
HETATM   14  C17 UNL     1      17.334   5.135  12.974  1.00  0.00     0.030 C 
HETATM   15  C18 UNL     1      17.334   4.584  14.387  1.00  0.00     0.038 C 
HETATM   16  C19 UNL     1      16.361   6.303  12.959  1.00  0.00     0.038 C 
ENDROOT
BRANCH   1  17
HETATM   17  C7  UNL     1      19.079   7.167  14.569  1.00  0.00     0.122 C 
BRANCH  17  18
HETATM   18  C6  UNL     1      18.511   8.565  14.419  1.00  0.00     0.132 C 
BRANCH  18  19
HETATM   19  N1  UNL     1      19.530   9.488  13.933  1.00  0.00    -0.360 N 
HETATM   20  C5  UNL     1      20.123  10.445  14.819  1.00  0.00     0.225 C 
HETATM   21  O1  UNL     1      19.781  10.509  16.027  1.00  0.00    -0.273 OA
ATOM     22  H1  UNL     1      19.822   9.453  12.956  1.00  0.00     0.162 HD
BRANCH  20  23
HETATM   23  C2  UNL     1      21.157  11.353  14.248  1.00  0.00     0.030 C 
HETATM   24  C1  UNL     1      21.933  12.042  15.339  1.00  0.00     0.024 C 
HETATM   25  C3  UNL     1      22.091  10.462  13.418  1.00  0.00     0.024 C 
HETATM   26  C4  UNL     1      20.444  12.341  13.338  1.00  0.00     0.024 C 
ENDBRANCH  20  23
ENDBRANCH  18  19
ENDBRANCH  17  18
ENDBRANCH   1  17
TORSDOF 4
ENDMDL
MODEL 5
REMARK VINA RESULT: -6.846156329      2.692      4.358
REMARK  4 active torsions:
REMARK  status: ('A' for Active; 'I' for Inactive)
REMARK    1  A    between atoms: C2_2  and  C5_5 
REMARK       I    between atoms: C5_5  and  N1_7 
REMARK    2  A    between atoms: N1_7  and  C6_9 
REMARK    3  A    between atoms: C6_9  and  C7_10 
REMARK    4  A    between atoms: C7_10  and  C8_11 
REMARK       I    between atoms: C8_11  and  N2_13 
ROOT
HETATM    1  C8  UNL     1      18.146   3.179  12.006  1.00  0.00     0.222 C 
HETATM    2  O2  UNL     1      18.626   1.996  11.864  1.00  0.00    -0.273 OA
HETATM    3  N2  UNL     1      18.870   4.234  11.435  1.00  0.00    -0.343 N 
HETATM    4  C9  UNL     1      20.091   3.932  10.722  1.00  0.00     0.129 C 
HETATM    5  C10 UNL     1      20.051   4.540   9.321  1.00  0.00     0.058 C 
HETATM    6  C11 UNL     1      19.890   6.055   9.428  1.00  0.00     0.066 C 
HETATM    7  C12 UNL     1      19.059   6.486   8.265  1.00  0.00     0.059 C 
HETATM    8  C13 UNL     1      20.013   7.383   7.503  1.00  0.00     0.119 C 
HETATM    9  C14 UNL     1      19.784   7.214   6.065  1.00  0.00     0.066 C 
HETATM   10  N3  UNL     1      19.605   7.062   4.929  1.00  0.00    -0.197 NA
HETATM   11  C15 UNL     1      21.333   6.735   7.864  1.00  0.00     0.188 C 
HETATM   12  O3  UNL     1      21.185   6.557   9.231  1.00  0.00    -0.379 OA
HETATM   13  C16 UNL     1      19.448   6.517  10.759  1.00  0.00     0.068 C 
HETATM   14  C17 UNL     1      18.490   5.625  11.510  1.00  0.00     0.030 C 
HETATM   15  C18 UNL     1      17.061   5.883  11.073  1.00  0.00     0.038 C 
HETATM   16  C19 UNL     1      18.587   6.051  12.965  1.00  0.00     0.038 C 
ENDROOT
BRANCH   1  17
HETATM   17  C7  UNL     1      16.886   3.259  12.756  1.00  0.00     0.122 C 
BRANCH  17  18
HETATM   18  C6  UNL     1      17.059   2.866  14.211  1.00  0.00     0.132 C 
BRANCH  18  19
HETATM   19  N1  UNL     1      16.015   3.463  15.036  1.00  0.00    -0.360 N 
HETATM   20  C5  UNL     1      15.759   2.963  16.354  1.00  0.00     0.225 C 
HETATM   21  O1  UNL     1      16.425   2.006  16.825  1.00  0.00    -0.273 OA
ATOM     22  H1  UNL     1      15.464   4.241  14.672  1.00  0.00     0.162 HD
BRANCH  20  23
HETATM   23  C2  UNL     1      14.677   3.625  17.135  1.00  0.00     0.030 C 
HETATM   24  C1  UNL     1      15.077   3.795  18.576  1.00  0.00     0.024 C 
HETATM   25  C3  UNL     1      14.462   4.998  16.481  1.00  0.00     0.024 C 
HETATM   26  C4  UNL     1      13.422   2.780  16.982  1.00  0.00     0.024 C 
ENDBRANCH  20  23
ENDBRANCH  18  19
ENDBRANCH  17  18
ENDBRANCH   1  17
TORSDOF 4
ENDMDL
