MODEL 1
REMARK VINA RESULT: -6.541772326      0.000      0.000
REMARK  4 active torsions:
REMARK  status: ('A' for Active; 'I' for Inactive)
REMARK    1  A    between atoms: N1_2  and  C3_4 
REMARK    2  A    between atoms: C3_4  and  C4_5 
REMARK       I    between atoms: N2_10  and  C9_11 
REMARK    3  A    between atoms: C9_11  and  C10_13 
REMARK    4  A    between atoms: C10_13  and  C11_14 
ROOT
HETATM    1  C11 UNL     1      17.087   3.393  13.361  1.00  0.00     0.007 C 
HETATM    2  C12 UNL     1      16.818   1.906  13.443  1.00  0.00     0.009 C 
HETATM    3  C13 UNL     1      17.083   1.666  14.937  1.00  0.00     0.039 C 
HETATM    4  C14 UNL     1      16.356   2.816  15.543  1.00  0.00     0.073 C 
HETATM    5  C15 UNL     1      16.604   3.158  16.962  1.00  0.00     0.076 C 
HETATM    6  C16 UNL     1      15.115   3.332  16.924  1.00  0.00     0.163 C 
HETATM    7  C17 UNL     1      14.636   4.708  16.765  1.00  0.00     0.087 C 
HETATM    8  N3  UNL     1      14.737   5.327  15.513  1.00  0.00    -0.399 N 
ATOM      9  H3  UNL     1      14.558   6.326  15.408  1.00  0.00     0.158 HD
HETATM   10  C18 UNL     1      15.092   4.533  14.396  1.00  0.00     0.131 C 
HETATM   11  C19 UNL     1      16.469   3.981  14.586  1.00  0.00     0.007 C 
HETATM   12  C20 UNL     1      17.402   5.053  15.110  1.00  0.00     0.020 C 
HETATM   13  O2  UNL     1      15.005   2.511  15.832  1.00  0.00    -0.369 OA
ENDROOT
BRANCH   1  14
HETATM   14  C10 UNL     1      16.590   3.984  12.072  1.00  0.00     0.108 C 
BRANCH  14  15
HETATM   15  C9  UNL     1      17.708   3.930  11.101  1.00  0.00     0.220 C 
HETATM   16  N2  UNL     1      18.702   4.908  10.932  1.00  0.00    -0.346 N 
HETATM   17  C4  UNL     1      18.709   6.091  11.736  1.00  0.00     0.115 C 
HETATM   18  C8  UNL     1      19.725   4.725   9.944  1.00  0.00     0.126 C 
HETATM   19  C5  UNL     1      20.041   6.132  12.452  1.00  0.00     0.027 C 
HETATM   20  C6  UNL     1      21.217   5.952  11.559  1.00  0.00     0.004 C 
HETATM   21  C7  UNL     1      21.102   4.874  10.545  1.00  0.00     0.020 C 
HETATM   22  O1  UNL     1      17.716   2.872  10.374  1.00  0.00    -0.273 OA
BRANCH  17  23
HETATM   23  C3  UNL     1      18.474   7.348  10.925  1.00  0.00     0.296 C 
BRANCH  23  24
HETATM   24  N1  UNL     1      17.210   7.957  11.204  1.00  0.00     0.082 N 
HETATM   25  C1  UNL     1      16.694   7.590  12.507  1.00  0.00     0.309 C 
HETATM   26  C2  UNL     1      16.254   7.510  10.207  1.00  0.00     0.309 C 
ENDBRANCH  23  24
ENDBRANCH  17  23
ENDBRANCH  14  15
ENDBRANCH   1  14
TORSDOF 4
ENDMDL
MODEL 2
REMARK VINA RESULT: -6.334890310      1.398      2.073
REMARK  4 active torsions:
REMARK  status: ('A' for Active; 'I' for Inactive)
REMARK    1  A    between atoms: N1_2  and  C3_4 
REMARK    2  A    between atoms: C3_4  and  C4_5 
REMARK       I    between atoms: N2_10  and  C9_11 
REMARK    3  A    between atoms: C9_11  and  C10_13 
REMARK    4  A    between atoms: C10_13  and  C11_14 
ROOT
HETATM    1  C11 UNL     1      17.321   3.684  13.672  1.00  0.00     0.007 C 
HETATM    2  C12 UNL     1      16.924   2.234  13.493  1.00  0.00     0.009 C 
HETATM    3  C13 UNL     1      16.916   1.775  14.959  1.00  0.00     0.039 C 
HETATM    4  C14 UNL     1      16.192   2.903  15.607  1.00  0.00     0.073 C 
HETATM    5  C15 UNL     1      16.226   3.029  17.081  1.00  0.00     0.076 C 
HETATM    6  C16 UNL     1      14.783   3.358  16.840  1.00  0.00     0.163 C 
HETATM    7  C17 UNL     1      14.447   4.784  16.811  1.00  0.00     0.087 C 
HETATM    8  N3  UNL     1      14.805   5.549  15.693  1.00  0.00    -0.399 N 
ATOM      9  H3  UNL     1      14.727   6.566  15.710  1.00  0.00     0.158 HD
HETATM   10  C18 UNL     1      15.278   4.876  14.541  1.00  0.00     0.131 C 
HETATM   11  C19 UNL     1      16.556   4.166  14.859  1.00  0.00     0.007 C 
HETATM   12  C20 UNL     1      17.470   5.059  15.671  1.00  0.00     0.020 C 
HETATM   13  O2  UNL     1      14.792   2.703  15.636  1.00  0.00    -0.369 OA
ENDROOT
BRANCH   1  14
HETATM   14  C10 UNL     1      17.095   4.487  12.421  1.00  0.00     0.108 C 
BRANCH  14  15
HETATM   15  C9  UNL     1      18.319   5.286  12.181  1.00  0.00     0.220 C 
HETATM   16  N2  UNL     1      18.434   6.679  12.315  1.00  0.00    -0.346 N 
HETATM   17  C4  UNL     1      17.314   7.471  12.721  1.00  0.00     0.115 C 
HETATM   18  C8  UNL     1      19.687   7.323  12.044  1.00  0.00     0.126 C 
HETATM   19  C5  UNL     1      17.724   8.209  13.976  1.00  0.00     0.027 C 
HETATM   20  C6  UNL     1      19.018   8.934  13.860  1.00  0.00     0.004 C 
HETATM   21  C7  UNL     1      20.121   8.190  13.200  1.00  0.00     0.020 C 
HETATM   22  O1  UNL     1      19.334   4.588  11.819  1.00  0.00    -0.273 OA
BRANCH  17  23
HETATM   23  C3  UNL     1      16.853   8.424  11.640  1.00  0.00     0.296 C 
BRANCH  23  24
HETATM   24  N1  UNL     1      15.594   8.050  11.073  1.00  0.00     0.082 N 
HETATM   25  C1  UNL     1      15.641   7.962   9.628  1.00  0.00     0.309 C 
HETATM   26  C2  UNL     1      14.613   9.061  11.424  1.00  0.00     0.309 C 
ENDBRANCH  23  24
ENDBRANCH  17  23
ENDBRANCH  14  15
ENDBRANCH   1  14
TORSDOF 4
ENDMDL
MODEL 3
REMARK VINA RESULT: -6.333829287      2.687      6.824
REMARK  4 active torsions:
REMARK  status: ('A' for Active; 'I' for Inactive)
REMARK    1  A    between atoms: N1_2  and  C3_4 
REMARK    2  A    between atoms: C3_4  and  C4_5 
REMARK       I    between atoms: N2_10  and  C9_11 
REMARK    3  A    between atoms: C9_11  and  C10_13 
REMARK    4  A    between atoms: C10_13  and  C11_14 
ROOT
HETATM    1  C11 UNL     1      17.489   8.174  13.500  1.00  0.00     0.007 C 
HETATM    2  C12 UNL     1      16.811   7.855  12.185  1.00  0.00     0.009 C 
HETATM    3  C13 UNL     1      17.000   9.193  11.454  1.00  0.00     0.039 C 
HETATM    4  C14 UNL     1      18.427   9.486  11.760  1.00  0.00     0.073 C 
HETATM    5  C15 UNL     1      18.954  10.846  11.509  1.00  0.00     0.076 C 
HETATM    6  C16 UNL     1      20.111  10.038  11.002  1.00  0.00     0.163 C 
HETATM    7  C17 UNL     1      21.230   9.869  11.933  1.00  0.00     0.087 C 
HETATM    8  N3  UNL     1      21.094   8.991  13.015  1.00  0.00    -0.399 N 
ATOM      9  H3  UNL     1      21.789   8.969  13.761  1.00  0.00     0.158 HD
HETATM   10  C18 UNL     1      19.968   8.133  13.048  1.00  0.00     0.131 C 
HETATM   11  C19 UNL     1      18.716   8.946  13.143  1.00  0.00     0.007 C 
HETATM   12  C20 UNL     1      18.880  10.055  14.160  1.00  0.00     0.020 C 
HETATM   13  O2  UNL     1      19.311   8.944  10.797  1.00  0.00    -0.369 OA
ENDROOT
BRANCH   1  14
HETATM   14  C10 UNL     1      17.751   6.936  14.312  1.00  0.00     0.108 C 
BRANCH  14  15
HETATM   15  C9  UNL     1      16.440   6.430  14.781  1.00  0.00     0.220 C 
HETATM   16  N2  UNL     1      16.102   5.083  14.989  1.00  0.00    -0.346 N 
HETATM   17  C4  UNL     1      17.057   4.044  14.754  1.00  0.00     0.115 C 
HETATM   18  C8  UNL     1      14.786   4.737  15.442  1.00  0.00     0.126 C 
HETATM   19  C5  UNL     1      17.211   3.282  16.051  1.00  0.00     0.027 C 
HETATM   20  C6  UNL     1      15.924   2.849  16.660  1.00  0.00     0.004 C 
HETATM   21  C7  UNL     1      14.841   3.864  16.672  1.00  0.00     0.020 C 
HETATM   22  O1  UNL     1      15.573   7.352  14.999  1.00  0.00    -0.273 OA
BRANCH  17  23
HETATM   23  C3  UNL     1      16.654   3.130  13.616  1.00  0.00     0.296 C 
BRANCH  23  24
HETATM   24  N1  UNL     1      16.689   3.782  12.344  1.00  0.00     0.082 N 
HETATM   25  C1  UNL     1      16.213   2.932  11.271  1.00  0.00     0.309 C 
HETATM   26  C2  UNL     1      18.065   4.140  12.048  1.00  0.00     0.309 C 
ENDBRANCH  23  24
ENDBRANCH  17  23
ENDBRANCH  14  15
ENDBRANCH   1  14
TORSDOF 4
ENDMDL
MODEL 4
REMARK VINA RESULT: -6.268195963      1.921      6.456
REMARK  4 active torsions:
REMARK  status: ('A' for Active; 'I' for Inactive)
REMARK    1  A    between atoms: N1_2  and  C3_4 
REMARK    2  A    between atoms: C3_4  and  C4_5 
REMARK       I    between atoms: N2_10  and  C9_11 
REMARK    3  A    between atoms: C9_11  and  C10_13 
REMARK    4  A    between atoms: C10_13  and  C11_14 
ROOT
HETATM    1  C11 UNL     1      18.292   7.218  12.795  1.00  0.00     0.007 C 
HETATM    2  C12 UNL     1      17.109   6.773  11.961  1.00  0.00     0.009 C 
HETATM    3  C13 UNL     1      17.552   7.275  10.578  1.00  0.00     0.039 C 
HETATM    4  C14 UNL     1      18.973   6.831  10.556  1.00  0.00     0.073 C 
HETATM    5  C15 UNL     1      19.883   7.379   9.526  1.00  0.00     0.076 C 
HETATM    6  C16 UNL     1      20.321   5.946   9.502  1.00  0.00     0.163 C 
HETATM    7  C17 UNL     1      21.525   5.631  10.276  1.00  0.00     0.087 C 
HETATM    8  N3  UNL     1      21.447   5.581  11.673  1.00  0.00    -0.399 N 
ATOM      9  H3  UNL     1      22.292   5.520  12.242  1.00  0.00     0.158 HD
HETATM   10  C18 UNL     1      20.167   5.616  12.277  1.00  0.00     0.131 C 
HETATM   11  C19 UNL     1      19.500   6.919  11.971  1.00  0.00     0.007 C 
HETATM   12  C20 UNL     1      20.474   8.066  12.140  1.00  0.00     0.020 C 
HETATM   13  O2  UNL     1      19.126   5.528  10.026  1.00  0.00    -0.369 OA
ENDROOT
BRANCH   1  14
HETATM   14  C10 UNL     1      18.294   6.574  14.154  1.00  0.00     0.108 C 
BRANCH  14  15
HETATM   15  C9  UNL     1      16.883   6.307  14.519  1.00  0.00     0.220 C 
HETATM   16  N2  UNL     1      16.323   5.046  14.778  1.00  0.00    -0.346 N 
HETATM   17  C4  UNL     1      17.122   3.861  14.709  1.00  0.00     0.115 C 
HETATM   18  C8  UNL     1      14.934   4.936  15.117  1.00  0.00     0.126 C 
HETATM   19  C5  UNL     1      17.038   3.190  16.061  1.00  0.00     0.027 C 
HETATM   20  C6  UNL     1      15.650   3.003  16.563  1.00  0.00     0.004 C 
HETATM   21  C7  UNL     1      14.741   4.165  16.400  1.00  0.00     0.020 C 
HETATM   22  O1  UNL     1      16.155   7.362  14.588  1.00  0.00    -0.273 OA
BRANCH  17  23
HETATM   23  C3  UNL     1      16.686   2.930  13.597  1.00  0.00     0.296 C 
BRANCH  23  24
HETATM   24  N1  UNL     1      17.176   3.332  12.315  1.00  0.00     0.082 N 
HETATM   25  C1  UNL     1      16.145   3.316  11.298  1.00  0.00     0.309 C 
HETATM   26  C2  UNL     1      18.216   2.405  11.907  1.00  0.00     0.309 C 
ENDBRANCH  23  24
ENDBRANCH  17  23
ENDBRANCH  14  15
ENDBRANCH   1  14
TORSDOF 4
ENDMDL
MODEL 5
REMARK VINA RESULT: -6.249631494      2.772      5.099
REMARK  4 active torsions:
REMARK  status: ('A' for Active; 'I' for Inactive)
REMARK    1  A    between atoms: N1_2  and  C3_4 
REMARK    2  A    between atoms: C3_4  and  C4_5 
REMARK       I    between atoms: N2_10  and  C9_11 
REMARK    3  A    between atoms: C9_11  and  C10_13 
REMARK    4  A    between atoms: C10_13  and  C11_14 
ROOT
HETATM    1  C11 UNL     1      18.827   4.894  12.133  1.00  0.00     0.007 C 
HETATM    2  C12 UNL     1      19.999   4.738  11.189  1.00  0.00     0.009 C 
HETATM    3  C13 UNL     1      20.228   3.223  11.292  1.00  0.00     0.039 C 
HETATM    4  C14 UNL     1      18.831   2.717  11.192  1.00  0.00     0.073 C 
HETATM    5  C15 UNL     1      18.546   1.311  11.557  1.00  0.00     0.076 C 
HETATM    6  C16 UNL     1      17.692   1.424  10.330  1.00  0.00     0.163 C 
HETATM    7  C17 UNL     1      16.268   1.684  10.562  1.00  0.00     0.087 C 
HETATM    8  N3  UNL     1      15.862   2.964  10.959  1.00  0.00    -0.399 N 
ATOM      9  H3  UNL     1      14.908   3.134  11.277  1.00  0.00     0.158 HD
HETATM   10  C18 UNL     1      16.808   4.016  10.907  1.00  0.00     0.131 C 
HETATM   11  C19 UNL     1      17.930   3.734  11.855  1.00  0.00     0.007 C 
HETATM   12  C20 UNL     1      17.392   3.234  13.179  1.00  0.00     0.020 C 
HETATM   13  O2  UNL     1      18.439   2.470   9.855  1.00  0.00    -0.369 OA
ENDROOT
BRANCH   1  14
HETATM   14  C10 UNL     1      18.165   6.237  11.990  1.00  0.00     0.108 C 
BRANCH  14  15
HETATM   15  C9  UNL     1      18.391   6.978  13.252  1.00  0.00     0.220 C 
HETATM   16  N2  UNL     1      19.176   8.133  13.402  1.00  0.00    -0.346 N 
HETATM   17  C4  UNL     1      19.846   8.713  12.279  1.00  0.00     0.115 C 
HETATM   18  C8  UNL     1      19.310   8.745  14.692  1.00  0.00     0.126 C 
HETATM   19  C5  UNL     1      19.356  10.138  12.157  1.00  0.00     0.027 C 
HETATM   20  C6  UNL     1      19.426  10.917  13.423  1.00  0.00     0.004 C 
HETATM   21  C7  UNL     1      18.959  10.212  14.643  1.00  0.00     0.020 C 
HETATM   22  O1  UNL     1      17.793   6.471  14.269  1.00  0.00    -0.273 OA
BRANCH  17  23
HETATM   23  C3  UNL     1      21.354   8.652  12.406  1.00  0.00     0.296 C 
BRANCH  23  24
HETATM   24  N1  UNL     1      21.933   7.610  11.617  1.00  0.00     0.082 N 
HETATM   25  C1  UNL     1      23.358   7.473  11.840  1.00  0.00     0.309 C 
HETATM   26  C2  UNL     1      21.732   7.929  10.215  1.00  0.00     0.309 C 
ENDBRANCH  23  24
ENDBRANCH  17  23
ENDBRANCH  14  15
ENDBRANCH   1  14
TORSDOF 4
ENDMDL
