MODEL 1
REMARK VINA RESULT: -7.819305165      0.000      0.000
REMARK  3 active torsions:
REMARK  status: ('A' for Active; 'I' for Inactive)
REMARK    1  A    between atoms: N1_6  and  C4_7 
REMARK    2  A    between atoms: C4_7  and  C5_8 
REMARK       I    between atoms: N2_12  and  C8_13 
REMARK       I    between atoms: C8_13  and  N3_15 
REMARK    3  A    between atoms: N3_15  and  C9_17 
ROOT
HETATM    1  C5  UNL     1      16.478   4.757  14.225  1.00  0.00     0.245 C 
HETATM    2  O3  UNL     1      15.088   4.962  14.398  1.00  0.00    -0.363 OA
HETATM    3  C6  UNL     1      14.946   6.195  14.991  1.00  0.00     0.190 C 
HETATM    4  C7  UNL     1      16.186   7.000  14.589  1.00  0.00     0.156 C 
HETATM    5  N2  UNL     1      16.879   6.053  13.771  1.00  0.00    -0.304 N 
HETATM    6  C8  UNL     1      17.778   6.312  12.726  1.00  0.00     0.321 C 
HETATM    7  O4  UNL     1      18.045   7.501  12.425  1.00  0.00    -0.247 OA
HETATM    8  N3  UNL     1      18.416   5.297  11.972  1.00  0.00    -0.334 N 
ATOM      9  H3  UNL     1      18.209   4.325  12.203  1.00  0.00     0.165 HD
ENDROOT
BRANCH   8  10
HETATM   10  C9  UNL     1      19.332   5.554  10.910  1.00  0.00     0.035 C 
HETATM   11  C10 UNL     1      18.758   6.387   9.804  1.00  0.00     0.035 C 
HETATM   12  C11 UNL     1      19.841   6.770   8.818  1.00  0.00    -0.012 C 
HETATM   13  C12 UNL     1      20.975   7.501   9.459  1.00  0.00     0.009 C 
HETATM   14  C16 UNL     1      20.333   5.472   8.191  1.00  0.00     0.009 C 
HETATM   15  C13 UNL     1      21.610   6.568  10.493  1.00  0.00    -0.012 C 
HETATM   16  C14 UNL     1      22.117   5.311   9.838  1.00  0.00     0.009 C 
HETATM   17  C18 UNL     1      20.550   6.268  11.509  1.00  0.00     0.035 C 
HETATM   18  C15 UNL     1      20.903   4.601   9.269  1.00  0.00    -0.012 C 
HETATM   19  C17 UNL     1      19.894   4.270  10.326  1.00  0.00     0.035 C 
ENDBRANCH   8  10
BRANCH   1  20
HETATM   20  C4  UNL     1      17.006   4.407  15.596  1.00  0.00     0.182 C 
BRANCH  20  21
HETATM   21  N1  UNL     1      16.248   3.418  16.280  1.00  0.00    -0.322 N 
HETATM   22  C1  UNL     1      16.134   2.032  15.995  1.00  0.00     0.362 C 
HETATM   23  O1  UNL     1      16.776   1.420  15.112  1.00  0.00    -0.238 OA
HETATM   24  O2  UNL     1      15.186   1.456  16.862  1.00  0.00    -0.302 OA
HETATM   25  C2  UNL     1      14.375   2.541  17.274  1.00  0.00     0.200 C 
HETATM   26  C3  UNL     1      15.415   3.644  17.444  1.00  0.00     0.155 C 
ENDBRANCH  20  21
ENDBRANCH   1  20
TORSDOF 3
ENDMDL
MODEL 2
REMARK VINA RESULT: -7.810756386      3.482      4.774
REMARK  3 active torsions:
REMARK  status: ('A' for Active; 'I' for Inactive)
REMARK    1  A    between atoms: N1_6  and  C4_7 
REMARK    2  A    between atoms: C4_7  and  C5_8 
REMARK       I    between atoms: N2_12  and  C8_13 
REMARK       I    between atoms: C8_13  and  N3_15 
REMARK    3  A    between atoms: N3_15  and  C9_17 
ROOT
HETATM    1  C5  UNL     1      17.068   6.310  14.122  1.00  0.00     0.245 C 
HETATM    2  O3  UNL     1      17.975   6.526  15.187  1.00  0.00    -0.363 OA
HETATM    3  C6  UNL     1      19.204   6.090  14.747  1.00  0.00     0.190 C 
HETATM    4  C7  UNL     1      19.173   6.214  13.221  1.00  0.00     0.156 C 
HETATM    5  N2  UNL     1      17.860   6.744  13.012  1.00  0.00    -0.304 N 
HETATM    6  C8  UNL     1      17.409   7.533  11.944  1.00  0.00     0.321 C 
HETATM    7  O4  UNL     1      18.210   7.846  11.030  1.00  0.00    -0.247 OA
HETATM    8  N3  UNL     1      16.081   8.010  11.829  1.00  0.00    -0.334 N 
ATOM      9  H3  UNL     1      15.417   7.766  12.564  1.00  0.00     0.165 HD
ENDROOT
BRANCH   8  10
HETATM   10  C9  UNL     1      15.616   8.812  10.745  1.00  0.00     0.035 C 
HETATM   11  C10 UNL     1      16.517   9.962  10.412  1.00  0.00     0.035 C 
HETATM   12  C11 UNL     1      16.055  10.642   9.140  1.00  0.00    -0.012 C 
HETATM   13  C12 UNL     1      15.985   9.708   7.978  1.00  0.00     0.009 C 
HETATM   14  C16 UNL     1      14.679  11.223   9.438  1.00  0.00     0.009 C 
HETATM   15  C13 UNL     1      14.961   8.619   8.311  1.00  0.00    -0.012 C 
HETATM   16  C14 UNL     1      13.605   9.222   8.565  1.00  0.00     0.009 C 
HETATM   17  C18 UNL     1      15.477   7.900   9.519  1.00  0.00     0.035 C 
HETATM   18  C15 UNL     1      13.748  10.104   9.791  1.00  0.00    -0.012 C 
HETATM   19  C17 UNL     1      14.212   9.335  10.991  1.00  0.00     0.035 C 
ENDBRANCH   8  10
BRANCH   1  20
HETATM   20  C4  UNL     1      16.792   4.826  14.124  1.00  0.00     0.182 C 
BRANCH  20  21
HETATM   21  N1  UNL     1      16.262   4.331  15.346  1.00  0.00    -0.322 N 
HETATM   22  C1  UNL     1      16.883   3.492  16.308  1.00  0.00     0.362 C 
HETATM   23  O1  UNL     1      18.074   3.109  16.272  1.00  0.00    -0.238 OA
HETATM   24  O2  UNL     1      15.948   3.160  17.307  1.00  0.00    -0.302 OA
HETATM   25  C2  UNL     1      14.687   3.339  16.689  1.00  0.00     0.200 C 
HETATM   26  C3  UNL     1      14.935   4.599  15.864  1.00  0.00     0.155 C 
ENDBRANCH  20  21
ENDBRANCH   1  20
TORSDOF 3
ENDMDL
MODEL 3
REMARK VINA RESULT: -7.754883913      0.135      1.456
REMARK  3 active torsions:
REMARK  status: ('A' for Active; 'I' for Inactive)
REMARK    1  A    between atoms: N1_6  and  C4_7 
REMARK    2  A    between atoms: C4_7  and  C5_8 
REMARK       I    between atoms: N2_12  and  C8_13 
REMARK       I    between atoms: C8_13  and  N3_15 
REMARK    3  A    between atoms: N3_15  and  C9_17 
ROOT
HETATM    1  C5  UNL     1      16.550   4.762  14.251  1.00  0.00     0.245 C 
HETATM    2  O3  UNL     1      15.146   4.897  14.371  1.00  0.00    -0.363 OA
HETATM    3  C6  UNL     1      14.922   6.113  14.975  1.00  0.00     0.190 C 
HETATM    4  C7  UNL     1      16.135   6.983  14.634  1.00  0.00     0.156 C 
HETATM    5  N2  UNL     1      16.905   6.083  13.830  1.00  0.00    -0.304 N 
HETATM    6  C8  UNL     1      17.829   6.401  12.825  1.00  0.00     0.321 C 
HETATM    7  O4  UNL     1      18.050   7.606  12.551  1.00  0.00    -0.247 OA
HETATM    8  N3  UNL     1      18.545   5.430  12.083  1.00  0.00    -0.334 N 
ATOM      9  H3  UNL     1      18.376   4.445  12.292  1.00  0.00     0.165 HD
ENDROOT
BRANCH   8  10
HETATM   10  C9  UNL     1      19.487   5.746  11.061  1.00  0.00     0.035 C 
HETATM   11  C10 UNL     1      20.658   6.546  11.544  1.00  0.00     0.035 C 
HETATM   12  C11 UNL     1      21.696   6.675  10.448  1.00  0.00    -0.012 C 
HETATM   13  C12 UNL     1      22.168   5.352   9.941  1.00  0.00     0.009 C 
HETATM   14  C16 UNL     1      21.042   7.471   9.326  1.00  0.00     0.009 C 
HETATM   15  C13 UNL     1      20.962   4.620   9.344  1.00  0.00    -0.012 C 
HETATM   16  C14 UNL     1      20.361   5.415   8.217  1.00  0.00     0.009 C 
HETATM   17  C18 UNL     1      19.983   4.425  10.461  1.00  0.00     0.035 C 
HETATM   18  C15 UNL     1      19.853   6.710   8.823  1.00  0.00    -0.012 C 
HETATM   19  C17 UNL     1      18.835   6.471   9.897  1.00  0.00     0.035 C 
ENDBRANCH   8  10
BRANCH   1  20
HETATM   20  C4  UNL     1      17.041   4.417  15.636  1.00  0.00     0.182 C 
BRANCH  20  21
HETATM   21  N1  UNL     1      16.269   3.425  16.300  1.00  0.00    -0.322 N 
HETATM   22  C1  UNL     1      16.152   2.042  16.000  1.00  0.00     0.362 C 
HETATM   23  O1  UNL     1      16.802   1.436  15.120  1.00  0.00    -0.238 OA
HETATM   24  O2  UNL     1      15.189   1.464  16.849  1.00  0.00    -0.302 OA
HETATM   25  C2  UNL     1      14.378   2.549  17.261  1.00  0.00     0.200 C 
HETATM   26  C3  UNL     1      15.422   3.644  17.455  1.00  0.00     0.155 C 
ENDBRANCH  20  21
ENDBRANCH   1  20
TORSDOF 3
ENDMDL
MODEL 4
REMARK VINA RESULT: -7.676814451      3.464      5.066
REMARK  3 active torsions:
REMARK  status: ('A' for Active; 'I' for Inactive)
REMARK    1  A    between atoms: N1_6  and  C4_7 
REMARK    2  A    between atoms: C4_7  and  C5_8 
REMARK       I    between atoms: N2_12  and  C8_13 
REMARK       I    between atoms: C8_13  and  N3_15 
REMARK    3  A    between atoms: N3_15  and  C9_17 
ROOT
HETATM    1  C5  UNL     1      17.651   4.882  12.520  1.00  0.00     0.245 C 
HETATM    2  O3  UNL     1      18.972   4.392  12.666  1.00  0.00    -0.363 OA
HETATM    3  C6  UNL     1      19.191   3.544  11.605  1.00  0.00     0.190 C 
HETATM    4  C7  UNL     1      18.256   4.016  10.487  1.00  0.00     0.156 C 
HETATM    5  N2  UNL     1      17.619   5.134  11.112  1.00  0.00    -0.304 N 
HETATM    6  C8  UNL     1      17.063   6.265  10.496  1.00  0.00     0.321 C 
HETATM    7  O4  UNL     1      17.101   6.364   9.246  1.00  0.00    -0.247 OA
HETATM    8  N3  UNL     1      16.450   7.324  11.209  1.00  0.00    -0.334 N 
ATOM      9  H3  UNL     1      16.412   7.259  12.226  1.00  0.00     0.165 HD
ENDROOT
BRANCH   8  10
HETATM   10  C9  UNL     1      15.883   8.475  10.588  1.00  0.00     0.035 C 
HETATM   11  C10 UNL     1      16.881   9.547  10.272  1.00  0.00     0.035 C 
HETATM   12  C11 UNL     1      16.235  10.642   9.450  1.00  0.00    -0.012 C 
HETATM   13  C12 UNL     1      15.629  10.133   8.183  1.00  0.00     0.009 C 
HETATM   14  C16 UNL     1      15.167  11.272  10.334  1.00  0.00     0.009 C 
HETATM   15  C13 UNL     1      14.530   9.135   8.557  1.00  0.00    -0.012 C 
HETATM   16  C14 UNL     1      13.473   9.796   9.400  1.00  0.00     0.009 C 
HETATM   17  C18 UNL     1      15.199   8.016   9.294  1.00  0.00     0.035 C 
HETATM   18  C15 UNL     1      14.152  10.227  10.686  1.00  0.00    -0.012 C 
HETATM   19  C17 UNL     1      14.760   9.070  11.420  1.00  0.00     0.035 C 
ENDBRANCH   8  10
BRANCH   1  20
HETATM   20  C4  UNL     1      16.752   3.749  12.953  1.00  0.00     0.182 C 
BRANCH  20  21
HETATM   21  N1  UNL     1      16.869   3.400  14.326  1.00  0.00    -0.322 N 
HETATM   22  C1  UNL     1      16.788   2.116  14.926  1.00  0.00     0.362 C 
HETATM   23  O1  UNL     1      16.682   1.034  14.307  1.00  0.00    -0.238 OA
HETATM   24  O2  UNL     1      16.846   2.255  16.326  1.00  0.00    -0.302 OA
HETATM   25  C2  UNL     1      16.430   3.585  16.570  1.00  0.00     0.200 C 
HETATM   26  C3  UNL     1      17.102   4.325  15.417  1.00  0.00     0.155 C 
ENDBRANCH  20  21
ENDBRANCH   1  20
TORSDOF 3
ENDMDL
MODEL 5
REMARK VINA RESULT: -7.584322118      3.406      5.056
REMARK  3 active torsions:
REMARK  status: ('A' for Active; 'I' for Inactive)
REMARK    1  A    between atoms: N1_6  and  C4_7 
REMARK    2  A    between atoms: C4_7  and  C5_8 
REMARK       I    between atoms: N2_12  and  C8_13 
REMARK       I    between atoms: C8_13  and  N3_15 
REMARK    3  A    between atoms: N3_15  and  C9_17 
ROOT
HETATM    1  C5  UNL     1      18.209   4.790  12.141  1.00  0.00     0.245 C 
HETATM    2  O3  UNL     1      19.575   4.445  12.280  1.00  0.00    -0.363 OA
HETATM    3  C6  UNL     1      19.886   3.647  11.203  1.00  0.00     0.190 C 
HETATM    4  C7  UNL     1      18.907   4.037  10.092  1.00  0.00     0.156 C 
HETATM    5  N2  UNL     1      18.150   5.066  10.738  1.00  0.00    -0.304 N 
HETATM    6  C8  UNL     1      17.475   6.142  10.143  1.00  0.00     0.321 C 
HETATM    7  O4  UNL     1      17.503   6.271   8.895  1.00  0.00    -0.247 OA
HETATM    8  N3  UNL     1      16.750   7.113  10.875  1.00  0.00    -0.334 N 
ATOM      9  H3  UNL     1      16.718   7.024  11.891  1.00  0.00     0.165 HD
ENDROOT
BRANCH   8  10
HETATM   10  C9  UNL     1      16.060   8.208  10.276  1.00  0.00     0.035 C 
HETATM   11  C10 UNL     1      15.227   7.825   9.091  1.00  0.00     0.035 C 
HETATM   12  C11 UNL     1      14.387   8.999   8.636  1.00  0.00    -0.012 C 
HETATM   13  C12 UNL     1      13.505   9.532   9.717  1.00  0.00     0.009 C 
HETATM   14  C16 UNL     1      15.362  10.072   8.169  1.00  0.00     0.009 C 
HETATM   15  C13 UNL     1      14.402  10.027  10.854  1.00  0.00    -0.012 C 
HETATM   16  C14 UNL     1      15.329  11.110  10.370  1.00  0.00     0.009 C 
HETATM   17  C18 UNL     1      15.163   8.835  11.350  1.00  0.00     0.035 C 
HETATM   18  C15 UNL     1      16.227  10.475   9.325  1.00  0.00    -0.012 C 
HETATM   19  C17 UNL     1      17.011   9.323   9.877  1.00  0.00     0.035 C 
ENDBRANCH   8  10
BRANCH   1  20
HETATM   20  C4  UNL     1      17.438   3.557  12.547  1.00  0.00     0.182 C 
BRANCH  20  21
HETATM   21  N1  UNL     1      17.040   3.539  13.912  1.00  0.00    -0.322 N 
HETATM   22  C1  UNL     1      16.637   2.432  14.704  1.00  0.00     0.362 C 
HETATM   23  O1  UNL     1      16.650   1.237  14.336  1.00  0.00    -0.238 OA
HETATM   24  O2  UNL     1      16.221   2.894  15.967  1.00  0.00    -0.302 OA
HETATM   25  C2  UNL     1      15.873   4.250  15.755  1.00  0.00     0.200 C 
HETATM   26  C3  UNL     1      16.968   4.691  14.788  1.00  0.00     0.155 C 
ENDBRANCH  20  21
ENDBRANCH   1  20
TORSDOF 3
ENDMDL
