MODEL 1
REMARK VINA RESULT: -7.539913931      0.000      0.000
REMARK  4 active torsions:
REMARK  status: ('A' for Active; 'I' for Inactive)
REMARK    1  A    between atoms: C2_2  and  O1_3 
REMARK    2  A    between atoms: O1_3  and  C3_4 
REMARK       I    between atoms: C3_4  and  N1_6 
REMARK    3  A    between atoms: C6_9  and  C7_10 
REMARK       I    between atoms: C7_10  and  N2_12 
REMARK    4  A    between atoms: N2_12  and  C8_14 
ROOT
HETATM    1  C3  UNL     1      16.696   3.137  15.913  1.00  0.00     0.362 C 
HETATM    2  O2  UNL     1      17.770   2.500  16.064  1.00  0.00    -0.238 OA
HETATM    3  N1  UNL     1      16.702   4.499  15.526  1.00  0.00    -0.328 N 
HETATM    4  C4  UNL     1      15.473   5.242  15.349  1.00  0.00     0.129 C 
HETATM    5  C5  UNL     1      15.453   5.927  14.024  1.00  0.00     0.039 C 
HETATM    6  C6  UNL     1      16.722   6.663  13.672  1.00  0.00     0.047 C 
HETATM    7  C14 UNL     1      16.895   7.887  14.517  1.00  0.00     0.020 C 
HETATM    8  C15 UNL     1      18.282   8.395  14.641  1.00  0.00     0.001 C 
HETATM    9  C16 UNL     1      19.281   7.821  13.698  1.00  0.00     0.001 C 
HETATM   10  C17 UNL     1      19.217   6.344  13.515  1.00  0.00     0.007 C 
HETATM   11  C18 UNL     1      17.883   5.741  13.863  1.00  0.00     0.021 C 
HETATM   12  C19 UNL     1      17.928   5.231  15.283  1.00  0.00     0.134 C 
ENDROOT
BRANCH   6  13
HETATM   13  C7  UNL     1      16.579   7.064  12.242  1.00  0.00     0.227 C 
HETATM   14  O3  UNL     1      16.768   6.229  11.350  1.00  0.00    -0.273 OA
HETATM   15  N2  UNL     1      16.232   8.384  11.860  1.00  0.00    -0.356 N 
ATOM     16  H2  UNL     1      16.076   9.073  12.597  1.00  0.00     0.162 HD
BRANCH  15  17
HETATM   17  C8  UNL     1      16.086   8.807  10.494  1.00  0.00     0.087 C 
HETATM   18  C9  UNL     1      14.674   8.606   9.982  1.00  0.00     0.055 C 
HETATM   19  C10 UNL     1      14.338   9.555   8.855  1.00  0.00     0.274 C 
HETATM   20  N3  UNL     1      14.382  10.936   9.250  1.00  0.00     0.084 N 
HETATM   21  C11 UNL     1      14.793  11.725   8.114  1.00  0.00     0.309 C 
HETATM   22  C12 UNL     1      15.205  11.119  10.406  1.00  0.00     0.274 C 
HETATM   23  C13 UNL     1      16.459  10.255  10.294  1.00  0.00     0.055 C 
ENDBRANCH  15  17
ENDBRANCH   6  13
BRANCH   1  24
HETATM   24  O1  UNL     1      15.509   2.468  16.135  1.00  0.00    -0.304 OA
BRANCH  24  25
HETATM   25  C2  UNL     1      15.137   2.089  17.442  1.00  0.00     0.176 C 
HETATM   26  C1  UNL     1      14.918   3.343  18.242  1.00  0.00     0.034 C 
ENDBRANCH  24  25
ENDBRANCH   1  24
TORSDOF 4
ENDMDL
MODEL 2
REMARK VINA RESULT: -7.094501698      1.605      2.377
REMARK  4 active torsions:
REMARK  status: ('A' for Active; 'I' for Inactive)
REMARK    1  A    between atoms: C2_2  and  O1_3 
REMARK    2  A    between atoms: O1_3  and  C3_4 
REMARK       I    between atoms: C3_4  and  N1_6 
REMARK    3  A    between atoms: C6_9  and  C7_10 
REMARK       I    between atoms: C7_10  and  N2_12 
REMARK    4  A    between atoms: N2_12  and  C8_14 
ROOT
HETATM    1  C3  UNL     1      16.682   2.266  15.717  1.00  0.00     0.362 C 
HETATM    2  O2  UNL     1      16.287   1.201  15.178  1.00  0.00    -0.238 OA
HETATM    3  N1  UNL     1      17.259   3.305  14.947  1.00  0.00    -0.328 N 
HETATM    4  C4  UNL     1      17.717   4.535  15.557  1.00  0.00     0.129 C 
HETATM    5  C5  UNL     1      17.148   5.720  14.852  1.00  0.00     0.039 C 
HETATM    6  C6  UNL     1      17.231   5.662  13.347  1.00  0.00     0.047 C 
HETATM    7  C14 UNL     1      18.643   5.817  12.871  1.00  0.00     0.020 C 
HETATM    8  C15 UNL     1      18.931   5.283  11.519  1.00  0.00     0.001 C 
HETATM    9  C16 UNL     1      17.751   4.926  10.686  1.00  0.00     0.001 C 
HETATM   10  C17 UNL     1      16.671   4.178  11.388  1.00  0.00     0.007 C 
HETATM   11  C18 UNL     1      16.676   4.354  12.883  1.00  0.00     0.021 C 
HETATM   12  C19 UNL     1      17.427   3.205  13.512  1.00  0.00     0.134 C 
ENDROOT
BRANCH   6  13
HETATM   13  C7  UNL     1      16.412   6.805  12.846  1.00  0.00     0.227 C 
HETATM   14  O3  UNL     1      15.289   7.007  13.322  1.00  0.00    -0.273 OA
HETATM   15  N2  UNL     1      16.878   7.679  11.833  1.00  0.00    -0.356 N 
ATOM     16  H2  UNL     1      17.805   7.512  11.441  1.00  0.00     0.162 HD
BRANCH  15  17
HETATM   17  C8  UNL     1      16.117   8.790  11.327  1.00  0.00     0.087 C 
HETATM   18  C9  UNL     1      17.001   9.962  10.948  1.00  0.00     0.055 C 
HETATM   19  C10 UNL     1      16.363  10.837   9.894  1.00  0.00     0.274 C 
HETATM   20  N3  UNL     1      16.132  10.148   8.654  1.00  0.00     0.084 N 
HETATM   21  C11 UNL     1      14.954  10.702   8.034  1.00  0.00     0.309 C 
HETATM   22  C12 UNL     1      16.067   8.732   8.852  1.00  0.00     0.274 C 
HETATM   23  C13 UNL     1      15.283   8.420  10.125  1.00  0.00     0.055 C 
ENDBRANCH  15  17
ENDBRANCH   6  13
BRANCH   1  24
HETATM   24  O1  UNL     1      16.535   2.394  17.084  1.00  0.00    -0.304 OA
BRANCH  24  25
HETATM   25  C2  UNL     1      15.255   2.340  17.672  1.00  0.00     0.176 C 
HETATM   26  C1  UNL     1      14.471   3.525  17.182  1.00  0.00     0.034 C 
ENDBRANCH  24  25
ENDBRANCH   1  24
TORSDOF 4
ENDMDL
MODEL 3
REMARK VINA RESULT: -6.848154812      2.390      3.018
REMARK  4 active torsions:
REMARK  status: ('A' for Active; 'I' for Inactive)
REMARK    1  A    between atoms: C2_2  and  O1_3 
REMARK    2  A    between atoms: O1_3  and  C3_4 
REMARK       I    between atoms: C3_4  and  N1_6 
REMARK    3  A    between atoms: C6_9  and  C7_10 
REMARK       I    between atoms: C7_10  and  N2_12 
REMARK    4  A    between atoms: N2_12  and  C8_14 
ROOT
HETATM    1  C3  UNL     1      16.748   3.049  15.911  1.00  0.00     0.362 C 
HETATM    2  O2  UNL     1      17.836   2.472  16.166  1.00  0.00    -0.238 OA
HETATM    3  N1  UNL     1      16.713   4.419  15.551  1.00  0.00    -0.328 N 
HETATM    4  C4  UNL     1      15.468   5.093  15.256  1.00  0.00     0.129 C 
HETATM    5  C5  UNL     1      15.549   5.808  13.949  1.00  0.00     0.039 C 
HETATM    6  C6  UNL     1      16.801   6.624  13.750  1.00  0.00     0.047 C 
HETATM    7  C14 UNL     1      16.809   7.836  14.630  1.00  0.00     0.020 C 
HETATM    8  C15 UNL     1      18.142   8.420  14.913  1.00  0.00     0.001 C 
HETATM    9  C16 UNL     1      19.269   7.929  14.075  1.00  0.00     0.001 C 
HETATM   10  C17 UNL     1      19.314   6.455  13.859  1.00  0.00     0.007 C 
HETATM   11  C18 UNL     1      17.989   5.767  14.049  1.00  0.00     0.021 C 
HETATM   12  C19 UNL     1      17.912   5.226  15.457  1.00  0.00     0.134 C 
ENDROOT
BRANCH   6  13
HETATM   13  C7  UNL     1      16.790   7.052  12.320  1.00  0.00     0.227 C 
HETATM   14  O3  UNL     1      15.923   7.839  11.925  1.00  0.00    -0.273 OA
HETATM   15  N2  UNL     1      17.747   6.585  11.386  1.00  0.00    -0.356 N 
ATOM     16  H2  UNL     1      18.462   5.935  11.713  1.00  0.00     0.162 HD
BRANCH  15  17
HETATM   17  C8  UNL     1      17.766   6.975  10.002  1.00  0.00     0.087 C 
HETATM   18  C9  UNL     1      18.534   8.263   9.783  1.00  0.00     0.055 C 
HETATM   19  C10 UNL     1      19.088   8.363   8.380  1.00  0.00     0.274 C 
HETATM   20  N3  UNL     1      20.035   7.327   8.074  1.00  0.00     0.084 N 
HETATM   21  C11 UNL     1      19.943   7.021   6.668  1.00  0.00     0.309 C 
HETATM   22  C12 UNL     1      19.853   6.190   8.924  1.00  0.00     0.274 C 
HETATM   23  C13 UNL     1      18.362   5.913   9.110  1.00  0.00     0.055 C 
ENDBRANCH  15  17
ENDBRANCH   6  13
BRANCH   1  24
HETATM   24  O1  UNL     1      15.586   2.308  15.991  1.00  0.00    -0.304 OA
BRANCH  24  25
HETATM   25  C2  UNL     1      14.957   2.098  17.236  1.00  0.00     0.176 C 
HETATM   26  C1  UNL     1      13.665   2.864  17.235  1.00  0.00     0.034 C 
ENDBRANCH  24  25
ENDBRANCH   1  24
TORSDOF 4
ENDMDL
MODEL 4
REMARK VINA RESULT: -6.822835139      2.850      3.696
REMARK  4 active torsions:
REMARK  status: ('A' for Active; 'I' for Inactive)
REMARK    1  A    between atoms: C2_2  and  O1_3 
REMARK    2  A    between atoms: O1_3  and  C3_4 
REMARK       I    between atoms: C3_4  and  N1_6 
REMARK    3  A    between atoms: C6_9  and  C7_10 
REMARK       I    between atoms: C7_10  and  N2_12 
REMARK    4  A    between atoms: N2_12  and  C8_14 
ROOT
HETATM    1  C3  UNL     1      16.299   2.341  16.025  1.00  0.00     0.362 C 
HETATM    2  O2  UNL     1      15.711   1.232  16.083  1.00  0.00    -0.238 OA
HETATM    3  N1  UNL     1      17.076   2.699  14.895  1.00  0.00    -0.328 N 
HETATM    4  C4  UNL     1      17.757   3.974  14.817  1.00  0.00     0.129 C 
HETATM    5  C5  UNL     1      17.436   4.669  13.537  1.00  0.00     0.039 C 
HETATM    6  C6  UNL     1      17.522   3.801  12.306  1.00  0.00     0.047 C 
HETATM    7  C14 UNL     1      18.942   3.451  11.982  1.00  0.00     0.020 C 
HETATM    8  C15 UNL     1      19.135   2.238  11.154  1.00  0.00     0.001 C 
HETATM    9  C16 UNL     1      17.917   1.682  10.504  1.00  0.00     0.001 C 
HETATM   10  C17 UNL     1      16.705   1.609  11.367  1.00  0.00     0.007 C 
HETATM   11  C18 UNL     1      16.729   2.556  12.537  1.00  0.00     0.021 C 
HETATM   12  C19 UNL     1      17.236   1.821  13.755  1.00  0.00     0.134 C 
ENDROOT
BRANCH   6  13
HETATM   13  C7  UNL     1      16.946   4.610  11.193  1.00  0.00     0.227 C 
HETATM   14  O3  UNL     1      15.809   4.358  10.778  1.00  0.00    -0.273 OA
HETATM   15  N2  UNL     1      17.660   5.671  10.584  1.00  0.00    -0.356 N 
ATOM     16  H2  UNL     1      18.598   5.879  10.927  1.00  0.00     0.162 HD
BRANCH  15  17
HETATM   17  C8  UNL     1      17.138   6.472   9.510  1.00  0.00     0.087 C 
HETATM   18  C9  UNL     1      16.441   7.720  10.014  1.00  0.00     0.055 C 
HETATM   19  C10 UNL     1      16.442   8.826   8.986  1.00  0.00     0.274 C 
HETATM   20  N3  UNL     1      17.764   9.271   8.639  1.00  0.00     0.084 N 
HETATM   21  C11 UNL     1      17.757   9.699   7.261  1.00  0.00     0.309 C 
HETATM   22  C12 UNL     1      18.741   8.266   8.924  1.00  0.00     0.274 C 
HETATM   23  C13 UNL     1      18.205   6.892   8.528  1.00  0.00     0.055 C 
ENDBRANCH  15  17
ENDBRANCH   6  13
BRANCH   1  24
HETATM   24  O1  UNL     1      16.166   3.203  17.095  1.00  0.00    -0.304 OA
BRANCH  24  25
HETATM   25  C2  UNL     1      14.899   3.440  17.668  1.00  0.00     0.176 C 
HETATM   26  C1  UNL     1      14.163   4.402  16.778  1.00  0.00     0.034 C 
ENDBRANCH  24  25
ENDBRANCH   1  24
TORSDOF 4
ENDMDL
MODEL 5
REMARK VINA RESULT: -6.791546028      3.471      5.285
REMARK  4 active torsions:
REMARK  status: ('A' for Active; 'I' for Inactive)
REMARK    1  A    between atoms: C2_2  and  O1_3 
REMARK    2  A    between atoms: O1_3  and  C3_4 
REMARK       I    between atoms: C3_4  and  N1_6 
REMARK    3  A    between atoms: C6_9  and  C7_10 
REMARK       I    between atoms: C7_10  and  N2_12 
REMARK    4  A    between atoms: N2_12  and  C8_14 
ROOT
HETATM    1  C3  UNL     1      17.412   2.020  12.350  1.00  0.00     0.362 C 
HETATM    2  O2  UNL     1      16.703   1.378  13.165  1.00  0.00    -0.238 OA
HETATM    3  N1  UNL     1      17.344   3.433  12.276  1.00  0.00    -0.328 N 
HETATM    4  C4  UNL     1      18.156   4.183  11.341  1.00  0.00     0.129 C 
HETATM    5  C5  UNL     1      18.891   5.278  12.037  1.00  0.00     0.039 C 
HETATM    6  C6  UNL     1      18.055   6.098  12.987  1.00  0.00     0.047 C 
HETATM    7  C14 UNL     1      17.080   6.963  12.249  1.00  0.00     0.020 C 
HETATM    8  C15 UNL     1      15.896   7.408  13.022  1.00  0.00     0.001 C 
HETATM    9  C16 UNL     1      15.953   7.197  14.494  1.00  0.00     0.001 C 
HETATM   10  C17 UNL     1      16.469   5.870  14.934  1.00  0.00     0.007 C 
HETATM   11  C18 UNL     1      17.324   5.175  13.908  1.00  0.00     0.021 C 
HETATM   12  C19 UNL     1      16.466   4.212  13.123  1.00  0.00     0.134 C 
ENDROOT
BRANCH   6  13
HETATM   13  C7  UNL     1      19.013   6.963  13.736  1.00  0.00     0.227 C 
HETATM   14  O3  UNL     1      19.703   6.472  14.637  1.00  0.00    -0.273 OA
HETATM   15  N2  UNL     1      19.165   8.342  13.452  1.00  0.00    -0.356 N 
ATOM     16  H2  UNL     1      18.596   8.746  12.709  1.00  0.00     0.162 HD
BRANCH  15  17
HETATM   17  C8  UNL     1      20.078   9.205  14.153  1.00  0.00     0.087 C 
HETATM   18  C9  UNL     1      21.152   9.761  13.240  1.00  0.00     0.055 C 
HETATM   19  C10 UNL     1      21.704  11.073  13.746  1.00  0.00     0.274 C 
HETATM   20  N3  UNL     1      20.715  12.114  13.808  1.00  0.00     0.084 N 
HETATM   21  C11 UNL     1      21.043  12.994  14.903  1.00  0.00     0.309 C 
HETATM   22  C12 UNL     1      19.394  11.569  13.883  1.00  0.00     0.274 C 
HETATM   23  C13 UNL     1      19.380  10.364  14.821  1.00  0.00     0.055 C 
ENDBRANCH  15  17
ENDBRANCH   6  13
BRANCH   1  24
HETATM   24  O1  UNL     1      18.262   1.307  11.527  1.00  0.00    -0.304 OA
BRANCH  24  25
HETATM   25  C2  UNL     1      17.825   0.117  10.910  1.00  0.00     0.176 C 
HETATM   26  C1  UNL     1      18.578  -1.028  11.527  1.00  0.00     0.034 C 
ENDBRANCH  24  25
ENDBRANCH   1  24
TORSDOF 4
ENDMDL
