MODEL 1
REMARK VINA RESULT: -7.440035384      0.000      0.000
REMARK  2 active torsions:
REMARK  status: ('A' for Active; 'I' for Inactive)
REMARK    1  A    between atoms: C10_10  and  N1_11 
REMARK       I    between atoms: N1_11  and  C11_13 
REMARK    2  A    between atoms: C11_13  and  C12_15 
ROOT
HETATM    1  C1  UNL     1      20.727  11.628  15.353  1.00  0.00     0.011 C 
HETATM    2  C2  UNL     1      19.415  11.324  14.659  1.00  0.00     0.010 C 
HETATM    3  C3  UNL     1      19.630  11.377  13.200  1.00  0.00     0.008 C 
HETATM    4  C4  UNL     1      19.465  10.051  12.496  1.00  0.00     0.036 C 
HETATM    5  C5  UNL     1      20.036   8.997  13.387  1.00  0.00     0.227 C 
HETATM    6  C6  UNL     1      20.012   7.616  12.807  1.00  0.00     0.026 C 
HETATM    7  C7  UNL     1      19.538   7.590  11.375  1.00  0.00     0.007 C 
HETATM    8  C8  UNL     1      19.692   6.169  10.875  1.00  0.00     0.002 C 
HETATM    9  C9  UNL     1      19.078   5.169  11.819  1.00  0.00     0.026 C 
HETATM   10  C10 UNL     1      18.190   5.899  12.808  1.00  0.00     0.090 C 
HETATM   11  C17 UNL     1      19.045   6.801  13.633  1.00  0.00     0.043 C 
HETATM   12  C18 UNL     1      18.275   7.854  14.399  1.00  0.00     0.280 C 
HETATM   13  N3  UNL     1      19.290   8.859  14.596  1.00  0.00     0.094 N 
HETATM   14  C19 UNL     1      18.827  10.060  15.189  1.00  0.00     0.277 C 
ENDROOT
BRANCH  10  15
HETATM   15  N1  UNL     1      17.517   4.952  13.679  1.00  0.00    -0.354 N 
HETATM   16  C11 UNL     1      16.136   5.029  13.973  1.00  0.00     0.251 C 
HETATM   17  O1  UNL     1      15.447   5.948  13.469  1.00  0.00    -0.271 OA
ATOM     18  H1  UNL     1      18.064   4.199  14.097  1.00  0.00     0.162 HD
BRANCH  16  19
HETATM   19  C12 UNL     1      15.500   4.037  14.865  1.00  0.00     0.313 C 
HETATM   20  C13 UNL     1      14.558   4.701  15.855  1.00  0.00     0.047 C 
HETATM   21  C14 UNL     1      14.658   3.862  17.120  1.00  0.00     0.033 C 
HETATM   22  C15 UNL     1      16.067   3.303  17.020  1.00  0.00     0.273 C 
HETATM   23  N2  UNL     1      16.436   3.292  15.636  1.00  0.00     0.098 N 
HETATM   24  C16 UNL     1      16.627   1.963  15.116  1.00  0.00     0.310 C 
ENDBRANCH  16  19
ENDBRANCH  10  15
TORSDOF 2
ENDMDL
MODEL 2
REMARK VINA RESULT: -7.130019577      1.846      3.960
REMARK  2 active torsions:
REMARK  status: ('A' for Active; 'I' for Inactive)
REMARK    1  A    between atoms: C10_10  and  N1_11 
REMARK       I    between atoms: N1_11  and  C11_13 
REMARK    2  A    between atoms: C11_13  and  C12_15 
ROOT
HETATM    1  C1  UNL     1      22.032   6.008   8.372  1.00  0.00     0.011 C 
HETATM    2  C2  UNL     1      22.208   5.582   9.815  1.00  0.00     0.010 C 
HETATM    3  C3  UNL     1      22.765   6.718  10.577  1.00  0.00     0.008 C 
HETATM    4  C4  UNL     1      21.835   7.283  11.624  1.00  0.00     0.036 C 
HETATM    5  C5  UNL     1      20.453   7.253  11.059  1.00  0.00     0.227 C 
HETATM    6  C6  UNL     1      19.405   7.843  11.952  1.00  0.00     0.026 C 
HETATM    7  C7  UNL     1      19.983   8.477  13.193  1.00  0.00     0.007 C 
HETATM    8  C8  UNL     1      18.843   9.147  13.930  1.00  0.00     0.002 C 
HETATM    9  C9  UNL     1      17.669   8.222  14.115  1.00  0.00     0.026 C 
HETATM   10  C10 UNL     1      18.106   6.800  13.821  1.00  0.00     0.090 C 
HETATM   11  C17 UNL     1      18.499   6.715  12.385  1.00  0.00     0.043 C 
HETATM   12  C18 UNL     1      19.296   5.479  12.032  1.00  0.00     0.280 C 
HETATM   13  N3  UNL     1      19.991   5.918  10.848  1.00  0.00     0.094 N 
HETATM   14  C19 UNL     1      20.942   4.998  10.343  1.00  0.00     0.277 C 
ENDROOT
BRANCH  10  15
HETATM   15  N1  UNL     1      17.017   5.873  14.073  1.00  0.00    -0.354 N 
HETATM   16  C11 UNL     1      17.089   4.856  15.052  1.00  0.00     0.251 C 
HETATM   17  O1  UNL     1      18.129   4.733  15.741  1.00  0.00    -0.271 OA
ATOM     18  H1  UNL     1      16.164   5.961  13.521  1.00  0.00     0.162 HD
BRANCH  16  19
HETATM   19  C12 UNL     1      15.949   3.939  15.270  1.00  0.00     0.313 C 
HETATM   20  C13 UNL     1      14.789   4.645  15.951  1.00  0.00     0.047 C 
HETATM   21  C14 UNL     1      14.144   3.586  16.831  1.00  0.00     0.033 C 
HETATM   22  C15 UNL     1      15.316   2.671  17.140  1.00  0.00     0.273 C 
HETATM   23  N2  UNL     1      16.275   2.820  16.086  1.00  0.00     0.098 N 
HETATM   24  C16 UNL     1      16.449   1.619  15.310  1.00  0.00     0.310 C 
ENDBRANCH  16  19
ENDBRANCH  10  15
TORSDOF 2
ENDMDL
MODEL 3
REMARK VINA RESULT: -7.049277724      4.171      7.561
REMARK  2 active torsions:
REMARK  status: ('A' for Active; 'I' for Inactive)
REMARK    1  A    between atoms: C10_10  and  N1_11 
REMARK       I    between atoms: N1_11  and  C11_13 
REMARK    2  A    between atoms: C11_13  and  C12_15 
ROOT
HETATM    1  C1  UNL     1      18.044   0.539  11.238  1.00  0.00     0.011 C 
HETATM    2  C2  UNL     1      16.753   1.237  11.611  1.00  0.00     0.010 C 
HETATM    3  C3  UNL     1      16.768   1.514  13.061  1.00  0.00     0.008 C 
HETATM    4  C4  UNL     1      16.806   2.981  13.417  1.00  0.00     0.036 C 
HETATM    5  C5  UNL     1      17.697   3.658  12.427  1.00  0.00     0.227 C 
HETATM    6  C6  UNL     1      17.899   5.121  12.675  1.00  0.00     0.026 C 
HETATM    7  C7  UNL     1      17.267   5.590  13.963  1.00  0.00     0.007 C 
HETATM    8  C8  UNL     1      17.660   7.039  14.157  1.00  0.00     0.002 C 
HETATM    9  C9  UNL     1      17.398   7.864  12.924  1.00  0.00     0.026 C 
HETATM   10  C10 UNL     1      16.504   7.082  11.983  1.00  0.00     0.090 C 
HETATM   11  C17 UNL     1      17.240   5.864  11.537  1.00  0.00     0.043 C 
HETATM   12  C18 UNL     1      16.363   4.808  10.900  1.00  0.00     0.280 C 
HETATM   13  N3  UNL     1      17.154   3.621  11.107  1.00  0.00     0.094 N 
HETATM   14  C19 UNL     1      16.522   2.413  10.723  1.00  0.00     0.277 C 
ENDROOT
BRANCH  10  15
HETATM   15  N1  UNL     1      16.165   7.885  10.822  1.00  0.00    -0.354 N 
HETATM   16  C11 UNL     1      14.988   8.665  10.749  1.00  0.00     0.251 C 
HETATM   17  O1  UNL     1      14.191   8.676  11.717  1.00  0.00    -0.271 OA
ATOM     18  H1  UNL     1      16.803   7.888  10.026  1.00  0.00     0.162 HD
BRANCH  16  19
HETATM   19  C12 UNL     1      14.691   9.468   9.543  1.00  0.00     0.313 C 
HETATM   20  C13 UNL     1      13.201   9.496   9.245  1.00  0.00     0.047 C 
HETATM   21  C14 UNL     1      13.102   9.545   7.729  1.00  0.00     0.033 C 
HETATM   22  C15 UNL     1      14.379   8.842   7.303  1.00  0.00     0.273 C 
HETATM   23  N2  UNL     1      15.327   8.976   8.369  1.00  0.00     0.098 N 
HETATM   24  C16 UNL     1      16.474   9.767   8.005  1.00  0.00     0.310 C 
ENDBRANCH  16  19
ENDBRANCH  10  15
TORSDOF 2
ENDMDL
MODEL 4
REMARK VINA RESULT: -6.905082955      4.042      7.487
REMARK  2 active torsions:
REMARK  status: ('A' for Active; 'I' for Inactive)
REMARK    1  A    between atoms: C10_10  and  N1_11 
REMARK       I    between atoms: N1_11  and  C11_13 
REMARK    2  A    between atoms: C11_13  and  C12_15 
ROOT
HETATM    1  C1  UNL     1      18.005   1.029  11.144  1.00  0.00     0.011 C 
HETATM    2  C2  UNL     1      16.735   1.792  11.459  1.00  0.00     0.010 C 
HETATM    3  C3  UNL     1      16.633   1.951  12.923  1.00  0.00     0.008 C 
HETATM    4  C4  UNL     1      16.738   3.379  13.405  1.00  0.00     0.036 C 
HETATM    5  C5  UNL     1      17.762   4.062  12.559  1.00  0.00     0.227 C 
HETATM    6  C6  UNL     1      18.040   5.482  12.948  1.00  0.00     0.026 C 
HETATM    7  C7  UNL     1      17.323   5.894  14.210  1.00  0.00     0.007 C 
HETATM    8  C8  UNL     1      17.794   7.290  14.561  1.00  0.00     0.002 C 
HETATM    9  C9  UNL     1      17.706   8.227  13.385  1.00  0.00     0.026 C 
HETATM   10  C10 UNL     1      16.854   7.591  12.305  1.00  0.00     0.090 C 
HETATM   11  C17 UNL     1      17.543   6.359  11.823  1.00  0.00     0.043 C 
HETATM   12  C18 UNL     1      16.660   5.427  11.024  1.00  0.00     0.280 C 
HETATM   13  N3  UNL     1      17.345   4.171  11.198  1.00  0.00     0.094 N 
HETATM   14  C19 UNL     1      16.670   3.048  10.657  1.00  0.00     0.277 C 
ENDROOT
BRANCH  10  15
HETATM   15  N1  UNL     1      16.681   8.507  11.191  1.00  0.00    -0.354 N 
HETATM   16  C11 UNL     1      15.411   8.948  10.753  1.00  0.00     0.251 C 
HETATM   17  O1  UNL     1      14.379   8.542  11.339  1.00  0.00    -0.271 OA
ATOM     18  H1  UNL     1      17.511   8.847  10.705  1.00  0.00     0.162 HD
BRANCH  16  19
HETATM   19  C12 UNL     1      15.291   9.884   9.615  1.00  0.00     0.313 C 
HETATM   20  C13 UNL     1      14.993  11.298  10.084  1.00  0.00     0.047 C 
HETATM   21  C14 UNL     1      14.108  11.896   9.001  1.00  0.00     0.033 C 
HETATM   22  C15 UNL     1      13.416  10.665   8.441  1.00  0.00     0.273 C 
HETATM   23  N2  UNL     1      14.255   9.534   8.705  1.00  0.00     0.098 N 
HETATM   24  C16 UNL     1      14.770   8.925   7.506  1.00  0.00     0.310 C 
ENDBRANCH  16  19
ENDBRANCH  10  15
TORSDOF 2
ENDMDL
MODEL 5
REMARK VINA RESULT: -6.765701163      1.806      3.582
REMARK  2 active torsions:
REMARK  status: ('A' for Active; 'I' for Inactive)
REMARK    1  A    between atoms: C10_10  and  N1_11 
REMARK       I    between atoms: N1_11  and  C11_13 
REMARK    2  A    between atoms: C11_13  and  C12_15 
ROOT
HETATM    1  C1  UNL     1      21.135   8.089   8.393  1.00  0.00     0.011 C 
HETATM    2  C2  UNL     1      21.494   7.298   9.633  1.00  0.00     0.010 C 
HETATM    3  C3  UNL     1      22.160   8.202  10.593  1.00  0.00     0.008 C 
HETATM    4  C4  UNL     1      21.382   8.443  11.865  1.00  0.00     0.036 C 
HETATM    5  C5  UNL     1      19.937   8.532  11.497  1.00  0.00     0.227 C 
HETATM    6  C6  UNL     1      19.023   8.836  12.644  1.00  0.00     0.026 C 
HETATM    7  C7  UNL     1      19.767   9.129  13.924  1.00  0.00     0.007 C 
HETATM    8  C8  UNL     1      18.742   9.550  14.955  1.00  0.00     0.002 C 
HETATM    9  C9  UNL     1      17.592   8.580  15.036  1.00  0.00     0.026 C 
HETATM   10  C10 UNL     1      17.970   7.300  14.317  1.00  0.00     0.090 C 
HETATM   11  C17 UNL     1      18.169   7.612  12.872  1.00  0.00     0.043 C 
HETATM   12  C18 UNL     1      18.899   6.534  12.101  1.00  0.00     0.280 C 
HETATM   13  N3  UNL     1      19.436   7.291  10.998  1.00  0.00     0.094 N 
HETATM   14  C19 UNL     1      20.302   6.562  10.145  1.00  0.00     0.277 C 
ENDROOT
BRANCH  10  15
HETATM   15  N1  UNL     1      16.913   6.314  14.451  1.00  0.00    -0.354 N 
HETATM   16  C11 UNL     1      17.087   5.095  15.146  1.00  0.00     0.251 C 
HETATM   17  O1  UNL     1      18.195   4.837  15.675  1.00  0.00    -0.271 OA
ATOM     18  H1  UNL     1      16.006   6.509  14.026  1.00  0.00     0.162 HD
BRANCH  16  19
HETATM   19  C12 UNL     1      15.976   4.125  15.254  1.00  0.00     0.313 C 
HETATM   20  C13 UNL     1      14.762   4.742  15.928  1.00  0.00     0.047 C 
HETATM   21  C14 UNL     1      14.123   3.604  16.709  1.00  0.00     0.033 C 
HETATM   22  C15 UNL     1      15.317   2.714  17.009  1.00  0.00     0.273 C 
HETATM   23  N2  UNL     1      16.312   2.967  16.010  1.00  0.00     0.098 N 
HETATM   24  C16 UNL     1      16.565   1.827  15.167  1.00  0.00     0.310 C 
ENDBRANCH  16  19
ENDBRANCH  10  15
TORSDOF 2
ENDMDL
