MODEL 1
REMARK VINA RESULT: -7.188699258      0.000      0.000
REMARK  2 active torsions:
REMARK  status: ('A' for Active; 'I' for Inactive)
REMARK       I    between atoms: C2_2  and  N1_4 
REMARK    1  A    between atoms: N1_4  and  C3_6 
REMARK    2  A    between atoms: C3_6  and  C4_7 
ROOT
HETATM    1  C4  UNL     1      17.175   5.517  14.957  1.00  0.00     0.012 C 
HETATM    2  C5  UNL     1      15.870   6.244  14.652  1.00  0.00     0.008 C 
HETATM    3  C6  UNL     1      16.494   6.705  13.350  1.00  0.00     0.010 C 
HETATM    4  C7  UNL     1      17.636   5.700  13.551  1.00  0.00    -0.035 C 
HETATM    5  C8  UNL     1      17.485   4.486  12.679  1.00  0.00     0.012 C 
HETATM    6  C9  UNL     1      17.778   4.773  11.253  1.00  0.00     0.037 C 
HETATM    7  C10 UNL     1      18.758   5.879  11.018  1.00  0.00     0.229 C 
HETATM    8  C11 UNL     1      19.709   6.054  12.167  1.00  0.00     0.048 C 
HETATM    9  C12 UNL     1      20.689   7.149  11.938  1.00  0.00     0.279 C 
HETATM   10  N2  UNL     1      21.034   7.408  10.589  1.00  0.00     0.097 N 
HETATM   11  C13 UNL     1      19.976   7.999   9.815  1.00  0.00     0.308 C 
HETATM   12  C14 UNL     1      19.415   6.884   8.928  1.00  0.00     0.252 C 
HETATM   13  C15 UNL     1      20.455   6.704   7.822  1.00  0.00     0.040 C 
HETATM   14  C16 UNL     1      21.848   6.793   8.446  1.00  0.00     0.040 C 
HETATM   15  C17 UNL     1      21.661   6.325   9.899  1.00  0.00     0.251 C 
HETATM   16  C18 UNL     1      20.697   5.134   9.794  1.00  0.00     0.309 C 
HETATM   17  N3  UNL     1      19.374   5.697   9.753  1.00  0.00     0.102 N 
HETATM   18  C19 UNL     1      18.942   6.384  13.421  1.00  0.00     0.018 C 
ENDROOT
BRANCH   1  19
HETATM   19  C3  UNL     1      16.899   4.116  15.400  1.00  0.00     0.128 C 
BRANCH  19  20
HETATM   20  N1  UNL     1      15.519   3.944  15.812  1.00  0.00    -0.361 N 
HETATM   21  C2  UNL     1      15.102   2.950  16.718  1.00  0.00     0.213 C 
HETATM   22  C1  UNL     1      13.686   2.800  17.120  1.00  0.00     0.117 C 
HETATM   23  O1  UNL     1      15.988   2.172  17.188  1.00  0.00    -0.274 OA
ATOM     24  H1  UNL     1      14.817   4.573  15.427  1.00  0.00     0.162 HD
ENDBRANCH  19  20
ENDBRANCH   1  19
TORSDOF 2
ENDMDL
MODEL 2
REMARK VINA RESULT: -6.718624262      1.585      2.089
REMARK  2 active torsions:
REMARK  status: ('A' for Active; 'I' for Inactive)
REMARK       I    between atoms: C2_2  and  N1_4 
REMARK    1  A    between atoms: N1_4  and  C3_6 
REMARK    2  A    between atoms: C3_6  and  C4_7 
ROOT
HETATM    1  C4  UNL     1      16.734   3.933  12.836  1.00  0.00     0.012 C 
HETATM    2  C5  UNL     1      15.809   3.621  11.664  1.00  0.00     0.008 C 
HETATM    3  C6  UNL     1      16.808   4.316  10.761  1.00  0.00     0.010 C 
HETATM    4  C7  UNL     1      17.834   4.307  11.902  1.00  0.00    -0.035 C 
HETATM    5  C8  UNL     1      18.883   3.248  11.715  1.00  0.00     0.012 C 
HETATM    6  C9  UNL     1      19.848   3.590  10.639  1.00  0.00     0.037 C 
HETATM    7  C10 UNL     1      20.062   5.055  10.424  1.00  0.00     0.229 C 
HETATM    8  C11 UNL     1      19.801   5.859  11.665  1.00  0.00     0.048 C 
HETATM    9  C12 UNL     1      20.018   7.316  11.458  1.00  0.00     0.279 C 
HETATM   10  N2  UNL     1      20.976   7.675  10.479  1.00  0.00     0.097 N 
HETATM   11  C13 UNL     1      20.567   7.399   9.128  1.00  0.00     0.308 C 
HETATM   12  C14 UNL     1      21.335   6.147   8.692  1.00  0.00     0.252 C 
HETATM   13  C15 UNL     1      22.758   6.636   8.421  1.00  0.00     0.040 C 
HETATM   14  C16 UNL     1      23.142   7.638   9.510  1.00  0.00     0.040 C 
HETATM   15  C17 UNL     1      22.309   7.230  10.736  1.00  0.00     0.251 C 
HETATM   16  C18 UNL     1      22.365   5.695  10.739  1.00  0.00     0.309 C 
HETATM   17  N3  UNL     1      21.336   5.259   9.834  1.00  0.00     0.102 N 
HETATM   18  C19 UNL     1      18.375   5.669  12.109  1.00  0.00     0.018 C 
ENDROOT
BRANCH   1  19
HETATM   19  C3  UNL     1      16.944   2.713  13.672  1.00  0.00     0.128 C 
BRANCH  19  20
HETATM   20  N1  UNL     1      16.069   2.696  14.829  1.00  0.00    -0.361 N 
HETATM   21  C2  UNL     1      16.521   2.920  16.143  1.00  0.00     0.213 C 
HETATM   22  C1  UNL     1      15.603   2.896  17.303  1.00  0.00     0.117 C 
HETATM   23  O1  UNL     1      17.759   3.146  16.310  1.00  0.00    -0.274 OA
ATOM     24  H1  UNL     1      15.077   2.512  14.683  1.00  0.00     0.162 HD
ENDBRANCH  19  20
ENDBRANCH   1  19
TORSDOF 2
ENDMDL
MODEL 3
REMARK VINA RESULT: -6.572525533      3.053      3.995
REMARK  2 active torsions:
REMARK  status: ('A' for Active; 'I' for Inactive)
REMARK       I    between atoms: C2_2  and  N1_4 
REMARK    1  A    between atoms: N1_4  and  C3_6 
REMARK    2  A    between atoms: C3_6  and  C4_7 
ROOT
HETATM    1  C4  UNL     1      16.827   6.630  14.671  1.00  0.00     0.012 C 
HETATM    2  C5  UNL     1      15.763   6.729  13.582  1.00  0.00     0.008 C 
HETATM    3  C6  UNL     1      16.546   7.889  12.999  1.00  0.00     0.010 C 
HETATM    4  C7  UNL     1      17.732   7.534  13.905  1.00  0.00    -0.035 C 
HETATM    5  C8  UNL     1      18.829   6.833  13.156  1.00  0.00     0.012 C 
HETATM    6  C9  UNL     1      19.582   7.750  12.264  1.00  0.00     0.037 C 
HETATM    7  C10 UNL     1      19.629   9.175  12.716  1.00  0.00     0.229 C 
HETATM    8  C11 UNL     1      19.493   9.307  14.206  1.00  0.00     0.048 C 
HETATM    9  C12 UNL     1      19.545  10.722  14.662  1.00  0.00     0.279 C 
HETATM   10  N2  UNL     1      20.305  11.611  13.863  1.00  0.00     0.097 N 
HETATM   11  C13 UNL     1      19.718  11.895  12.581  1.00  0.00     0.308 C 
HETATM   12  C14 UNL     1      20.518  11.090  11.552  1.00  0.00     0.252 C 
HETATM   13  C15 UNL     1      21.832  11.853  11.394  1.00  0.00     0.040 C 
HETATM   14  C16 UNL     1      22.289  12.324  12.775  1.00  0.00     0.040 C 
HETATM   15  C17 UNL     1      21.696  11.302  13.757  1.00  0.00     0.251 C 
HETATM   16  C18 UNL     1      21.888   9.947  13.060  1.00  0.00     0.309 C 
HETATM   17  N3  UNL     1      20.774   9.803  12.161  1.00  0.00     0.102 N 
HETATM   18  C19 UNL     1      18.175   8.732  14.652  1.00  0.00     0.018 C 
ENDROOT
BRANCH   1  19
HETATM   19  C3  UNL     1      17.270   5.214  14.838  1.00  0.00     0.128 C 
BRANCH  19  20
HETATM   20  N1  UNL     1      16.234   4.391  15.431  1.00  0.00    -0.361 N 
HETATM   21  C2  UNL     1      16.504   3.258  16.223  1.00  0.00     0.213 C 
HETATM   22  C1  UNL     1      15.424   2.439  16.814  1.00  0.00     0.117 C 
HETATM   23  O1  UNL     1      17.722   2.952  16.417  1.00  0.00    -0.274 OA
ATOM     24  H1  UNL     1      15.261   4.645  15.267  1.00  0.00     0.162 HD
ENDBRANCH  19  20
ENDBRANCH   1  19
TORSDOF 2
ENDMDL
MODEL 4
REMARK VINA RESULT: -6.556375028      7.424      8.717
REMARK  2 active torsions:
REMARK  status: ('A' for Active; 'I' for Inactive)
REMARK       I    between atoms: C2_2  and  N1_4 
REMARK    1  A    between atoms: N1_4  and  C3_6 
REMARK    2  A    between atoms: C3_6  and  C4_7 
ROOT
HETATM    1  C4  UNL     1      15.559   8.938  10.546  1.00  0.00     0.012 C 
HETATM    2  C5  UNL     1      14.625   8.604  11.704  1.00  0.00     0.008 C 
HETATM    3  C6  UNL     1      13.591   9.504  11.059  1.00  0.00     0.010 C 
HETATM    4  C7  UNL     1      14.432   9.538   9.776  1.00  0.00    -0.035 C 
HETATM    5  C8  UNL     1      13.867   8.653   8.702  1.00  0.00     0.012 C 
HETATM    6  C9  UNL     1      12.634   9.215   8.096  1.00  0.00     0.037 C 
HETATM    7  C10 UNL     1      12.546  10.709   8.109  1.00  0.00     0.229 C 
HETATM    8  C11 UNL     1      13.899  11.360   8.124  1.00  0.00     0.048 C 
HETATM    9  C12 UNL     1      13.819  12.845   8.131  1.00  0.00     0.279 C 
HETATM   10  N2  UNL     1      12.681  13.414   7.508  1.00  0.00     0.097 N 
HETATM   11  C13 UNL     1      11.452  13.201   8.222  1.00  0.00     0.308 C 
HETATM   12  C14 UNL     1      10.694  12.109   7.462  1.00  0.00     0.252 C 
HETATM   13  C15 UNL     1      10.138  12.809   6.222  1.00  0.00     0.040 C 
HETATM   14  C16 UNL     1      11.207  13.758   5.680  1.00  0.00     0.040 C 
HETATM   15  C17 UNL     1      12.544  13.136   6.113  1.00  0.00     0.251 C 
HETATM   16  C18 UNL     1      12.353  11.628   5.889  1.00  0.00     0.309 C 
HETATM   17  N3  UNL     1      11.687  11.135   7.064  1.00  0.00     0.102 N 
HETATM   18  C19 UNL     1      14.657  10.939   9.354  1.00  0.00     0.018 C 
ENDROOT
BRANCH   1  19
HETATM   19  C3  UNL     1      16.167   7.691   9.992  1.00  0.00     0.128 C 
BRANCH  19  20
HETATM   20  N1  UNL     1      17.048   7.049  10.948  1.00  0.00    -0.361 N 
HETATM   21  C2  UNL     1      17.242   5.656  11.007  1.00  0.00     0.213 C 
HETATM   22  C1  UNL     1      18.148   5.031  11.996  1.00  0.00     0.117 C 
HETATM   23  O1  UNL     1      16.607   4.937  10.175  1.00  0.00    -0.274 OA
ATOM     24  H1  UNL     1      17.551   7.636  11.612  1.00  0.00     0.162 HD
ENDBRANCH  19  20
ENDBRANCH   1  19
TORSDOF 2
ENDMDL
MODEL 5
REMARK VINA RESULT: -6.534903871      1.593      1.901
REMARK  2 active torsions:
REMARK  status: ('A' for Active; 'I' for Inactive)
REMARK       I    between atoms: C2_2  and  N1_4 
REMARK    1  A    between atoms: N1_4  and  C3_6 
REMARK    2  A    between atoms: C3_6  and  C4_7 
ROOT
HETATM    1  C4  UNL     1      17.019   6.248  14.666  1.00  0.00     0.012 C 
HETATM    2  C5  UNL     1      15.527   6.564  14.708  1.00  0.00     0.008 C 
HETATM    3  C6  UNL     1      15.659   7.108  13.300  1.00  0.00     0.010 C 
HETATM    4  C7  UNL     1      17.052   6.475  13.193  1.00  0.00    -0.035 C 
HETATM    5  C8  UNL     1      17.045   5.220  12.367  1.00  0.00     0.012 C 
HETATM    6  C9  UNL     1      16.888   5.498  10.917  1.00  0.00     0.037 C 
HETATM    7  C10 UNL     1      17.425   6.819  10.464  1.00  0.00     0.229 C 
HETATM    8  C11 UNL     1      18.537   7.315  11.343  1.00  0.00     0.048 C 
HETATM    9  C12 UNL     1      19.079   8.626  10.894  1.00  0.00     0.279 C 
HETATM   10  N2  UNL     1      18.997   8.896   9.507  1.00  0.00     0.097 N 
HETATM   11  C13 UNL     1      17.659   9.124   9.030  1.00  0.00     0.308 C 
HETATM   12  C14 UNL     1      17.240   7.850   8.292  1.00  0.00     0.252 C 
HETATM   13  C15 UNL     1      17.986   7.905   6.960  1.00  0.00     0.040 C 
HETATM   14  C16 UNL     1      19.405   8.414   7.219  1.00  0.00     0.040 C 
HETATM   15  C17 UNL     1      19.717   7.994   8.664  1.00  0.00     0.251 C 
HETATM   16  C18 UNL     1      19.137   6.578   8.783  1.00  0.00     0.309 C 
HETATM   17  N3  UNL     1      17.740   6.746   9.083  1.00  0.00     0.102 N 
HETATM   18  C19 UNL     1      18.037   7.488  12.753  1.00  0.00     0.018 C 
ENDROOT
BRANCH   1  19
HETATM   19  C3  UNL     1      17.268   4.853  15.141  1.00  0.00     0.128 C 
BRANCH  19  20
HETATM   20  N1  UNL     1      16.110   4.297  15.813  1.00  0.00    -0.361 N 
HETATM   21  C2  UNL     1      16.136   3.078  16.516  1.00  0.00     0.213 C 
HETATM   22  C1  UNL     1      14.936   2.537  17.193  1.00  0.00     0.117 C 
HETATM   23  O1  UNL     1      17.235   2.443  16.554  1.00  0.00    -0.274 OA
ATOM     24  H1  UNL     1      15.233   4.816  15.775  1.00  0.00     0.162 HD
ENDBRANCH  19  20
ENDBRANCH   1  19
TORSDOF 2
ENDMDL
