MODEL 1
REMARK VINA RESULT: -6.941848640      0.000      0.000
REMARK  2 active torsions:
REMARK  status: ('A' for Active; 'I' for Inactive)
REMARK    1  A    between atoms: N2_13  and  C10_14 
REMARK    2  A    between atoms: C10_14  and  C11_15 
ROOT
HETATM    1  C1  UNL     1      22.148   7.403  11.126  1.00  0.00     0.010 C 
HETATM    2  C2  UNL     1      21.185   6.462  10.433  1.00  0.00    -0.019 C 
HETATM    3  C3  UNL     1      19.898   7.232  10.241  1.00  0.00     0.004 C 
HETATM    4  C4  UNL     1      18.804   6.400   9.664  1.00  0.00     0.004 C 
HETATM    5  C5  UNL     1      18.299   5.297  10.484  1.00  0.00     0.049 C 
HETATM    6  C6  UNL     1      18.447   5.404  11.977  1.00  0.00     0.105 C 
HETATM    7  C7  UNL     1      19.914   5.553  12.385  1.00  0.00     0.049 C 
HETATM    8  C8  UNL     1      20.892   5.239  11.318  1.00  0.00     0.008 C 
HETATM    9  N1  UNL     1      18.049   4.103  12.473  1.00  0.00    -0.319 N 
ATOM     10  H1  UNL     1      18.711   3.337  12.343  1.00  0.00     0.166 HD
HETATM   11  C9  UNL     1      16.831   3.794  13.121  1.00  0.00     0.334 C 
HETATM   12  O1  UNL     1      16.199   2.729  12.893  1.00  0.00    -0.246 OA
HETATM   13  N2  UNL     1      16.338   4.746  14.054  1.00  0.00    -0.214 N 
HETATM   14  S1  UNL     1      17.378   6.142  14.227  1.00  0.00     0.310 S 
HETATM   15  O2  UNL     1      18.591   5.701  14.988  1.00  0.00    -0.188 OA
HETATM   16  O3  UNL     1      16.670   7.269  14.881  1.00  0.00    -0.188 OA
HETATM   17  N3  UNL     1      17.772   6.509  12.560  1.00  0.00    -0.169 NA
HETATM   18  C14 UNL     1      16.616   6.996  11.939  1.00  0.00     0.133 C 
ENDROOT
BRANCH  13  19
HETATM   19  C10 UNL     1      15.130   4.579  14.765  1.00  0.00     0.152 C 
BRANCH  19  20
HETATM   20  C11 UNL     1      15.278   4.106  16.178  1.00  0.00     0.005 A 
HETATM   21  C12 UNL     1      15.526   2.664  16.408  1.00  0.00     0.007 A 
HETATM   22  C13 UNL     1      14.194   3.296  16.823  1.00  0.00     0.007 A 
ENDBRANCH  19  20
ENDBRANCH  13  19
TORSDOF 2
ENDMDL
MODEL 2
REMARK VINA RESULT: -6.843603726      2.244      3.414
REMARK  2 active torsions:
REMARK  status: ('A' for Active; 'I' for Inactive)
REMARK    1  A    between atoms: N2_13  and  C10_14 
REMARK    2  A    between atoms: C10_14  and  C11_15 
ROOT
HETATM    1  C1  UNL     1      19.485   8.572  10.517  1.00  0.00     0.010 C 
HETATM    2  C2  UNL     1      18.942   9.054  11.847  1.00  0.00    -0.019 C 
HETATM    3  C3  UNL     1      19.638   8.241  12.914  1.00  0.00     0.004 C 
HETATM    4  C4  UNL     1      19.127   8.524  14.285  1.00  0.00     0.004 C 
HETATM    5  C5  UNL     1      17.740   8.153  14.573  1.00  0.00     0.049 C 
HETATM    6  C6  UNL     1      17.125   7.046  13.761  1.00  0.00     0.105 C 
HETATM    7  C7  UNL     1      17.139   7.374  12.266  1.00  0.00     0.049 C 
HETATM    8  C8  UNL     1      17.430   8.788  11.942  1.00  0.00     0.008 C 
HETATM    9  N1  UNL     1      15.726   7.059  14.135  1.00  0.00    -0.319 N 
ATOM     10  H1  UNL     1      15.154   7.815  13.758  1.00  0.00     0.166 HD
HETATM   11  C9  UNL     1      15.078   6.123  14.974  1.00  0.00     0.334 C 
HETATM   12  O1  UNL     1      14.221   6.468  15.830  1.00  0.00    -0.246 OA
HETATM   13  N2  UNL     1      15.436   4.758  14.812  1.00  0.00    -0.214 N 
HETATM   14  S1  UNL     1      16.632   4.503  13.561  1.00  0.00     0.310 S 
HETATM   15  O2  UNL     1      15.946   4.704  12.243  1.00  0.00    -0.188 OA
HETATM   16  O3  UNL     1      17.265   3.167  13.678  1.00  0.00    -0.188 OA
HETATM   17  N3  UNL     1      17.775   5.790  13.885  1.00  0.00    -0.169 NA
HETATM   18  C14 UNL     1      18.437   5.489  15.081  1.00  0.00     0.133 C 
ENDROOT
BRANCH  13  19
HETATM   19  C10 UNL     1      14.882   3.716  15.588  1.00  0.00     0.152 C 
BRANCH  19  20
HETATM   20  C11 UNL     1      15.588   3.432  16.878  1.00  0.00     0.005 A 
HETATM   21  C12 UNL     1      15.169   2.243  17.655  1.00  0.00     0.007 A 
HETATM   22  C13 UNL     1      14.891   3.652  18.186  1.00  0.00     0.007 A 
ENDBRANCH  19  20
ENDBRANCH  13  19
TORSDOF 2
ENDMDL
MODEL 3
REMARK VINA RESULT: -6.831553520      1.852      3.295
REMARK  2 active torsions:
REMARK  status: ('A' for Active; 'I' for Inactive)
REMARK    1  A    between atoms: N2_13  and  C10_14 
REMARK    2  A    between atoms: C10_14  and  C11_15 
ROOT
HETATM    1  C1  UNL     1      19.623   6.942   6.708  1.00  0.00     0.010 C 
HETATM    2  C2  UNL     1      20.452   6.902   7.975  1.00  0.00    -0.019 C 
HETATM    3  C3  UNL     1      20.635   5.441   8.320  1.00  0.00     0.004 C 
HETATM    4  C4  UNL     1      21.345   5.235   9.615  1.00  0.00     0.004 C 
HETATM    5  C5  UNL     1      20.664   5.683  10.831  1.00  0.00     0.049 C 
HETATM    6  C6  UNL     1      19.162   5.761  10.808  1.00  0.00     0.105 C 
HETATM    7  C7  UNL     1      18.666   6.708   9.713  1.00  0.00     0.049 C 
HETATM    8  C8  UNL     1      19.707   7.586   9.132  1.00  0.00     0.008 C 
HETATM    9  N1  UNL     1      18.815   6.414  12.054  1.00  0.00    -0.319 N 
ATOM     10  H1  UNL     1      18.985   7.418  12.111  1.00  0.00     0.166 HD
HETATM   11  C9  UNL     1      18.264   5.791  13.197  1.00  0.00     0.334 C 
HETATM   12  O1  UNL     1      18.627   6.088  14.366  1.00  0.00    -0.246 OA
HETATM   13  N2  UNL     1      17.270   4.800  12.974  1.00  0.00    -0.214 N 
HETATM   14  S1  UNL     1      16.908   4.556  11.280  1.00  0.00     0.310 S 
HETATM   15  O2  UNL     1      16.132   5.751  10.814  1.00  0.00    -0.188 OA
HETATM   16  O3  UNL     1      16.185   3.281  11.056  1.00  0.00    -0.188 OA
HETATM   17  N3  UNL     1      18.509   4.522  10.569  1.00  0.00    -0.169 NA
HETATM   18  C14 UNL     1      19.138   3.340  10.977  1.00  0.00     0.133 C 
ENDROOT
BRANCH  13  19
HETATM   19  C10 UNL     1      16.641   4.086  14.017  1.00  0.00     0.152 C 
BRANCH  19  20
HETATM   20  C11 UNL     1      15.268   4.561  14.382  1.00  0.00     0.005 A 
HETATM   21  C12 UNL     1      15.139   5.876  15.049  1.00  0.00     0.007 A 
HETATM   22  C13 UNL     1      14.832   4.586  15.815  1.00  0.00     0.007 A 
ENDBRANCH  19  20
ENDBRANCH  13  19
TORSDOF 2
ENDMDL
MODEL 4
REMARK VINA RESULT: -6.787340744      1.921      6.236
REMARK  2 active torsions:
REMARK  status: ('A' for Active; 'I' for Inactive)
REMARK    1  A    between atoms: N2_13  and  C10_14 
REMARK    2  A    between atoms: C10_14  and  C11_15 
ROOT
HETATM    1  C1  UNL     1      14.426   3.240  16.164  1.00  0.00     0.010 C 
HETATM    2  C2  UNL     1      15.169   4.556  16.268  1.00  0.00    -0.019 C 
HETATM    3  C3  UNL     1      14.612   5.448  15.182  1.00  0.00     0.004 C 
HETATM    4  C4  UNL     1      15.323   6.754  15.082  1.00  0.00     0.004 C 
HETATM    5  C5  UNL     1      16.727   6.723  14.666  1.00  0.00     0.049 C 
HETATM    6  C6  UNL     1      17.189   5.557  13.836  1.00  0.00     0.105 C 
HETATM    7  C7  UNL     1      16.967   4.229  14.563  1.00  0.00     0.049 C 
HETATM    8  C8  UNL     1      16.670   4.352  16.008  1.00  0.00     0.008 C 
HETATM    9  N1  UNL     1      18.627   5.712  13.765  1.00  0.00    -0.319 N 
ATOM     10  H1  UNL     1      19.158   5.478  14.604  1.00  0.00     0.166 HD
HETATM   11  C9  UNL     1      19.364   6.156  12.643  1.00  0.00     0.334 C 
HETATM   12  O1  UNL     1      20.344   6.939  12.751  1.00  0.00    -0.246 OA
HETATM   13  N2  UNL     1      18.950   5.680  11.371  1.00  0.00    -0.214 N 
HETATM   14  S1  UNL     1      17.580   4.595  11.454  1.00  0.00     0.310 S 
HETATM   15  O2  UNL     1      18.073   3.298  12.021  1.00  0.00    -0.188 OA
HETATM   16  O3  UNL     1      16.934   4.432  10.129  1.00  0.00    -0.188 OA
HETATM   17  N3  UNL     1      16.530   5.424  12.585  1.00  0.00    -0.169 NA
HETATM   18  C14 UNL     1      16.040   6.575  11.956  1.00  0.00     0.133 C 
ENDROOT
BRANCH  13  19
HETATM   19  C10 UNL     1      19.582   6.048  10.163  1.00  0.00     0.152 C 
BRANCH  19  20
HETATM   20  C11 UNL     1      20.679   5.135   9.709  1.00  0.00     0.005 A 
HETATM   21  C12 UNL     1      22.077   5.526  10.001  1.00  0.00     0.007 A 
HETATM   22  C13 UNL     1      21.559   5.523   8.560  1.00  0.00     0.007 A 
ENDBRANCH  19  20
ENDBRANCH  13  19
TORSDOF 2
ENDMDL
MODEL 5
REMARK VINA RESULT: -6.677702194      2.277      2.808
REMARK  2 active torsions:
REMARK  status: ('A' for Active; 'I' for Inactive)
REMARK    1  A    between atoms: N2_13  and  C10_14 
REMARK    2  A    between atoms: C10_14  and  C11_15 
ROOT
HETATM    1  C1  UNL     1      19.152  10.826  12.823  1.00  0.00     0.010 C 
HETATM    2  C2  UNL     1      19.807   9.461  12.855  1.00  0.00    -0.019 C 
HETATM    3  C3  UNL     1      19.078   8.612  11.839  1.00  0.00     0.004 C 
HETATM    4  C4  UNL     1      19.539   7.194  11.830  1.00  0.00     0.004 C 
HETATM    5  C5  UNL     1      19.282   6.398  13.031  1.00  0.00     0.049 C 
HETATM    6  C6  UNL     1      18.129   6.802  13.910  1.00  0.00     0.105 C 
HETATM    7  C7  UNL     1      18.289   8.236  14.418  1.00  0.00     0.049 C 
HETATM    8  C8  UNL     1      19.640   8.813  14.240  1.00  0.00     0.008 C 
HETATM    9  N1  UNL     1      18.263   5.968  15.086  1.00  0.00    -0.319 N 
ATOM     10  H1  UNL     1      19.004   6.213  15.743  1.00  0.00     0.166 HD
HETATM   11  C9  UNL     1      17.464   4.848  15.411  1.00  0.00     0.334 C 
HETATM   12  O1  UNL     1      17.949   3.797  15.905  1.00  0.00    -0.246 OA
HETATM   13  N2  UNL     1      16.071   4.955  15.152  1.00  0.00    -0.214 N 
HETATM   14  S1  UNL     1      15.612   6.503  14.478  1.00  0.00     0.310 S 
HETATM   15  O2  UNL     1      15.705   7.513  15.582  1.00  0.00    -0.188 OA
HETATM   16  O3  UNL     1      14.263   6.450  13.863  1.00  0.00    -0.188 OA
HETATM   17  N3  UNL     1      16.859   6.758  13.275  1.00  0.00    -0.169 NA
HETATM   18  C14 UNL     1      16.655   5.840  12.239  1.00  0.00     0.133 C 
ENDROOT
BRANCH  13  19
HETATM   19  C10 UNL     1      15.153   3.913  15.412  1.00  0.00     0.152 C 
BRANCH  19  20
HETATM   20  C11 UNL     1      14.409   4.024  16.707  1.00  0.00     0.005 A 
HETATM   21  C12 UNL     1      14.992   3.376  17.904  1.00  0.00     0.007 A 
HETATM   22  C13 UNL     1      13.705   2.831  17.279  1.00  0.00     0.007 A 
ENDBRANCH  19  20
ENDBRANCH  13  19
TORSDOF 2
ENDMDL
