MODEL 1
REMARK VINA RESULT: -7.507923872      0.000      0.000
REMARK  2 active torsions:
REMARK  status: ('A' for Active; 'I' for Inactive)
REMARK    1  A    between atoms: C11_11  and  C12_12 
REMARK       I    between atoms: C12_12  and  N1_14 
REMARK    2  A    between atoms: N1_14  and  C13_16 
ROOT
HETATM    1  C1  UNL     1      17.537   8.357  11.908  1.00  0.00     0.012 C 
HETATM    2  C2  UNL     1      18.116   7.580  11.181  1.00  0.00    -0.111 C 
HETATM    3  C3  UNL     1      18.806   6.616  10.305  1.00  0.00     0.086 C 
HETATM    4  C4  UNL     1      20.017   7.323   9.747  1.00  0.00     0.003 C 
HETATM    5  C5  UNL     1      20.771   7.904  10.935  1.00  0.00     0.010 C 
HETATM    6  C6  UNL     1      21.129   6.794  11.879  1.00  0.00    -0.013 C 
HETATM    7  C7  UNL     1      22.077   5.866  11.123  1.00  0.00     0.009 C 
HETATM    8  C8  UNL     1      21.343   5.288   9.947  1.00  0.00    -0.013 C 
HETATM    9  C9  UNL     1      20.851   6.336   8.983  1.00  0.00     0.010 C 
HETATM   10  C10 UNL     1      20.160   4.513  10.469  1.00  0.00     0.025 C 
HETATM   11  C11 UNL     1      19.188   5.443  11.175  1.00  0.00     0.056 C 
HETATM   12  C17 UNL     1      19.946   6.011  12.363  1.00  0.00     0.025 C 
ENDROOT
BRANCH  11  13
HETATM   13  C12 UNL     1      17.978   4.724  11.562  1.00  0.00     0.228 C 
HETATM   14  O1  UNL     1      17.168   4.368  10.657  1.00  0.00    -0.273 OA
HETATM   15  N1  UNL     1      17.627   4.384  12.889  1.00  0.00    -0.355 N 
ATOM     16  H1  UNL     1      18.254   4.653  13.647  1.00  0.00     0.162 HD
BRANCH  15  17
HETATM   17  C13 UNL     1      16.421   3.675  13.209  1.00  0.00     0.099 C 
HETATM   18  C14 UNL     1      15.452   4.470  14.016  1.00  0.00     0.041 C 
HETATM   19  C15 UNL     1      15.795   4.395  15.451  1.00  0.00     0.142 C 
HETATM   20  S1  UNL     1      16.426   2.729  15.614  1.00  0.00     0.146 S 
HETATM   21  O2  UNL     1      15.414   1.804  16.193  1.00  0.00    -0.228 OA
HETATM   22  O3  UNL     1      17.704   2.683  16.362  1.00  0.00    -0.228 OA
HETATM   23  C16 UNL     1      16.662   2.361  13.891  1.00  0.00     0.165 C 
ENDBRANCH  15  17
ENDBRANCH  11  13
TORSDOF 2
ENDMDL
MODEL 2
REMARK VINA RESULT: -7.360202801      1.030      1.414
REMARK  2 active torsions:
REMARK  status: ('A' for Active; 'I' for Inactive)
REMARK    1  A    between atoms: C11_11  and  C12_12 
REMARK       I    between atoms: C12_12  and  N1_14 
REMARK    2  A    between atoms: N1_14  and  C13_16 
ROOT
HETATM    1  C1  UNL     1      17.930   8.234  14.462  1.00  0.00     0.012 C 
HETATM    2  C2  UNL     1      18.074   8.046  13.273  1.00  0.00    -0.111 C 
HETATM    3  C3  UNL     1      18.233   7.798  11.829  1.00  0.00     0.086 C 
HETATM    4  C4  UNL     1      19.325   8.720  11.346  1.00  0.00     0.003 C 
HETATM    5  C5  UNL     1      20.521   8.501  12.264  1.00  0.00     0.010 C 
HETATM    6  C6  UNL     1      20.917   7.054  12.217  1.00  0.00    -0.013 C 
HETATM    7  C7  UNL     1      21.360   6.769  10.784  1.00  0.00     0.009 C 
HETATM    8  C8  UNL     1      20.189   6.984   9.869  1.00  0.00    -0.013 C 
HETATM    9  C9  UNL     1      19.649   8.389   9.918  1.00  0.00     0.010 C 
HETATM   10  C10 UNL     1      19.096   6.028  10.277  1.00  0.00     0.025 C 
HETATM   11  C11 UNL     1      18.614   6.344  11.683  1.00  0.00     0.056 C 
HETATM   12  C17 UNL     1      19.810   6.115  12.592  1.00  0.00     0.025 C 
ENDROOT
BRANCH  11  13
HETATM   13  C12 UNL     1      17.466   5.514  12.032  1.00  0.00     0.228 C 
HETATM   14  O1  UNL     1      16.446   5.544  11.284  1.00  0.00    -0.273 OA
HETATM   15  N1  UNL     1      17.395   4.661  13.157  1.00  0.00    -0.355 N 
ATOM     16  H1  UNL     1      18.198   4.608  13.785  1.00  0.00     0.162 HD
BRANCH  15  17
HETATM   17  C13 UNL     1      16.236   3.866  13.450  1.00  0.00     0.099 C 
HETATM   18  C14 UNL     1      15.259   4.538  14.355  1.00  0.00     0.041 C 
HETATM   19  C15 UNL     1      15.657   4.354  15.766  1.00  0.00     0.142 C 
HETATM   20  S1  UNL     1      16.371   2.714  15.761  1.00  0.00     0.146 S 
HETATM   21  O2  UNL     1      15.426   1.693  16.286  1.00  0.00    -0.228 OA
HETATM   22  O3  UNL     1      17.675   2.668  16.461  1.00  0.00    -0.228 OA
HETATM   23  C16 UNL     1      16.564   2.511  14.005  1.00  0.00     0.165 C 
ENDBRANCH  15  17
ENDBRANCH  11  13
TORSDOF 2
ENDMDL
MODEL 3
REMARK VINA RESULT: -7.344954296      1.130      2.786
REMARK  2 active torsions:
REMARK  status: ('A' for Active; 'I' for Inactive)
REMARK    1  A    between atoms: C11_11  and  C12_12 
REMARK       I    between atoms: C12_12  and  N1_14 
REMARK    2  A    between atoms: N1_14  and  C13_16 
ROOT
HETATM    1  C1  UNL     1      20.271   4.405  10.931  1.00  0.00     0.012 C 
HETATM    2  C2  UNL     1      19.939   5.331  11.639  1.00  0.00    -0.111 C 
HETATM    3  C3  UNL     1      19.515   6.446  12.504  1.00  0.00     0.086 C 
HETATM    4  C4  UNL     1      20.573   7.515  12.388  1.00  0.00     0.003 C 
HETATM    5  C5  UNL     1      20.773   7.775  10.901  1.00  0.00     0.010 C 
HETATM    6  C6  UNL     1      19.463   8.186  10.295  1.00  0.00    -0.013 C 
HETATM    7  C7  UNL     1      19.068   9.503  10.958  1.00  0.00     0.009 C 
HETATM    8  C8  UNL     1      18.871   9.259  12.426  1.00  0.00    -0.013 C 
HETATM    9  C9  UNL     1      20.108   8.746  13.113  1.00  0.00     0.010 C 
HETATM   10  C10 UNL     1      17.768   8.243  12.587  1.00  0.00     0.025 C 
HETATM   11  C11 UNL     1      18.180   6.914  11.976  1.00  0.00     0.056 C 
HETATM   12  C17 UNL     1      18.368   7.180  10.492  1.00  0.00     0.025 C 
ENDROOT
BRANCH  11  13
HETATM   13  C12 UNL     1      17.176   5.890  12.248  1.00  0.00     0.228 C 
HETATM   14  O1  UNL     1      16.443   5.492  11.296  1.00  0.00    -0.273 OA
HETATM   15  N1  UNL     1      16.948   5.292  13.508  1.00  0.00    -0.355 N 
ATOM     16  H1  UNL     1      17.519   5.586  14.301  1.00  0.00     0.162 HD
BRANCH  15  17
HETATM   17  C13 UNL     1      15.944   4.288  13.715  1.00  0.00     0.099 C 
HETATM   18  C14 UNL     1      14.935   4.650  14.751  1.00  0.00     0.041 C 
HETATM   19  C15 UNL     1      15.443   4.321  16.099  1.00  0.00     0.142 C 
HETATM   20  S1  UNL     1      16.396   2.836  15.805  1.00  0.00     0.146 S 
HETATM   21  O2  UNL     1      15.651   1.609  16.196  1.00  0.00    -0.228 OA
HETATM   22  O3  UNL     1      17.733   2.893  16.439  1.00  0.00    -0.228 OA
HETATM   23  C16 UNL     1      16.507   2.934  14.034  1.00  0.00     0.165 C 
ENDBRANCH  15  17
ENDBRANCH  11  13
TORSDOF 2
ENDMDL
MODEL 4
REMARK VINA RESULT: -7.121370642      1.685      2.343
REMARK  2 active torsions:
REMARK  status: ('A' for Active; 'I' for Inactive)
REMARK    1  A    between atoms: C11_11  and  C12_12 
REMARK       I    between atoms: C12_12  and  N1_14 
REMARK    2  A    between atoms: N1_14  and  C13_16 
ROOT
HETATM    1  C1  UNL     1      15.181   8.996  11.298  1.00  0.00     0.012 C 
HETATM    2  C2  UNL     1      16.278   8.503  11.143  1.00  0.00    -0.111 C 
HETATM    3  C3  UNL     1      17.602   7.883  10.962  1.00  0.00     0.086 C 
HETATM    4  C4  UNL     1      18.566   8.999  10.642  1.00  0.00     0.003 C 
HETATM    5  C5  UNL     1      18.392  10.053  11.726  1.00  0.00     0.010 C 
HETATM    6  C6  UNL     1      18.652   9.427  13.065  1.00  0.00    -0.013 C 
HETATM    7  C7  UNL     1      20.112   8.983  13.065  1.00  0.00     0.009 C 
HETATM    8  C8  UNL     1      20.296   7.944  11.996  1.00  0.00    -0.013 C 
HETATM    9  C9  UNL     1      19.963   8.447  10.617  1.00  0.00     0.010 C 
HETATM   10  C10 UNL     1      19.397   6.778  12.319  1.00  0.00     0.025 C 
HETATM   11  C11 UNL     1      17.939   7.203  12.267  1.00  0.00     0.056 C 
HETATM   12  C17 UNL     1      17.773   8.248  13.357  1.00  0.00     0.025 C 
ENDROOT
BRANCH  11  13
HETATM   13  C12 UNL     1      17.060   6.051  12.444  1.00  0.00     0.228 C 
HETATM   14  O1  UNL     1      16.556   5.510  11.417  1.00  0.00    -0.273 OA
HETATM   15  N1  UNL     1      16.718   5.476  13.689  1.00  0.00    -0.355 N 
ATOM     16  H1  UNL     1      17.105   5.883  14.541  1.00  0.00     0.162 HD
BRANCH  15  17
HETATM   17  C13 UNL     1      15.847   4.341  13.800  1.00  0.00     0.099 C 
HETATM   18  C14 UNL     1      14.793   4.492  14.844  1.00  0.00     0.041 C 
HETATM   19  C15 UNL     1      15.328   4.124  16.171  1.00  0.00     0.142 C 
HETATM   20  S1  UNL     1      16.463   2.797  15.780  1.00  0.00     0.146 S 
HETATM   21  O2  UNL     1      15.876   1.460  16.063  1.00  0.00    -0.228 OA
HETATM   22  O3  UNL     1      17.778   2.971  16.440  1.00  0.00    -0.228 OA
HETATM   23  C16 UNL     1      16.574   3.047  14.024  1.00  0.00     0.165 C 
ENDBRANCH  15  17
ENDBRANCH  11  13
TORSDOF 2
ENDMDL
MODEL 5
REMARK VINA RESULT: -7.062828966      1.815      3.055
REMARK  2 active torsions:
REMARK  status: ('A' for Active; 'I' for Inactive)
REMARK    1  A    between atoms: C11_11  and  C12_12 
REMARK       I    between atoms: C12_12  and  N1_14 
REMARK    2  A    between atoms: N1_14  and  C13_16 
ROOT
HETATM    1  C1  UNL     1      18.082   6.749   9.387  1.00  0.00     0.012 C 
HETATM    2  C2  UNL     1      18.515   6.935  10.504  1.00  0.00    -0.111 C 
HETATM    3  C3  UNL     1      19.022   7.147  11.872  1.00  0.00     0.086 C 
HETATM    4  C4  UNL     1      20.170   8.120  11.765  1.00  0.00     0.003 C 
HETATM    5  C5  UNL     1      19.657   9.319  10.978  1.00  0.00     0.010 C 
HETATM    6  C6  UNL     1      18.469   9.898  11.686  1.00  0.00    -0.013 C 
HETATM    7  C7  UNL     1      18.967  10.397  13.040  1.00  0.00     0.009 C 
HETATM    8  C8  UNL     1      19.477   9.223  13.825  1.00  0.00    -0.013 C 
HETATM    9  C9  UNL     1      20.614   8.507  13.146  1.00  0.00     0.010 C 
HETATM   10  C10 UNL     1      18.336   8.256  14.013  1.00  0.00     0.025 C 
HETATM   11  C11 UNL     1      17.873   7.715  12.671  1.00  0.00     0.056 C 
HETATM   12  C17 UNL     1      17.356   8.915  11.896  1.00  0.00     0.025 C 
ENDROOT
BRANCH  11  13
HETATM   13  C12 UNL     1      16.863   6.678  12.855  1.00  0.00     0.228 C 
HETATM   14  O1  UNL     1      15.731   6.831  12.311  1.00  0.00    -0.273 OA
HETATM   15  N1  UNL     1      17.045   5.493  13.604  1.00  0.00    -0.355 N 
ATOM     16  H1  UNL     1      17.945   5.332  14.058  1.00  0.00     0.162 HD
BRANCH  15  17
HETATM   17  C13 UNL     1      16.012   4.507  13.749  1.00  0.00     0.099 C 
HETATM   18  C14 UNL     1      15.012   4.835  14.805  1.00  0.00     0.041 C 
HETATM   19  C15 UNL     1      15.506   4.412  16.131  1.00  0.00     0.142 C 
HETATM   20  S1  UNL     1      16.418   2.921  15.750  1.00  0.00     0.146 S 
HETATM   21  O2  UNL     1      15.638   1.695  16.067  1.00  0.00    -0.228 OA
HETATM   22  O3  UNL     1      17.755   2.902  16.387  1.00  0.00    -0.228 OA
HETATM   23  C16 UNL     1      16.537   3.121  13.988  1.00  0.00     0.165 C 
ENDBRANCH  15  17
ENDBRANCH  11  13
TORSDOF 2
ENDMDL
