MODEL 1
REMARK VINA RESULT: -6.877450074      0.000      0.000
REMARK  2 active torsions:
REMARK  status: ('A' for Active; 'I' for Inactive)
REMARK       I    between atoms: N1_4  and  C4_5 
REMARK       I    between atoms: C4_5  and  N2_7 
REMARK    1  A    between atoms: N2_7  and  C5_9 
REMARK    2  A    between atoms: N3_12  and  C8_13 
ROOT
HETATM    1  C1  UNL     1      20.861   9.591  10.207  1.00  0.00     0.013 C 
HETATM    2  C2  UNL     1      20.182   8.215  10.146  1.00  0.00     0.015 A 
HETATM    3  C3  UNL     1      20.739   7.164  10.904  1.00  0.00     0.102 A 
HETATM    4  N1  UNL     1      20.449   5.801  11.086  1.00  0.00    -0.328 N 
HETATM    5  C4  UNL     1      19.346   5.384  11.862  1.00  0.00     0.319 C 
HETATM    6  O1  UNL     1      19.158   4.144  11.980  1.00  0.00    -0.247 OA
HETATM    7  N2  UNL     1      18.468   6.305  12.497  1.00  0.00    -0.337 N 
ATOM      8  H2  UNL     1      18.642   7.304  12.385  1.00  0.00     0.164 HD
HETATM    9  C14 UNL     1      21.372   4.907  10.417  1.00  0.00     0.128 C 
HETATM   10  C15 UNL     1      22.534   5.608   9.804  1.00  0.00     0.021 C 
HETATM   11  C16 UNL     1      22.198   6.897   9.056  1.00  0.00     0.013 C 
HETATM   12  C17 UNL     1      20.801   7.230   9.332  1.00  0.00    -0.018 A 
HETATM   13  C18 UNL     1      19.829   6.320   8.572  1.00  0.00     0.018 C 
ENDROOT
BRANCH   7  14
HETATM   14  C5  UNL     1      17.358   5.890  13.280  1.00  0.00     0.116 C 
HETATM   15  C6  UNL     1      16.138   6.777  13.164  1.00  0.00     0.057 C 
HETATM   16  C7  UNL     1      15.498   6.604  14.520  1.00  0.00     0.275 C 
HETATM   17  N3  UNL     1      16.337   5.757  15.323  1.00  0.00     0.095 N 
HETATM   18  C13 UNL     1      17.638   5.848  14.765  1.00  0.00     0.298 C 
BRANCH  17  19
HETATM   19  C8  UNL     1      15.765   4.460  15.424  1.00  0.00     0.227 C 
HETATM   20  C9  UNL     1      16.647   3.467  16.146  1.00  0.00     0.062 C 
HETATM   21  C10 UNL     1      15.918   2.143  16.184  1.00  0.00     0.169 C 
HETATM   22  O2  UNL     1      14.587   2.233  16.499  1.00  0.00    -0.391 OA
HETATM   23  C11 UNL     1      14.314   3.404  17.160  1.00  0.00     0.169 C 
HETATM   24  C12 UNL     1      14.460   4.550  16.179  1.00  0.00     0.062 C 
ENDBRANCH  17  19
ENDBRANCH   7  14
TORSDOF 2
ENDMDL
MODEL 2
REMARK VINA RESULT: -6.834107825      1.043      1.158
REMARK  2 active torsions:
REMARK  status: ('A' for Active; 'I' for Inactive)
REMARK       I    between atoms: N1_4  and  C4_5 
REMARK       I    between atoms: C4_5  and  N2_7 
REMARK    1  A    between atoms: N2_7  and  C5_9 
REMARK    2  A    between atoms: N3_12  and  C8_13 
ROOT
HETATM    1  C1  UNL     1      22.808   9.256  12.328  1.00  0.00     0.013 C 
HETATM    2  C2  UNL     1      21.742   8.418  11.606  1.00  0.00     0.015 A 
HETATM    3  C3  UNL     1      21.867   7.014  11.640  1.00  0.00     0.102 A 
HETATM    4  N1  UNL     1      21.149   5.934  11.096  1.00  0.00    -0.328 N 
HETATM    5  C4  UNL     1      19.900   5.544  11.626  1.00  0.00     0.319 C 
HETATM    6  O1  UNL     1      19.324   4.563  11.085  1.00  0.00    -0.247 OA
HETATM    7  N2  UNL     1      19.295   6.212  12.726  1.00  0.00    -0.337 N 
ATOM      8  H2  UNL     1      19.783   7.004  13.146  1.00  0.00     0.164 HD
HETATM    9  C14 UNL     1      21.809   5.291   9.977  1.00  0.00     0.128 C 
HETATM   10  C15 UNL     1      23.186   5.802   9.731  1.00  0.00     0.021 C 
HETATM   11  C16 UNL     1      23.344   7.319   9.813  1.00  0.00     0.013 C 
HETATM   12  C17 UNL     1      22.101   7.876  10.343  1.00  0.00    -0.018 A 
HETATM   13  C18 UNL     1      20.973   7.867   9.305  1.00  0.00     0.018 C 
ENDROOT
BRANCH   7  14
HETATM   14  C5  UNL     1      18.040   5.821  13.264  1.00  0.00     0.116 C 
HETATM   15  C6  UNL     1      16.858   6.604  12.735  1.00  0.00     0.057 C 
HETATM   16  C7  UNL     1      15.904   6.554  13.905  1.00  0.00     0.275 C 
HETATM   17  N3  UNL     1      16.545   5.868  14.994  1.00  0.00     0.095 N 
HETATM   18  C13 UNL     1      17.940   5.977  14.763  1.00  0.00     0.298 C 
BRANCH  17  19
HETATM   19  C8  UNL     1      16.011   4.557  15.124  1.00  0.00     0.227 C 
HETATM   20  C9  UNL     1      16.889   3.626  15.929  1.00  0.00     0.062 C 
HETATM   21  C10 UNL     1      16.203   2.280  15.990  1.00  0.00     0.169 C 
HETATM   22  O2  UNL     1      14.856   2.337  16.239  1.00  0.00    -0.391 OA
HETATM   23  C11 UNL     1      14.514   3.524  16.836  1.00  0.00     0.169 C 
HETATM   24  C12 UNL     1      14.670   4.633  15.814  1.00  0.00     0.062 C 
ENDBRANCH  17  19
ENDBRANCH   7  14
TORSDOF 2
ENDMDL
MODEL 3
REMARK VINA RESULT: -6.670437046      2.306      3.163
REMARK  2 active torsions:
REMARK  status: ('A' for Active; 'I' for Inactive)
REMARK       I    between atoms: N1_4  and  C4_5 
REMARK       I    between atoms: C4_5  and  N2_7 
REMARK    1  A    between atoms: N2_7  and  C5_9 
REMARK    2  A    between atoms: N3_12  and  C8_13 
ROOT
HETATM    1  C1  UNL     1      25.503   7.220  12.925  1.00  0.00     0.013 C 
HETATM    2  C2  UNL     1      24.279   7.492  12.038  1.00  0.00     0.015 A 
HETATM    3  C3  UNL     1      23.646   6.392  11.424  1.00  0.00     0.102 A 
HETATM    4  N1  UNL     1      22.562   6.226  10.545  1.00  0.00    -0.328 N 
HETATM    5  C4  UNL     1      21.230   6.372  10.988  1.00  0.00     0.319 C 
HETATM    6  O1  UNL     1      20.316   6.202  10.138  1.00  0.00    -0.247 OA
HETATM    7  N2  UNL     1      20.905   6.696  12.335  1.00  0.00    -0.337 N 
ATOM      8  H2  UNL     1      21.664   6.828  13.003  1.00  0.00     0.164 HD
HETATM    9  C14 UNL     1      22.948   5.900   9.186  1.00  0.00     0.128 C 
HETATM   10  C15 UNL     1      24.408   5.649   9.033  1.00  0.00     0.021 C 
HETATM   11  C16 UNL     1      25.320   6.631   9.766  1.00  0.00     0.013 C 
HETATM   12  C17 UNL     1      24.488   7.462  10.633  1.00  0.00    -0.018 A 
HETATM   13  C18 UNL     1      23.692   8.508   9.843  1.00  0.00     0.018 C 
ENDROOT
BRANCH   7  14
HETATM   14  C5  UNL     1      19.566   6.841  12.786  1.00  0.00     0.116 C 
HETATM   15  C6  UNL     1      18.997   8.235  12.630  1.00  0.00     0.057 C 
HETATM   16  C7  UNL     1      18.010   8.297  13.771  1.00  0.00     0.275 C 
HETATM   17  N3  UNL     1      18.093   7.073  14.520  1.00  0.00     0.095 N 
HETATM   18  C13 UNL     1      19.376   6.532  14.252  1.00  0.00     0.298 C 
BRANCH  17  19
HETATM   19  C8  UNL     1      16.970   6.249  14.231  1.00  0.00     0.227 C 
HETATM   20  C9  UNL     1      16.972   4.941  14.988  1.00  0.00     0.062 C 
HETATM   21  C10 UNL     1      15.731   4.175  14.591  1.00  0.00     0.169 C 
HETATM   22  O2  UNL     1      14.588   4.931  14.533  1.00  0.00    -0.391 OA
HETATM   23  C11 UNL     1      14.712   6.072  15.284  1.00  0.00     0.169 C 
HETATM   24  C12 UNL     1      15.705   6.989  14.596  1.00  0.00     0.062 C 
ENDBRANCH  17  19
ENDBRANCH   7  14
TORSDOF 2
ENDMDL
MODEL 4
REMARK VINA RESULT: -6.445344939      2.866      3.266
REMARK  2 active torsions:
REMARK  status: ('A' for Active; 'I' for Inactive)
REMARK       I    between atoms: N1_4  and  C4_5 
REMARK       I    between atoms: C4_5  and  N2_7 
REMARK    1  A    between atoms: N2_7  and  C5_9 
REMARK    2  A    between atoms: N3_12  and  C8_13 
ROOT
HETATM    1  C1  UNL     1      18.008  11.619  10.861  1.00  0.00     0.013 C 
HETATM    2  C2  UNL     1      17.070  10.429  10.611  1.00  0.00     0.015 A 
HETATM    3  C3  UNL     1      17.648   9.187  10.278  1.00  0.00     0.102 A 
HETATM    4  N1  UNL     1      17.156   7.911   9.952  1.00  0.00    -0.328 N 
HETATM    5  C4  UNL     1      16.611   7.062  10.940  1.00  0.00     0.319 C 
HETATM    6  O1  UNL     1      16.196   5.933  10.566  1.00  0.00    -0.247 OA
HETATM    7  N2  UNL     1      16.524   7.440  12.308  1.00  0.00    -0.337 N 
ATOM      8  H2  UNL     1      16.867   8.360  12.584  1.00  0.00     0.164 HD
HETATM    9  C14 UNL     1      17.266   7.577   8.546  1.00  0.00     0.128 C 
HETATM   10  C15 UNL     1      18.024   8.587   7.758  1.00  0.00     0.021 C 
HETATM   11  C16 UNL     1      17.690  10.045   8.071  1.00  0.00     0.013 C 
HETATM   12  C17 UNL     1      16.837  10.069   9.258  1.00  0.00    -0.018 A 
HETATM   13  C18 UNL     1      15.405   9.616   8.951  1.00  0.00     0.018 C 
ENDROOT
BRANCH   7  14
HETATM   14  C5  UNL     1      15.979   6.588  13.305  1.00  0.00     0.116 C 
HETATM   15  C6  UNL     1      14.699   7.093  13.934  1.00  0.00     0.057 C 
HETATM   16  C7  UNL     1      14.778   6.499  15.320  1.00  0.00     0.275 C 
HETATM   17  N3  UNL     1      16.025   5.796  15.451  1.00  0.00     0.095 N 
HETATM   18  C13 UNL     1      16.897   6.357  14.482  1.00  0.00     0.298 C 
BRANCH  17  19
HETATM   19  C8  UNL     1      15.802   4.394  15.386  1.00  0.00     0.227 C 
HETATM   20  C9  UNL     1      17.012   3.573  15.773  1.00  0.00     0.062 C 
HETATM   21  C10 UNL     1      16.634   2.113  15.665  1.00  0.00     0.169 C 
HETATM   22  O2  UNL     1      15.402   1.803  16.181  1.00  0.00    -0.391 OA
HETATM   23  C11 UNL     1      14.992   2.751  17.084  1.00  0.00     0.169 C 
HETATM   24  C12 UNL     1      14.679   4.026  16.326  1.00  0.00     0.062 C 
ENDBRANCH  17  19
ENDBRANCH   7  14
TORSDOF 2
ENDMDL
MODEL 5
REMARK VINA RESULT: -6.359487167      2.121      2.409
REMARK  2 active torsions:
REMARK  status: ('A' for Active; 'I' for Inactive)
REMARK       I    between atoms: N1_4  and  C4_5 
REMARK       I    between atoms: C4_5  and  N2_7 
REMARK    1  A    between atoms: N2_7  and  C5_9 
REMARK    2  A    between atoms: N3_12  and  C8_13 
ROOT
HETATM    1  C1  UNL     1      20.122  10.207  10.778  1.00  0.00     0.013 C 
HETATM    2  C2  UNL     1      18.787   9.481  10.553  1.00  0.00     0.015 A 
HETATM    3  C3  UNL     1      18.825   8.129  10.158  1.00  0.00     0.102 A 
HETATM    4  N1  UNL     1      17.865   7.156   9.829  1.00  0.00    -0.328 N 
HETATM    5  C4  UNL     1      17.076   6.539  10.826  1.00  0.00     0.319 C 
HETATM    6  O1  UNL     1      16.242   5.674  10.448  1.00  0.00    -0.247 OA
HETATM    7  N2  UNL     1      17.201   6.861  12.205  1.00  0.00    -0.337 N 
ATOM      8  H2  UNL     1      17.885   7.565  12.484  1.00  0.00     0.164 HD
HETATM    9  C14 UNL     1      17.777   6.868   8.412  1.00  0.00     0.128 C 
HETATM   10  C15 UNL     1      18.832   7.542   7.606  1.00  0.00     0.021 C 
HETATM   11  C16 UNL     1      19.101   9.001   7.973  1.00  0.00     0.013 C 
HETATM   12  C17 UNL     1      18.375   9.300   9.206  1.00  0.00    -0.018 A 
HETATM   13  C18 UNL     1      16.867   9.446   8.970  1.00  0.00     0.018 C 
ENDROOT
BRANCH   7  14
HETATM   14  C5  UNL     1      16.412   6.241  13.211  1.00  0.00     0.116 C 
HETATM   15  C6  UNL     1      15.170   7.012  13.600  1.00  0.00     0.057 C 
HETATM   16  C7  UNL     1      14.991   6.603  15.043  1.00  0.00     0.275 C 
HETATM   17  N3  UNL     1      16.081   5.745  15.419  1.00  0.00     0.095 N 
HETATM   18  C13 UNL     1      17.139   6.035  14.519  1.00  0.00     0.298 C 
BRANCH  17  19
HETATM   19  C8  UNL     1      15.639   4.396  15.485  1.00  0.00     0.227 C 
HETATM   20  C9  UNL     1      16.637   3.466  16.136  1.00  0.00     0.062 C 
HETATM   21  C10 UNL     1      16.039   2.078  16.144  1.00  0.00     0.169 C 
HETATM   22  O2  UNL     1      14.717   2.028  16.507  1.00  0.00    -0.391 OA
HETATM   23  C11 UNL     1      14.360   3.141  17.225  1.00  0.00     0.169 C 
HETATM   24  C12 UNL     1      14.361   4.332  16.287  1.00  0.00     0.062 C 
ENDBRANCH  17  19
ENDBRANCH   7  14
TORSDOF 2
ENDMDL
