MODEL 1
REMARK VINA RESULT: -7.531965350      0.000      0.000
REMARK  6 active torsions:
REMARK  status: ('A' for Active; 'I' for Inactive)
REMARK    1  A    between atoms: O1_2  and  C2_3 
REMARK    2  A    between atoms: C3_4  and  C4_5 
REMARK    3  A    between atoms: C4_5  and  O2_7 
REMARK    4  A    between atoms: C9_13  and  O3_14 
REMARK    5  A    between atoms: C10_16  and  C11_17 
REMARK    6  A    between atoms: C12_18  and  C13_19 
ROOT
HETATM    1  C2  UNL     1      16.372   5.624  14.785  1.00  0.00     0.165 C 
HETATM    2  C3  UNL     1      16.986   4.245  14.894  1.00  0.00     0.047 C 
HETATM    3  C6  UNL     1      16.691   3.402  13.695  1.00  0.00     0.040 C 
HETATM    4  C7  UNL     1      16.684   4.348  12.487  1.00  0.00     0.274 C 
HETATM    5  N1  UNL     1      17.622   5.394  12.762  1.00  0.00     0.103 N 
HETATM    6  C8  UNL     1      18.185   5.927  11.565  1.00  0.00     0.306 C 
HETATM    7  C9  UNL     1      17.218   6.778  10.791  1.00  0.00     0.162 C 
HETATM    8  C10 UNL     1      16.686   7.839  11.726  1.00  0.00     0.098 C 
HETATM    9  C18 UNL     1      16.000   7.230  12.914  1.00  0.00     0.064 C 
HETATM   10  C19 UNL     1      17.040   6.362  13.634  1.00  0.00     0.183 C 
HETATM   11  C20 UNL     1      18.081   7.305  14.197  1.00  0.00     0.052 C 
ENDROOT
BRANCH   8  12
HETATM   12  C11 UNL     1      15.675   8.664  11.037  1.00  0.00    -0.099 C 
HETATM   13  C12 UNL     1      14.848   9.334  10.455  1.00  0.00    -0.101 C 
BRANCH  13  14
HETATM   14  C13 UNL     1      13.852  10.134   9.732  1.00  0.00     0.068 C 
HETATM   15  C14 UNL     1      13.175   9.307   8.639  1.00  0.00     0.044 C 
HETATM   16  C15 UNL     1      12.057  10.187   8.086  1.00  0.00     0.233 C 
HETATM   17  N2  UNL     1      12.542  11.416   7.544  1.00  0.00    -0.075 N 
HETATM   18  C16 UNL     1      13.413  12.143   8.429  1.00  0.00     0.233 C 
ATOM     19  H22 UNL     1      12.998  11.257   6.645  1.00  0.00     0.277 HD
ATOM     20  H21 UNL     1      11.767  12.006   7.242  1.00  0.00     0.277 HD
HETATM   21  C17 UNL     1      14.519  11.299   8.993  1.00  0.00     0.044 C 
ENDBRANCH  13  14
ENDBRANCH   8  12
BRANCH   7  22
HETATM   22  O3  UNL     1      16.229   6.055  10.162  1.00  0.00    -0.393 OA
ATOM     23  H3  UNL     1      15.431   6.550  10.018  1.00  0.00     0.210 HD
ENDBRANCH   7  22
BRANCH   1  24
HETATM   24  O1  UNL     1      15.000   5.578  14.640  1.00  0.00    -0.388 OA
HETATM   25  C1  UNL     1      14.355   6.345  15.636  1.00  0.00     0.202 C 
ENDBRANCH   1  24
BRANCH   2  26
HETATM   26  C4  UNL     1      16.610   3.569  16.192  1.00  0.00     0.120 C 
HETATM   27  C5  UNL     1      15.269   2.910  16.130  1.00  0.00     0.040 C 
BRANCH  26  28
HETATM   28  O2  UNL     1      17.550   2.583  16.517  1.00  0.00    -0.395 OA
ATOM     29  H2  UNL     1      17.329   1.764  16.091  1.00  0.00     0.210 HD
ENDBRANCH  26  28
ENDBRANCH   2  26
TORSDOF 6
ENDMDL
MODEL 2
REMARK VINA RESULT: -7.301761977      0.780      1.241
REMARK  6 active torsions:
REMARK  status: ('A' for Active; 'I' for Inactive)
REMARK    1  A    between atoms: O1_2  and  C2_3 
REMARK    2  A    between atoms: C3_4  and  C4_5 
REMARK    3  A    between atoms: C4_5  and  O2_7 
REMARK    4  A    between atoms: C9_13  and  O3_14 
REMARK    5  A    between atoms: C10_16  and  C11_17 
REMARK    6  A    between atoms: C12_18  and  C13_19 
ROOT
HETATM    1  C2  UNL     1      16.595   5.423  14.608  1.00  0.00     0.165 C 
HETATM    2  C3  UNL     1      16.953   3.982  14.902  1.00  0.00     0.047 C 
HETATM    3  C6  UNL     1      16.552   3.066  13.791  1.00  0.00     0.040 C 
HETATM    4  C7  UNL     1      16.751   3.849  12.487  1.00  0.00     0.274 C 
HETATM    5  N1  UNL     1      17.850   4.743  12.692  1.00  0.00     0.103 N 
HETATM    6  C8  UNL     1      18.536   5.025  11.474  1.00  0.00     0.306 C 
HETATM    7  C9  UNL     1      17.760   5.931  10.560  1.00  0.00     0.162 C 
HETATM    8  C10 UNL     1      17.394   7.171  11.342  1.00  0.00     0.098 C 
HETATM    9  C18 UNL     1      16.573   6.835  12.553  1.00  0.00     0.064 C 
HETATM   10  C19 UNL     1      17.419   5.893  13.419  1.00  0.00     0.183 C 
HETATM   11  C20 UNL     1      18.592   6.704  13.927  1.00  0.00     0.052 C 
ENDROOT
BRANCH   8  12
HETATM   12  C11 UNL     1      16.567   8.070  10.513  1.00  0.00    -0.099 C 
HETATM   13  C12 UNL     1      15.881   8.793   9.822  1.00  0.00    -0.101 C 
BRANCH  13  14
HETATM   14  C13 UNL     1      15.044   9.652   8.976  1.00  0.00     0.068 C 
HETATM   15  C14 UNL     1      14.725  10.971   9.680  1.00  0.00     0.044 C 
HETATM   16  C15 UNL     1      14.006  11.831   8.644  1.00  0.00     0.233 C 
HETATM   17  N2  UNL     1      12.804  11.226   8.167  1.00  0.00    -0.075 N 
HETATM   18  C16 UNL     1      12.970   9.868   7.720  1.00  0.00     0.233 C 
ATOM     19  H22 UNL     1      12.069  11.283   8.871  1.00  0.00     0.277 HD
ATOM     20  H21 UNL     1      12.383  11.795   7.433  1.00  0.00     0.277 HD
HETATM   21  C17 UNL     1      13.681   9.001   8.718  1.00  0.00     0.044 C 
ENDBRANCH  13  14
ENDBRANCH   8  12
BRANCH   7  22
HETATM   22  O3  UNL     1      16.680   5.320   9.965  1.00  0.00    -0.393 OA
ATOM     23  H3  UNL     1      16.219   5.877   9.350  1.00  0.00     0.210 HD
ENDBRANCH   7  22
BRANCH   1  24
HETATM   24  O1  UNL     1      15.242   5.596  14.398  1.00  0.00    -0.388 OA
HETATM   25  C1  UNL     1      14.729   6.639  15.200  1.00  0.00     0.202 C 
ENDBRANCH   1  24
BRANCH   2  26
HETATM   26  C4  UNL     1      16.421   3.540  16.246  1.00  0.00     0.120 C 
HETATM   27  C5  UNL     1      14.988   3.118  16.188  1.00  0.00     0.040 C 
BRANCH  26  28
HETATM   28  O2  UNL     1      17.161   2.453  16.728  1.00  0.00    -0.395 OA
ATOM     29  H2  UNL     1      18.035   2.733  16.974  1.00  0.00     0.210 HD
ENDBRANCH  26  28
ENDBRANCH   2  26
TORSDOF 6
ENDMDL
MODEL 3
REMARK VINA RESULT: -7.127212723      0.982      1.093
REMARK  6 active torsions:
REMARK  status: ('A' for Active; 'I' for Inactive)
REMARK    1  A    between atoms: O1_2  and  C2_3 
REMARK    2  A    between atoms: C3_4  and  C4_5 
REMARK    3  A    between atoms: C4_5  and  O2_7 
REMARK    4  A    between atoms: C9_13  and  O3_14 
REMARK    5  A    between atoms: C10_16  and  C11_17 
REMARK    6  A    between atoms: C12_18  and  C13_19 
ROOT
HETATM    1  C2  UNL     1      16.637   5.536  14.331  1.00  0.00     0.165 C 
HETATM    2  C3  UNL     1      17.120   4.106  14.231  1.00  0.00     0.047 C 
HETATM    3  C6  UNL     1      16.757   3.480  12.922  1.00  0.00     0.040 C 
HETATM    4  C7  UNL     1      16.845   4.591  11.868  1.00  0.00     0.274 C 
HETATM    5  N1  UNL     1      17.874   5.494  12.287  1.00  0.00     0.103 N 
HETATM    6  C8  UNL     1      18.491   6.143  11.179  1.00  0.00     0.306 C 
HETATM    7  C9  UNL     1      17.612   7.185  10.545  1.00  0.00     0.162 C 
HETATM    8  C10 UNL     1      17.174   8.140  11.630  1.00  0.00     0.098 C 
HETATM    9  C18 UNL     1      16.426   7.429  12.720  1.00  0.00     0.064 C 
HETATM   10  C19 UNL     1      17.377   6.371  13.297  1.00  0.00     0.183 C 
HETATM   11  C20 UNL     1      18.497   7.121  13.985  1.00  0.00     0.052 C 
ENDROOT
BRANCH   8  12
HETATM   12  C11 UNL     1      16.247   9.148  11.078  1.00  0.00    -0.099 C 
HETATM   13  C12 UNL     1      15.500   9.984  10.617  1.00  0.00    -0.101 C 
BRANCH  13  14
HETATM   14  C13 UNL     1      14.612  11.006  10.048  1.00  0.00     0.068 C 
HETATM   15  C14 UNL     1      14.233  10.660   8.608  1.00  0.00     0.044 C 
HETATM   16  C15 UNL     1      13.186  11.692   8.196  1.00  0.00     0.233 C 
HETATM   17  N2  UNL     1      13.677  13.031   8.267  1.00  0.00    -0.075 N 
HETATM   18  C16 UNL     1      14.296  13.362   9.523  1.00  0.00     0.233 C 
ATOM     19  H22 UNL     1      14.314  13.221   7.494  1.00  0.00     0.277 HD
ATOM     20  H21 UNL     1      12.936  13.697   8.047  1.00  0.00     0.277 HD
HETATM   21  C17 UNL     1      15.326  12.359   9.956  1.00  0.00     0.044 C 
ENDBRANCH  13  14
ENDBRANCH   8  12
BRANCH   7  22
HETATM   22  O3  UNL     1      16.565   6.657   9.824  1.00  0.00    -0.393 OA
ATOM     23  H3  UNL     1      15.724   6.746  10.256  1.00  0.00     0.210 HD
ENDBRANCH   7  22
BRANCH   1  24
HETATM   24  O1  UNL     1      15.267   5.639  14.191  1.00  0.00    -0.388 OA
HETATM   25  C1  UNL     1      14.664   6.098  15.382  1.00  0.00     0.202 C 
ENDBRANCH   1  24
BRANCH   2  26
HETATM   26  C4  UNL     1      16.674   3.283  15.417  1.00  0.00     0.120 C 
HETATM   27  C5  UNL     1      16.461   1.844  15.072  1.00  0.00     0.040 C 
BRANCH  26  28
HETATM   28  O2  UNL     1      17.636   3.335  16.434  1.00  0.00    -0.395 OA
ATOM     29  H2  UNL     1      17.598   4.172  16.881  1.00  0.00     0.210 HD
ENDBRANCH  26  28
ENDBRANCH   2  26
TORSDOF 6
ENDMDL
MODEL 4
REMARK VINA RESULT: -6.510171331      3.703      7.586
REMARK  6 active torsions:
REMARK  status: ('A' for Active; 'I' for Inactive)
REMARK    1  A    between atoms: O1_2  and  C2_3 
REMARK    2  A    between atoms: C3_4  and  C4_5 
REMARK    3  A    between atoms: C4_5  and  O2_7 
REMARK    4  A    between atoms: C9_13  and  O3_14 
REMARK    5  A    between atoms: C10_16  and  C11_17 
REMARK    6  A    between atoms: C12_18  and  C13_19 
ROOT
HETATM    1  C2  UNL     1      19.876   5.585  10.097  1.00  0.00     0.165 C 
HETATM    2  C3  UNL     1      19.780   6.373   8.809  1.00  0.00     0.047 C 
HETATM    3  C6  UNL     1      18.371   6.753   8.486  1.00  0.00     0.040 C 
HETATM    4  C7  UNL     1      17.675   7.030   9.826  1.00  0.00     0.274 C 
HETATM    5  N1  UNL     1      18.666   7.549  10.719  1.00  0.00     0.103 N 
HETATM    6  C8  UNL     1      18.095   8.416  11.696  1.00  0.00     0.306 C 
HETATM    7  C9  UNL     1      17.305   7.682  12.742  1.00  0.00     0.162 C 
HETATM    8  C10 UNL     1      18.201   6.620  13.336  1.00  0.00     0.098 C 
HETATM    9  C18 UNL     1      18.686   5.661  12.288  1.00  0.00     0.064 C 
HETATM   10  C19 UNL     1      19.457   6.486  11.249  1.00  0.00     0.183 C 
HETATM   11  C20 UNL     1      20.699   7.005  11.940  1.00  0.00     0.052 C 
ENDROOT
BRANCH   8  12
HETATM   12  C11 UNL     1      17.454   5.817  14.323  1.00  0.00    -0.099 C 
HETATM   13  C12 UNL     1      16.828   5.152  15.121  1.00  0.00    -0.101 C 
BRANCH  13  14
HETATM   14  C13 UNL     1      16.058   4.340  16.072  1.00  0.00     0.068 C 
HETATM   15  C14 UNL     1      16.148   2.855  15.720  1.00  0.00     0.044 C 
HETATM   16  C15 UNL     1      15.460   2.116  16.865  1.00  0.00     0.233 C 
HETATM   17  N2  UNL     1      14.094   2.502  17.026  1.00  0.00    -0.075 N 
HETATM   18  C16 UNL     1      13.893   3.924  17.104  1.00  0.00     0.233 C 
ATOM     19  H22 UNL     1      13.518   2.099  16.287  1.00  0.00     0.277 HD
ATOM     20  H21 UNL     1      13.684   2.038  17.836  1.00  0.00     0.277 HD
HETATM   21  C17 UNL     1      14.565   4.677  15.992  1.00  0.00     0.044 C 
ENDBRANCH  13  14
ENDBRANCH   8  12
BRANCH   7  22
HETATM   22  O3  UNL     1      16.104   7.190  12.282  1.00  0.00    -0.393 OA
ATOM     23  H3  UNL     1      15.543   7.855  11.901  1.00  0.00     0.210 HD
ENDBRANCH   7  22
BRANCH   1  24
HETATM   24  O1  UNL     1      19.134   4.421  10.058  1.00  0.00    -0.388 OA
HETATM   25  C1  UNL     1      19.860   3.332  10.587  1.00  0.00     0.202 C 
ENDBRANCH   1  24
BRANCH   2  26
HETATM   26  C4  UNL     1      20.471   5.662   7.668  1.00  0.00     0.120 C 
HETATM   27  C5  UNL     1      20.839   6.587   6.552  1.00  0.00     0.040 C 
BRANCH  26  28
HETATM   28  O2  UNL     1      21.648   5.053   8.118  1.00  0.00    -0.395 OA
ATOM     29  H2  UNL     1      21.445   4.285   8.638  1.00  0.00     0.210 HD
ENDBRANCH  26  28
ENDBRANCH   2  26
TORSDOF 6
ENDMDL
MODEL 5
REMARK VINA RESULT: -6.475920507      3.719      6.215
REMARK  6 active torsions:
REMARK  status: ('A' for Active; 'I' for Inactive)
REMARK    1  A    between atoms: O1_2  and  C2_3 
REMARK    2  A    between atoms: C3_4  and  C4_5 
REMARK    3  A    between atoms: C4_5  and  O2_7 
REMARK    4  A    between atoms: C9_13  and  O3_14 
REMARK    5  A    between atoms: C10_16  and  C11_17 
REMARK    6  A    between atoms: C12_18  and  C13_19 
ROOT
HETATM    1  C2  UNL     1      17.764   4.377  11.363  1.00  0.00     0.165 C 
HETATM    2  C3  UNL     1      16.846   3.252  11.792  1.00  0.00     0.047 C 
HETATM    3  C6  UNL     1      16.812   3.091  13.278  1.00  0.00     0.040 C 
HETATM    4  C7  UNL     1      16.935   4.500  13.873  1.00  0.00     0.274 C 
HETATM    5  N1  UNL     1      16.309   5.404  12.956  1.00  0.00     0.103 N 
HETATM    6  C8  UNL     1      15.781   6.549  13.620  1.00  0.00     0.306 C 
HETATM    7  C9  UNL     1      16.847   7.502  14.082  1.00  0.00     0.162 C 
HETATM    8  C10 UNL     1      17.707   7.846  12.888  1.00  0.00     0.098 C 
HETATM    9  C18 UNL     1      18.335   6.620  12.292  1.00  0.00     0.064 C 
HETATM   10  C19 UNL     1      17.189   5.691  11.870  1.00  0.00     0.183 C 
HETATM   11  C20 UNL     1      16.466   6.380  10.733  1.00  0.00     0.052 C 
ENDROOT
BRANCH   8  12
HETATM   12  C11 UNL     1      18.818   8.726  13.298  1.00  0.00    -0.099 C 
HETATM   13  C12 UNL     1      19.721   9.465  13.631  1.00  0.00    -0.101 C 
BRANCH  13  14
HETATM   14  C13 UNL     1      20.800  10.375  14.034  1.00  0.00     0.068 C 
HETATM   15  C14 UNL     1      20.311  11.372  15.085  1.00  0.00     0.044 C 
HETATM   16  C15 UNL     1      21.551  12.136  15.539  1.00  0.00     0.233 C 
HETATM   17  N2  UNL     1      22.195  12.828  14.468  1.00  0.00    -0.075 N 
HETATM   18  C16 UNL     1      22.459  12.006  13.317  1.00  0.00     0.233 C 
ATOM     19  H22 UNL     1      21.660  13.654  14.202  1.00  0.00     0.277 HD
ATOM     20  H21 UNL     1      23.052  13.275  14.793  1.00  0.00     0.277 HD
HETATM   21  C17 UNL     1      21.257  11.237  12.851  1.00  0.00     0.044 C 
ENDBRANCH  13  14
ENDBRANCH   8  12
BRANCH   7  22
HETATM   22  O3  UNL     1      17.567   7.043  15.162  1.00  0.00    -0.393 OA
ATOM     23  H3  UNL     1      18.254   6.430  14.927  1.00  0.00     0.210 HD
ENDBRANCH   7  22
BRANCH   1  24
HETATM   24  O1  UNL     1      19.063   4.186  11.786  1.00  0.00    -0.388 OA
HETATM   25  C1  UNL     1      19.938   4.010  10.692  1.00  0.00     0.202 C 
ENDBRANCH   1  24
BRANCH   2  26
HETATM   26  C4  UNL     1      17.169   1.964  11.070  1.00  0.00     0.120 C 
HETATM   27  C5  UNL     1      16.907   0.754  11.907  1.00  0.00     0.040 C 
BRANCH  26  28
HETATM   28  O2  UNL     1      16.394   1.851   9.910  1.00  0.00    -0.395 OA
ATOM     29  H2  UNL     1      15.558   1.447  10.109  1.00  0.00     0.210 HD
ENDBRANCH  26  28
ENDBRANCH   2  26
TORSDOF 6
ENDMDL
