MODEL 1
REMARK VINA RESULT: -8.493221040      0.000      0.000
REMARK  3 active torsions:
REMARK  status: ('A' for Active; 'I' for Inactive)
REMARK    1  A    between atoms: C2_2  and  C4_4 
REMARK    2  A    between atoms: C11_11  and  C12_12 
REMARK       I    between atoms: C12_12  and  N1_14 
REMARK       I    between atoms: N1_14  and  C13_16 
REMARK    3  A    between atoms: C16_23  and  O3_24 
ROOT
HETATM    1  C4  UNL     1      15.702   4.401  16.512  1.00  0.00     0.077 C 
HETATM    2  C5  UNL     1      14.575   4.810  15.595  1.00  0.00     0.022 C 
HETATM    3  C6  UNL     1      14.920   5.321  14.257  1.00  0.00     0.029 C 
HETATM    4  C7  UNL     1      15.397   6.745  14.392  1.00  0.00     0.130 C 
HETATM    5  C8  UNL     1      15.776   7.448  13.158  1.00  0.00     0.037 C 
HETATM    6  C9  UNL     1      17.211   7.401  12.759  1.00  0.00     0.002 C 
HETATM    7  C10 UNL     1      17.826   8.807  12.903  1.00  0.00     0.011 C 
HETATM    8  C11 UNL     1      18.076   6.406  13.502  1.00  0.00     0.146 C 
HETATM    9  C15 UNL     1      17.202   5.551  14.333  1.00  0.00     0.250 C 
HETATM   10  N2  UNL     1      17.851   4.795  15.375  1.00  0.00    -0.008 N 
ATOM     11  H21 UNL     1      18.209   5.367  16.139  1.00  0.00     0.284 HD
ATOM     12  H22 UNL     1      18.748   4.396  15.099  1.00  0.00     0.284 HD
HETATM   13  C16 UNL     1      16.851   3.792  15.795  1.00  0.00     0.236 C 
HETATM   14  C17 UNL     1      16.389   3.305  14.463  1.00  0.00     0.084 C 
HETATM   15  C18 UNL     1      16.219   4.673  13.751  1.00  0.00     0.026 C 
HETATM   16  C19 UNL     1      16.057   4.372  12.341  1.00  0.00     0.021 C 
HETATM   17  O4  UNL     1      16.538   6.540  15.139  1.00  0.00    -0.347 OA
ENDROOT
BRANCH   8  18
HETATM   18  C12 UNL     1      19.093   5.735  12.705  1.00  0.00     0.233 C 
HETATM   19  O1  UNL     1      19.112   4.505  12.428  1.00  0.00    -0.273 OA
HETATM   20  N1  UNL     1      20.162   6.496  12.182  1.00  0.00    -0.297 N 
HETATM   21  C13 UNL     1      21.155   5.861  11.394  1.00  0.00     0.220 C 
ATOM     22  H1  UNL     1      20.221   7.497  12.371  1.00  0.00     0.171 HD
HETATM   23  C14 UNL     1      22.260   6.665  10.837  1.00  0.00     0.117 C 
HETATM   24  O2  UNL     1      21.121   4.636  11.154  1.00  0.00    -0.274 OA
ENDBRANCH   8  18
BRANCH  13  25
HETATM   25  O3  UNL     1      17.560   2.854  16.524  1.00  0.00    -0.364 OA
ATOM     26  H3  UNL     1      18.501   2.984  16.533  1.00  0.00     0.212 HD
ENDBRANCH  13  25
BRANCH   1  27
HETATM   27  C2  UNL     1      15.049   3.472  17.491  1.00  0.00    -0.084 C 
HETATM   28  C1  UNL     1      15.088   3.767  18.783  1.00  0.00     0.014 C 
HETATM   29  C3  UNL     1      14.299   2.263  17.064  1.00  0.00     0.043 C 
ENDBRANCH   1  27
TORSDOF 3
ENDMDL
MODEL 2
REMARK VINA RESULT: -8.413467362      1.129      1.334
REMARK  3 active torsions:
REMARK  status: ('A' for Active; 'I' for Inactive)
REMARK    1  A    between atoms: C2_2  and  C4_4 
REMARK    2  A    between atoms: C11_11  and  C12_12 
REMARK       I    between atoms: C12_12  and  N1_14 
REMARK       I    between atoms: N1_14  and  C13_16 
REMARK    3  A    between atoms: C16_23  and  O3_24 
ROOT
HETATM    1  C4  UNL     1      15.668   4.357  16.558  1.00  0.00     0.077 C 
HETATM    2  C5  UNL     1      14.545   4.821  15.662  1.00  0.00     0.022 C 
HETATM    3  C6  UNL     1      14.892   5.344  14.330  1.00  0.00     0.029 C 
HETATM    4  C7  UNL     1      15.421   6.748  14.483  1.00  0.00     0.130 C 
HETATM    5  C8  UNL     1      15.810   7.458  13.258  1.00  0.00     0.037 C 
HETATM    6  C9  UNL     1      17.238   7.367  12.839  1.00  0.00     0.002 C 
HETATM    7  C10 UNL     1      17.904   8.748  13.000  1.00  0.00     0.011 C 
HETATM    8  C11 UNL     1      18.076   6.330  13.554  1.00  0.00     0.146 C 
HETATM    9  C15 UNL     1      17.182   5.491  14.381  1.00  0.00     0.250 C 
HETATM   10  N2  UNL     1      17.815   4.695  15.401  1.00  0.00    -0.008 N 
ATOM     11  H21 UNL     1      18.202   5.240  16.171  1.00  0.00     0.284 HD
ATOM     12  H22 UNL     1      18.694   4.269  15.108  1.00  0.00     0.284 HD
HETATM   13  C16 UNL     1      16.785   3.720  15.816  1.00  0.00     0.236 C 
HETATM   14  C17 UNL     1      16.291   3.274  14.482  1.00  0.00     0.084 C 
HETATM   15  C18 UNL     1      16.161   4.659  13.796  1.00  0.00     0.026 C 
HETATM   16  C19 UNL     1      15.972   4.389  12.383  1.00  0.00     0.021 C 
HETATM   17  O4  UNL     1      16.563   6.488  15.212  1.00  0.00    -0.347 OA
ENDROOT
BRANCH   8  18
HETATM   18  C12 UNL     1      19.058   5.638  12.733  1.00  0.00     0.233 C 
HETATM   19  O1  UNL     1      20.229   6.042  12.496  1.00  0.00    -0.273 OA
HETATM   20  N1  UNL     1      18.703   4.407  12.136  1.00  0.00    -0.297 N 
HETATM   21  C13 UNL     1      19.652   3.713  11.343  1.00  0.00     0.220 C 
ATOM     22  H1  UNL     1      17.770   4.020  12.275  1.00  0.00     0.171 HD
HETATM   23  C14 UNL     1      19.280   2.420  10.737  1.00  0.00     0.117 C 
HETATM   24  O2  UNL     1      20.799   4.165  11.142  1.00  0.00    -0.274 OA
ENDBRANCH   8  18
BRANCH  13  25
HETATM   25  O3  UNL     1      17.470   2.745  16.520  1.00  0.00    -0.364 OA
ATOM     26  H3  UNL     1      18.412   2.752  16.399  1.00  0.00     0.212 HD
ENDBRANCH  13  25
BRANCH   1  27
HETATM   27  C2  UNL     1      14.993   3.434  17.528  1.00  0.00    -0.084 C 
HETATM   28  C1  UNL     1      15.173   3.623  18.829  1.00  0.00     0.014 C 
HETATM   29  C3  UNL     1      14.075   2.351  17.093  1.00  0.00     0.043 C 
ENDBRANCH   1  27
TORSDOF 3
ENDMDL
MODEL 3
REMARK VINA RESULT: -7.955913707      1.803      6.014
REMARK  3 active torsions:
REMARK  status: ('A' for Active; 'I' for Inactive)
REMARK    1  A    between atoms: C2_2  and  C4_4 
REMARK    2  A    between atoms: C11_11  and  C12_12 
REMARK       I    between atoms: C12_12  and  N1_14 
REMARK       I    between atoms: N1_14  and  C13_16 
REMARK    3  A    between atoms: C16_23  and  O3_24 
ROOT
HETATM    1  C4  UNL     1      19.004   7.605  12.752  1.00  0.00     0.077 C 
HETATM    2  C5  UNL     1      17.762   7.686  11.899  1.00  0.00     0.022 C 
HETATM    3  C6  UNL     1      16.688   6.709  12.144  1.00  0.00     0.029 C 
HETATM    4  C7  UNL     1      17.085   5.389  11.532  1.00  0.00     0.130 C 
HETATM    5  C8  UNL     1      16.133   4.277  11.652  1.00  0.00     0.037 C 
HETATM    6  C9  UNL     1      16.297   3.360  12.815  1.00  0.00     0.002 C 
HETATM    7  C10 UNL     1      16.754   1.976  12.312  1.00  0.00     0.011 C 
HETATM    8  C11 UNL     1      17.242   3.825  13.902  1.00  0.00     0.146 C 
HETATM    9  C15 UNL     1      17.627   5.225  13.622  1.00  0.00     0.250 C 
HETATM   10  N2  UNL     1      18.783   5.723  14.324  1.00  0.00    -0.008 N 
ATOM     11  H21 UNL     1      19.662   5.302  14.024  1.00  0.00     0.284 HD
ATOM     12  H22 UNL     1      18.837   5.423  15.297  1.00  0.00     0.284 HD
HETATM   13  C16 UNL     1      18.730   7.189  14.151  1.00  0.00     0.236 C 
HETATM   14  C17 UNL     1      17.294   7.441  14.460  1.00  0.00     0.084 C 
HETATM   15  C18 UNL     1      16.662   6.296  13.625  1.00  0.00     0.026 C 
HETATM   16  C19 UNL     1      15.277   6.209  14.050  1.00  0.00     0.021 C 
HETATM   17  O4  UNL     1      18.190   5.097  12.305  1.00  0.00    -0.347 OA
ENDROOT
BRANCH   8  18
HETATM   18  C12 UNL     1      16.841   3.510  15.265  1.00  0.00     0.233 C 
HETATM   19  O1  UNL     1      17.615   3.435  16.257  1.00  0.00    -0.273 OA
HETATM   20  N1  UNL     1      15.476   3.261  15.534  1.00  0.00    -0.297 N 
HETATM   21  C13 UNL     1      15.066   2.965  16.858  1.00  0.00     0.220 C 
ATOM     22  H1  UNL     1      14.790   3.295  14.780  1.00  0.00     0.171 HD
HETATM   23  C14 UNL     1      13.637   2.722  17.136  1.00  0.00     0.117 C 
HETATM   24  O2  UNL     1      15.882   2.903  17.802  1.00  0.00    -0.274 OA
ENDBRANCH   8  18
BRANCH  13  25
HETATM   25  O3  UNL     1      19.608   7.699  15.091  1.00  0.00    -0.364 OA
ATOM     26  H3  UNL     1      19.484   8.617  15.298  1.00  0.00     0.212 HD
ENDBRANCH  13  25
BRANCH   1  27
HETATM   27  C2  UNL     1      19.604   8.975  12.643  1.00  0.00    -0.084 C 
HETATM   28  C1  UNL     1      20.897   9.094  12.374  1.00  0.00     0.014 C 
HETATM   29  C3  UNL     1      18.791  10.213  12.759  1.00  0.00     0.043 C 
ENDBRANCH   1  27
TORSDOF 3
ENDMDL
MODEL 4
REMARK VINA RESULT: -7.926744040      2.001      6.165
REMARK  3 active torsions:
REMARK  status: ('A' for Active; 'I' for Inactive)
REMARK    1  A    between atoms: C2_2  and  C4_4 
REMARK    2  A    between atoms: C11_11  and  C12_12 
REMARK       I    between atoms: C12_12  and  N1_14 
REMARK       I    between atoms: N1_14  and  C13_16 
REMARK    3  A    between atoms: C16_23  and  O3_24 
ROOT
HETATM    1  C4  UNL     1      18.550   6.400  10.296  1.00  0.00     0.077 C 
HETATM    2  C5  UNL     1      18.973   7.560  11.164  1.00  0.00     0.022 C 
HETATM    3  C6  UNL     1      18.648   7.507  12.599  1.00  0.00     0.029 C 
HETATM    4  C7  UNL     1      17.187   7.838  12.777  1.00  0.00     0.130 C 
HETATM    5  C8  UNL     1      16.664   7.856  14.150  1.00  0.00     0.037 C 
HETATM    6  C9  UNL     1      16.055   6.596  14.666  1.00  0.00     0.002 C 
HETATM    7  C10 UNL     1      14.538   6.800  14.844  1.00  0.00     0.011 C 
HETATM    8  C11 UNL     1      16.291   5.354  13.834  1.00  0.00     0.146 C 
HETATM    9  C15 UNL     1      17.278   5.674  12.781  1.00  0.00     0.250 C 
HETATM   10  N2  UNL     1      17.363   4.746  11.681  1.00  0.00    -0.008 N 
ATOM     11  H21 UNL     1      16.544   4.749  11.073  1.00  0.00     0.284 HD
ATOM     12  H22 UNL     1      17.297   3.767  11.960  1.00  0.00     0.284 HD
HETATM   13  C16 UNL     1      18.623   5.090  10.991  1.00  0.00     0.236 C 
HETATM   14  C17 UNL     1      19.541   5.210  12.159  1.00  0.00     0.084 C 
HETATM   15  C18 UNL     1      18.633   6.051  13.095  1.00  0.00     0.026 C 
HETATM   16  C19 UNL     1      19.260   6.009  14.403  1.00  0.00     0.021 C 
HETATM   17  O4  UNL     1      16.623   6.767  12.115  1.00  0.00    -0.347 OA
ENDROOT
BRANCH   8  18
HETATM   18  C12 UNL     1      16.500   4.124  14.583  1.00  0.00     0.233 C 
HETATM   19  O1  UNL     1      17.272   3.185  14.249  1.00  0.00    -0.273 OA
HETATM   20  N1  UNL     1      15.792   3.932  15.791  1.00  0.00    -0.297 N 
HETATM   21  C13 UNL     1      15.992   2.745  16.539  1.00  0.00     0.220 C 
ATOM     22  H1  UNL     1      15.141   4.644  16.123  1.00  0.00     0.171 HD
HETATM   23  C14 UNL     1      15.262   2.558  17.809  1.00  0.00     0.117 C 
HETATM   24  O2  UNL     1      16.771   1.847  16.156  1.00  0.00    -0.274 OA
ENDBRANCH   8  18
BRANCH  13  25
HETATM   25  O3  UNL     1      18.894   4.010  10.169  1.00  0.00    -0.364 OA
ATOM     26  H3  UNL     1      19.262   3.254  10.611  1.00  0.00     0.212 HD
ENDBRANCH  13  25
BRANCH   1  27
HETATM   27  C2  UNL     1      19.456   6.496   9.105  1.00  0.00    -0.084 C 
HETATM   28  C1  UNL     1      18.923   6.663   7.902  1.00  0.00     0.014 C 
HETATM   29  C3  UNL     1      20.936   6.475   9.225  1.00  0.00     0.043 C 
ENDBRANCH   1  27
TORSDOF 3
ENDMDL
MODEL 5
REMARK VINA RESULT: -7.845591579      2.594      3.563
REMARK  3 active torsions:
REMARK  status: ('A' for Active; 'I' for Inactive)
REMARK    1  A    between atoms: C2_2  and  C4_4 
REMARK    2  A    between atoms: C11_11  and  C12_12 
REMARK       I    between atoms: C12_12  and  N1_14 
REMARK       I    between atoms: N1_14  and  C13_16 
REMARK    3  A    between atoms: C16_23  and  O3_24 
ROOT
HETATM    1  C4  UNL     1      16.973   4.502  14.602  1.00  0.00     0.077 C 
HETATM    2  C5  UNL     1      17.321   5.877  15.119  1.00  0.00     0.022 C 
HETATM    3  C6  UNL     1      17.835   6.869  14.160  1.00  0.00     0.029 C 
HETATM    4  C7  UNL     1      19.281   6.556  13.868  1.00  0.00     0.130 C 
HETATM    5  C8  UNL     1      19.989   7.448  12.939  1.00  0.00     0.037 C 
HETATM    6  C9  UNL     1      20.005   7.060  11.500  1.00  0.00     0.002 C 
HETATM    7  C10 UNL     1      21.439   6.669  11.094  1.00  0.00     0.011 C 
HETATM    8  C11 UNL     1      19.059   5.950  11.099  1.00  0.00     0.146 C 
HETATM    9  C15 UNL     1      18.171   5.651  12.243  1.00  0.00     0.250 C 
HETATM   10  N2  UNL     1      17.456   4.401  12.189  1.00  0.00    -0.008 N 
ATOM     11  H21 UNL     1      18.052   3.579  12.291  1.00  0.00     0.284 HD
ATOM     12  H22 UNL     1      17.097   4.170  11.263  1.00  0.00     0.284 HD
HETATM   13  C16 UNL     1      16.411   4.516  13.228  1.00  0.00     0.236 C 
HETATM   14  C17 UNL     1      15.891   5.881  12.929  1.00  0.00     0.084 C 
HETATM   15  C18 UNL     1      17.243   6.624  12.762  1.00  0.00     0.026 C 
HETATM   16  C19 UNL     1      16.921   7.911  12.172  1.00  0.00     0.021 C 
HETATM   17  O4  UNL     1      19.135   5.327  13.260  1.00  0.00    -0.347 OA
ENDROOT
BRANCH   8  18
HETATM   18  C12 UNL     1      18.428   6.098   9.795  1.00  0.00     0.233 C 
HETATM   19  O1  UNL     1      17.299   5.639   9.472  1.00  0.00    -0.273 OA
HETATM   20  N1  UNL     1      19.111   6.810   8.784  1.00  0.00    -0.297 N 
HETATM   21  C13 UNL     1      18.507   6.974   7.512  1.00  0.00     0.220 C 
ATOM     22  H1  UNL     1      20.034   7.204   8.967  1.00  0.00     0.171 HD
HETATM   23  C14 UNL     1      19.219   7.733   6.465  1.00  0.00     0.117 C 
HETATM   24  O2  UNL     1      17.384   6.493   7.249  1.00  0.00    -0.274 OA
ENDBRANCH   8  18
BRANCH  13  25
HETATM   25  O3  UNL     1      15.515   3.499  12.955  1.00  0.00    -0.364 OA
ATOM     26  H3  UNL     1      14.695   3.781  12.568  1.00  0.00     0.212 HD
ENDBRANCH  13  25
BRANCH   1  27
HETATM   27  C2  UNL     1      16.024   3.962  15.629  1.00  0.00    -0.084 C 
HETATM   28  C1  UNL     1      16.318   2.824  16.243  1.00  0.00     0.014 C 
HETATM   29  C3  UNL     1      14.794   4.687  16.037  1.00  0.00     0.043 C 
ENDBRANCH   1  27
TORSDOF 3
ENDMDL
