MODEL 1
REMARK VINA RESULT: -8.068819513      0.000      0.000
REMARK  5 active torsions:
REMARK  status: ('A' for Active; 'I' for Inactive)
REMARK    1  A    between atoms: C2_2  and  C4_4 
REMARK       I    between atoms: C4_4  and  N1_6 
REMARK    2  A    between atoms: N1_6  and  C5_8 
REMARK    3  A    between atoms: C6_13  and  C7_14 
REMARK       I    between atoms: C7_14  and  N4_16 
REMARK    4  A    between atoms: N4_16  and  C8_18 
REMARK    5  A    between atoms: C9_23  and  C10_24 
ROOT
HETATM    1  C7  UNL     1      16.812   3.475  12.337  1.00  0.00     0.295 C 
HETATM    2  O2  UNL     1      15.703   3.822  11.981  1.00  0.00    -0.265 OA
HETATM    3  N4  UNL     1      17.162   2.509  13.318  1.00  0.00    -0.152 N 
ATOM      4  H4  UNL     1      17.791   1.751  13.053  1.00  0.00     0.187 HD
ENDROOT
BRANCH   1   5
HETATM    5  C6  UNL     1      18.008   4.114  11.725  1.00  0.00     0.161 A 
HETATM    6  N3  UNL     1      19.257   3.634  11.826  1.00  0.00    -0.287 N 
HETATM    7  N2  UNL     1      20.248   4.290  11.409  1.00  0.00    -0.278 N 
ATOM      8  H3  UNL     1      19.408   2.719  12.251  1.00  0.00     0.188 HD
HETATM    9  C5  UNL     1      20.001   5.522  10.840  1.00  0.00     0.168 A 
ATOM     10  H2  UNL     1      21.197   3.924  11.488  1.00  0.00     0.189 HD
HETATM   11  S1  UNL     1      18.310   5.602  10.963  1.00  0.00    -0.028 SA
BRANCH   9  12
HETATM   12  N1  UNL     1      20.952   6.266  10.437  1.00  0.00    -0.306 N 
HETATM   13  C4  UNL     1      22.265   5.853  10.304  1.00  0.00     0.227 C 
HETATM   14  O1  UNL     1      22.621   5.015   9.405  1.00  0.00    -0.273 OA
ATOM     15  H1  UNL     1      20.731   7.232  10.196  1.00  0.00     0.171 HD
BRANCH  13  16
HETATM   16  C2  UNL     1      23.270   6.431  11.213  1.00  0.00     0.070 C 
HETATM   17  C1  UNL     1      22.696   7.619  11.897  1.00  0.00     0.019 C 
HETATM   18  C3  UNL     1      24.547   6.776  10.473  1.00  0.00     0.019 C 
ENDBRANCH  13  16
ENDBRANCH   9  12
ENDBRANCH   1   5
BRANCH   3  19
HETATM   19  C8  UNL     1      16.723   2.550  14.522  1.00  0.00     0.701 A 
HETATM   20  N5  UNL     1      16.800   1.574  15.453  1.00  0.00    -0.130 N 
HETATM   21  N6  UNL     1      16.011   1.955  16.438  1.00  0.00    -0.274 N 
ATOM     22  H5  UNL     1      17.354   0.718  15.405  1.00  0.00     0.205 HD
HETATM   23  C9  UNL     1      15.412   3.159  16.179  1.00  0.00     0.120 A 
ATOM     24  H6  UNL     1      15.864   1.418  17.292  1.00  0.00     0.189 HD
HETATM   25  N7  UNL     1      15.862   3.526  14.983  1.00  0.00    -0.177 N 
ATOM     26  H7  UNL     1      15.612   4.382  14.489  1.00  0.00     0.185 HD
BRANCH  23  27
HETATM   27  C10 UNL     1      14.451   3.763  17.126  1.00  0.00     0.009 C 
HETATM   28  C11 UNL     1      14.983   3.645  18.512  1.00  0.00     0.023 C 
HETATM   29  C12 UNL     1      14.112   5.150  16.722  1.00  0.00     0.023 C 
HETATM   30  C13 UNL     1      13.199   2.850  17.072  1.00  0.00     0.023 C 
ENDBRANCH  23  27
ENDBRANCH   3  19
TORSDOF 5
ENDMDL
MODEL 2
REMARK VINA RESULT: -7.869931771      0.690      1.192
REMARK  5 active torsions:
REMARK  status: ('A' for Active; 'I' for Inactive)
REMARK    1  A    between atoms: C2_2  and  C4_4 
REMARK       I    between atoms: C4_4  and  N1_6 
REMARK    2  A    between atoms: N1_6  and  C5_8 
REMARK    3  A    between atoms: C6_13  and  C7_14 
REMARK       I    between atoms: C7_14  and  N4_16 
REMARK    4  A    between atoms: N4_16  and  C8_18 
REMARK    5  A    between atoms: C9_23  and  C10_24 
ROOT
HETATM    1  C7  UNL     1      16.664   3.207  12.303  1.00  0.00     0.295 C 
HETATM    2  O2  UNL     1      15.525   3.469  11.974  1.00  0.00    -0.265 OA
HETATM    3  N4  UNL     1      17.107   2.321  13.322  1.00  0.00    -0.152 N 
ATOM      4  H4  UNL     1      17.768   1.585  13.075  1.00  0.00     0.187 HD
ENDROOT
BRANCH   1   5
HETATM    5  C6  UNL     1      17.797   3.875  11.608  1.00  0.00     0.161 A 
HETATM    6  N3  UNL     1      18.995   3.307  11.395  1.00  0.00    -0.287 N 
HETATM    7  N2  UNL     1      19.960   3.968  10.928  1.00  0.00    -0.278 N 
ATOM      8  H3  UNL     1      19.126   2.321  11.617  1.00  0.00     0.188 HD
HETATM    9  C5  UNL     1      19.739   5.298  10.640  1.00  0.00     0.168 A 
ATOM     10  H2  UNL     1      20.870   3.535  10.769  1.00  0.00     0.189 HD
HETATM   11  S1  UNL     1      18.107   5.458  11.079  1.00  0.00    -0.028 SA
BRANCH   9  12
HETATM   12  N1  UNL     1      20.676   6.045  10.209  1.00  0.00    -0.306 N 
HETATM   13  C4  UNL     1      21.706   5.614   9.394  1.00  0.00     0.227 C 
HETATM   14  O1  UNL     1      21.506   5.269   8.178  1.00  0.00    -0.273 OA
ATOM     15  H1  UNL     1      20.667   7.027  10.485  1.00  0.00     0.171 HD
BRANCH  13  16
HETATM   16  C2  UNL     1      23.070   5.590   9.951  1.00  0.00     0.070 C 
HETATM   17  C1  UNL     1      23.239   6.722  10.899  1.00  0.00     0.019 C 
HETATM   18  C3  UNL     1      24.114   5.621   8.853  1.00  0.00     0.019 C 
ENDBRANCH  13  16
ENDBRANCH   9  12
ENDBRANCH   1   5
BRANCH   3  19
HETATM   19  C8  UNL     1      16.711   2.408  14.539  1.00  0.00     0.701 A 
HETATM   20  N5  UNL     1      16.901   1.504  15.526  1.00  0.00    -0.130 N 
HETATM   21  N6  UNL     1      16.122   1.889  16.517  1.00  0.00    -0.274 N 
ATOM     22  H5  UNL     1      17.519   0.693  15.508  1.00  0.00     0.205 HD
HETATM   23  C9  UNL     1      15.419   3.023  16.209  1.00  0.00     0.120 A 
ATOM     24  H6  UNL     1      16.051   1.399  17.409  1.00  0.00     0.189 HD
HETATM   25  N7  UNL     1      15.793   3.342  14.973  1.00  0.00    -0.177 N 
ATOM     26  H7  UNL     1      15.458   4.142  14.437  1.00  0.00     0.185 HD
BRANCH  23  27
HETATM   27  C10 UNL     1      14.450   3.612  17.155  1.00  0.00     0.009 C 
HETATM   28  C11 UNL     1      13.154   2.886  17.050  1.00  0.00     0.023 C 
HETATM   29  C12 UNL     1      15.012   3.658  18.528  1.00  0.00     0.023 C 
HETATM   30  C13 UNL     1      14.179   5.044  16.621  1.00  0.00     0.023 C 
ENDBRANCH  23  27
ENDBRANCH   3  19
TORSDOF 5
ENDMDL
MODEL 3
REMARK VINA RESULT: -7.840607368      0.745      1.093
REMARK  5 active torsions:
REMARK  status: ('A' for Active; 'I' for Inactive)
REMARK    1  A    between atoms: C2_2  and  C4_4 
REMARK       I    between atoms: C4_4  and  N1_6 
REMARK    2  A    between atoms: N1_6  and  C5_8 
REMARK    3  A    between atoms: C6_13  and  C7_14 
REMARK       I    between atoms: C7_14  and  N4_16 
REMARK    4  A    between atoms: N4_16  and  C8_18 
REMARK    5  A    between atoms: C9_23  and  C10_24 
ROOT
HETATM    1  C7  UNL     1      16.791   3.451  12.301  1.00  0.00     0.295 C 
HETATM    2  O2  UNL     1      15.684   3.813  11.958  1.00  0.00    -0.265 OA
HETATM    3  N4  UNL     1      17.140   2.480  13.278  1.00  0.00    -0.152 N 
ATOM      4  H4  UNL     1      17.755   1.713  13.006  1.00  0.00     0.187 HD
ENDROOT
BRANCH   1   5
HETATM    5  C6  UNL     1      17.989   4.073  11.675  1.00  0.00     0.161 A 
HETATM    6  N3  UNL     1      19.251   3.664  11.883  1.00  0.00    -0.287 N 
HETATM    7  N2  UNL     1      20.233   4.315  11.439  1.00  0.00    -0.278 N 
ATOM      8  H3  UNL     1      19.417   2.809  12.413  1.00  0.00     0.188 HD
HETATM    9  C5  UNL     1      19.964   5.465  10.728  1.00  0.00     0.168 A 
ATOM     10  H2  UNL     1      21.191   4.003  11.600  1.00  0.00     0.189 HD
HETATM   11  S1  UNL     1      18.267   5.481  10.767  1.00  0.00    -0.028 SA
BRANCH   9  12
HETATM   12  N1  UNL     1      20.903   6.203  10.286  1.00  0.00    -0.306 N 
HETATM   13  C4  UNL     1      22.042   6.529  10.999  1.00  0.00     0.227 C 
HETATM   14  O1  UNL     1      22.938   5.659  11.276  1.00  0.00    -0.273 OA
ATOM     15  H1  UNL     1      20.809   6.579   9.343  1.00  0.00     0.171 HD
BRANCH  13  16
HETATM   16  C2  UNL     1      22.222   7.931  11.416  1.00  0.00     0.070 C 
HETATM   17  C1  UNL     1      23.516   8.075  12.131  1.00  0.00     0.019 C 
HETATM   18  C3  UNL     1      21.059   8.406  12.264  1.00  0.00     0.019 C 
ENDBRANCH  13  16
ENDBRANCH   9  12
ENDBRANCH   1   5
BRANCH   3  19
HETATM   19  C8  UNL     1      16.715   2.527  14.488  1.00  0.00     0.701 A 
HETATM   20  N5  UNL     1      16.802   1.555  15.422  1.00  0.00    -0.130 N 
HETATM   21  N6  UNL     1      16.026   1.943  16.415  1.00  0.00    -0.274 N 
ATOM     22  H5  UNL     1      17.354   0.699  15.371  1.00  0.00     0.205 HD
HETATM   23  C9  UNL     1      15.425   3.147  16.157  1.00  0.00     0.120 A 
ATOM     24  H6  UNL     1      15.889   1.410  17.273  1.00  0.00     0.189 HD
HETATM   25  N7  UNL     1      15.861   3.506  14.954  1.00  0.00    -0.177 N 
ATOM     26  H7  UNL     1      15.607   4.361  14.459  1.00  0.00     0.185 HD
BRANCH  23  27
HETATM   27  C10 UNL     1      14.477   3.756  17.112  1.00  0.00     0.009 C 
HETATM   28  C11 UNL     1      15.005   3.604  18.497  1.00  0.00     0.023 C 
HETATM   29  C12 UNL     1      14.169   5.157  16.731  1.00  0.00     0.023 C 
HETATM   30  C13 UNL     1      13.205   2.872  17.043  1.00  0.00     0.023 C 
ENDBRANCH  23  27
ENDBRANCH   3  19
TORSDOF 5
ENDMDL
MODEL 4
REMARK VINA RESULT: -7.750281158      2.014      2.390
REMARK  5 active torsions:
REMARK  status: ('A' for Active; 'I' for Inactive)
REMARK    1  A    between atoms: C2_2  and  C4_4 
REMARK       I    between atoms: C4_4  and  N1_6 
REMARK    2  A    between atoms: N1_6  and  C5_8 
REMARK    3  A    between atoms: C6_13  and  C7_14 
REMARK       I    between atoms: C7_14  and  N4_16 
REMARK    4  A    between atoms: N4_16  and  C8_18 
REMARK    5  A    between atoms: C9_23  and  C10_24 
ROOT
HETATM    1  C7  UNL     1      16.530   3.429  12.106  1.00  0.00     0.295 C 
HETATM    2  O2  UNL     1      15.360   3.385  11.783  1.00  0.00    -0.265 OA
HETATM    3  N4  UNL     1      17.188   2.711  13.140  1.00  0.00    -0.152 N 
ATOM      4  H4  UNL     1      18.014   2.161  12.902  1.00  0.00     0.187 HD
ENDROOT
BRANCH   1   5
HETATM    5  C6  UNL     1      17.452   4.346  11.384  1.00  0.00     0.161 A 
HETATM    6  N3  UNL     1      17.058   5.435  10.704  1.00  0.00    -0.287 N 
HETATM    7  N2  UNL     1      17.865   6.094   9.996  1.00  0.00    -0.278 N 
ATOM      8  H3  UNL     1      16.085   5.734  10.760  1.00  0.00     0.188 HD
HETATM    9  C5  UNL     1      19.171   5.656   9.948  1.00  0.00     0.168 A 
ATOM     10  H2  UNL     1      17.563   6.919   9.479  1.00  0.00     0.189 HD
HETATM   11  S1  UNL     1      19.098   4.303  10.970  1.00  0.00    -0.028 SA
BRANCH   9  12
HETATM   12  N1  UNL     1      20.037   6.240   9.219  1.00  0.00    -0.306 N 
HETATM   13  C4  UNL     1      20.072   6.169   7.838  1.00  0.00     0.227 C 
HETATM   14  O1  UNL     1      19.176   6.721   7.111  1.00  0.00    -0.273 OA
ATOM     15  H1  UNL     1      20.753   6.798   9.684  1.00  0.00     0.171 HD
BRANCH  13  16
HETATM   16  C2  UNL     1      21.199   5.459   7.209  1.00  0.00     0.070 C 
HETATM   17  C1  UNL     1      22.418   5.625   8.041  1.00  0.00     0.019 C 
HETATM   18  C3  UNL     1      21.424   5.935   5.788  1.00  0.00     0.019 C 
ENDBRANCH  13  16
ENDBRANCH   9  12
ENDBRANCH   1   5
BRANCH   3  19
HETATM   19  C8  UNL     1      16.789   2.723  14.359  1.00  0.00     0.701 A 
HETATM   20  N5  UNL     1      16.974   1.760  15.289  1.00  0.00    -0.130 N 
HETATM   21  N6  UNL     1      16.193   2.085  16.300  1.00  0.00    -0.274 N 
ATOM     22  H5  UNL     1      17.591   0.951  15.223  1.00  0.00     0.205 HD
HETATM   23  C9  UNL     1      15.493   3.237  16.059  1.00  0.00     0.120 A 
ATOM     24  H6  UNL     1      16.118   1.542  17.159  1.00  0.00     0.189 HD
HETATM   25  N7  UNL     1      15.871   3.631  14.847  1.00  0.00    -0.177 N 
ATOM     26  H7  UNL     1      15.539   4.463  14.360  1.00  0.00     0.185 HD
BRANCH  23  27
HETATM   27  C10 UNL     1      14.522   3.769  17.037  1.00  0.00     0.009 C 
HETATM   28  C11 UNL     1      15.059   3.588  18.414  1.00  0.00     0.023 C 
HETATM   29  C12 UNL     1      14.152   5.168  16.708  1.00  0.00     0.023 C 
HETATM   30  C13 UNL     1      13.288   2.834  16.936  1.00  0.00     0.023 C 
ENDBRANCH  23  27
ENDBRANCH   3  19
TORSDOF 5
ENDMDL
MODEL 5
REMARK VINA RESULT: -7.635698475      1.228      1.277
REMARK  5 active torsions:
REMARK  status: ('A' for Active; 'I' for Inactive)
REMARK    1  A    between atoms: C2_2  and  C4_4 
REMARK       I    between atoms: C4_4  and  N1_6 
REMARK    2  A    between atoms: N1_6  and  C5_8 
REMARK    3  A    between atoms: C6_13  and  C7_14 
REMARK       I    between atoms: C7_14  and  N4_16 
REMARK    4  A    between atoms: N4_16  and  C8_18 
REMARK    5  A    between atoms: C9_23  and  C10_24 
ROOT
HETATM    1  C7  UNL     1      17.284   4.215  12.481  1.00  0.00     0.295 C 
HETATM    2  O2  UNL     1      16.402   5.028  12.289  1.00  0.00    -0.265 OA
HETATM    3  N4  UNL     1      17.215   2.988  13.194  1.00  0.00    -0.152 N 
ATOM      4  H4  UNL     1      17.510   2.132  12.723  1.00  0.00     0.187 HD
ENDROOT
BRANCH   1   5
HETATM    5  C6  UNL     1      18.648   4.478  11.948  1.00  0.00     0.161 A 
HETATM    6  N3  UNL     1      19.567   5.240  12.563  1.00  0.00    -0.287 N 
HETATM    7  N2  UNL     1      20.651   5.542  11.999  1.00  0.00    -0.278 N 
ATOM      8  H3  UNL     1      19.383   5.581  13.506  1.00  0.00     0.188 HD
HETATM    9  C5  UNL     1      20.861   5.060  10.725  1.00  0.00     0.168 A 
ATOM     10  H2  UNL     1      21.348   6.122  12.468  1.00  0.00     0.189 HD
HETATM   11  S1  UNL     1      19.430   4.184  10.470  1.00  0.00    -0.028 SA
BRANCH   9  12
HETATM   12  N1  UNL     1      21.911   5.360  10.070  1.00  0.00    -0.306 N 
HETATM   13  C4  UNL     1      22.887   6.232  10.514  1.00  0.00     0.227 C 
HETATM   14  O1  UNL     1      23.656   5.943  11.495  1.00  0.00    -0.273 OA
ATOM     15  H1  UNL     1      22.042   4.927   9.155  1.00  0.00     0.171 HD
BRANCH  13  16
HETATM   16  C2  UNL     1      23.050   7.513   9.803  1.00  0.00     0.070 C 
HETATM   17  C1  UNL     1      22.294   8.576  10.516  1.00  0.00     0.019 C 
HETATM   18  C3  UNL     1      22.618   7.396   8.356  1.00  0.00     0.019 C 
ENDBRANCH  13  16
ENDBRANCH   9  12
ENDBRANCH   1   5
BRANCH   3  19
HETATM   19  C8  UNL     1      16.796   2.909  14.404  1.00  0.00     0.701 A 
HETATM   20  N5  UNL     1      16.956   1.874  15.258  1.00  0.00    -0.130 N 
HETATM   21  N6  UNL     1      16.162   2.127  16.279  1.00  0.00    -0.274 N 
ATOM     22  H5  UNL     1      17.565   1.064  15.137  1.00  0.00     0.205 HD
HETATM   23  C9  UNL     1      15.479   3.303  16.120  1.00  0.00     0.120 A 
ATOM     24  H6  UNL     1      16.068   1.518  17.092  1.00  0.00     0.189 HD
HETATM   25  N7  UNL     1      15.880   3.786  14.948  1.00  0.00    -0.177 N 
ATOM     26  H7  UNL     1      15.564   4.658  14.524  1.00  0.00     0.185 HD
BRANCH  23  27
HETATM   27  C10 UNL     1      14.498   3.768  17.122  1.00  0.00     0.009 C 
HETATM   28  C11 UNL     1      15.054   3.564  18.488  1.00  0.00     0.023 C 
HETATM   29  C12 UNL     1      14.073   5.161  16.840  1.00  0.00     0.023 C 
HETATM   30  C13 UNL     1      13.299   2.790  17.001  1.00  0.00     0.023 C 
ENDBRANCH  23  27
ENDBRANCH   3  19
TORSDOF 5
ENDMDL
