MODEL 1
REMARK VINA RESULT: -10.603054491      0.000      0.000
REMARK  6 active torsions:
REMARK  status: ('A' for Active; 'I' for Inactive)
REMARK    1  A    between atoms: O1_2  and  C2_3 
REMARK    2  A    between atoms: C3_5  and  O3_6 
REMARK    3  A    between atoms: O3_6  and  C4_7 
REMARK    4  A    between atoms: C20_23  and  O4_24 
REMARK    5  A    between atoms: C28_33  and  O5_34 
REMARK    6  A    between atoms: C29_36  and  O6_37 
ROOT
HETATM    1  C4  UNL     1     -11.419 -16.364  28.236  1.00  0.00     0.125 C 
HETATM    2  C5  UNL     1     -10.707 -15.571  27.140  1.00  0.00     0.033 C 
HETATM    3  C6  UNL     1     -10.991 -14.128  27.488  1.00  0.00     0.012 C 
HETATM    4  C7  UNL     1     -10.096 -13.786  28.696  1.00  0.00    -0.036 C 
HETATM    5  C8  UNL     1      -8.676 -13.832  28.094  1.00  0.00     0.016 C 
HETATM    6  C9  UNL     1     -10.160 -14.790  29.780  1.00  0.00    -0.004 C 
HETATM    7  C10 UNL     1     -10.959 -14.317  30.982  1.00  0.00     0.006 C 
HETATM    8  C11 UNL     1     -10.488 -12.992  31.500  1.00  0.00     0.006 C 
HETATM    9  C12 UNL     1      -9.861 -12.112  30.490  1.00  0.00     0.003 C 
HETATM   10  C13 UNL     1     -10.317 -12.368  29.078  1.00  0.00     0.002 C 
HETATM   11  C14 UNL     1     -11.713 -11.843  28.838  1.00  0.00     0.033 C 
HETATM   12  C15 UNL     1     -11.782 -10.410  29.323  1.00  0.00    -0.022 C 
HETATM   13  C16 UNL     1     -10.959  -9.918  30.198  1.00  0.00    -0.070 C 
HETATM   14  C17 UNL     1     -11.141  -8.470  30.587  1.00  0.00     0.026 C 
HETATM   15  C18 UNL     1     -12.023  -7.728  29.604  1.00  0.00     0.012 C 
HETATM   16  C19 UNL     1     -11.518  -6.293  29.678  1.00  0.00     0.033 C 
HETATM   17  C20 UNL     1     -10.019  -6.537  29.604  1.00  0.00     0.127 C 
HETATM   18  C21 UNL     1      -9.794  -7.750  30.528  1.00  0.00    -0.011 C 
HETATM   19  C22 UNL     1      -9.394  -7.153  31.851  1.00  0.00     0.018 C 
HETATM   20  C23 UNL     1      -8.767  -8.593  29.871  1.00  0.00     0.013 C 
HETATM   21  C24 UNL     1      -8.577  -9.969  30.391  1.00  0.00     0.015 C 
HETATM   22  C25 UNL     1      -9.866 -10.650  30.853  1.00  0.00    -0.016 C 
HETATM   23  C26 UNL     1      -9.878 -10.490  32.357  1.00  0.00     0.020 C 
HETATM   24  C27 UNL     1     -10.626 -16.157  29.480  1.00  0.00     0.037 C 
ENDROOT
BRANCH   1  25
HETATM   25  O3  UNL     1     -11.628 -17.664  27.892  1.00  0.00    -0.353 OA
BRANCH  25  26
HETATM   26  C3  UNL     1     -12.202 -17.857  26.644  1.00  0.00     0.294 C 
HETATM   27  O2  UNL     1     -11.736 -19.066  26.143  1.00  0.00    -0.326 OA
HETATM   28  C2  UNL     1     -12.735 -19.597  25.348  1.00  0.00     0.293 C 
HETATM   29  C29 UNL     1     -14.040 -19.052  25.806  1.00  0.00     0.206 C 
HETATM   30  C28 UNL     1     -13.685 -18.064  26.863  1.00  0.00     0.207 C 
BRANCH  28  31
HETATM   31  O1  UNL     1     -12.780 -20.970  25.332  1.00  0.00    -0.363 OA
HETATM   32  C1  UNL     1     -11.907 -21.559  26.240  1.00  0.00     0.204 C 
ENDBRANCH  28  31
BRANCH  29  33
HETATM   33  O6  UNL     1     -14.697 -18.462  24.718  1.00  0.00    -0.388 OA
ATOM     34  H6  UNL     1     -14.509 -17.531  24.710  1.00  0.00     0.210 HD
ENDBRANCH  29  33
BRANCH  30  35
HETATM   35  O5  UNL     1     -14.333 -16.847  26.655  1.00  0.00    -0.388 OA
ATOM     36  H5  UNL     1     -15.080 -16.999  26.088  1.00  0.00     0.210 HD
ENDBRANCH  30  35
ENDBRANCH  25  26
ENDBRANCH   1  25
BRANCH  17  37
HETATM   37  O4  UNL     1      -9.578  -6.766  28.326  1.00  0.00    -0.395 OA
ATOM     38  H4  UNL     1      -8.751  -7.233  28.298  1.00  0.00     0.210 HD
ENDBRANCH  17  37
TORSDOF 6
ENDMDL
MODEL 2
REMARK VINA RESULT: -10.142577874      4.909      8.210
REMARK  6 active torsions:
REMARK  status: ('A' for Active; 'I' for Inactive)
REMARK    1  A    between atoms: O1_2  and  C2_3 
REMARK    2  A    between atoms: C3_5  and  O3_6 
REMARK    3  A    between atoms: O3_6  and  C4_7 
REMARK    4  A    between atoms: C20_23  and  O4_24 
REMARK    5  A    between atoms: C28_33  and  O5_34 
REMARK    6  A    between atoms: C29_36  and  O6_37 
ROOT
HETATM    1  C4  UNL     1     -11.336  -8.182  28.547  1.00  0.00     0.125 C 
HETATM    2  C5  UNL     1     -12.790  -7.901  28.928  1.00  0.00     0.033 C 
HETATM    3  C6  UNL     1     -12.782  -7.917  30.439  1.00  0.00     0.012 C 
HETATM    4  C7  UNL     1     -12.124  -6.596  30.886  1.00  0.00    -0.036 C 
HETATM    5  C8  UNL     1     -13.157  -5.534  30.453  1.00  0.00     0.016 C 
HETATM    6  C9  UNL     1     -10.855  -6.303  30.185  1.00  0.00    -0.004 C 
HETATM    7  C10 UNL     1      -9.630  -6.527  31.055  1.00  0.00     0.006 C 
HETATM    8  C11 UNL     1      -9.710  -5.791  32.359  1.00  0.00     0.006 C 
HETATM    9  C12 UNL     1     -11.080  -5.549  32.859  1.00  0.00     0.003 C 
HETATM   10  C13 UNL     1     -12.101  -6.541  32.370  1.00  0.00     0.002 C 
HETATM   11  C14 UNL     1     -11.960  -7.876  33.064  1.00  0.00     0.033 C 
HETATM   12  C15 UNL     1     -11.905  -7.641  34.560  1.00  0.00    -0.022 C 
HETATM   13  C16 UNL     1     -11.560  -6.506  35.085  1.00  0.00    -0.070 C 
HETATM   14  C17 UNL     1     -11.553  -6.411  36.593  1.00  0.00     0.026 C 
HETATM   15  C18 UNL     1     -12.319  -7.550  37.233  1.00  0.00     0.012 C 
HETATM   16  C19 UNL     1     -12.837  -6.951  38.534  1.00  0.00     0.033 C 
HETATM   17  C20 UNL     1     -13.372  -5.625  38.018  1.00  0.00     0.127 C 
HETATM   18  C21 UNL     1     -12.291  -5.146  37.030  1.00  0.00    -0.011 C 
HETATM   19  C22 UNL     1     -11.425  -4.214  37.835  1.00  0.00     0.018 C 
HETATM   20  C23 UNL     1     -13.010  -4.527  35.890  1.00  0.00     0.013 C 
HETATM   21  C24 UNL     1     -12.230  -4.251  34.659  1.00  0.00     0.015 C 
HETATM   22  C25 UNL     1     -11.164  -5.301  34.342  1.00  0.00    -0.016 C 
HETATM   23  C26 UNL     1      -9.867  -4.709  34.843  1.00  0.00     0.020 C 
HETATM   24  C27 UNL     1     -10.572  -6.951  28.891  1.00  0.00     0.037 C 
ENDROOT
BRANCH   1  25
HETATM   25  O3  UNL     1     -11.204  -8.607  27.261  1.00  0.00    -0.353 OA
BRANCH  25  26
HETATM   26  C3  UNL     1     -10.087  -9.390  27.012  1.00  0.00     0.294 C 
HETATM   27  O2  UNL     1      -9.569  -9.795  28.236  1.00  0.00    -0.326 OA
HETATM   28  C2  UNL     1      -8.989 -11.036  28.049  1.00  0.00     0.293 C 
HETATM   29  C29 UNL     1      -9.643 -11.691  26.887  1.00  0.00     0.206 C 
HETATM   30  C28 UNL     1     -10.573 -10.660  26.348  1.00  0.00     0.207 C 
BRANCH  28  31
HETATM   31  O1  UNL     1      -9.045 -11.861  29.146  1.00  0.00    -0.363 OA
HETATM   32  C1  UNL     1     -10.174 -11.655  29.931  1.00  0.00     0.204 C 
ENDBRANCH  28  31
BRANCH  29  33
HETATM   33  O6  UNL     1      -8.661 -12.066  25.960  1.00  0.00    -0.388 OA
ATOM     34  H6  UNL     1      -7.930 -11.462  26.021  1.00  0.00     0.210 HD
ENDBRANCH  29  33
BRANCH  30  35
HETATM   35  O5  UNL     1     -10.425 -10.518  24.969  1.00  0.00    -0.388 OA
ATOM     36  H5  UNL     1     -10.742  -9.657  24.722  1.00  0.00     0.210 HD
ENDBRANCH  30  35
ENDBRANCH  25  26
ENDBRANCH   1  25
BRANCH  17  37
HETATM   37  O4  UNL     1     -14.605  -5.741  37.428  1.00  0.00    -0.395 OA
ATOM     38  H4  UNL     1     -14.684  -5.227  36.633  1.00  0.00     0.210 HD
ENDBRANCH  17  37
TORSDOF 6
ENDMDL
MODEL 3
REMARK VINA RESULT: -10.111464845      4.415      7.701
REMARK  6 active torsions:
REMARK  status: ('A' for Active; 'I' for Inactive)
REMARK    1  A    between atoms: O1_2  and  C2_3 
REMARK    2  A    between atoms: C3_5  and  O3_6 
REMARK    3  A    between atoms: O3_6  and  C4_7 
REMARK    4  A    between atoms: C20_23  and  O4_24 
REMARK    5  A    between atoms: C28_33  and  O5_34 
REMARK    6  A    between atoms: C29_36  and  O6_37 
ROOT
HETATM    1  C4  UNL     1     -11.640  -9.131  29.286  1.00  0.00     0.125 C 
HETATM    2  C5  UNL     1     -11.052  -7.819  28.769  1.00  0.00     0.033 C 
HETATM    3  C6  UNL     1     -11.754  -6.756  29.582  1.00  0.00     0.012 C 
HETATM    4  C7  UNL     1     -11.125  -6.798  30.989  1.00  0.00    -0.036 C 
HETATM    5  C8  UNL     1      -9.688  -6.296  30.739  1.00  0.00     0.016 C 
HETATM    6  C9  UNL     1     -11.034  -8.162  31.554  1.00  0.00    -0.004 C 
HETATM    7  C10 UNL     1     -12.061  -8.424  32.643  1.00  0.00     0.006 C 
HETATM    8  C11 UNL     1     -12.026  -7.388  33.726  1.00  0.00     0.006 C 
HETATM    9  C12 UNL     1     -11.553  -6.053  33.300  1.00  0.00     0.003 C 
HETATM   10  C13 UNL     1     -11.763  -5.760  31.838  1.00  0.00     0.002 C 
HETATM   11  C14 UNL     1     -13.214  -5.472  31.529  1.00  0.00     0.033 C 
HETATM   12  C15 UNL     1     -13.722  -4.434  32.508  1.00  0.00    -0.022 C 
HETATM   13  C16 UNL     1     -13.165  -4.216  33.659  1.00  0.00    -0.070 C 
HETATM   14  C17 UNL     1     -13.775  -3.145  34.535  1.00  0.00     0.026 C 
HETATM   15  C18 UNL     1     -14.709  -2.244  33.755  1.00  0.00     0.012 C 
HETATM   16  C19 UNL     1     -14.624  -0.913  34.490  1.00  0.00     0.033 C 
HETATM   17  C20 UNL     1     -13.117  -0.798  34.651  1.00  0.00     0.127 C 
HETATM   18  C21 UNL     1     -12.676  -2.219  35.052  1.00  0.00    -0.011 C 
HETATM   19  C22 UNL     1     -12.602  -2.185  36.556  1.00  0.00     0.018 C 
HETATM   20  C23 UNL     1     -11.392  -2.473  34.355  1.00  0.00     0.013 C 
HETATM   21  C24 UNL     1     -10.895  -3.870  34.324  1.00  0.00     0.015 C 
HETATM   22  C25 UNL     1     -11.994  -4.925  34.195  1.00  0.00    -0.016 C 
HETATM   23  C26 UNL     1     -12.217  -5.435  35.601  1.00  0.00     0.020 C 
HETATM   24  C27 UNL     1     -11.077  -9.328  30.651  1.00  0.00     0.037 C 
ENDROOT
BRANCH   1  25
HETATM   25  O3  UNL     1     -11.450 -10.168  28.426  1.00  0.00    -0.353 OA
BRANCH  25  26
HETATM   26  C3  UNL     1     -10.124 -10.484  28.171  1.00  0.00     0.294 C 
HETATM   27  O2  UNL     1      -9.870 -11.736  28.715  1.00  0.00    -0.326 OA
HETATM   28  C2  UNL     1      -8.909 -12.343  27.928  1.00  0.00     0.293 C 
HETATM   29  C29 UNL     1      -8.978 -11.755  26.564  1.00  0.00     0.206 C 
HETATM   30  C28 UNL     1      -9.990 -10.668  26.674  1.00  0.00     0.207 C 
BRANCH  28  31
HETATM   31  O1  UNL     1      -9.014 -13.711  27.855  1.00  0.00    -0.363 OA
HETATM   32  C1  UNL     1     -10.275 -14.145  27.462  1.00  0.00     0.204 C 
ENDBRANCH  28  31
BRANCH  29  33
HETATM   33  O6  UNL     1      -7.711 -11.276  26.208  1.00  0.00    -0.388 OA
ATOM     34  H6  UNL     1      -7.172 -11.214  26.988  1.00  0.00     0.210 HD
ENDBRANCH  29  33
BRANCH  30  35
HETATM   35  O5  UNL     1      -9.514  -9.477  26.126  1.00  0.00    -0.388 OA
ATOM     36  H5  UNL     1     -10.231  -8.854  26.097  1.00  0.00     0.210 HD
ENDBRANCH  30  35
ENDBRANCH  25  26
ENDBRANCH   1  25
BRANCH  17  37
HETATM   37  O4  UNL     1     -12.491  -0.359  33.512  1.00  0.00    -0.395 OA
ATOM     38  H4  UNL     1     -12.570   0.579  33.385  1.00  0.00     0.210 HD
ENDBRANCH  17  37
TORSDOF 6
ENDMDL
MODEL 4
REMARK VINA RESULT: -10.089815222      3.967     10.130
REMARK  6 active torsions:
REMARK  status: ('A' for Active; 'I' for Inactive)
REMARK    1  A    between atoms: O1_2  and  C2_3 
REMARK    2  A    between atoms: C3_5  and  O3_6 
REMARK    3  A    between atoms: O3_6  and  C4_7 
REMARK    4  A    between atoms: C20_23  and  O4_24 
REMARK    5  A    between atoms: C28_33  and  O5_34 
REMARK    6  A    between atoms: C29_36  and  O6_37 
ROOT
HETATM    1  C4  UNL     1     -13.427  -5.501  32.034  1.00  0.00     0.125 C 
HETATM    2  C5  UNL     1     -13.977  -6.824  32.568  1.00  0.00     0.033 C 
HETATM    3  C6  UNL     1     -13.425  -7.861  31.618  1.00  0.00     0.012 C 
HETATM    4  C7  UNL     1     -11.933  -8.025  31.970  1.00  0.00    -0.036 C 
HETATM    5  C8  UNL     1     -11.979  -8.677  33.369  1.00  0.00     0.016 C 
HETATM    6  C9  UNL     1     -11.211  -6.740  32.095  1.00  0.00    -0.004 C 
HETATM    7  C10 UNL     1     -10.299  -6.453  30.915  1.00  0.00     0.006 C 
HETATM    8  C11 UNL     1      -9.351  -7.580  30.635  1.00  0.00     0.006 C 
HETATM    9  C12 UNL     1      -9.832  -8.919  31.037  1.00  0.00     0.003 C 
HETATM   10  C13 UNL     1     -11.332  -9.050  31.079  1.00  0.00     0.002 C 
HETATM   11  C14 UNL     1     -11.924  -9.126  29.690  1.00  0.00     0.033 C 
HETATM   12  C15 UNL     1     -11.173 -10.178  28.900  1.00  0.00    -0.022 C 
HETATM   13  C16 UNL     1      -9.974 -10.568  29.203  1.00  0.00    -0.070 C 
HETATM   14  C17 UNL     1      -9.346 -11.629  28.330  1.00  0.00     0.026 C 
HETATM   15  C18 UNL     1     -10.375 -12.333  27.471  1.00  0.00     0.012 C 
HETATM   16  C19 UNL     1      -9.790 -13.727  27.276  1.00  0.00     0.033 C 
HETATM   17  C20 UNL     1      -9.379 -14.041  28.705  1.00  0.00     0.127 C 
HETATM   18  C21 UNL     1      -8.749 -12.728  29.208  1.00  0.00    -0.011 C 
HETATM   19  C22 UNL     1      -7.270 -12.908  28.992  1.00  0.00     0.018 C 
HETATM   20  C23 UNL     1      -9.174 -12.573  30.620  1.00  0.00     0.013 C 
HETATM   21  C24 UNL     1      -8.960 -11.251  31.258  1.00  0.00     0.015 C 
HETATM   22  C25 UNL     1      -9.162 -10.060  30.319  1.00  0.00    -0.016 C 
HETATM   23  C26 UNL     1      -7.770  -9.657  29.890  1.00  0.00     0.020 C 
HETATM   24  C27 UNL     1     -11.971  -5.501  32.347  1.00  0.00     0.037 C 
ENDROOT
BRANCH   1  25
HETATM   25  O3  UNL     1     -14.118  -4.422  32.491  1.00  0.00    -0.353 OA
BRANCH  25  26
HETATM   26  C3  UNL     1     -14.955  -3.823  31.562  1.00  0.00     0.294 C 
HETATM   27  O2  UNL     1     -14.924  -4.588  30.403  1.00  0.00    -0.326 OA
HETATM   28  C2  UNL     1     -16.162  -4.473  29.799  1.00  0.00     0.293 C 
HETATM   29  C29 UNL     1     -17.166  -4.137  30.842  1.00  0.00     0.206 C 
HETATM   30  C28 UNL     1     -16.369  -3.952  32.086  1.00  0.00     0.207 C 
BRANCH  28  31
HETATM   31  O1  UNL     1     -16.563  -5.588  29.104  1.00  0.00    -0.363 OA
HETATM   32  C1  UNL     1     -17.064  -5.298  27.840  1.00  0.00     0.204 C 
ENDBRANCH  28  31
BRANCH  29  33
HETATM   33  O6  UNL     1     -17.849  -2.973  30.463  1.00  0.00    -0.388 OA
ATOM     34  H6  UNL     1     -18.721  -3.207  30.168  1.00  0.00     0.210 HD
ENDBRANCH  29  33
BRANCH  30  35
HETATM   35  O5  UNL     1     -16.708  -2.764  32.732  1.00  0.00    -0.388 OA
ATOM     36  H5  UNL     1     -17.606  -2.549  32.509  1.00  0.00     0.210 HD
ENDBRANCH  30  35
ENDBRANCH  25  26
ENDBRANCH   1  25
BRANCH  17  37
HETATM   37  O4  UNL     1     -10.430 -14.449  29.485  1.00  0.00    -0.395 OA
ATOM     38  H4  UNL     1     -10.166 -15.034  30.185  1.00  0.00     0.210 HD
ENDBRANCH  17  37
TORSDOF 6
ENDMDL
MODEL 5
REMARK VINA RESULT: -10.042716211      4.169      7.238
REMARK  6 active torsions:
REMARK  status: ('A' for Active; 'I' for Inactive)
REMARK    1  A    between atoms: O1_2  and  C2_3 
REMARK    2  A    between atoms: C3_5  and  O3_6 
REMARK    3  A    between atoms: O3_6  and  C4_7 
REMARK    4  A    between atoms: C20_23  and  O4_24 
REMARK    5  A    between atoms: C28_33  and  O5_34 
REMARK    6  A    between atoms: C29_36  and  O6_37 
ROOT
HETATM    1  C4  UNL     1     -11.431  -9.120  28.856  1.00  0.00     0.125 C 
HETATM    2  C5  UNL     1     -10.873  -7.772  28.400  1.00  0.00     0.033 C 
HETATM    3  C6  UNL     1     -11.538  -6.771  29.316  1.00  0.00     0.012 C 
HETATM    4  C7  UNL     1     -10.842  -6.904  30.686  1.00  0.00    -0.036 C 
HETATM    5  C8  UNL     1      -9.420  -6.376  30.400  1.00  0.00     0.016 C 
HETATM    6  C9  UNL     1     -10.719  -8.302  31.152  1.00  0.00    -0.004 C 
HETATM    7  C10 UNL     1     -11.690  -8.644  32.269  1.00  0.00     0.006 C 
HETATM    8  C11 UNL     1     -11.607  -7.682  33.416  1.00  0.00     0.006 C 
HETATM    9  C12 UNL     1     -11.160  -6.319  33.060  1.00  0.00     0.003 C 
HETATM   10  C13 UNL     1     -11.441  -5.929  31.633  1.00  0.00     0.002 C 
HETATM   11  C14 UNL     1     -12.906  -5.631  31.414  1.00  0.00     0.033 C 
HETATM   12  C15 UNL     1     -13.370  -4.665  32.484  1.00  0.00    -0.022 C 
HETATM   13  C16 UNL     1     -12.759  -4.521  33.619  1.00  0.00    -0.070 C 
HETATM   14  C17 UNL     1     -13.329  -3.516  34.593  1.00  0.00     0.026 C 
HETATM   15  C18 UNL     1     -14.304  -2.571  33.922  1.00  0.00     0.012 C 
HETATM   16  C19 UNL     1     -14.187  -1.291  34.741  1.00  0.00     0.033 C 
HETATM   17  C20 UNL     1     -12.675  -1.177  34.836  1.00  0.00     0.127 C 
HETATM   18  C21 UNL     1     -12.209  -2.619  35.119  1.00  0.00    -0.011 C 
HETATM   19  C22 UNL     1     -12.063  -2.685  36.616  1.00  0.00     0.018 C 
HETATM   20  C23 UNL     1     -10.960  -2.816  34.345  1.00  0.00     0.013 C 
HETATM   21  C24 UNL     1     -10.460  -4.204  34.195  1.00  0.00     0.015 C 
HETATM   22  C25 UNL     1     -11.561  -5.256  34.049  1.00  0.00    -0.016 C 
HETATM   23  C26 UNL     1     -11.713  -5.861  35.426  1.00  0.00     0.020 C 
HETATM   24  C27 UNL     1     -10.801  -9.404  30.176  1.00  0.00     0.037 C 
ENDROOT
BRANCH   1  25
HETATM   25  O3  UNL     1     -11.278 -10.096  27.919  1.00  0.00    -0.353 OA
BRANCH  25  26
HETATM   26  C3  UNL     1     -10.470 -11.156  28.301  1.00  0.00     0.294 C 
HETATM   27  O2  UNL     1     -11.238 -12.313  28.264  1.00  0.00    -0.326 OA
HETATM   28  C2  UNL     1     -10.395 -13.359  27.939  1.00  0.00     0.293 C 
HETATM   29  C29 UNL     1      -9.234 -12.812  27.188  1.00  0.00     0.206 C 
HETATM   30  C28 UNL     1      -9.430 -11.336  27.216  1.00  0.00     0.207 C 
BRANCH  28  31
HETATM   31  O1  UNL     1     -10.988 -14.365  27.216  1.00  0.00    -0.363 OA
HETATM   32  C1  UNL     1     -11.000 -15.586  27.882  1.00  0.00     0.204 C 
ENDBRANCH  28  31
BRANCH  29  33
HETATM   33  O6  UNL     1      -8.050 -13.209  27.823  1.00  0.00    -0.388 OA
ATOM     34  H6  UNL     1      -7.676 -13.944  27.351  1.00  0.00     0.210 HD
ENDBRANCH  29  33
BRANCH  30  35
HETATM   35  O5  UNL     1      -8.266 -10.679  27.612  1.00  0.00    -0.388 OA
ATOM     36  H5  UNL     1      -8.033 -10.051  26.938  1.00  0.00     0.210 HD
ENDBRANCH  30  35
ENDBRANCH  25  26
ENDBRANCH   1  25
BRANCH  17  37
HETATM   37  O4  UNL     1     -12.106  -0.658  33.700  1.00  0.00    -0.395 OA
ATOM     38  H4  UNL     1     -12.527   0.142  33.409  1.00  0.00     0.210 HD
ENDBRANCH  17  37
TORSDOF 6
ENDMDL
