MODEL 1
REMARK VINA RESULT: -8.751529287      0.000      0.000
REMARK  8 active torsions:
REMARK  status: ('A' for Active; 'I' for Inactive)
REMARK    1  A    between atoms: C2_2  and  N1_3 
REMARK    2  A    between atoms: N1_3  and  C3_4 
REMARK    3  A    between atoms: C5_6  and  O1_7 
REMARK    4  A    between atoms: C5_6  and  C6_9 
REMARK    5  A    between atoms: C8_11  and  O2_12 
REMARK    6  A    between atoms: C21_27  and  O4_28 
REMARK    7  A    between atoms: C25_33  and  C27_35 
REMARK    8  A    between atoms: C27_35  and  O6_37 
ROOT
HETATM    1  C6  UNL     1     -10.740  -9.193  29.115  1.00  0.00     0.073 C 
HETATM    2  C7  UNL     1     -12.039  -9.457  29.844  1.00  0.00     0.029 C 
HETATM    3  C8  UNL     1     -11.053  -8.555  27.768  1.00  0.00     0.137 C 
HETATM    4  C9  UNL     1     -10.475  -9.099  26.552  1.00  0.00     0.034 C 
HETATM    5  C10 UNL     1      -9.644 -10.325  26.570  1.00  0.00     0.015 C 
HETATM    6  C11 UNL     1     -10.131 -11.242  27.726  1.00  0.00    -0.010 C 
HETATM    7  C12 UNL     1     -11.486 -11.569  27.269  1.00  0.00     0.018 C 
HETATM    8  C13 UNL     1      -9.882 -10.401  28.914  1.00  0.00     0.150 C 
HETATM    9  O3  UNL     1      -9.593 -11.125  30.067  1.00  0.00    -0.370 OA
HETATM   10  C14 UNL     1      -8.359 -11.755  30.007  1.00  0.00     0.093 C 
HETATM   11  C15 UNL     1      -7.303 -10.684  30.284  1.00  0.00     0.050 C 
HETATM   12  C16 UNL     1      -8.306 -12.756  31.136  1.00  0.00     0.024 C 
HETATM   13  C17 UNL     1      -8.804 -12.219  32.452  1.00  0.00     0.013 C 
HETATM   14  C18 UNL     1      -8.616 -14.148  30.798  1.00  0.00     0.010 C 
HETATM   15  C19 UNL     1      -7.542 -14.575  29.802  1.00  0.00     0.009 C 
HETATM   16  C20 UNL     1      -7.267 -13.619  28.718  1.00  0.00     0.042 C 
HETATM   17  C21 UNL     1      -8.061 -12.352  28.669  1.00  0.00     0.093 C 
HETATM   18  C22 UNL     1      -9.319 -12.510  27.815  1.00  0.00     0.034 C 
HETATM   19  C23 UNL     1     -10.039 -13.770  28.076  1.00  0.00     0.010 C 
HETATM   20  C24 UNL     1     -10.704 -14.069  29.327  1.00  0.00     0.020 C 
HETATM   21  C25 UNL     1      -9.956 -14.625  30.478  1.00  0.00     0.048 C 
HETATM   22  C26 UNL     1     -10.863 -14.327  31.715  1.00  0.00     0.026 C 
ENDROOT
BRANCH   1  23
HETATM   23  C5  UNL     1      -9.948  -8.197  29.870  1.00  0.00     0.127 C 
HETATM   24  N1  UNL     1     -10.196  -7.291  30.856  1.00  0.00    -0.365 N 
BRANCH  24  25
HETATM   25  C2  UNL     1     -11.428  -7.003  31.491  1.00  0.00     0.120 C 
HETATM   26  C1  UNL     1     -12.108  -5.857  30.730  1.00  0.00     0.026 C 
ENDBRANCH  24  25
BRANCH  24  27
HETATM   27  C3  UNL     1      -9.054  -6.474  31.360  1.00  0.00     0.120 C 
HETATM   28  C4  UNL     1      -9.229  -6.142  32.809  1.00  0.00     0.026 C 
ENDBRANCH  24  27
BRANCH  23  29
HETATM   29  O1  UNL     1      -8.663  -8.185  29.500  1.00  0.00    -0.349 OA
ATOM     30  H1  UNL     1      -8.097  -7.904  30.209  1.00  0.00     0.219 HD
ENDBRANCH  23  29
ENDBRANCH   1  23
BRANCH   3  31
HETATM   31  O2  UNL     1     -10.983  -7.156  27.773  1.00  0.00    -0.394 OA
ATOM     32  H2  UNL     1     -11.765  -6.730  27.444  1.00  0.00     0.210 HD
ENDBRANCH   3  31
BRANCH  17  33
HETATM   33  O4  UNL     1      -7.229 -11.505  27.927  1.00  0.00    -0.386 OA
ATOM     34  H4  UNL     1      -7.585 -11.367  27.057  1.00  0.00     0.210 HD
ENDBRANCH  17  33
BRANCH  21  35
HETATM   35  C27 UNL     1      -9.965 -16.125  30.499  1.00  0.00     0.267 C 
HETATM   36  O5  UNL     1     -10.389 -16.731  29.501  1.00  0.00    -0.264 OA
BRANCH  35  37
HETATM   37  O6  UNL     1      -9.526 -16.882  31.565  1.00  0.00    -0.326 OA
HETATM   38  C28 UNL     1     -10.241 -18.049  31.916  1.00  0.00     0.213 C 
ENDBRANCH  35  37
ENDBRANCH  21  35
TORSDOF 8
ENDMDL
MODEL 2
REMARK VINA RESULT: -8.408106442      0.703      1.042
REMARK  8 active torsions:
REMARK  status: ('A' for Active; 'I' for Inactive)
REMARK    1  A    between atoms: C2_2  and  N1_3 
REMARK    2  A    between atoms: N1_3  and  C3_4 
REMARK    3  A    between atoms: C5_6  and  O1_7 
REMARK    4  A    between atoms: C5_6  and  C6_9 
REMARK    5  A    between atoms: C8_11  and  O2_12 
REMARK    6  A    between atoms: C21_27  and  O4_28 
REMARK    7  A    between atoms: C25_33  and  C27_35 
REMARK    8  A    between atoms: C27_35  and  O6_37 
ROOT
HETATM    1  C6  UNL     1     -10.816  -9.046  29.221  1.00  0.00     0.073 C 
HETATM    2  C7  UNL     1     -12.108  -9.350  29.948  1.00  0.00     0.029 C 
HETATM    3  C8  UNL     1     -11.143  -8.335  27.915  1.00  0.00     0.137 C 
HETATM    4  C9  UNL     1     -10.579  -8.812  26.665  1.00  0.00     0.034 C 
HETATM    5  C10 UNL     1      -9.748 -10.038  26.606  1.00  0.00     0.015 C 
HETATM    6  C11 UNL     1     -10.225 -11.017  27.716  1.00  0.00    -0.010 C 
HETATM    7  C12 UNL     1     -11.584 -11.318  27.256  1.00  0.00     0.018 C 
HETATM    8  C13 UNL     1      -9.962 -10.242  28.946  1.00  0.00     0.150 C 
HETATM    9  O3  UNL     1      -9.661 -11.029  30.054  1.00  0.00    -0.370 OA
HETATM   10  C14 UNL     1      -8.429 -11.655  29.946  1.00  0.00     0.093 C 
HETATM   11  C15 UNL     1      -7.369 -10.601  30.271  1.00  0.00     0.050 C 
HETATM   12  C16 UNL     1      -8.365 -12.717  31.018  1.00  0.00     0.024 C 
HETATM   13  C17 UNL     1      -8.848 -12.252  32.367  1.00  0.00     0.013 C 
HETATM   14  C18 UNL     1      -8.680 -14.088  30.607  1.00  0.00     0.010 C 
HETATM   15  C19 UNL     1      -7.617 -14.460  29.578  1.00  0.00     0.009 C 
HETATM   16  C20 UNL     1      -7.352 -13.446  28.545  1.00  0.00     0.042 C 
HETATM   17  C21 UNL     1      -8.146 -12.178  28.574  1.00  0.00     0.093 C 
HETATM   18  C22 UNL     1      -9.413 -12.288  27.727  1.00  0.00     0.034 C 
HETATM   19  C23 UNL     1     -10.132 -13.560  27.926  1.00  0.00     0.010 C 
HETATM   20  C24 UNL     1     -10.783 -13.926  29.165  1.00  0.00     0.020 C 
HETATM   21  C25 UNL     1     -10.024 -14.545  30.276  1.00  0.00     0.048 C 
HETATM   22  C26 UNL     1     -10.918 -14.315  31.537  1.00  0.00     0.026 C 
ENDROOT
BRANCH   1  23
HETATM   23  C5  UNL     1     -10.015  -8.094  30.021  1.00  0.00     0.127 C 
HETATM   24  N1  UNL     1     -10.112  -7.527  31.256  1.00  0.00    -0.365 N 
BRANCH  24  25
HETATM   25  C2  UNL     1     -11.135  -7.696  32.219  1.00  0.00     0.120 C 
HETATM   26  C1  UNL     1     -10.870  -9.000  32.984  1.00  0.00     0.026 C 
ENDBRANCH  24  25
BRANCH  24  27
HETATM   27  C3  UNL     1      -9.025  -6.602  31.689  1.00  0.00     0.120 C 
HETATM   28  C4  UNL     1      -9.504  -5.673  32.760  1.00  0.00     0.026 C 
ENDBRANCH  24  27
BRANCH  23  29
HETATM   29  O1  UNL     1      -8.914  -7.691  29.378  1.00  0.00    -0.349 OA
ATOM     30  H1  UNL     1      -8.145  -7.744  29.933  1.00  0.00     0.219 HD
ENDBRANCH  23  29
ENDBRANCH   1  23
BRANCH   3  31
HETATM   31  O2  UNL     1     -11.071  -6.939  27.996  1.00  0.00    -0.394 OA
ATOM     32  H2  UNL     1     -10.486  -6.545  27.359  1.00  0.00     0.210 HD
ENDBRANCH   3  31
BRANCH  17  33
HETATM   33  O4  UNL     1      -7.320 -11.292  27.871  1.00  0.00    -0.386 OA
ATOM     34  H4  UNL     1      -7.591 -10.394  28.022  1.00  0.00     0.210 HD
ENDBRANCH  17  33
BRANCH  21  35
HETATM   35  C27 UNL     1     -10.034 -16.044  30.215  1.00  0.00     0.267 C 
HETATM   36  O5  UNL     1      -9.713 -16.684  31.230  1.00  0.00    -0.264 OA
BRANCH  35  37
HETATM   37  O6  UNL     1     -10.385 -16.765  29.093  1.00  0.00    -0.326 OA
HETATM   38  C28 UNL     1     -11.044 -18.005  29.255  1.00  0.00     0.213 C 
ENDBRANCH  35  37
ENDBRANCH  21  35
TORSDOF 8
ENDMDL
MODEL 3
REMARK VINA RESULT: -7.592817053      4.526      8.438
REMARK  8 active torsions:
REMARK  status: ('A' for Active; 'I' for Inactive)
REMARK    1  A    between atoms: C2_2  and  N1_3 
REMARK    2  A    between atoms: N1_3  and  C3_4 
REMARK    3  A    between atoms: C5_6  and  O1_7 
REMARK    4  A    between atoms: C5_6  and  C6_9 
REMARK    5  A    between atoms: C8_11  and  O2_12 
REMARK    6  A    between atoms: C21_27  and  O4_28 
REMARK    7  A    between atoms: C25_33  and  C27_35 
REMARK    8  A    between atoms: C27_35  and  O6_37 
ROOT
HETATM    1  C6  UNL     1     -13.236  -4.051  34.697  1.00  0.00     0.073 C 
HETATM    2  C7  UNL     1     -13.021  -2.964  33.667  1.00  0.00     0.029 C 
HETATM    3  C8  UNL     1     -12.615  -3.609  36.015  1.00  0.00     0.137 C 
HETATM    4  C9  UNL     1     -11.705  -4.491  36.723  1.00  0.00     0.034 C 
HETATM    5  C10 UNL     1     -11.289  -5.795  36.156  1.00  0.00     0.015 C 
HETATM    6  C11 UNL     1     -11.282  -5.685  34.605  1.00  0.00    -0.010 C 
HETATM    7  C12 UNL     1     -10.218  -4.696  34.403  1.00  0.00     0.018 C 
HETATM    8  C13 UNL     1     -12.699  -5.392  34.309  1.00  0.00     0.150 C 
HETATM    9  O3  UNL     1     -13.128  -5.872  33.075  1.00  0.00    -0.370 OA
HETATM   10  C14 UNL     1     -13.200  -7.256  33.037  1.00  0.00     0.093 C 
HETATM   11  C15 UNL     1     -14.488  -7.651  33.762  1.00  0.00     0.050 C 
HETATM   12  C16 UNL     1     -13.343  -7.662  31.590  1.00  0.00     0.024 C 
HETATM   13  C17 UNL     1     -14.348  -6.843  30.823  1.00  0.00     0.013 C 
HETATM   14  C18 UNL     1     -12.121  -8.078  30.898  1.00  0.00     0.010 C 
HETATM   15  C19 UNL     1     -11.633  -9.319  31.640  1.00  0.00     0.009 C 
HETATM   16  C20 UNL     1     -11.626  -9.218  33.108  1.00  0.00     0.042 C 
HETATM   17  C21 UNL     1     -12.061  -7.930  33.733  1.00  0.00     0.093 C 
HETATM   18  C22 UNL     1     -10.881  -6.985  33.954  1.00  0.00     0.034 C 
HETATM   19  C23 UNL     1      -9.969  -6.920  32.796  1.00  0.00     0.010 C 
HETATM   20  C24 UNL     1     -10.339  -6.354  31.516  1.00  0.00     0.020 C 
HETATM   21  C25 UNL     1     -11.061  -7.158  30.503  1.00  0.00     0.048 C 
HETATM   22  C26 UNL     1     -11.695  -6.101  29.544  1.00  0.00     0.026 C 
ENDROOT
BRANCH   1  23
HETATM   23  C5  UNL     1     -14.685  -4.203  34.954  1.00  0.00     0.127 C 
HETATM   24  N1  UNL     1     -15.832  -3.672  34.447  1.00  0.00    -0.365 N 
BRANCH  24  25
HETATM   25  C2  UNL     1     -15.970  -2.699  33.428  1.00  0.00     0.120 C 
HETATM   26  C1  UNL     1     -16.272  -3.419  32.107  1.00  0.00     0.026 C 
ENDBRANCH  24  25
BRANCH  24  27
HETATM   27  C3  UNL     1     -17.131  -4.145  35.007  1.00  0.00     0.120 C 
HETATM   28  C4  UNL     1     -17.890  -3.015  35.631  1.00  0.00     0.026 C 
ENDBRANCH  24  27
BRANCH  23  29
HETATM   29  O1  UNL     1     -14.938  -5.090  35.923  1.00  0.00    -0.349 OA
ATOM     30  H1  UNL     1     -14.821  -4.709  36.785  1.00  0.00     0.219 HD
ENDBRANCH  23  29
ENDBRANCH   1  23
BRANCH   3  31
HETATM   31  O2  UNL     1     -13.523  -3.012  36.899  1.00  0.00    -0.394 OA
ATOM     32  H2  UNL     1     -13.159  -2.288  37.395  1.00  0.00     0.210 HD
ENDBRANCH   3  31
BRANCH  17  33
HETATM   33  O4  UNL     1     -12.441  -8.335  35.019  1.00  0.00    -0.386 OA
ATOM     34  H4  UNL     1     -11.695  -8.320  35.607  1.00  0.00     0.210 HD
ENDBRANCH  17  33
BRANCH  21  35
HETATM   35  C27 UNL     1     -10.131  -7.854  29.553  1.00  0.00     0.267 C 
HETATM   36  O5  UNL     1     -10.544  -8.134  28.415  1.00  0.00    -0.264 OA
BRANCH  35  37
HETATM   37  O6  UNL     1      -8.833  -8.202  29.863  1.00  0.00    -0.326 OA
HETATM   38  C28 UNL     1      -8.476  -9.569  29.871  1.00  0.00     0.213 C 
ENDBRANCH  35  37
ENDBRANCH  21  35
TORSDOF 8
ENDMDL
MODEL 4
REMARK VINA RESULT: -7.576227738      1.620      2.221
REMARK  8 active torsions:
REMARK  status: ('A' for Active; 'I' for Inactive)
REMARK    1  A    between atoms: C2_2  and  N1_3 
REMARK    2  A    between atoms: N1_3  and  C3_4 
REMARK    3  A    between atoms: C5_6  and  O1_7 
REMARK    4  A    between atoms: C5_6  and  C6_9 
REMARK    5  A    between atoms: C8_11  and  O2_12 
REMARK    6  A    between atoms: C21_27  and  O4_28 
REMARK    7  A    between atoms: C25_33  and  C27_35 
REMARK    8  A    between atoms: C27_35  and  O6_37 
ROOT
HETATM    1  C6  UNL     1     -10.273 -10.863  28.713  1.00  0.00     0.073 C 
HETATM    2  C7  UNL     1     -11.709 -10.759  29.177  1.00  0.00     0.029 C 
HETATM    3  C8  UNL     1     -10.242 -10.802  27.192  1.00  0.00     0.137 C 
HETATM    4  C9  UNL     1      -9.518 -11.809  26.438  1.00  0.00     0.034 C 
HETATM    5  C10 UNL     1      -8.868 -12.961  27.106  1.00  0.00     0.015 C 
HETATM    6  C11 UNL     1      -9.678 -13.319  28.384  1.00  0.00    -0.010 C 
HETATM    7  C12 UNL     1     -10.952 -13.745  27.794  1.00  0.00     0.018 C 
HETATM    8  C13 UNL     1      -9.553 -12.086  29.185  1.00  0.00     0.150 C 
HETATM    9  O3  UNL     1      -9.582 -12.301  30.560  1.00  0.00    -0.370 OA
HETATM   10  C14 UNL     1      -8.449 -12.954  31.022  1.00  0.00     0.093 C 
HETATM   11  C15 UNL     1      -7.337 -11.906  31.100  1.00  0.00     0.050 C 
HETATM   12  C16 UNL     1      -8.738 -13.423  32.428  1.00  0.00     0.024 C 
HETATM   13  C17 UNL     1      -9.403 -12.385  33.293  1.00  0.00     0.013 C 
HETATM   14  C18 UNL     1      -9.152 -14.820  32.585  1.00  0.00     0.010 C 
HETATM   15  C19 UNL     1      -7.973 -15.653  32.094  1.00  0.00     0.009 C 
HETATM   16  C20 UNL     1      -7.378 -15.221  30.819  1.00  0.00     0.042 C 
HETATM   17  C21 UNL     1      -7.982 -14.047  30.115  1.00  0.00     0.093 C 
HETATM   18  C22 UNL     1      -9.065 -14.479  29.128  1.00  0.00     0.034 C 
HETATM   19  C23 UNL     1      -9.976 -15.499  29.680  1.00  0.00     0.010 C 
HETATM   20  C24 UNL     1     -10.897 -15.246  30.767  1.00  0.00     0.020 C 
HETATM   21  C25 UNL     1     -10.457 -15.327  32.179  1.00  0.00     0.048 C 
HETATM   22  C26 UNL     1     -11.537 -14.523  32.972  1.00  0.00     0.026 C 
ENDROOT
BRANCH   1  23
HETATM   23  C5  UNL     1      -9.518  -9.683  29.189  1.00  0.00     0.127 C 
HETATM   24  N1  UNL     1      -9.799  -8.567  29.919  1.00  0.00    -0.365 N 
BRANCH  24  25
HETATM   25  C2  UNL     1     -11.042  -8.173  30.470  1.00  0.00     0.120 C 
HETATM   26  C1  UNL     1     -11.022  -8.474  31.975  1.00  0.00     0.026 C 
ENDBRANCH  24  25
BRANCH  24  27
HETATM   27  C3  UNL     1      -8.688  -7.611  30.194  1.00  0.00     0.120 C 
HETATM   28  C4  UNL     1      -8.945  -6.288  29.543  1.00  0.00     0.026 C 
ENDBRANCH  24  27
BRANCH  23  29
HETATM   29  O1  UNL     1      -8.233  -9.719  28.819  1.00  0.00    -0.349 OA
ATOM     30  H1  UNL     1      -8.129  -9.517  27.897  1.00  0.00     0.219 HD
ENDBRANCH  23  29
ENDBRANCH   1  23
BRANCH   3  31
HETATM   31  O2  UNL     1      -9.996  -9.521  26.680  1.00  0.00    -0.394 OA
ATOM     32  H2  UNL     1      -9.095  -9.379  26.416  1.00  0.00     0.210 HD
ENDBRANCH   3  31
BRANCH  17  33
HETATM   33  O4  UNL     1      -6.923 -13.602  29.314  1.00  0.00    -0.386 OA
ATOM     34  H4  UNL     1      -7.053 -13.870  28.412  1.00  0.00     0.210 HD
ENDBRANCH  17  33
BRANCH  21  35
HETATM   35  C27 UNL     1     -10.661 -16.692  32.766  1.00  0.00     0.267 C 
HETATM   36  O5  UNL     1     -10.808 -16.796  33.996  1.00  0.00    -0.264 OA
BRANCH  35  37
HETATM   37  O6  UNL     1     -10.699 -17.853  32.021  1.00  0.00    -0.326 OA
HETATM   38  C28 UNL     1     -10.757 -19.095  32.692  1.00  0.00     0.213 C 
ENDBRANCH  35  37
ENDBRANCH  21  35
TORSDOF 8
ENDMDL
MODEL 5
REMARK VINA RESULT: -7.395295734      4.816      8.760
REMARK  8 active torsions:
REMARK  status: ('A' for Active; 'I' for Inactive)
REMARK    1  A    between atoms: C2_2  and  N1_3 
REMARK    2  A    between atoms: N1_3  and  C3_4 
REMARK    3  A    between atoms: C5_6  and  O1_7 
REMARK    4  A    between atoms: C5_6  and  C6_9 
REMARK    5  A    between atoms: C8_11  and  O2_12 
REMARK    6  A    between atoms: C21_27  and  O4_28 
REMARK    7  A    between atoms: C25_33  and  C27_35 
REMARK    8  A    between atoms: C27_35  and  O6_37 
ROOT
HETATM    1  C6  UNL     1     -12.974  -3.639  34.997  1.00  0.00     0.073 C 
HETATM    2  C7  UNL     1     -13.012  -2.611  33.889  1.00  0.00     0.029 C 
HETATM    3  C8  UNL     1     -12.079  -3.123  36.116  1.00  0.00     0.137 C 
HETATM    4  C9  UNL     1     -11.020  -3.962  36.647  1.00  0.00     0.034 C 
HETATM    5  C10 UNL     1     -10.723  -5.294  36.071  1.00  0.00     0.015 C 
HETATM    6  C11 UNL     1     -11.065  -5.270  34.555  1.00  0.00    -0.010 C 
HETATM    7  C12 UNL     1     -10.089  -4.290  34.066  1.00  0.00     0.018 C 
HETATM    8  C13 UNL     1     -12.516  -4.998  34.570  1.00  0.00     0.150 C 
HETATM    9  O3  UNL     1     -13.204  -5.547  33.492  1.00  0.00    -0.370 OA
HETATM   10  C14 UNL     1     -13.261  -6.931  33.544  1.00  0.00     0.093 C 
HETATM   11  C15 UNL     1     -14.347  -7.290  34.560  1.00  0.00     0.050 C 
HETATM   12  C16 UNL     1     -13.719  -7.417  32.190  1.00  0.00     0.024 C 
HETATM   13  C17 UNL     1     -14.883  -6.645  31.626  1.00  0.00     0.013 C 
HETATM   14  C18 UNL     1     -12.677  -7.867  31.264  1.00  0.00     0.010 C 
HETATM   15  C19 UNL     1     -12.016  -9.063  31.942  1.00  0.00     0.009 C 
HETATM   16  C20 UNL     1     -11.681  -8.881  33.363  1.00  0.00     0.042 C 
HETATM   17  C21 UNL     1     -11.984  -7.562  34.001  1.00  0.00     0.093 C 
HETATM   18  C22 UNL     1     -10.800  -6.603  33.900  1.00  0.00     0.034 C 
HETATM   19  C23 UNL     1     -10.172  -6.599  32.566  1.00  0.00     0.010 C 
HETATM   20  C24 UNL     1     -10.828  -6.106  31.373  1.00  0.00     0.020 C 
HETATM   21  C25 UNL     1     -11.747  -6.967  30.593  1.00  0.00     0.048 C 
HETATM   22  C26 UNL     1     -12.596  -5.966  29.746  1.00  0.00     0.026 C 
ENDROOT
BRANCH   1  23
HETATM   23  C5  UNL     1     -14.326  -3.781  35.581  1.00  0.00     0.127 C 
HETATM   24  N1  UNL     1     -14.902  -4.552  36.545  1.00  0.00    -0.365 N 
BRANCH  24  25
HETATM   25  C2  UNL     1     -14.300  -5.564  37.331  1.00  0.00     0.120 C 
HETATM   26  C1  UNL     1     -14.233  -5.072  38.783  1.00  0.00     0.026 C 
ENDBRANCH  24  25
BRANCH  24  27
HETATM   27  C3  UNL     1     -16.348  -4.341  36.839  1.00  0.00     0.120 C 
HETATM   28  C4  UNL     1     -17.155  -5.544  36.464  1.00  0.00     0.026 C 
ENDBRANCH  24  27
BRANCH  23  29
HETATM   29  O1  UNL     1     -15.206  -2.937  35.033  1.00  0.00    -0.349 OA
ATOM     30  H1  UNL     1     -15.778  -3.378  34.417  1.00  0.00     0.219 HD
ENDBRANCH  23  29
ENDBRANCH   1  23
BRANCH   3  31
HETATM   31  O2  UNL     1     -12.775  -2.481  37.148  1.00  0.00    -0.394 OA
ATOM     32  H2  UNL     1     -13.113  -1.625  36.911  1.00  0.00     0.210 HD
ENDBRANCH   3  31
BRANCH  17  33
HETATM   33  O4  UNL     1     -12.060  -7.896  35.359  1.00  0.00    -0.386 OA
ATOM     34  H4  UNL     1     -12.478  -7.199  35.850  1.00  0.00     0.210 HD
ENDBRANCH  17  33
BRANCH  21  35
HETATM   35  C27 UNL     1     -11.044  -7.711  29.496  1.00  0.00     0.267 C 
HETATM   36  O5  UNL     1     -11.724  -8.210  28.584  1.00  0.00    -0.264 OA
BRANCH  35  37
HETATM   37  O6  UNL     1      -9.676  -7.875  29.432  1.00  0.00    -0.326 OA
HETATM   38  C28 UNL     1      -9.114  -9.103  29.849  1.00  0.00     0.213 C 
ENDBRANCH  35  37
ENDBRANCH  21  35
TORSDOF 8
ENDMDL
