MODEL 1
REMARK VINA RESULT: -9.686977994      0.000      0.000
REMARK  9 active torsions:
REMARK  status: ('A' for Active; 'I' for Inactive)
REMARK    1  A    between atoms: C2_2  and  O1_5 
REMARK    2  A    between atoms: O1_5  and  C5_6 
REMARK    3  A    between atoms: C5_6  and  C6_8 
REMARK    4  A    between atoms: C6_8  and  C7_9 
REMARK    5  A    between atoms: N1_12  and  C10_14 
REMARK    6  A    between atoms: C10_14  and  C11_15 
REMARK    7  A    between atoms: C11_15  and  O3_16 
REMARK    8  A    between atoms: C22_28  and  C23_29 
REMARK    9  A    between atoms: C25_32  and  O5_33 
ROOT
HETATM    1  C11 UNL     1     -11.685  -8.933  27.051  1.00  0.00     0.094 C 
HETATM    2  C12 UNL     1     -10.392  -9.332  26.390  1.00  0.00     0.049 C 
HETATM    3  C13 UNL     1     -10.785 -10.765  26.782  1.00  0.00    -0.004 C 
HETATM    4  C14 UNL     1      -9.649 -11.696  27.024  1.00  0.00     0.011 C 
HETATM    5  C15 UNL     1      -9.684 -12.426  28.303  1.00  0.00     0.001 C 
HETATM    6  C16 UNL     1      -8.971 -13.782  28.259  1.00  0.00     0.020 C 
HETATM    7  C17 UNL     1      -9.805 -14.884  28.795  1.00  0.00     0.018 C 
HETATM    8  C18 UNL     1      -9.922 -14.967  30.287  1.00  0.00    -0.029 C 
HETATM    9  C19 UNL     1      -9.687 -16.400  30.729  1.00  0.00     0.016 C 
HETATM   10  C20 UNL     1     -11.285 -14.549  30.834  1.00  0.00     0.011 C 
HETATM   11  C21 UNL     1     -10.536 -13.687  31.828  1.00  0.00     0.018 C 
HETATM   12  C22 UNL     1      -9.272 -13.877  31.048  1.00  0.00     0.027 C 
HETATM   13  C24 UNL     1      -8.625 -12.803  30.330  1.00  0.00     0.039 C 
HETATM   14  C25 UNL     1      -7.810 -13.485  29.206  1.00  0.00     0.128 C 
HETATM   15  C26 UNL     1      -9.241 -11.748  29.550  1.00  0.00    -0.033 C 
HETATM   16  C27 UNL     1      -8.168 -10.672  29.347  1.00  0.00     0.016 C 
HETATM   17  C28 UNL     1     -10.408 -10.973  30.071  1.00  0.00     0.010 C 
HETATM   18  C29 UNL     1     -10.662  -9.800  29.112  1.00  0.00     0.009 C 
HETATM   19  C30 UNL     1     -11.478 -10.191  27.939  1.00  0.00     0.029 C 
ENDROOT
BRANCH   1  20
HETATM   20  C10 UNL     1     -11.725  -7.670  27.821  1.00  0.00     0.098 C 
BRANCH  20  21
HETATM   21  N1  UNL     1     -12.983  -7.285  28.231  1.00  0.00    -0.373 N 
HETATM   22  C9  UNL     1     -13.531  -6.930  29.282  1.00  0.00    -0.009 A 
HETATM   23  C7  UNL     1     -14.815  -6.491  29.917  1.00  0.00     0.046 A 
HETATM   24  C8  UNL     1     -13.562  -6.614  30.748  1.00  0.00     0.063 A 
ATOM     25  H1  UNL     1     -13.644  -7.297  27.454  1.00  0.00     0.164 HD
BRANCH  23  26
HETATM   26  C6  UNL     1     -15.355  -5.119  29.747  1.00  0.00     0.122 C 
BRANCH  26  27
HETATM   27  C5  UNL     1     -15.851  -4.953  28.362  1.00  0.00     0.260 C 
HETATM   28  O2  UNL     1     -15.033  -4.745  27.439  1.00  0.00    -0.265 OA
BRANCH  27  29
HETATM   29  O1  UNL     1     -17.201  -5.016  28.028  1.00  0.00    -0.311 OA
BRANCH  29  30
HETATM   30  C2  UNL     1     -17.901  -6.199  27.777  1.00  0.00     0.060 C 
HETATM   31  C1  UNL     1     -18.500  -6.741  29.079  1.00  0.00     0.045 C 
HETATM   32  C3  UNL     1     -17.028  -7.273  27.153  1.00  0.00     0.045 C 
HETATM   33  C4  UNL     1     -19.037  -5.915  26.826  1.00  0.00     0.045 C 
ENDBRANCH  29  30
ENDBRANCH  27  29
ENDBRANCH  26  27
ENDBRANCH  23  26
ENDBRANCH  20  21
ENDBRANCH   1  20
BRANCH   1  34
HETATM   34  O3  UNL     1     -12.825  -9.093  26.286  1.00  0.00    -0.384 OA
ATOM     35  H3  UNL     1     -12.669  -8.857  25.380  1.00  0.00     0.211 HD
ENDBRANCH   1  34
BRANCH  14  36
HETATM   36  O5  UNL     1      -7.122 -14.576  29.594  1.00  0.00    -0.395 OA
ATOM     37  H5  UNL     1      -6.736 -14.504  30.459  1.00  0.00     0.210 HD
ENDBRANCH  14  36
BRANCH  12  38
HETATM   38  C23 UNL     1      -8.270 -14.514  32.001  1.00  0.00     0.242 C 
HETATM   39  O4  UNL     1      -7.223 -13.967  32.298  1.00  0.00    -0.306 OA
ENDBRANCH  12  38
TORSDOF 9
ENDMDL
MODEL 2
REMARK VINA RESULT: -9.447583134      4.196      9.050
REMARK  9 active torsions:
REMARK  status: ('A' for Active; 'I' for Inactive)
REMARK    1  A    between atoms: C2_2  and  O1_5 
REMARK    2  A    between atoms: O1_5  and  C5_6 
REMARK    3  A    between atoms: C5_6  and  C6_8 
REMARK    4  A    between atoms: C6_8  and  C7_9 
REMARK    5  A    between atoms: N1_12  and  C10_14 
REMARK    6  A    between atoms: C10_14  and  C11_15 
REMARK    7  A    between atoms: C11_15  and  O3_16 
REMARK    8  A    between atoms: C22_28  and  C23_29 
REMARK    9  A    between atoms: C25_32  and  O5_33 
ROOT
HETATM    1  C11 UNL     1     -10.132 -14.124  31.482  1.00  0.00     0.094 C 
HETATM    2  C12 UNL     1      -9.119 -13.418  32.345  1.00  0.00     0.049 C 
HETATM    3  C13 UNL     1     -10.168 -12.297  32.431  1.00  0.00    -0.004 C 
HETATM    4  C14 UNL     1      -9.622 -10.924  32.615  1.00  0.00     0.011 C 
HETATM    5  C15 UNL     1     -10.108  -9.912  31.661  1.00  0.00     0.001 C 
HETATM    6  C16 UNL     1     -10.107  -8.485  32.222  1.00  0.00     0.020 C 
HETATM    7  C17 UNL     1     -11.402  -7.792  32.023  1.00  0.00     0.018 C 
HETATM    8  C18 UNL     1     -11.677  -7.275  30.644  1.00  0.00    -0.029 C 
HETATM    9  C19 UNL     1     -12.177  -5.845  30.736  1.00  0.00     0.016 C 
HETATM   10  C20 UNL     1     -12.733  -8.068  29.876  1.00  0.00     0.011 C 
HETATM   11  C21 UNL     1     -11.762  -8.088  28.714  1.00  0.00     0.018 C 
HETATM   12  C22 UNL     1     -10.666  -7.606  29.616  1.00  0.00     0.027 C 
HETATM   13  C24 UNL     1      -9.533  -8.425  29.978  1.00  0.00     0.039 C 
HETATM   14  C25 UNL     1      -9.031  -7.867  31.330  1.00  0.00     0.128 C 
HETATM   15  C26 UNL     1      -9.514  -9.838  30.299  1.00  0.00    -0.033 C 
HETATM   16  C27 UNL     1      -8.050 -10.287  30.214  1.00  0.00     0.016 C 
HETATM   17  C28 UNL     1     -10.229 -10.841  29.451  1.00  0.00     0.010 C 
HETATM   18  C29 UNL     1      -9.820 -12.242  29.930  1.00  0.00     0.009 C 
HETATM   19  C30 UNL     1     -10.615 -12.699  31.094  1.00  0.00     0.029 C 
ENDROOT
BRANCH   1  20
HETATM   20  C10 UNL     1      -9.649 -14.915  30.328  1.00  0.00     0.098 C 
BRANCH  20  21
HETATM   21  N1  UNL     1     -10.641 -15.373  29.489  1.00  0.00    -0.373 N 
HETATM   22  C9  UNL     1     -10.940 -15.277  28.292  1.00  0.00    -0.009 A 
HETATM   23  C7  UNL     1     -11.919 -15.671  27.229  1.00  0.00     0.046 A 
HETATM   24  C8  UNL     1     -10.743 -14.790  26.887  1.00  0.00     0.063 A 
ATOM     25  H1  UNL     1     -11.315 -15.950  29.994  1.00  0.00     0.164 HD
BRANCH  23  26
HETATM   26  C6  UNL     1     -11.923 -17.023  26.616  1.00  0.00     0.122 C 
BRANCH  26  27
HETATM   27  C5  UNL     1     -13.294 -17.583  26.666  1.00  0.00     0.260 C 
HETATM   28  O2  UNL     1     -14.274 -16.817  26.542  1.00  0.00    -0.265 OA
BRANCH  27  29
HETATM   29  O1  UNL     1     -13.552 -18.939  26.846  1.00  0.00    -0.311 OA
BRANCH  29  30
HETATM   30  C2  UNL     1     -13.444 -19.906  25.844  1.00  0.00     0.060 C 
HETATM   31  C1  UNL     1     -12.143 -20.697  26.014  1.00  0.00     0.045 C 
HETATM   32  C3  UNL     1     -13.477 -19.309  24.449  1.00  0.00     0.045 C 
HETATM   33  C4  UNL     1     -14.594 -20.876  25.960  1.00  0.00     0.045 C 
ENDBRANCH  29  30
ENDBRANCH  27  29
ENDBRANCH  26  27
ENDBRANCH  23  26
ENDBRANCH  20  21
ENDBRANCH   1  20
BRANCH   1  34
HETATM   34  O3  UNL     1     -11.142 -14.783  32.158  1.00  0.00    -0.384 OA
ATOM     35  H3  UNL     1     -10.919 -15.694  32.307  1.00  0.00     0.211 HD
ENDBRANCH   1  34
BRANCH  14  36
HETATM   36  O5  UNL     1      -8.968  -6.523  31.394  1.00  0.00    -0.395 OA
ATOM     37  H5  UNL     1      -9.415  -6.079  30.683  1.00  0.00     0.210 HD
ENDBRANCH  14  36
BRANCH  12  38
HETATM   38  C23 UNL     1     -10.167  -6.296  29.022  1.00  0.00     0.242 C 
HETATM   39  O4  UNL     1      -9.020  -6.159  28.632  1.00  0.00    -0.306 OA
ENDBRANCH  12  38
TORSDOF 9
ENDMDL
MODEL 3
REMARK VINA RESULT: -9.428082602      1.183      1.447
REMARK  9 active torsions:
REMARK  status: ('A' for Active; 'I' for Inactive)
REMARK    1  A    between atoms: C2_2  and  O1_5 
REMARK    2  A    between atoms: O1_5  and  C5_6 
REMARK    3  A    between atoms: C5_6  and  C6_8 
REMARK    4  A    between atoms: C6_8  and  C7_9 
REMARK    5  A    between atoms: N1_12  and  C10_14 
REMARK    6  A    between atoms: C10_14  and  C11_15 
REMARK    7  A    between atoms: C11_15  and  O3_16 
REMARK    8  A    between atoms: C22_28  and  C23_29 
REMARK    9  A    between atoms: C25_32  and  O5_33 
ROOT
HETATM    1  C11 UNL     1     -10.787 -10.091  27.292  1.00  0.00     0.094 C 
HETATM    2  C12 UNL     1      -9.443 -10.652  26.908  1.00  0.00     0.049 C 
HETATM    3  C13 UNL     1      -9.973 -11.971  27.493  1.00  0.00    -0.004 C 
HETATM    4  C14 UNL     1      -8.938 -12.878  28.062  1.00  0.00     0.011 C 
HETATM    5  C15 UNL     1      -9.191 -13.352  29.434  1.00  0.00     0.001 C 
HETATM    6  C16 UNL     1      -8.562 -14.716  29.741  1.00  0.00     0.020 C 
HETATM    7  C17 UNL     1      -9.527 -15.667  30.343  1.00  0.00     0.018 C 
HETATM    8  C18 UNL     1      -9.848 -15.463  31.792  1.00  0.00    -0.029 C 
HETATM    9  C19 UNL     1      -9.763 -16.794  32.517  1.00  0.00     0.016 C 
HETATM   10  C20 UNL     1     -11.245 -14.902  32.052  1.00  0.00     0.011 C 
HETATM   11  C21 UNL     1     -10.587 -13.894  32.970  1.00  0.00     0.018 C 
HETATM   12  C22 UNL     1      -9.242 -14.272  32.428  1.00  0.00     0.027 C 
HETATM   13  C24 UNL     1      -8.441 -13.376  31.627  1.00  0.00     0.039 C 
HETATM   14  C25 UNL     1      -7.524 -14.285  30.776  1.00  0.00     0.128 C 
HETATM   15  C26 UNL     1      -8.880 -12.467  30.588  1.00  0.00    -0.033 C 
HETATM   16  C27 UNL     1      -7.725 -11.486  30.349  1.00  0.00     0.016 C 
HETATM   17  C28 UNL     1     -10.057 -11.567  30.784  1.00  0.00     0.010 C 
HETATM   18  C29 UNL     1     -10.107 -10.588  29.602  1.00  0.00     0.009 C 
HETATM   19  C30 UNL     1     -10.779 -11.165  28.414  1.00  0.00     0.029 C 
ENDROOT
BRANCH   1  20
HETATM   20  C10 UNL     1     -10.854  -8.704  27.806  1.00  0.00     0.098 C 
BRANCH  20  21
HETATM   21  N1  UNL     1     -12.119  -8.159  27.827  1.00  0.00    -0.373 N 
HETATM   22  C9  UNL     1     -12.720  -7.273  28.448  1.00  0.00    -0.009 A 
HETATM   23  C7  UNL     1     -14.023  -6.556  28.623  1.00  0.00     0.046 A 
HETATM   24  C8  UNL     1     -12.834  -6.185  29.474  1.00  0.00     0.063 A 
ATOM     25  H1  UNL     1     -12.727  -8.609  27.143  1.00  0.00     0.164 HD
BRANCH  23  26
HETATM   26  C6  UNL     1     -14.492  -5.521  27.668  1.00  0.00     0.122 C 
BRANCH  26  27
HETATM   27  C5  UNL     1     -15.793  -4.980  28.126  1.00  0.00     0.260 C 
HETATM   28  O2  UNL     1     -15.853  -4.366  29.214  1.00  0.00    -0.265 OA
BRANCH  27  29
HETATM   29  O1  UNL     1     -16.971  -5.122  27.398  1.00  0.00    -0.311 OA
BRANCH  29  30
HETATM   30  C2  UNL     1     -17.804  -6.243  27.450  1.00  0.00     0.060 C 
HETATM   31  C1  UNL     1     -18.026  -6.666  28.906  1.00  0.00     0.045 C 
HETATM   32  C3  UNL     1     -17.247  -7.422  26.675  1.00  0.00     0.045 C 
HETATM   33  C4  UNL     1     -19.148  -5.894  26.859  1.00  0.00     0.045 C 
ENDBRANCH  29  30
ENDBRANCH  27  29
ENDBRANCH  26  27
ENDBRANCH  23  26
ENDBRANCH  20  21
ENDBRANCH   1  20
BRANCH   1  34
HETATM   34  O3  UNL     1     -11.821 -10.352  26.413  1.00  0.00    -0.384 OA
ATOM     35  H3  UNL     1     -12.596 -10.654  26.871  1.00  0.00     0.211 HD
ENDBRANCH   1  34
BRANCH  14  36
HETATM   36  O5  UNL     1      -6.963 -15.307  31.451  1.00  0.00    -0.395 OA
ATOM     37  H5  UNL     1      -6.081 -15.132  31.758  1.00  0.00     0.210 HD
ENDBRANCH  14  36
BRANCH  12  38
HETATM   38  C23 UNL     1      -8.420 -14.752  33.615  1.00  0.00     0.242 C 
HETATM   39  O4  UNL     1      -7.474 -14.115  34.046  1.00  0.00    -0.306 OA
ENDBRANCH  12  38
TORSDOF 9
ENDMDL
MODEL 4
REMARK VINA RESULT: -9.416554290      1.405      1.850
REMARK  9 active torsions:
REMARK  status: ('A' for Active; 'I' for Inactive)
REMARK    1  A    between atoms: C2_2  and  O1_5 
REMARK    2  A    between atoms: O1_5  and  C5_6 
REMARK    3  A    between atoms: C5_6  and  C6_8 
REMARK    4  A    between atoms: C6_8  and  C7_9 
REMARK    5  A    between atoms: N1_12  and  C10_14 
REMARK    6  A    between atoms: C10_14  and  C11_15 
REMARK    7  A    between atoms: C11_15  and  O3_16 
REMARK    8  A    between atoms: C22_28  and  C23_29 
REMARK    9  A    between atoms: C25_32  and  O5_33 
ROOT
HETATM    1  C11 UNL     1     -10.637 -10.352  27.249  1.00  0.00     0.094 C 
HETATM    2  C12 UNL     1      -9.271 -10.905  26.939  1.00  0.00     0.049 C 
HETATM    3  C13 UNL     1      -9.798 -12.205  27.568  1.00  0.00    -0.004 C 
HETATM    4  C14 UNL     1      -8.770 -13.065  28.214  1.00  0.00     0.011 C 
HETATM    5  C15 UNL     1      -9.063 -13.478  29.597  1.00  0.00     0.001 C 
HETATM    6  C16 UNL     1      -8.422 -14.814  29.991  1.00  0.00     0.020 C 
HETATM    7  C17 UNL     1      -9.391 -15.754  30.604  1.00  0.00     0.018 C 
HETATM    8  C18 UNL     1      -9.768 -15.488  32.029  1.00  0.00    -0.029 C 
HETATM    9  C19 UNL     1      -9.686 -16.782  32.819  1.00  0.00     0.016 C 
HETATM   10  C20 UNL     1     -11.182 -14.942  32.213  1.00  0.00     0.011 C 
HETATM   11  C21 UNL     1     -10.574 -13.880  33.105  1.00  0.00     0.018 C 
HETATM   12  C22 UNL     1      -9.205 -14.258  32.628  1.00  0.00     0.027 C 
HETATM   13  C24 UNL     1      -8.391 -13.385  31.814  1.00  0.00     0.039 C 
HETATM   14  C25 UNL     1      -7.429 -14.316  31.039  1.00  0.00     0.128 C 
HETATM   15  C26 UNL     1      -8.808 -12.534  30.718  1.00  0.00    -0.033 C 
HETATM   16  C27 UNL     1      -7.663 -11.544  30.473  1.00  0.00     0.016 C 
HETATM   17  C28 UNL     1     -10.007 -11.649  30.831  1.00  0.00     0.010 C 
HETATM   18  C29 UNL     1     -10.031 -10.727  29.602  1.00  0.00     0.009 C 
HETATM   19  C30 UNL     1     -10.651 -11.372  28.420  1.00  0.00     0.029 C 
ENDROOT
BRANCH   1  20
HETATM   20  C10 UNL     1     -10.746  -8.945  27.693  1.00  0.00     0.098 C 
BRANCH  20  21
HETATM   21  N1  UNL     1     -12.034  -8.460  27.760  1.00  0.00    -0.373 N 
HETATM   22  C9  UNL     1     -12.629  -7.524  28.309  1.00  0.00    -0.009 A 
HETATM   23  C7  UNL     1     -13.952  -6.850  28.508  1.00  0.00     0.046 A 
HETATM   24  C8  UNL     1     -12.717  -6.308  29.183  1.00  0.00     0.063 A 
ATOM     25  H1  UNL     1     -12.672  -9.029  27.204  1.00  0.00     0.164 HD
BRANCH  23  26
HETATM   26  C6  UNL     1     -14.563  -5.982  27.470  1.00  0.00     0.122 C 
BRANCH  26  27
HETATM   27  C5  UNL     1     -15.626  -6.733  26.763  1.00  0.00     0.260 C 
HETATM   28  O2  UNL     1     -15.407  -7.908  26.396  1.00  0.00    -0.265 OA
BRANCH  27  29
HETATM   29  O1  UNL     1     -16.877  -6.191  26.481  1.00  0.00    -0.311 OA
BRANCH  29  30
HETATM   30  C2  UNL     1     -17.883  -5.983  27.429  1.00  0.00     0.060 C 
HETATM   31  C1  UNL     1     -17.605  -4.700  28.218  1.00  0.00     0.045 C 
HETATM   32  C3  UNL     1     -18.016  -7.140  28.402  1.00  0.00     0.045 C 
HETATM   33  C4  UNL     1     -19.207  -5.817  26.724  1.00  0.00     0.045 C 
ENDBRANCH  29  30
ENDBRANCH  27  29
ENDBRANCH  26  27
ENDBRANCH  23  26
ENDBRANCH  20  21
ENDBRANCH   1  20
BRANCH   1  34
HETATM   34  O3  UNL     1     -11.635 -10.674  26.347  1.00  0.00    -0.384 OA
ATOM     35  H3  UNL     1     -12.416 -10.980  26.792  1.00  0.00     0.211 HD
ENDBRANCH   1  34
BRANCH  14  36
HETATM   36  O5  UNL     1      -6.875 -15.295  31.781  1.00  0.00    -0.395 OA
ATOM     37  H5  UNL     1      -6.994 -15.186  32.718  1.00  0.00     0.210 HD
ENDBRANCH  14  36
BRANCH  12  38
HETATM   38  C23 UNL     1      -8.417 -14.666  33.865  1.00  0.00     0.242 C 
HETATM   39  O4  UNL     1      -7.493 -13.995  34.293  1.00  0.00    -0.306 OA
ENDBRANCH  12  38
TORSDOF 9
ENDMDL
MODEL 5
REMARK VINA RESULT: -9.211359203      3.763      8.853
REMARK  9 active torsions:
REMARK  status: ('A' for Active; 'I' for Inactive)
REMARK    1  A    between atoms: C2_2  and  O1_5 
REMARK    2  A    between atoms: O1_5  and  C5_6 
REMARK    3  A    between atoms: C5_6  and  C6_8 
REMARK    4  A    between atoms: C6_8  and  C7_9 
REMARK    5  A    between atoms: N1_12  and  C10_14 
REMARK    6  A    between atoms: C10_14  and  C11_15 
REMARK    7  A    between atoms: C11_15  and  O3_16 
REMARK    8  A    between atoms: C22_28  and  C23_29 
REMARK    9  A    between atoms: C25_32  and  O5_33 
ROOT
HETATM    1  C11 UNL     1      -7.996 -13.696  30.830  1.00  0.00     0.094 C 
HETATM    2  C12 UNL     1      -7.838 -13.051  29.479  1.00  0.00     0.049 C 
HETATM    3  C13 UNL     1      -7.773 -11.730  30.263  1.00  0.00    -0.004 C 
HETATM    4  C14 UNL     1      -8.268 -10.530  29.535  1.00  0.00     0.011 C 
HETATM    5  C15 UNL     1      -9.272  -9.721  30.248  1.00  0.00     0.001 C 
HETATM    6  C16 UNL     1      -9.264  -8.240  29.853  1.00  0.00     0.020 C 
HETATM    7  C17 UNL     1      -9.216  -7.335  31.026  1.00  0.00     0.018 C 
HETATM    8  C18 UNL     1     -10.498  -7.152  31.780  1.00  0.00    -0.029 C 
HETATM    9  C19 UNL     1     -10.726  -5.672  32.030  1.00  0.00     0.016 C 
HETATM   10  C20 UNL     1     -10.529  -7.844  33.142  1.00  0.00     0.011 C 
HETATM   11  C21 UNL     1     -11.878  -8.403  32.741  1.00  0.00     0.018 C 
HETATM   12  C22 UNL     1     -11.640  -7.976  31.325  1.00  0.00     0.027 C 
HETATM   13  C24 UNL     1     -11.446  -8.916  30.246  1.00  0.00     0.039 C 
HETATM   14  C25 UNL     1     -10.630  -8.157  29.173  1.00  0.00     0.128 C 
HETATM   15  C26 UNL     1     -10.694 -10.155  30.261  1.00  0.00    -0.033 C 
HETATM   16  C27 UNL     1     -11.132 -10.947  29.022  1.00  0.00     0.016 C 
HETATM   17  C28 UNL     1     -10.844 -11.145  31.370  1.00  0.00     0.010 C 
HETATM   18  C29 UNL     1     -10.096 -12.425  30.966  1.00  0.00     0.009 C 
HETATM   19  C30 UNL     1      -8.646 -12.353  31.261  1.00  0.00     0.029 C 
ENDROOT
BRANCH   1  20
HETATM   20  C10 UNL     1      -8.906 -14.857  30.958  1.00  0.00     0.098 C 
BRANCH  20  21
HETATM   21  N1  UNL     1      -9.633 -15.145  29.824  1.00  0.00    -0.373 N 
HETATM   22  C9  UNL     1     -10.265 -16.106  29.366  1.00  0.00    -0.009 A 
HETATM   23  C7  UNL     1     -11.086 -16.608  28.218  1.00  0.00     0.046 A 
HETATM   24  C8  UNL     1     -10.802 -17.507  29.396  1.00  0.00     0.063 A 
ATOM     25  H1  UNL     1      -9.658 -14.349  29.188  1.00  0.00     0.164 HD
BRANCH  23  26
HETATM   26  C6  UNL     1     -12.503 -16.213  28.023  1.00  0.00     0.122 C 
BRANCH  26  27
HETATM   27  C5  UNL     1     -12.953 -16.635  26.677  1.00  0.00     0.260 C 
HETATM   28  O2  UNL     1     -12.557 -16.005  25.672  1.00  0.00    -0.265 OA
BRANCH  27  29
HETATM   29  O1  UNL     1     -13.807 -17.715  26.467  1.00  0.00    -0.311 OA
BRANCH  29  30
HETATM   30  C2  UNL     1     -13.384 -19.026  26.234  1.00  0.00     0.060 C 
HETATM   31  C1  UNL     1     -14.466 -19.800  25.476  1.00  0.00     0.045 C 
HETATM   32  C3  UNL     1     -13.054 -19.769  27.516  1.00  0.00     0.045 C 
HETATM   33  C4  UNL     1     -12.142 -19.006  25.378  1.00  0.00     0.045 C 
ENDBRANCH  29  30
ENDBRANCH  27  29
ENDBRANCH  26  27
ENDBRANCH  23  26
ENDBRANCH  20  21
ENDBRANCH   1  20
BRANCH   1  34
HETATM   34  O3  UNL     1      -6.828 -13.892  31.543  1.00  0.00    -0.384 OA
ATOM     35  H3  UNL     1      -6.119 -14.167  30.976  1.00  0.00     0.211 HD
ENDBRANCH   1  34
BRANCH  14  36
HETATM   36  O5  UNL     1     -11.051  -6.899  28.935  1.00  0.00    -0.395 OA
ATOM     37  H5  UNL     1     -11.994  -6.812  28.863  1.00  0.00     0.210 HD
ENDBRANCH  14  36
BRANCH  12  38
HETATM   38  C23 UNL     1     -12.776  -7.029  30.965  1.00  0.00     0.242 C 
HETATM   39  O4  UNL     1     -13.668  -7.352  30.199  1.00  0.00    -0.306 OA
ENDBRANCH  12  38
TORSDOF 9
ENDMDL
