MODEL 1
REMARK VINA RESULT: -8.780372931      0.000      0.000
REMARK  7 active torsions:
REMARK  status: ('A' for Active; 'I' for Inactive)
REMARK    1  A    between atoms: C3_3  and  C4_4 
REMARK    2  A    between atoms: C4_4  and  O1_7 
REMARK    3  A    between atoms: O1_7  and  C7_8 
REMARK    4  A    between atoms: C7_8  and  C8_10 
REMARK       I    between atoms: C8_10  and  N1_12 
REMARK    5  A    between atoms: N1_12  and  C9_14 
REMARK       I    between atoms: N2_22  and  C16_23 
REMARK       I    between atoms: C16_23  and  N3_25 
REMARK    6  A    between atoms: N3_25  and  C17_27 
REMARK    7  A    between atoms: C17_27  and  C18_28 
ROOT
HETATM    1  C1  UNL     1     -17.394  -7.725   0.005  1.00  0.00     0.112 C 
HETATM    2  C2  UNL     1     -18.666  -8.455   0.083  1.00  0.00    -0.108 C 
HETATM    3  C3  UNL     1     -19.711  -9.060   0.124  1.00  0.00    -0.069 C 
ENDROOT
BRANCH   3   4
HETATM    4  C4  UNL     1     -20.993  -9.803   0.149  1.00  0.00     0.126 C 
HETATM    5  C5  UNL     1     -21.993  -8.975   0.890  1.00  0.00     0.061 C 
HETATM    6  C6  UNL     1     -21.374 -10.052  -1.292  1.00  0.00     0.061 C 
BRANCH   4   7
HETATM    7  O1  UNL     1     -20.727 -11.049   0.814  1.00  0.00    -0.290 OA
BRANCH   7   8
HETATM    8  C7  UNL     1     -20.219 -11.112   2.080  1.00  0.00     0.353 C 
HETATM    9  O2  UNL     1     -21.050 -11.161   3.039  1.00  0.00    -0.254 OA
BRANCH   8  10
HETATM   10  C8  UNL     1     -18.789 -11.123   2.365  1.00  0.00     0.317 C 
HETATM   11  O3  UNL     1     -18.030 -11.840   1.663  1.00  0.00    -0.262 OA
HETATM   12  N1  UNL     1     -18.231 -10.347   3.414  1.00  0.00    -0.347 N 
ATOM     13  H1  UNL     1     -18.845  -9.767   3.985  1.00  0.00     0.163 HD
BRANCH  12  14
HETATM   14  C9  UNL     1     -16.787 -10.362   3.695  1.00  0.00     0.093 C 
HETATM   15  C10 UNL     1     -16.493  -8.985   4.259  1.00  0.00     0.028 C 
HETATM   16  C11 UNL     1     -16.523  -9.184   5.769  1.00  0.00     0.028 C 
HETATM   17  C12 UNL     1     -15.949 -10.581   5.900  1.00  0.00     0.098 C 
HETATM   18  C13 UNL     1     -16.566 -11.345   4.784  1.00  0.00     0.067 C 
HETATM   19  N2  UNL     1     -14.549 -10.654   5.694  1.00  0.00    -0.326 N 
HETATM   20  C14 UNL     1     -15.527 -12.392   4.447  1.00  0.00     0.196 C 
HETATM   21  F1  UNL     1     -15.613 -12.887   3.188  1.00  0.00    -0.247 F 
HETATM   22  C15 UNL     1     -14.253 -11.571   4.621  1.00  0.00     0.165 C 
HETATM   23  C16 UNL     1     -13.561  -9.935   6.441  1.00  0.00     0.318 C 
HETATM   24  O4  UNL     1     -13.946  -9.186   7.367  1.00  0.00    -0.247 OA
HETATM   25  N3  UNL     1     -12.209 -10.100   6.109  1.00  0.00    -0.342 N 
ATOM     26  H3  UNL     1     -12.018 -10.725   5.326  1.00  0.00     0.164 HD
BRANCH  25  27
HETATM   27  C17 UNL     1     -11.073  -9.511   6.719  1.00  0.00     0.132 C 
BRANCH  27  28
HETATM   28  C18 UNL     1      -9.827 -10.296   6.721  1.00  0.00    -0.035 C 
HETATM   29  C19 UNL     1      -9.757 -11.164   7.990  1.00  0.00     0.016 C 
HETATM   30  C20 UNL     1     -10.010 -11.330   5.542  1.00  0.00     0.016 C 
HETATM   31  C21 UNL     1      -8.524  -9.676   6.466  1.00  0.00     0.016 C 
ENDBRANCH  27  28
ENDBRANCH  25  27
ENDBRANCH  12  14
ENDBRANCH   8  10
ENDBRANCH   7   8
ENDBRANCH   4   7
ENDBRANCH   3   4
TORSDOF 7
ENDMDL
MODEL 2
REMARK VINA RESULT: -8.546974514      1.585      2.570
REMARK  7 active torsions:
REMARK  status: ('A' for Active; 'I' for Inactive)
REMARK    1  A    between atoms: C3_3  and  C4_4 
REMARK    2  A    between atoms: C4_4  and  O1_7 
REMARK    3  A    between atoms: O1_7  and  C7_8 
REMARK    4  A    between atoms: C7_8  and  C8_10 
REMARK       I    between atoms: C8_10  and  N1_12 
REMARK    5  A    between atoms: N1_12  and  C9_14 
REMARK       I    between atoms: N2_22  and  C16_23 
REMARK       I    between atoms: C16_23  and  N3_25 
REMARK    6  A    between atoms: N3_25  and  C17_27 
REMARK    7  A    between atoms: C17_27  and  C18_28 
ROOT
HETATM    1  C1  UNL     1     -19.074 -13.215   2.289  1.00  0.00     0.112 C 
HETATM    2  C2  UNL     1     -19.757 -11.981   1.882  1.00  0.00    -0.108 C 
HETATM    3  C3  UNL     1     -20.316 -10.971   1.526  1.00  0.00    -0.069 C 
ENDROOT
BRANCH   3   4
HETATM    4  C4  UNL     1     -20.994  -9.736   1.063  1.00  0.00     0.126 C 
HETATM    5  C5  UNL     1     -21.321  -9.904  -0.386  1.00  0.00     0.061 C 
HETATM    6  C6  UNL     1     -22.216  -9.564   1.936  1.00  0.00     0.061 C 
BRANCH   4   7
HETATM    7  O1  UNL     1     -20.070  -8.659   1.288  1.00  0.00    -0.290 OA
BRANCH   7   8
HETATM    8  C7  UNL     1     -18.809  -8.652   0.763  1.00  0.00     0.353 C 
HETATM    9  O2  UNL     1     -18.667  -8.173  -0.405  1.00  0.00    -0.254 OA
BRANCH   8  10
HETATM   10  C8  UNL     1     -17.645  -9.165   1.477  1.00  0.00     0.317 C 
HETATM   11  O3  UNL     1     -16.679  -9.629   0.818  1.00  0.00    -0.262 OA
HETATM   12  N1  UNL     1     -17.575  -9.155   2.893  1.00  0.00    -0.347 N 
ATOM     13  H1  UNL     1     -18.359  -8.781   3.428  1.00  0.00     0.163 HD
BRANCH  12  14
HETATM   14  C9  UNL     1     -16.397  -9.672   3.607  1.00  0.00     0.093 C 
HETATM   15  C10 UNL     1     -16.122  -8.643   4.686  1.00  0.00     0.028 C 
HETATM   16  C11 UNL     1     -16.797  -9.211   5.928  1.00  0.00     0.028 C 
HETATM   17  C12 UNL     1     -16.581 -10.700   5.733  1.00  0.00     0.098 C 
HETATM   18  C13 UNL     1     -16.813 -10.925   4.283  1.00  0.00     0.067 C 
HETATM   19  N2  UNL     1     -15.254 -11.129   5.986  1.00  0.00    -0.326 N 
HETATM   20  C14 UNL     1     -15.929 -12.108   3.956  1.00  0.00     0.196 C 
HETATM   21  F1  UNL     1     -15.580 -12.208   2.649  1.00  0.00    -0.247 F 
HETATM   22  C15 UNL     1     -14.713 -11.779   4.817  1.00  0.00     0.165 C 
HETATM   23  C16 UNL     1     -14.546 -10.959   7.219  1.00  0.00     0.318 C 
HETATM   24  O4  UNL     1     -15.136 -10.399   8.169  1.00  0.00    -0.247 OA
HETATM   25  N3  UNL     1     -13.227 -11.426   7.312  1.00  0.00    -0.342 N 
ATOM     26  H3  UNL     1     -12.847 -11.852   6.467  1.00  0.00     0.164 HD
BRANCH  25  27
HETATM   27  C17 UNL     1     -12.354 -11.383   8.428  1.00  0.00     0.132 C 
BRANCH  27  28
HETATM   28  C18 UNL     1     -11.070 -10.684   8.250  1.00  0.00    -0.035 C 
HETATM   29  C19 UNL     1     -10.856 -10.350   6.763  1.00  0.00     0.016 C 
HETATM   30  C20 UNL     1     -11.285  -9.282   8.945  1.00  0.00     0.016 C 
HETATM   31  C21 UNL     1      -9.826 -11.195   8.832  1.00  0.00     0.016 C 
ENDBRANCH  27  28
ENDBRANCH  25  27
ENDBRANCH  12  14
ENDBRANCH   8  10
ENDBRANCH   7   8
ENDBRANCH   4   7
ENDBRANCH   3   4
TORSDOF 7
ENDMDL
MODEL 3
REMARK VINA RESULT: -8.524682746      1.801      9.238
REMARK  7 active torsions:
REMARK  status: ('A' for Active; 'I' for Inactive)
REMARK    1  A    between atoms: C3_3  and  C4_4 
REMARK    2  A    between atoms: C4_4  and  O1_7 
REMARK    3  A    between atoms: O1_7  and  C7_8 
REMARK    4  A    between atoms: C7_8  and  C8_10 
REMARK       I    between atoms: C8_10  and  N1_12 
REMARK    5  A    between atoms: N1_12  and  C9_14 
REMARK       I    between atoms: N2_22  and  C16_23 
REMARK       I    between atoms: C16_23  and  N3_25 
REMARK    6  A    between atoms: N3_25  and  C17_27 
REMARK    7  A    between atoms: C17_27  and  C18_28 
ROOT
HETATM    1  C1  UNL     1      -7.259 -11.492   9.078  1.00  0.00     0.112 C 
HETATM    2  C2  UNL     1      -8.479 -11.094   8.363  1.00  0.00    -0.108 C 
HETATM    3  C3  UNL     1      -9.475 -10.777   7.758  1.00  0.00    -0.069 C 
ENDROOT
BRANCH   3   4
HETATM    4  C4  UNL     1     -10.687 -10.398   6.993  1.00  0.00     0.126 C 
HETATM    5  C5  UNL     1     -10.885  -8.924   7.141  1.00  0.00     0.061 C 
HETATM    6  C6  UNL     1     -10.445 -10.828   5.564  1.00  0.00     0.061 C 
BRANCH   4   7
HETATM    7  O1  UNL     1     -11.775 -11.149   7.558  1.00  0.00    -0.290 OA
BRANCH   7   8
HETATM    8  C7  UNL     1     -12.983 -10.582   7.850  1.00  0.00     0.353 C 
HETATM    9  O2  UNL     1     -13.304 -10.495   9.076  1.00  0.00    -0.254 OA
BRANCH   8  10
HETATM   10  C8  UNL     1     -13.898 -10.085   6.829  1.00  0.00     0.317 C 
HETATM   11  O3  UNL     1     -14.263  -8.882   6.869  1.00  0.00    -0.262 OA
HETATM   12  N1  UNL     1     -14.386 -10.922   5.793  1.00  0.00    -0.347 N 
ATOM     13  H1  UNL     1     -14.092 -11.898   5.761  1.00  0.00     0.163 HD
BRANCH  12  14
HETATM   14  C9  UNL     1     -15.308 -10.413   4.765  1.00  0.00     0.093 C 
HETATM   15  C10 UNL     1     -15.006 -11.247   3.535  1.00  0.00     0.028 C 
HETATM   16  C11 UNL     1     -16.059 -12.347   3.560  1.00  0.00     0.028 C 
HETATM   17  C12 UNL     1     -17.253 -11.608   4.134  1.00  0.00     0.098 C 
HETATM   18  C13 UNL     1     -16.682 -10.753   5.206  1.00  0.00     0.067 C 
HETATM   19  N2  UNL     1     -17.878 -10.723   3.221  1.00  0.00    -0.326 N 
HETATM   20  C14 UNL     1     -17.613  -9.560   5.249  1.00  0.00     0.196 C 
HETATM   21  F1  UNL     1     -17.065  -8.436   5.773  1.00  0.00    -0.247 F 
HETATM   22  C15 UNL     1     -17.890  -9.384   3.760  1.00  0.00     0.165 C 
HETATM   23  C16 UNL     1     -18.432 -11.091   1.953  1.00  0.00     0.318 C 
HETATM   24  O4  UNL     1     -18.381 -12.293   1.610  1.00  0.00    -0.247 OA
HETATM   25  N3  UNL     1     -19.008 -10.095   1.151  1.00  0.00    -0.342 N 
ATOM     26  H3  UNL     1     -18.977  -9.149   1.529  1.00  0.00     0.164 HD
BRANCH  25  27
HETATM   27  C17 UNL     1     -19.625 -10.233  -0.117  1.00  0.00     0.132 C 
BRANCH  27  28
HETATM   28  C18 UNL     1     -18.855  -9.793  -1.292  1.00  0.00    -0.035 C 
HETATM   29  C19 UNL     1     -18.308  -8.373  -1.058  1.00  0.00     0.016 C 
HETATM   30  C20 UNL     1     -17.574 -10.717  -1.294  1.00  0.00     0.016 C 
HETATM   31  C21 UNL     1     -19.390  -9.905  -2.652  1.00  0.00     0.016 C 
ENDBRANCH  27  28
ENDBRANCH  25  27
ENDBRANCH  12  14
ENDBRANCH   8  10
ENDBRANCH   7   8
ENDBRANCH   4   7
ENDBRANCH   3   4
TORSDOF 7
ENDMDL
MODEL 4
REMARK VINA RESULT: -8.416339248      1.858      2.602
REMARK  7 active torsions:
REMARK  status: ('A' for Active; 'I' for Inactive)
REMARK    1  A    between atoms: C3_3  and  C4_4 
REMARK    2  A    between atoms: C4_4  and  O1_7 
REMARK    3  A    between atoms: O1_7  and  C7_8 
REMARK    4  A    between atoms: C7_8  and  C8_10 
REMARK       I    between atoms: C8_10  and  N1_12 
REMARK    5  A    between atoms: N1_12  and  C9_14 
REMARK       I    between atoms: N2_22  and  C16_23 
REMARK       I    between atoms: C16_23  and  N3_25 
REMARK    6  A    between atoms: N3_25  and  C17_27 
REMARK    7  A    between atoms: C17_27  and  C18_28 
ROOT
HETATM    1  C1  UNL     1     -18.722 -13.346   2.276  1.00  0.00     0.112 C 
HETATM    2  C2  UNL     1     -19.371 -12.029   2.226  1.00  0.00    -0.108 C 
HETATM    3  C3  UNL     1     -19.885 -10.937   2.192  1.00  0.00    -0.069 C 
ENDROOT
BRANCH   3   4
HETATM    4  C4  UNL     1     -20.494  -9.586   2.161  1.00  0.00     0.126 C 
HETATM    5  C5  UNL     1     -19.698  -8.741   1.219  1.00  0.00     0.061 C 
HETATM    6  C6  UNL     1     -21.931  -9.771   1.729  1.00  0.00     0.061 C 
BRANCH   4   7
HETATM    7  O1  UNL     1     -20.443  -9.087   3.508  1.00  0.00    -0.290 OA
BRANCH   7   8
HETATM    8  C7  UNL     1     -19.613  -8.070   3.883  1.00  0.00     0.353 C 
HETATM    9  O2  UNL     1     -20.140  -6.932   4.085  1.00  0.00    -0.254 OA
BRANCH   8  10
HETATM   10  C8  UNL     1     -18.175  -8.238   4.057  1.00  0.00     0.317 C 
HETATM   11  O3  UNL     1     -17.392  -7.424   3.501  1.00  0.00    -0.262 OA
HETATM   12  N1  UNL     1     -17.635  -9.294   4.834  1.00  0.00    -0.347 N 
ATOM     13  H1  UNL     1     -18.268  -9.956   5.284  1.00  0.00     0.163 HD
BRANCH  12  14
HETATM   14  C9  UNL     1     -16.183  -9.456   5.007  1.00  0.00     0.093 C 
HETATM   15  C10 UNL     1     -15.826  -8.521   6.146  1.00  0.00     0.028 C 
HETATM   16  C11 UNL     1     -15.808  -9.418   7.376  1.00  0.00     0.028 C 
HETATM   17  C12 UNL     1     -15.273 -10.713   6.796  1.00  0.00     0.098 C 
HETATM   18  C13 UNL     1     -15.953 -10.843   5.482  1.00  0.00     0.067 C 
HETATM   19  N2  UNL     1     -13.884 -10.692   6.516  1.00  0.00    -0.326 N 
HETATM   20  C14 UNL     1     -14.961 -11.612   4.637  1.00  0.00     0.196 C 
HETATM   21  F1  UNL     1     -15.107 -11.442   3.300  1.00  0.00    -0.247 F 
HETATM   22  C15 UNL     1     -13.657 -10.987   5.122  1.00  0.00     0.165 C 
HETATM   23  C16 UNL     1     -12.849 -10.430   7.469  1.00  0.00     0.318 C 
HETATM   24  O4  UNL     1     -13.176 -10.212   8.656  1.00  0.00    -0.247 OA
HETATM   25  N3  UNL     1     -11.515 -10.429   7.035  1.00  0.00    -0.342 N 
ATOM     26  H3  UNL     1     -11.372 -10.604   6.041  1.00  0.00     0.164 HD
BRANCH  25  27
HETATM   27  C17 UNL     1     -10.340 -10.215   7.799  1.00  0.00     0.132 C 
BRANCH  27  28
HETATM   28  C18 UNL     1      -9.065 -10.654   7.208  1.00  0.00    -0.035 C 
HETATM   29  C19 UNL     1      -8.358 -11.637   8.158  1.00  0.00     0.016 C 
HETATM   30  C20 UNL     1      -9.487 -11.533   5.967  1.00  0.00     0.016 C 
HETATM   31  C21 UNL     1      -8.095  -9.697   6.667  1.00  0.00     0.016 C 
ENDBRANCH  27  28
ENDBRANCH  25  27
ENDBRANCH  12  14
ENDBRANCH   8  10
ENDBRANCH   7   8
ENDBRANCH   4   7
ENDBRANCH   3   4
TORSDOF 7
ENDMDL
MODEL 5
REMARK VINA RESULT: -8.379668939      1.534      1.792
REMARK  7 active torsions:
REMARK  status: ('A' for Active; 'I' for Inactive)
REMARK    1  A    between atoms: C3_3  and  C4_4 
REMARK    2  A    between atoms: C4_4  and  O1_7 
REMARK    3  A    between atoms: O1_7  and  C7_8 
REMARK    4  A    between atoms: C7_8  and  C8_10 
REMARK       I    between atoms: C8_10  and  N1_12 
REMARK    5  A    between atoms: N1_12  and  C9_14 
REMARK       I    between atoms: N2_22  and  C16_23 
REMARK       I    between atoms: C16_23  and  N3_25 
REMARK    6  A    between atoms: N3_25  and  C17_27 
REMARK    7  A    between atoms: C17_27  and  C18_28 
ROOT
HETATM    1  C1  UNL     1     -18.285  -8.498  -1.044  1.00  0.00     0.112 C 
HETATM    2  C2  UNL     1     -19.230  -8.911   0.002  1.00  0.00    -0.108 C 
HETATM    3  C3  UNL     1     -20.017  -9.263   0.847  1.00  0.00    -0.069 C 
ENDROOT
BRANCH   3   4
HETATM    4  C4  UNL     1     -20.999  -9.707   1.865  1.00  0.00     0.126 C 
HETATM    5  C5  UNL     1     -22.370  -9.480   1.315  1.00  0.00     0.061 C 
HETATM    6  C6  UNL     1     -20.701 -11.163   2.144  1.00  0.00     0.061 C 
BRANCH   4   7
HETATM    7  O1  UNL     1     -20.750  -8.917   3.040  1.00  0.00    -0.290 OA
BRANCH   7   8
HETATM    8  C7  UNL     1     -20.017  -9.381   4.094  1.00  0.00     0.353 C 
HETATM    9  O2  UNL     1     -20.655  -9.890   5.068  1.00  0.00    -0.254 OA
BRANCH   8  10
HETATM   10  C8  UNL     1     -18.561  -9.316   4.143  1.00  0.00     0.317 C 
HETATM   11  O3  UNL     1     -17.958  -8.519   3.378  1.00  0.00    -0.262 OA
HETATM   12  N1  UNL     1     -17.808 -10.127   5.030  1.00  0.00    -0.347 N 
ATOM     13  H1  UNL     1     -18.295 -10.775   5.649  1.00  0.00     0.163 HD
BRANCH  12  14
HETATM   14  C9  UNL     1     -16.338 -10.055   5.076  1.00  0.00     0.093 C 
HETATM   15  C10 UNL     1     -16.040  -9.010   6.133  1.00  0.00     0.028 C 
HETATM   16  C11 UNL     1     -15.777  -9.820   7.396  1.00  0.00     0.028 C 
HETATM   17  C12 UNL     1     -15.096 -11.050   6.829  1.00  0.00     0.098 C 
HETATM   18  C13 UNL     1     -15.854 -11.359   5.589  1.00  0.00     0.067 C 
HETATM   19  N2  UNL     1     -13.756 -10.833   6.421  1.00  0.00    -0.326 N 
HETATM   20  C14 UNL     1     -14.827 -12.016   4.693  1.00  0.00     0.196 C 
HETATM   21  F1  UNL     1     -15.110 -11.949   3.368  1.00  0.00    -0.247 F 
HETATM   22  C15 UNL     1     -13.602 -11.171   5.027  1.00  0.00     0.165 C 
HETATM   23  C16 UNL     1     -12.698 -10.360   7.263  1.00  0.00     0.318 C 
HETATM   24  O4  UNL     1     -12.956 -10.125   8.464  1.00  0.00    -0.247 OA
HETATM   25  N3  UNL     1     -11.422 -10.180   6.709  1.00  0.00    -0.342 N 
ATOM     26  H3  UNL     1     -11.337 -10.389   5.715  1.00  0.00     0.164 HD
BRANCH  25  27
HETATM   27  C17 UNL     1     -10.236  -9.744   7.351  1.00  0.00     0.132 C 
BRANCH  27  28
HETATM   28  C18 UNL     1      -9.044 -10.598   7.214  1.00  0.00    -0.035 C 
HETATM   29  C19 UNL     1      -8.983 -11.604   8.377  1.00  0.00     0.016 C 
HETATM   30  C20 UNL     1      -9.337 -11.482   5.938  1.00  0.00     0.016 C 
HETATM   31  C21 UNL     1      -7.714 -10.033   6.971  1.00  0.00     0.016 C 
ENDBRANCH  27  28
ENDBRANCH  25  27
ENDBRANCH  12  14
ENDBRANCH   8  10
ENDBRANCH   7   8
ENDBRANCH   4   7
ENDBRANCH   3   4
TORSDOF 7
ENDMDL
