MODEL 1
REMARK VINA RESULT: -9.214461988      0.000      0.000
REMARK  3 active torsions:
REMARK  status: ('A' for Active; 'I' for Inactive)
REMARK    1  A    between atoms: C2_2  and  C3_3 
REMARK    2  A    between atoms: C2_2  and  C15_18 
REMARK    3  A    between atoms: N3_24  and  S1_25 
ROOT
HETATM    1  C3  UNL     1     -17.715 -11.123   3.743  1.00  0.00    -0.007 C 
HETATM    2  C4  UNL     1     -16.495 -11.589   4.495  1.00  0.00     0.005 C 
HETATM    3  C5  UNL     1     -16.094 -10.645   5.562  1.00  0.00     0.000 C 
HETATM    4  C6  UNL     1     -15.289 -11.212   6.694  1.00  0.00     0.000 C 
HETATM    5  C7  UNL     1     -15.035 -10.059   7.685  1.00  0.00     0.000 C 
HETATM    6  C8  UNL     1     -16.312  -9.307   7.802  1.00  0.00     0.000 C 
HETATM    7  C9  UNL     1     -16.441  -8.304   8.899  1.00  0.00     0.000 C 
HETATM    8  C10 UNL     1     -17.559  -7.349   8.521  1.00  0.00     0.009 C 
HETATM    9  C11 UNL     1     -18.656  -7.907   7.708  1.00  0.00     0.103 C 
HETATM   10  C12 UNL     1     -18.675  -7.429   6.296  1.00  0.00     0.217 C 
HETATM   11  O1  UNL     1     -18.039  -6.333   6.104  1.00  0.00    -0.274 OA
HETATM   12  N1  UNL     1     -19.286  -8.025   5.208  1.00  0.00    -0.361 N 
ATOM     13  H1  UNL     1     -19.806  -7.396   4.595  1.00  0.00     0.162 HD
HETATM   14  C13 UNL     1     -19.289  -9.422   4.822  1.00  0.00     0.123 C 
HETATM   15  C14 UNL     1     -18.084  -9.703   3.988  1.00  0.00     0.024 C 
ENDROOT
BRANCH   1  16
HETATM   16  C2  UNL     1     -17.406 -11.328   2.271  1.00  0.00     0.014 C 
HETATM   17  C1  UNL     1     -16.203 -10.593   1.781  1.00  0.00     0.012 C 
BRANCH  16  18
HETATM   18  C15 UNL     1     -18.562 -11.307   1.349  1.00  0.00     0.173 A 
HETATM   19  C16 UNL     1     -19.673 -12.126   1.838  1.00  0.00     0.237 A 
HETATM   20  O2  UNL     1     -19.620 -13.308   2.215  1.00  0.00    -0.272 OA
HETATM   21  N2  UNL     1     -20.834 -11.324   1.806  1.00  0.00    -0.347 N 
HETATM   22  C17 UNL     1     -20.499 -10.060   1.209  1.00  0.00     0.233 A 
ATOM     23  H2  UNL     1     -21.755 -11.596   2.149  1.00  0.00     0.163 HD
HETATM   24  N3  UNL     1     -19.079 -10.051   0.931  1.00  0.00    -0.166 NA
BRANCH  24  25
HETATM   25  S1  UNL     1     -18.851  -9.748  -0.770  1.00  0.00     0.303 S 
HETATM   26  O3  UNL     1     -17.897 -10.703  -1.401  1.00  0.00    -0.194 OA
HETATM   27  O4  UNL     1     -18.434  -8.316  -0.932  1.00  0.00    -0.194 OA
HETATM   28 CL1  UNL     1     -20.664 -10.003  -1.774  1.00  0.00     0.035 Cl
ENDBRANCH  24  25
ENDBRANCH  16  18
ENDBRANCH   1  16
TORSDOF 3
ENDMDL
MODEL 2
REMARK VINA RESULT: -9.060816865      3.800      7.123
REMARK  3 active torsions:
REMARK  status: ('A' for Active; 'I' for Inactive)
REMARK    1  A    between atoms: C2_2  and  C3_3 
REMARK    2  A    between atoms: C2_2  and  C15_18 
REMARK    3  A    between atoms: N3_24  and  S1_25 
ROOT
HETATM    1  C3  UNL     1     -16.618  -9.654   4.094  1.00  0.00    -0.007 C 
HETATM    2  C4  UNL     1     -15.950  -9.867   2.760  1.00  0.00     0.005 C 
HETATM    3  C5  UNL     1     -16.915 -10.211   1.693  1.00  0.00     0.000 C 
HETATM    4  C6  UNL     1     -16.494  -9.913   0.285  1.00  0.00     0.000 C 
HETATM    5  C7  UNL     1     -17.669 -10.314  -0.630  1.00  0.00     0.000 C 
HETATM    6  C8  UNL     1     -18.910  -9.841   0.039  1.00  0.00     0.000 C 
HETATM    7  C9  UNL     1     -20.179  -9.849  -0.746  1.00  0.00     0.000 C 
HETATM    8  C10 UNL     1     -21.332  -9.824   0.241  1.00  0.00     0.009 C 
HETATM    9  C11 UNL     1     -21.092  -9.121   1.516  1.00  0.00     0.103 C 
HETATM   10  C12 UNL     1     -20.976 -10.024   2.698  1.00  0.00     0.217 C 
HETATM   11  O1  UNL     1     -21.501 -11.181   2.529  1.00  0.00    -0.274 OA
HETATM   12  N1  UNL     1     -20.383  -9.751   3.917  1.00  0.00    -0.361 N 
ATOM     13  H1  UNL     1     -20.909 -10.044   4.740  1.00  0.00     0.162 HD
HETATM   14  C13 UNL     1     -19.113  -9.105   4.182  1.00  0.00     0.123 C 
HETATM   15  C14 UNL     1     -18.027 -10.128   4.159  1.00  0.00     0.024 C 
ENDROOT
BRANCH   1  16
HETATM   16  C2  UNL     1     -15.776 -10.404   5.111  1.00  0.00     0.014 C 
HETATM   17  C1  UNL     1     -16.086 -11.861   5.220  1.00  0.00     0.012 C 
BRANCH  16  18
HETATM   18  C15 UNL     1     -15.546  -9.723   6.404  1.00  0.00     0.173 A 
HETATM   19  C16 UNL     1     -14.120  -9.560   6.694  1.00  0.00     0.237 A 
HETATM   20  O2  UNL     1     -13.246 -10.442   6.667  1.00  0.00    -0.272 OA
HETATM   21  N2  UNL     1     -13.908  -8.202   7.014  1.00  0.00    -0.347 N 
HETATM   22  C17 UNL     1     -15.180  -7.534   7.037  1.00  0.00     0.233 A 
ATOM     23  H2  UNL     1     -13.003  -7.768   7.199  1.00  0.00     0.163 HD
HETATM   24  N3  UNL     1     -16.200  -8.486   6.649  1.00  0.00    -0.166 NA
BRANCH  24  25
HETATM   25  S1  UNL     1     -17.384  -8.577   7.924  1.00  0.00     0.303 S 
HETATM   26  O3  UNL     1     -18.688  -9.130   7.459  1.00  0.00    -0.194 OA
HETATM   27  O4  UNL     1     -17.515  -7.212   8.531  1.00  0.00    -0.194 OA
HETATM   28 CL1  UNL     1     -16.710  -9.875   9.413  1.00  0.00     0.035 Cl
ENDBRANCH  24  25
ENDBRANCH  16  18
ENDBRANCH   1  16
TORSDOF 3
ENDMDL
MODEL 3
REMARK VINA RESULT: -8.991677232      3.599      7.001
REMARK  3 active torsions:
REMARK  status: ('A' for Active; 'I' for Inactive)
REMARK    1  A    between atoms: C2_2  and  C3_3 
REMARK    2  A    between atoms: C2_2  and  C15_18 
REMARK    3  A    between atoms: N3_24  and  S1_25 
ROOT
HETATM    1  C3  UNL     1     -16.508  -9.893   4.085  1.00  0.00    -0.007 C 
HETATM    2  C4  UNL     1     -15.877 -10.083   2.729  1.00  0.00     0.005 C 
HETATM    3  C5  UNL     1     -16.877 -10.364   1.675  1.00  0.00     0.000 C 
HETATM    4  C6  UNL     1     -16.480 -10.034   0.267  1.00  0.00     0.000 C 
HETATM    5  C7  UNL     1     -17.687 -10.370  -0.630  1.00  0.00     0.000 C 
HETATM    6  C8  UNL     1     -18.898  -9.881   0.082  1.00  0.00     0.000 C 
HETATM    7  C9  UNL     1     -20.184  -9.826  -0.672  1.00  0.00     0.000 C 
HETATM    8  C10 UNL     1     -21.312  -9.798   0.343  1.00  0.00     0.009 C 
HETATM    9  C11 UNL     1     -21.022  -9.144   1.634  1.00  0.00     0.103 C 
HETATM   10  C12 UNL     1     -20.906 -10.087   2.784  1.00  0.00     0.217 C 
HETATM   11  O1  UNL     1     -21.470 -11.222   2.591  1.00  0.00    -0.274 OA
HETATM   12  N1  UNL     1     -20.277  -9.872   3.996  1.00  0.00    -0.361 N 
ATOM     13  H1  UNL     1     -20.793 -10.175   4.822  1.00  0.00     0.162 HD
HETATM   14  C13 UNL     1     -18.981  -9.273   4.250  1.00  0.00     0.123 C 
HETATM   15  C14 UNL     1     -17.929 -10.326   4.169  1.00  0.00     0.024 C 
ENDROOT
BRANCH   1  16
HETATM   16  C2  UNL     1     -15.666 -10.700   5.058  1.00  0.00     0.014 C 
HETATM   17  C1  UNL     1     -15.981 -12.159   5.089  1.00  0.00     0.012 C 
BRANCH  16  18
HETATM   18  C15 UNL     1     -15.430 -10.091   6.384  1.00  0.00     0.173 A 
HETATM   19  C16 UNL     1     -14.226 -10.622   7.028  1.00  0.00     0.237 A 
HETATM   20  O2  UNL     1     -13.935 -11.817   7.198  1.00  0.00    -0.272 OA
HETATM   21  N2  UNL     1     -13.441  -9.520   7.428  1.00  0.00    -0.347 N 
HETATM   22  C17 UNL     1     -14.170  -8.314   7.147  1.00  0.00     0.233 A 
ATOM     23  H2  UNL     1     -12.511  -9.571   7.845  1.00  0.00     0.163 HD
HETATM   24  N3  UNL     1     -15.409  -8.674   6.490  1.00  0.00    -0.166 NA
BRANCH  24  25
HETATM   25  S1  UNL     1     -16.735  -8.037   7.424  1.00  0.00     0.303 S 
HETATM   26  O3  UNL     1     -16.286  -7.374   8.682  1.00  0.00    -0.194 OA
HETATM   27  O4  UNL     1     -17.705  -9.154   7.671  1.00  0.00    -0.194 OA
HETATM   28 CL1  UNL     1     -17.723  -6.565   6.322  1.00  0.00     0.035 Cl
ENDBRANCH  24  25
ENDBRANCH  16  18
ENDBRANCH   1  16
TORSDOF 3
ENDMDL
MODEL 4
REMARK VINA RESULT: -8.927375088      2.132      3.461
REMARK  3 active torsions:
REMARK  status: ('A' for Active; 'I' for Inactive)
REMARK    1  A    between atoms: C2_2  and  C3_3 
REMARK    2  A    between atoms: C2_2  and  C15_18 
REMARK    3  A    between atoms: N3_24  and  S1_25 
ROOT
HETATM    1  C3  UNL     1     -18.254  -8.618   3.394  1.00  0.00    -0.007 C 
HETATM    2  C4  UNL     1     -18.406  -7.853   4.683  1.00  0.00     0.005 C 
HETATM    3  C5  UNL     1     -17.705  -8.503   5.812  1.00  0.00     0.000 C 
HETATM    4  C6  UNL     1     -17.315  -7.619   6.959  1.00  0.00     0.000 C 
HETATM    5  C7  UNL     1     -16.570  -8.506   7.977  1.00  0.00     0.000 C 
HETATM    6  C8  UNL     1     -15.662  -9.384   7.193  1.00  0.00     0.000 C 
HETATM    7  C9  UNL     1     -14.621 -10.158   7.930  1.00  0.00     0.000 C 
HETATM    8  C10 UNL     1     -14.187 -11.310   7.042  1.00  0.00     0.009 C 
HETATM    9  C11 UNL     1     -14.242 -11.077   5.586  1.00  0.00     0.103 C 
HETATM   10  C12 UNL     1     -15.328 -11.825   4.888  1.00  0.00     0.217 C 
HETATM   11  O1  UNL     1     -15.764 -12.842   5.535  1.00  0.00    -0.274 OA
HETATM   12  N1  UNL     1     -15.894 -11.546   3.658  1.00  0.00    -0.361 N 
ATOM     13  H1  UNL     1     -16.029 -12.348   3.042  1.00  0.00     0.162 HD
HETATM   14  C13 UNL     1     -16.320 -10.267   3.125  1.00  0.00     0.123 C 
HETATM   15  C14 UNL     1     -17.722  -9.998   3.556  1.00  0.00     0.024 C 
ENDROOT
BRANCH   1  16
HETATM   16  C2  UNL     1     -19.638  -8.671   2.770  1.00  0.00     0.014 C 
HETATM   17  C1  UNL     1     -20.761  -8.700   3.753  1.00  0.00     0.012 C 
BRANCH  16  18
HETATM   18  C15 UNL     1     -19.803  -9.580   1.615  1.00  0.00     0.173 A 
HETATM   19  C16 UNL     1     -20.845 -10.583   1.848  1.00  0.00     0.237 A 
HETATM   20  O2  UNL     1     -20.950 -11.335   2.832  1.00  0.00    -0.272 OA
HETATM   21  N2  UNL     1     -21.721 -10.546   0.744  1.00  0.00    -0.347 N 
HETATM   22  C17 UNL     1     -21.197  -9.622  -0.224  1.00  0.00     0.233 A 
ATOM     23  H2  UNL     1     -22.582 -11.085   0.648  1.00  0.00     0.163 HD
HETATM   24  N3  UNL     1     -20.003  -9.016   0.327  1.00  0.00    -0.166 NA
BRANCH  24  25
HETATM   25  S1  UNL     1     -18.678  -9.315  -0.765  1.00  0.00     0.303 S 
HETATM   26  O3  UNL     1     -17.738 -10.355  -0.256  1.00  0.00    -0.194 OA
HETATM   27  O4  UNL     1     -18.001  -8.005  -1.041  1.00  0.00    -0.194 OA
HETATM   28 CL1  UNL     1     -19.415 -10.047  -2.575  1.00  0.00     0.035 Cl
ENDBRANCH  24  25
ENDBRANCH  16  18
ENDBRANCH   1  16
TORSDOF 3
ENDMDL
MODEL 5
REMARK VINA RESULT: -8.921406842      3.891      7.446
REMARK  3 active torsions:
REMARK  status: ('A' for Active; 'I' for Inactive)
REMARK    1  A    between atoms: C2_2  and  C3_3 
REMARK    2  A    between atoms: C2_2  and  C15_18 
REMARK    3  A    between atoms: N3_24  and  S1_25 
ROOT
HETATM    1  C3  UNL     1     -17.845  -7.860   4.421  1.00  0.00    -0.007 C 
HETATM    2  C4  UNL     1     -17.108  -7.566   3.140  1.00  0.00     0.005 C 
HETATM    3  C5  UNL     1     -17.674  -8.294   1.983  1.00  0.00     0.000 C 
HETATM    4  C6  UNL     1     -17.421  -7.702   0.628  1.00  0.00     0.000 C 
HETATM    5  C7  UNL     1     -18.138  -8.604  -0.397  1.00  0.00     0.000 C 
HETATM    6  C8  UNL     1     -19.464  -8.940   0.185  1.00  0.00     0.000 C 
HETATM    7  C9  UNL     1     -20.481  -9.576  -0.702  1.00  0.00     0.000 C 
HETATM    8  C10 UNL     1     -21.503 -10.263   0.186  1.00  0.00     0.009 C 
HETATM    9  C11 UNL     1     -21.749  -9.649   1.505  1.00  0.00     0.103 C 
HETATM   10  C12 UNL     1     -21.211 -10.433   2.654  1.00  0.00     0.217 C 
HETATM   11  O1  UNL     1     -21.005 -11.671   2.394  1.00  0.00    -0.274 OA
HETATM   12  N1  UNL     1     -20.923  -9.980   3.928  1.00  0.00    -0.361 N 
ATOM     13  H1  UNL     1     -21.239 -10.578   4.692  1.00  0.00     0.162 HD
HETATM   14  C13 UNL     1     -20.231  -8.769   4.325  1.00  0.00     0.123 C 
HETATM   15  C14 UNL     1     -18.762  -9.028   4.349  1.00  0.00     0.024 C 
ENDROOT
BRANCH   1  16
HETATM   16  C2  UNL     1     -16.778  -8.108   5.473  1.00  0.00     0.014 C 
HETATM   17  C1  UNL     1     -15.933  -9.314   5.228  1.00  0.00     0.012 C 
BRANCH  16  18
HETATM   18  C15 UNL     1     -17.186  -7.915   6.881  1.00  0.00     0.173 A 
HETATM   19  C16 UNL     1     -18.226  -6.892   7.019  1.00  0.00     0.237 A 
HETATM   20  O2  UNL     1     -18.204  -5.739   6.558  1.00  0.00    -0.272 OA
HETATM   21  N2  UNL     1     -19.274  -7.455   7.777  1.00  0.00    -0.347 N 
HETATM   22  C17 UNL     1     -18.872  -8.766   8.209  1.00  0.00     0.233 A 
ATOM     23  H2  UNL     1     -20.166  -7.007   7.984  1.00  0.00     0.163 HD
HETATM   24  N3  UNL     1     -17.571  -9.051   7.642  1.00  0.00    -0.166 NA
BRANCH  24  25
HETATM   25  S1  UNL     1     -16.468  -9.410   8.944  1.00  0.00     0.303 S 
HETATM   26  O3  UNL     1     -17.034 -10.378   9.925  1.00  0.00    -0.194 OA
HETATM   27  O4  UNL     1     -16.063  -8.112   9.576  1.00  0.00    -0.194 OA
HETATM   28 CL1  UNL     1     -14.749 -10.310   8.176  1.00  0.00     0.035 Cl
ENDBRANCH  24  25
ENDBRANCH  16  18
ENDBRANCH   1  16
TORSDOF 3
ENDMDL
