MODEL 1
REMARK VINA RESULT: -8.745141007      0.000      0.000
REMARK  6 active torsions:
REMARK  status: ('A' for Active; 'I' for Inactive)
REMARK    1  A    between atoms: N1_6  and  C6_7 
REMARK    2  A    between atoms: C6_7  and  O1_8 
REMARK    3  A    between atoms: C6_7  and  N2_10 
REMARK    4  A    between atoms: N2_10  and  C7_11 
REMARK    5  A    between atoms: C12_17  and  C13_18 
REMARK    6  A    between atoms: C14_21  and  C15_22 
ROOT
HETATM    1  C7  UNL     1     -25.649  -1.902  18.307  1.00  0.00     0.201 C 
HETATM    2  C8  UNL     1     -26.014  -0.892  17.237  1.00  0.00     0.312 C 
HETATM    3  N3  UNL     1     -26.771  -1.506  16.163  1.00  0.00     0.097 N 
HETATM    4  C9  UNL     1     -27.683  -2.472  16.771  1.00  0.00     0.273 C 
HETATM    5  C10 UNL     1     -26.885  -3.704  17.227  1.00  0.00     0.039 C 
HETATM    6  C11 UNL     1     -25.477  -3.229  17.499  1.00  0.00     0.041 C 
HETATM    7  C12 UNL     1     -24.853  -2.879  16.176  1.00  0.00     0.128 C 
HETATM    8  C14 UNL     1     -25.916  -2.272  15.277  1.00  0.00     0.247 C 
ENDROOT
BRANCH   1   9
HETATM    9  N2  UNL     1     -24.490  -1.617  19.034  1.00  0.00    -0.402 NA
BRANCH   9  10
HETATM   10  C6  UNL     1     -23.370  -1.341  19.739  1.00  0.00     0.291 C 
BRANCH  10  11
HETATM   11  N1  UNL     1     -23.234  -1.574  21.154  1.00  0.00    -0.331 N 
HETATM   12  C4  UNL     1     -22.262  -2.305  21.908  1.00  0.00     0.085 C 
HETATM   13  C3  UNL     1     -22.142  -1.586  23.221  1.00  0.00     0.031 C 
HETATM   14  C5  UNL     1     -22.599  -3.748  22.179  1.00  0.00     0.032 C 
HETATM   15  C2  UNL     1     -23.243  -0.570  23.245  1.00  0.00     0.002 C 
HETATM   16  C1  UNL     1     -23.915  -0.531  24.576  1.00  0.00     0.011 C 
HETATM   17  C18 UNL     1     -24.172  -1.056  22.142  1.00  0.00     0.132 C 
ENDBRANCH  10  11
BRANCH  10  18
HETATM   18  O1  UNL     1     -22.298  -0.838  19.200  1.00  0.00    -0.322 OA
ATOM     19  H1  UNL     1     -21.960  -1.362  18.484  1.00  0.00     0.222 HD
ENDBRANCH  10  18
ENDBRANCH   9  10
ENDBRANCH   1   9
BRANCH   7  20
HETATM   20  C13 UNL     1     -24.206  -4.086  15.544  1.00  0.00     0.179 C 
HETATM   21  O2  UNL     1     -24.844  -5.096  15.184  1.00  0.00    -0.648 OA
HETATM   22  O3  UNL     1     -22.823  -4.087  15.344  1.00  0.00    -0.648 OA
ENDBRANCH   7  20
BRANCH   8  23
HETATM   23  C15 UNL     1     -25.314  -1.329  14.275  1.00  0.00     0.098 A 
HETATM   24  C16 UNL     1     -25.987  -0.158  13.712  1.00  0.00     0.092 A 
HETATM   25  C17 UNL     1     -25.894  -1.424  12.887  1.00  0.00     0.250 A 
HETATM   26  F1  UNL     1     -27.069  -2.150  12.724  1.00  0.00    -0.206 F 
HETATM   27  F2  UNL     1     -25.045  -1.399  11.799  1.00  0.00    -0.206 F 
ENDBRANCH   8  23
TORSDOF 6
ENDMDL
MODEL 2
REMARK VINA RESULT: -8.573313854      2.372      3.292
REMARK  6 active torsions:
REMARK  status: ('A' for Active; 'I' for Inactive)
REMARK    1  A    between atoms: N1_6  and  C6_7 
REMARK    2  A    between atoms: C6_7  and  O1_8 
REMARK    3  A    between atoms: C6_7  and  N2_10 
REMARK    4  A    between atoms: N2_10  and  C7_11 
REMARK    5  A    between atoms: C12_17  and  C13_18 
REMARK    6  A    between atoms: C14_21  and  C15_22 
ROOT
HETATM    1  C7  UNL     1     -23.630  -2.877  17.922  1.00  0.00     0.201 C 
HETATM    2  C8  UNL     1     -24.862  -3.696  18.251  1.00  0.00     0.312 C 
HETATM    3  N3  UNL     1     -25.667  -3.943  17.070  1.00  0.00     0.097 N 
HETATM    4  C9  UNL     1     -24.749  -4.190  15.961  1.00  0.00     0.273 C 
HETATM    5  C10 UNL     1     -24.106  -2.861  15.531  1.00  0.00     0.039 C 
HETATM    6  C11 UNL     1     -24.114  -1.965  16.747  1.00  0.00     0.041 C 
HETATM    7  C12 UNL     1     -25.543  -1.587  17.023  1.00  0.00     0.128 C 
HETATM    8  C14 UNL     1     -26.436  -2.771  16.694  1.00  0.00     0.247 C 
ENDROOT
BRANCH   1   9
HETATM    9  N2  UNL     1     -23.126  -2.100  18.969  1.00  0.00    -0.402 NA
BRANCH   9  10
HETATM   10  C6  UNL     1     -22.639  -1.350  19.983  1.00  0.00     0.291 C 
BRANCH  10  11
HETATM   11  N1  UNL     1     -22.856  -1.647  21.377  1.00  0.00    -0.331 N 
HETATM   12  C4  UNL     1     -22.123  -2.457  22.301  1.00  0.00     0.085 C 
HETATM   13  C3  UNL     1     -22.291  -1.798  23.639  1.00  0.00     0.031 C 
HETATM   14  C5  UNL     1     -22.573  -3.890  22.409  1.00  0.00     0.032 C 
HETATM   15  C2  UNL     1     -23.325  -0.729  23.454  1.00  0.00     0.002 C 
HETATM   16  C1  UNL     1     -24.294  -0.710  24.588  1.00  0.00     0.011 C 
HETATM   17  C18 UNL     1     -23.981  -1.122  22.139  1.00  0.00     0.132 C 
ENDBRANCH  10  11
BRANCH  10  18
HETATM   18  O1  UNL     1     -21.921  -0.283  19.795  1.00  0.00    -0.322 OA
ATOM     19  H1  UNL     1     -21.667  -0.160  18.888  1.00  0.00     0.222 HD
ENDBRANCH  10  18
ENDBRANCH   9  10
ENDBRANCH   1   9
BRANCH   7  20
HETATM   20  C13 UNL     1     -25.938  -0.355  16.248  1.00  0.00     0.179 C 
HETATM   21  O2  UNL     1     -26.991  -0.271  15.585  1.00  0.00    -0.648 OA
HETATM   22  O3  UNL     1     -25.092   0.757  16.266  1.00  0.00    -0.648 OA
ENDBRANCH   7  20
BRANCH   8  23
HETATM   23  C15 UNL     1     -27.694  -2.753  17.515  1.00  0.00     0.098 A 
HETATM   24  C16 UNL     1     -28.553  -3.912  17.762  1.00  0.00     0.092 A 
HETATM   25  C17 UNL     1     -28.969  -2.893  16.722  1.00  0.00     0.250 A 
HETATM   26  F1  UNL     1     -28.865  -3.283  15.392  1.00  0.00    -0.206 F 
HETATM   27  F2  UNL     1     -30.047  -2.089  17.033  1.00  0.00    -0.206 F 
ENDBRANCH   8  23
TORSDOF 6
ENDMDL
MODEL 3
REMARK VINA RESULT: -8.498845810      0.634      1.480
REMARK  6 active torsions:
REMARK  status: ('A' for Active; 'I' for Inactive)
REMARK    1  A    between atoms: N1_6  and  C6_7 
REMARK    2  A    between atoms: C6_7  and  O1_8 
REMARK    3  A    between atoms: C6_7  and  N2_10 
REMARK    4  A    between atoms: N2_10  and  C7_11 
REMARK    5  A    between atoms: C12_17  and  C13_18 
REMARK    6  A    between atoms: C14_21  and  C15_22 
ROOT
HETATM    1  C7  UNL     1     -25.698  -2.035  18.488  1.00  0.00     0.201 C 
HETATM    2  C8  UNL     1     -26.028  -0.984  17.448  1.00  0.00     0.312 C 
HETATM    3  N3  UNL     1     -26.787  -1.545  16.347  1.00  0.00     0.097 N 
HETATM    4  C9  UNL     1     -27.727  -2.510  16.914  1.00  0.00     0.273 C 
HETATM    5  C10 UNL     1     -26.961  -3.774  17.337  1.00  0.00     0.039 C 
HETATM    6  C11 UNL     1     -25.546  -3.339  17.639  1.00  0.00     0.041 C 
HETATM    7  C12 UNL     1     -24.900  -2.961  16.335  1.00  0.00     0.128 C 
HETATM    8  C14 UNL     1     -25.940  -2.302  15.445  1.00  0.00     0.247 C 
ENDROOT
BRANCH   1   9
HETATM    9  N2  UNL     1     -24.541  -1.800  19.236  1.00  0.00    -0.402 NA
BRANCH   9  10
HETATM   10  C6  UNL     1     -23.422  -1.573  19.960  1.00  0.00     0.291 C 
BRANCH  10  11
HETATM   11  N1  UNL     1     -23.278  -1.932  21.349  1.00  0.00    -0.331 N 
HETATM   12  C4  UNL     1     -23.833  -1.366  22.539  1.00  0.00     0.085 C 
HETATM   13  C3  UNL     1     -24.011  -2.513  23.490  1.00  0.00     0.031 C 
HETATM   14  C5  UNL     1     -22.995  -0.310  23.211  1.00  0.00     0.032 C 
HETATM   15  C2  UNL     1     -23.325  -3.688  22.862  1.00  0.00     0.002 C 
HETATM   16  C1  UNL     1     -22.532  -4.454  23.867  1.00  0.00     0.011 C 
HETATM   17  C18 UNL     1     -22.446  -3.038  21.805  1.00  0.00     0.132 C 
ENDBRANCH  10  11
BRANCH  10  18
HETATM   18  O1  UNL     1     -22.360  -1.007  19.468  1.00  0.00    -0.322 OA
ATOM     19  H1  UNL     1     -21.919  -1.543  18.818  1.00  0.00     0.222 HD
ENDBRANCH  10  18
ENDBRANCH   9  10
ENDBRANCH   1   9
BRANCH   7  20
HETATM   20  C13 UNL     1     -24.273  -4.161  15.671  1.00  0.00     0.179 C 
HETATM   21  O2  UNL     1     -24.934  -5.113  15.211  1.00  0.00    -0.648 OA
HETATM   22  O3  UNL     1     -22.882  -4.223  15.556  1.00  0.00    -0.648 OA
ENDBRANCH   7  20
BRANCH   8  23
HETATM   23  C15 UNL     1     -25.306  -1.341  14.481  1.00  0.00     0.098 A 
HETATM   24  C16 UNL     1     -25.963  -0.163  13.913  1.00  0.00     0.092 A 
HETATM   25  C17 UNL     1     -25.836  -1.415  13.072  1.00  0.00     0.250 A 
HETATM   26  F1  UNL     1     -27.002  -2.141  12.856  1.00  0.00    -0.206 F 
HETATM   27  F2  UNL     1     -24.949  -1.369  12.014  1.00  0.00    -0.206 F 
ENDBRANCH   8  23
TORSDOF 6
ENDMDL
MODEL 4
REMARK VINA RESULT: -8.390849870      3.073      4.309
REMARK  6 active torsions:
REMARK  status: ('A' for Active; 'I' for Inactive)
REMARK    1  A    between atoms: N1_6  and  C6_7 
REMARK    2  A    between atoms: C6_7  and  O1_8 
REMARK    3  A    between atoms: C6_7  and  N2_10 
REMARK    4  A    between atoms: N2_10  and  C7_11 
REMARK    5  A    between atoms: C12_17  and  C13_18 
REMARK    6  A    between atoms: C14_21  and  C15_22 
ROOT
HETATM    1  C7  UNL     1     -24.475  -3.891  17.879  1.00  0.00     0.201 C 
HETATM    2  C8  UNL     1     -25.002  -4.134  16.479  1.00  0.00     0.312 C 
HETATM    3  N3  UNL     1     -24.401  -3.226  15.520  1.00  0.00     0.097 N 
HETATM    4  C9  UNL     1     -22.996  -3.072  15.889  1.00  0.00     0.273 C 
HETATM    5  C10 UNL     1     -22.896  -2.186  17.142  1.00  0.00     0.039 C 
HETATM    6  C11 UNL     1     -24.197  -2.352  17.891  1.00  0.00     0.041 C 
HETATM    7  C12 UNL     1     -25.275  -1.688  17.081  1.00  0.00     0.128 C 
HETATM    8  C14 UNL     1     -24.981  -1.900  15.606  1.00  0.00     0.247 C 
ENDROOT
BRANCH   1   9
HETATM    9  N2  UNL     1     -25.342  -4.240  18.918  1.00  0.00    -0.402 NA
BRANCH   9  10
HETATM   10  C6  UNL     1     -26.180  -4.579  19.924  1.00  0.00     0.291 C 
BRANCH  10  11
HETATM   11  N1  UNL     1     -25.811  -5.435  21.022  1.00  0.00    -0.331 N 
HETATM   12  C4  UNL     1     -25.058  -5.183  22.212  1.00  0.00     0.085 C 
HETATM   13  C3  UNL     1     -25.644  -6.082  23.262  1.00  0.00     0.031 C 
HETATM   14  C5  UNL     1     -23.580  -5.454  22.117  1.00  0.00     0.032 C 
HETATM   15  C2  UNL     1     -26.594  -6.996  22.549  1.00  0.00     0.002 C 
HETATM   16  C1  UNL     1     -26.461  -8.400  23.034  1.00  0.00     0.011 C 
HETATM   17  C18 UNL     1     -26.176  -6.844  21.094  1.00  0.00     0.132 C 
ENDBRANCH  10  11
BRANCH  10  18
HETATM   18  O1  UNL     1     -27.409  -4.157  19.996  1.00  0.00    -0.322 OA
ATOM     19  H1  UNL     1     -27.521  -3.277  19.656  1.00  0.00     0.222 HD
ENDBRANCH  10  18
ENDBRANCH   9  10
ENDBRANCH   1   9
BRANCH   7  20
HETATM   20  C13 UNL     1     -25.390  -0.224  17.425  1.00  0.00     0.179 C 
HETATM   21  O2  UNL     1     -25.939   0.195  18.463  1.00  0.00    -0.648 OA
HETATM   22  O3  UNL     1     -24.856   0.722  16.546  1.00  0.00    -0.648 OA
ENDBRANCH   7  20
BRANCH   8  23
HETATM   23  C15 UNL     1     -26.241  -1.885  14.788  1.00  0.00     0.098 A 
HETATM   24  C16 UNL     1     -26.648  -2.934  13.852  1.00  0.00     0.092 A 
HETATM   25  C17 UNL     1     -26.035  -1.660  13.312  1.00  0.00     0.250 A 
HETATM   26  F1  UNL     1     -24.739  -1.753  12.816  1.00  0.00    -0.206 F 
HETATM   27  F2  UNL     1     -26.878  -0.799  12.637  1.00  0.00    -0.206 F 
ENDBRANCH   8  23
TORSDOF 6
ENDMDL
MODEL 5
REMARK VINA RESULT: -8.296183837      3.507      4.967
REMARK  6 active torsions:
REMARK  status: ('A' for Active; 'I' for Inactive)
REMARK    1  A    between atoms: N1_6  and  C6_7 
REMARK    2  A    between atoms: C6_7  and  O1_8 
REMARK    3  A    between atoms: C6_7  and  N2_10 
REMARK    4  A    between atoms: N2_10  and  C7_11 
REMARK    5  A    between atoms: C12_17  and  C13_18 
REMARK    6  A    between atoms: C14_21  and  C15_22 
ROOT
HETATM    1  C7  UNL     1     -23.692  -2.930  20.627  1.00  0.00     0.201 C 
HETATM    2  C8  UNL     1     -22.704  -3.019  19.480  1.00  0.00     0.312 C 
HETATM    3  N3  UNL     1     -23.105  -2.180  18.368  1.00  0.00     0.097 N 
HETATM    4  C9  UNL     1     -23.654  -0.947  18.928  1.00  0.00     0.273 C 
HETATM    5  C10 UNL     1     -25.045  -1.234  19.516  1.00  0.00     0.039 C 
HETATM    6  C11 UNL     1     -25.057  -2.695  19.902  1.00  0.00     0.041 C 
HETATM    7  C12 UNL     1     -25.043  -3.499  18.632  1.00  0.00     0.128 C 
HETATM    8  C14 UNL     1     -24.183  -2.782  17.606  1.00  0.00     0.247 C 
ENDROOT
BRANCH   1   9
HETATM    9  N2  UNL     1     -23.762  -4.058  21.449  1.00  0.00    -0.402 NA
BRANCH   9  10
HETATM   10  C6  UNL     1     -23.829  -5.148  22.247  1.00  0.00     0.291 C 
BRANCH  10  11
HETATM   11  N1  UNL     1     -24.934  -6.073  22.250  1.00  0.00    -0.331 N 
HETATM   12  C4  UNL     1     -25.904  -6.399  21.249  1.00  0.00     0.085 C 
HETATM   13  C3  UNL     1     -26.235  -7.848  21.461  1.00  0.00     0.031 C 
HETATM   14  C5  UNL     1     -27.181  -5.601  21.297  1.00  0.00     0.032 C 
HETATM   15  C2  UNL     1     -25.582  -8.243  22.751  1.00  0.00     0.002 C 
HETATM   16  C1  UNL     1     -26.491  -9.083  23.583  1.00  0.00     0.011 C 
HETATM   17  C18 UNL     1     -25.279  -6.900  23.399  1.00  0.00     0.132 C 
ENDBRANCH  10  11
BRANCH  10  18
HETATM   18  O1  UNL     1     -22.893  -5.469  23.091  1.00  0.00    -0.322 OA
ATOM     19  H1  UNL     1     -22.872  -4.906  23.856  1.00  0.00     0.222 HD
ENDBRANCH  10  18
ENDBRANCH   9  10
ENDBRANCH   1   9
BRANCH   7  20
HETATM   20  C13 UNL     1     -26.443  -3.735  18.123  1.00  0.00     0.179 C 
HETATM   21  O2  UNL     1     -27.232  -2.814  17.834  1.00  0.00    -0.648 OA
HETATM   22  O3  UNL     1     -26.893  -5.048  17.961  1.00  0.00    -0.648 OA
ENDBRANCH   7  20
BRANCH   8  23
HETATM   23  C15 UNL     1     -23.581  -3.747  16.625  1.00  0.00     0.098 A 
HETATM   24  C16 UNL     1     -23.085  -3.394  15.294  1.00  0.00     0.092 A 
HETATM   25  C17 UNL     1     -24.442  -4.051  15.426  1.00  0.00     0.250 A 
HETATM   26  F1  UNL     1     -25.551  -3.242  15.202  1.00  0.00    -0.206 F 
HETATM   27  F2  UNL     1     -24.549  -5.355  14.986  1.00  0.00    -0.206 F 
ENDBRANCH   8  23
TORSDOF 6
ENDMDL
