MODEL 1
REMARK VINA RESULT: -8.876945819      0.000      0.000
REMARK  4 active torsions:
REMARK  status: ('A' for Active; 'I' for Inactive)
REMARK       I    between atoms: N1_2  and  C2_4 
REMARK       I    between atoms: C2_4  and  N2_6 
REMARK    1  A    between atoms: N3_9  and  C5_10 
REMARK    2  A    between atoms: N4_13  and  C8_14 
REMARK    3  A    between atoms: C13_19  and  C14_20 
REMARK    4  A    between atoms: C14_20  and  O2_21 
ROOT
HETATM    1  C5  UNL     1     -26.160  -7.781  21.848  1.00  0.00     0.082 C 
HETATM    2  C6  UNL     1     -26.433  -8.228  23.263  1.00  0.00     0.044 C 
HETATM    3  C7  UNL     1     -26.576  -9.737  23.195  1.00  0.00     0.119 C 
HETATM    4  N4  UNL     1     -25.534 -10.398  22.500  1.00  0.00    -0.408 N 
HETATM    5  C15 UNL     1     -25.030  -9.860  21.319  1.00  0.00     0.119 C 
HETATM    6  C16 UNL     1     -24.807  -8.348  21.482  1.00  0.00     0.044 C 
ENDROOT
BRANCH   1   7
HETATM    7  N3  UNL     1     -26.183  -6.392  21.631  1.00  0.00    -0.405 N 
HETATM    8  C4  UNL     1     -25.207  -5.602  22.284  1.00  0.00     0.137 C 
HETATM    9  C3  UNL     1     -24.234  -4.901  21.365  1.00  0.00     0.147 C 
HETATM   10  N2  UNL     1     -24.957  -4.259  20.316  1.00  0.00    -0.331 N 
HETATM   11  C2  UNL     1     -24.270  -3.462  19.371  1.00  0.00     0.318 C 
HETATM   12  C18 UNL     1     -26.399  -4.450  20.254  1.00  0.00     0.147 C 
HETATM   13  N1  UNL     1     -22.879  -3.290  19.458  1.00  0.00    -0.347 N 
HETATM   14  O1  UNL     1     -24.902  -2.899  18.445  1.00  0.00    -0.247 OA
HETATM   15  C1  UNL     1     -22.166  -2.476  18.496  1.00  0.00     0.151 C 
ATOM     16  H1  UNL     1     -22.363  -3.745  20.211  1.00  0.00     0.163 HD
HETATM   17  C17 UNL     1     -26.654  -5.937  20.379  1.00  0.00     0.137 C 
ENDBRANCH   1   7
BRANCH   4  18
HETATM   18  C8  UNL     1     -25.589 -11.788  22.704  1.00  0.00     0.085 C 
HETATM   19  C9  UNL     1     -26.743 -12.273  23.568  1.00  0.00     0.025 C 
HETATM   20  C10 UNL     1     -26.623 -13.721  23.924  1.00  0.00     0.002 C 
HETATM   21  C11 UNL     1     -25.889 -14.592  22.994  1.00  0.00     0.001 C 
HETATM   22  C12 UNL     1     -24.967 -13.990  22.012  1.00  0.00     0.009 C 
HETATM   23  C13 UNL     1     -25.453 -12.646  21.480  1.00  0.00     0.032 C 
BRANCH  23  24
HETATM   24  C14 UNL     1     -26.741 -12.943  20.772  1.00  0.00     0.170 C 
BRANCH  24  25
HETATM   25  O2  UNL     1     -26.440 -13.906  19.781  1.00  0.00    -0.400 OA
ATOM     26  H2  UNL     1     -27.239 -14.397  19.632  1.00  0.00     0.209 HD
ENDBRANCH  24  25
ENDBRANCH  23  24
ENDBRANCH   4  18
TORSDOF 4
ENDMDL
MODEL 2
REMARK VINA RESULT: -8.624911015      5.774      9.577
REMARK  4 active torsions:
REMARK  status: ('A' for Active; 'I' for Inactive)
REMARK       I    between atoms: N1_2  and  C2_4 
REMARK       I    between atoms: C2_4  and  N2_6 
REMARK    1  A    between atoms: N3_9  and  C5_10 
REMARK    2  A    between atoms: N4_13  and  C8_14 
REMARK    3  A    between atoms: C13_19  and  C14_20 
REMARK    4  A    between atoms: C14_20  and  O2_21 
ROOT
HETATM    1  C5  UNL     1     -24.322  -3.957  19.094  1.00  0.00     0.082 C 
HETATM    2  C6  UNL     1     -23.346  -3.147  18.273  1.00  0.00     0.044 C 
HETATM    3  C7  UNL     1     -23.872  -3.194  16.851  1.00  0.00     0.119 C 
HETATM    4  N4  UNL     1     -25.246  -2.875  16.719  1.00  0.00    -0.408 N 
HETATM    5  C15 UNL     1     -26.169  -3.362  17.641  1.00  0.00     0.119 C 
HETATM    6  C16 UNL     1     -25.626  -3.193  19.069  1.00  0.00     0.044 C 
ENDROOT
BRANCH   1   7
HETATM    7  N3  UNL     1     -23.934  -4.218  20.420  1.00  0.00    -0.405 N 
HETATM    8  C4  UNL     1     -23.168  -3.237  21.094  1.00  0.00     0.137 C 
HETATM    9  C3  UNL     1     -23.847  -2.604  22.285  1.00  0.00     0.147 C 
HETATM   10  N2  UNL     1     -24.409  -3.627  23.104  1.00  0.00    -0.331 N 
HETATM   11  C2  UNL     1     -25.029  -3.288  24.330  1.00  0.00     0.318 C 
HETATM   12  C18 UNL     1     -24.326  -5.006  22.642  1.00  0.00     0.147 C 
HETATM   13  N1  UNL     1     -25.091  -1.951  24.754  1.00  0.00    -0.347 N 
HETATM   14  O1  UNL     1     -25.528  -4.186  25.051  1.00  0.00    -0.247 OA
HETATM   15  C1  UNL     1     -25.723  -1.595  26.007  1.00  0.00     0.151 C 
ATOM     16  H1  UNL     1     -24.684  -1.220  24.170  1.00  0.00     0.163 HD
HETATM   17  C17 UNL     1     -24.794  -5.019  21.204  1.00  0.00     0.137 C 
ENDBRANCH   1   7
BRANCH   4  18
HETATM   18  C8  UNL     1     -25.595  -2.679  15.372  1.00  0.00     0.085 C 
HETATM   19  C9  UNL     1     -27.018  -3.073  15.003  1.00  0.00     0.025 C 
HETATM   20  C10 UNL     1     -27.257  -3.046  13.528  1.00  0.00     0.002 C 
HETATM   21  C11 UNL     1     -26.441  -2.124  12.723  1.00  0.00     0.001 C 
HETATM   22  C12 UNL     1     -25.182  -1.595  13.282  1.00  0.00     0.009 C 
HETATM   23  C13 UNL     1     -25.252  -1.341  14.784  1.00  0.00     0.032 C 
BRANCH  23  24
HETATM   24  C14 UNL     1     -26.305  -0.288  14.958  1.00  0.00     0.170 C 
BRANCH  24  25
HETATM   25  O2  UNL     1     -25.620   0.926  15.198  1.00  0.00    -0.400 OA
ATOM     26  H2  UNL     1     -25.466   1.320  14.348  1.00  0.00     0.209 HD
ENDBRANCH  24  25
ENDBRANCH  23  24
ENDBRANCH   4  18
TORSDOF 4
ENDMDL
MODEL 3
REMARK VINA RESULT: -8.578498381      1.346      1.392
REMARK  4 active torsions:
REMARK  status: ('A' for Active; 'I' for Inactive)
REMARK       I    between atoms: N1_2  and  C2_4 
REMARK       I    between atoms: C2_4  and  N2_6 
REMARK    1  A    between atoms: N3_9  and  C5_10 
REMARK    2  A    between atoms: N4_13  and  C8_14 
REMARK    3  A    between atoms: C13_19  and  C14_20 
REMARK    4  A    between atoms: C14_20  and  O2_21 
ROOT
HETATM    1  C5  UNL     1     -26.147  -7.718  21.957  1.00  0.00     0.082 C 
HETATM    2  C6  UNL     1     -26.393  -8.209  23.363  1.00  0.00     0.044 C 
HETATM    3  C7  UNL     1     -26.546  -9.714  23.250  1.00  0.00     0.119 C 
HETATM    4  N4  UNL     1     -25.523 -10.358  22.512  1.00  0.00    -0.408 N 
HETATM    5  C15 UNL     1     -25.041  -9.786  21.338  1.00  0.00     0.119 C 
HETATM    6  C16 UNL     1     -24.806  -8.280  21.545  1.00  0.00     0.044 C 
ENDROOT
BRANCH   1   7
HETATM    7  N3  UNL     1     -26.166  -6.323  21.785  1.00  0.00    -0.405 N 
HETATM    8  C4  UNL     1     -26.035  -5.510  22.937  1.00  0.00     0.137 C 
HETATM    9  C3  UNL     1     -24.785  -4.663  22.981  1.00  0.00     0.147 C 
HETATM   10  N2  UNL     1     -24.621  -4.001  21.728  1.00  0.00    -0.331 N 
HETATM   11  C2  UNL     1     -23.562  -3.080  21.551  1.00  0.00     0.318 C 
HETATM   12  C18 UNL     1     -25.562  -4.303  20.659  1.00  0.00     0.147 C 
HETATM   13  N1  UNL     1     -22.672  -2.803  22.601  1.00  0.00    -0.347 N 
HETATM   14  O1  UNL     1     -23.413  -2.499  20.449  1.00  0.00    -0.247 OA
HETATM   15  C1  UNL     1     -21.586  -1.861  22.429  1.00  0.00     0.151 C 
ATOM     16  H1  UNL     1     -22.792  -3.273  23.498  1.00  0.00     0.163 HD
HETATM   17  C17 UNL     1     -25.661  -5.810  20.570  1.00  0.00     0.137 C 
ENDBRANCH   1   7
BRANCH   4  18
HETATM   18  C8  UNL     1     -25.582 -11.753  22.672  1.00  0.00     0.085 C 
HETATM   19  C9  UNL     1     -26.750 -12.264  23.503  1.00  0.00     0.025 C 
HETATM   20  C10 UNL     1     -26.637 -13.721  23.817  1.00  0.00     0.002 C 
HETATM   21  C11 UNL     1     -25.889 -14.565  22.872  1.00  0.00     0.001 C 
HETATM   22  C12 UNL     1     -24.951 -13.934  21.923  1.00  0.00     0.009 C 
HETATM   23  C13 UNL     1     -25.428 -12.574  21.425  1.00  0.00     0.032 C 
BRANCH  23  24
HETATM   24  C14 UNL     1     -26.705 -12.848  20.689  1.00  0.00     0.170 C 
BRANCH  24  25
HETATM   25  O2  UNL     1     -26.410 -13.852  19.737  1.00  0.00    -0.400 OA
ATOM     26  H2  UNL     1     -27.010 -13.720  19.013  1.00  0.00     0.209 HD
ENDBRANCH  24  25
ENDBRANCH  23  24
ENDBRANCH   4  18
TORSDOF 4
ENDMDL
MODEL 4
REMARK VINA RESULT: -8.556486099      6.084      9.642
REMARK  4 active torsions:
REMARK  status: ('A' for Active; 'I' for Inactive)
REMARK       I    between atoms: N1_2  and  C2_4 
REMARK       I    between atoms: C2_4  and  N2_6 
REMARK    1  A    between atoms: N3_9  and  C5_10 
REMARK    2  A    between atoms: N4_13  and  C8_14 
REMARK    3  A    between atoms: C13_19  and  C14_20 
REMARK    4  A    between atoms: C14_20  and  O2_21 
ROOT
HETATM    1  C5  UNL     1     -24.219  -3.290  18.717  1.00  0.00     0.082 C 
HETATM    2  C6  UNL     1     -25.359  -4.155  18.237  1.00  0.00     0.044 C 
HETATM    3  C7  UNL     1     -25.858  -3.501  16.962  1.00  0.00     0.119 C 
HETATM    4  N4  UNL     1     -24.845  -3.189  16.023  1.00  0.00    -0.408 N 
HETATM    5  C15 UNL     1     -23.634  -2.655  16.452  1.00  0.00     0.119 C 
HETATM    6  C16 UNL     1     -23.126  -3.424  17.682  1.00  0.00     0.044 C 
ENDROOT
BRANCH   1   7
HETATM    7  N3  UNL     1     -23.720  -3.593  19.996  1.00  0.00    -0.405 N 
HETATM    8  C4  UNL     1     -23.106  -2.552  20.733  1.00  0.00     0.137 C 
HETATM    9  C3  UNL     1     -23.821  -2.161  22.004  1.00  0.00     0.147 C 
HETATM   10  N2  UNL     1     -24.149  -3.337  22.741  1.00  0.00    -0.331 N 
HETATM   11  C2  UNL     1     -24.752  -3.226  24.016  1.00  0.00     0.318 C 
HETATM   12  C18 UNL     1     -23.846  -4.631  22.146  1.00  0.00     0.147 C 
HETATM   13  N1  UNL     1     -25.028  -1.965  24.568  1.00  0.00    -0.347 N 
HETATM   14  O1  UNL     1     -25.045  -4.259  24.665  1.00  0.00    -0.247 OA
HETATM   15  C1  UNL     1     -25.645  -1.841  25.873  1.00  0.00     0.151 C 
ATOM     16  H1  UNL     1     -24.789  -1.124  24.043  1.00  0.00     0.163 HD
HETATM   17  C17 UNL     1     -24.381  -4.602  20.731  1.00  0.00     0.137 C 
ENDBRANCH   1   7
BRANCH   4  18
HETATM   18  C8  UNL     1     -25.397  -2.839  14.778  1.00  0.00     0.085 C 
HETATM   19  C9  UNL     1     -26.843  -3.262  14.565  1.00  0.00     0.025 C 
HETATM   20  C10 UNL     1     -27.299  -3.056  13.156  1.00  0.00     0.002 C 
HETATM   21  C11 UNL     1     -26.647  -1.993  12.377  1.00  0.00     0.001 C 
HETATM   22  C12 UNL     1     -25.339  -1.471  12.819  1.00  0.00     0.009 C 
HETATM   23  C13 UNL     1     -25.196  -1.419  14.336  1.00  0.00     0.032 C 
BRANCH  23  24
HETATM   24  C14 UNL     1     -26.250  -0.459  14.801  1.00  0.00     0.170 C 
BRANCH  24  25
HETATM   25  O2  UNL     1     -25.667   0.301  15.842  1.00  0.00    -0.400 OA
ATOM     26  H2  UNL     1     -24.975  -0.235  16.211  1.00  0.00     0.209 HD
ENDBRANCH  24  25
ENDBRANCH  23  24
ENDBRANCH   4  18
TORSDOF 4
ENDMDL
MODEL 5
REMARK VINA RESULT: -8.441424042      2.652      4.049
REMARK  4 active torsions:
REMARK  status: ('A' for Active; 'I' for Inactive)
REMARK       I    between atoms: N1_2  and  C2_4 
REMARK       I    between atoms: C2_4  and  N2_6 
REMARK    1  A    between atoms: N3_9  and  C5_10 
REMARK    2  A    between atoms: N4_13  and  C8_14 
REMARK    3  A    between atoms: C13_19  and  C14_20 
REMARK    4  A    between atoms: C14_20  and  O2_21 
ROOT
HETATM    1  C5  UNL     1     -24.625  -5.029  20.756  1.00  0.00     0.082 C 
HETATM    2  C6  UNL     1     -26.103  -5.337  20.731  1.00  0.00     0.044 C 
HETATM    3  C7  UNL     1     -26.210  -6.842  20.881  1.00  0.00     0.119 C 
HETATM    4  N4  UNL     1     -25.456  -7.385  21.951  1.00  0.00    -0.408 N 
HETATM    5  C15 UNL     1     -24.170  -6.917  22.208  1.00  0.00     0.119 C 
HETATM    6  C16 UNL     1     -24.147  -5.381  22.146  1.00  0.00     0.044 C 
ENDROOT
BRANCH   1   7
HETATM    7  N3  UNL     1     -24.271  -3.707  20.437  1.00  0.00    -0.405 N 
HETATM    8  C4  UNL     1     -23.370  -3.500  19.365  1.00  0.00     0.137 C 
HETATM    9  C3  UNL     1     -23.946  -2.762  18.180  1.00  0.00     0.147 C 
HETATM   10  N2  UNL     1     -24.643  -1.606  18.640  1.00  0.00    -0.331 N 
HETATM   11  C2  UNL     1     -25.202  -0.702  17.706  1.00  0.00     0.318 C 
HETATM   12  C18 UNL     1     -24.759  -1.394  20.076  1.00  0.00     0.147 C 
HETATM   13  N1  UNL     1     -25.071  -0.927  16.327  1.00  0.00    -0.347 N 
HETATM   14  O1  UNL     1     -25.820   0.314  18.107  1.00  0.00    -0.247 OA
HETATM   15  C1  UNL     1     -25.639  -0.007  15.363  1.00  0.00     0.151 C 
ATOM     16  H1  UNL     1     -24.568  -1.751  15.998  1.00  0.00     0.163 HD
HETATM   17  C17 UNL     1     -25.232  -2.700  20.678  1.00  0.00     0.137 C 
ENDBRANCH   1   7
BRANCH   4  18
HETATM   18  C8  UNL     1     -25.807  -8.724  22.192  1.00  0.00     0.085 C 
HETATM   19  C9  UNL     1     -24.860  -9.761  21.606  1.00  0.00     0.025 C 
HETATM   20  C10 UNL     1     -25.399 -11.152  21.709  1.00  0.00     0.002 C 
HETATM   21  C11 UNL     1     -26.332 -11.442  22.808  1.00  0.00     0.001 C 
HETATM   22  C12 UNL     1     -27.021 -10.326  23.486  1.00  0.00     0.009 C 
HETATM   23  C13 UNL     1     -26.158  -9.075  23.608  1.00  0.00     0.032 C 
BRANCH  23  24
HETATM   24  C14 UNL     1     -24.995  -9.479  24.464  1.00  0.00     0.170 C 
BRANCH  24  25
HETATM   25  O2  UNL     1     -25.140  -8.787  25.689  1.00  0.00    -0.400 OA
ATOM     26  H2  UNL     1     -26.049  -8.514  25.737  1.00  0.00     0.209 HD
ENDBRANCH  24  25
ENDBRANCH  23  24
ENDBRANCH   4  18
TORSDOF 4
ENDMDL
