MODEL 1
REMARK VINA RESULT: -8.878103615      0.000      0.000
REMARK  4 active torsions:
REMARK  status: ('A' for Active; 'I' for Inactive)
REMARK       I    between atoms: N1_2  and  C2_4 
REMARK       I    between atoms: C2_4  and  N2_6 
REMARK    1  A    between atoms: C6_10  and  C8_12 
REMARK    2  A    between atoms: C8_12  and  N3_15 
REMARK       I    between atoms: N3_15  and  C10_17 
REMARK    3  A    between atoms: C10_17  and  C11_19 
REMARK    4  A    between atoms: C11_19  and  N4_20 
ROOT
HETATM    1  C8  UNL     1     -25.634  -4.550  18.977  1.00  0.00     0.183 C 
HETATM    2  C9  UNL     1     -26.803  -3.715  19.457  1.00  0.00     0.077 C 
HETATM    3  F1  UNL     1     -26.094  -5.582  18.152  1.00  0.00    -0.219 F 
ENDROOT
BRANCH   1   4
HETATM    4  C6  UNL     1     -24.772  -3.672  18.114  1.00  0.00     0.027 C 
HETATM    5  C5  UNL     1     -25.187  -2.232  18.330  1.00  0.00     0.017 C 
HETATM    6  C4  UNL     1     -24.291  -1.303  17.568  1.00  0.00     0.021 C 
HETATM    7  C3  UNL     1     -23.836  -1.879  16.242  1.00  0.00     0.127 C 
HETATM    8  N2  UNL     1     -24.785  -2.869  15.779  1.00  0.00    -0.333 N 
HETATM    9  C2  UNL     1     -25.507  -2.769  14.580  1.00  0.00     0.317 C 
HETATM   10  C18 UNL     1     -24.959  -4.027  16.661  1.00  0.00     0.141 C 
HETATM   11  N1  UNL     1     -25.417  -1.708  13.665  1.00  0.00    -0.347 N 
HETATM   12  O1  UNL     1     -26.305  -3.704  14.295  1.00  0.00    -0.247 OA
HETATM   13  C1  UNL     1     -26.204  -1.678  12.437  1.00  0.00     0.151 C 
ATOM     14  H1  UNL     1     -24.781  -0.935  13.865  1.00  0.00     0.163 HD
HETATM   15  C7  UNL     1     -23.337  -3.831  18.557  1.00  0.00     0.022 C 
ENDBRANCH   1   4
BRANCH   1  16
HETATM   16  N3  UNL     1     -24.929  -5.115  20.088  1.00  0.00    -0.320 N 
HETATM   17  C10 UNL     1     -25.577  -6.067  20.915  1.00  0.00     0.259 C 
HETATM   18  O2  UNL     1     -26.753  -6.393  20.655  1.00  0.00    -0.267 OA
ATOM     19  H3  UNL     1     -23.967  -4.834  20.283  1.00  0.00     0.166 HD
BRANCH  17  20
HETATM   20  C11 UNL     1     -24.875  -6.686  22.091  1.00  0.00     0.169 C 
BRANCH  20  21
HETATM   21  N4  UNL     1     -25.256  -7.992  22.370  1.00  0.00    -0.345 N 
HETATM   22  C12 UNL     1     -26.153  -8.291  23.407  1.00  0.00     0.068 C 
HETATM   23  C13 UNL     1     -25.715  -9.516  24.155  1.00  0.00     0.045 C 
HETATM   24  C14 UNL     1     -25.938 -10.808  23.478  1.00  0.00     0.005 C 
HETATM   25  C15 UNL     1     -26.346 -10.745  22.042  1.00  0.00     0.005 C 
HETATM   26  C16 UNL     1     -25.369 -10.028  21.161  1.00  0.00     0.045 C 
HETATM   27  C17 UNL     1     -24.487  -9.067  21.926  1.00  0.00     0.068 C 
ENDBRANCH  20  21
ENDBRANCH  17  20
ENDBRANCH   1  16
TORSDOF 4
ENDMDL
MODEL 2
REMARK VINA RESULT: -8.720411320      2.925      3.638
REMARK  4 active torsions:
REMARK  status: ('A' for Active; 'I' for Inactive)
REMARK       I    between atoms: N1_2  and  C2_4 
REMARK       I    between atoms: C2_4  and  N2_6 
REMARK    1  A    between atoms: C6_10  and  C8_12 
REMARK    2  A    between atoms: C8_12  and  N3_15 
REMARK       I    between atoms: N3_15  and  C10_17 
REMARK    3  A    between atoms: C10_17  and  C11_19 
REMARK    4  A    between atoms: C11_19  and  N4_20 
ROOT
HETATM    1  C8  UNL     1     -23.861  -3.658  22.874  1.00  0.00     0.183 C 
HETATM    2  C9  UNL     1     -22.733  -4.442  23.511  1.00  0.00     0.077 C 
HETATM    3  F1  UNL     1     -24.602  -3.003  23.864  1.00  0.00    -0.219 F 
ENDROOT
BRANCH   1   4
HETATM    4  C6  UNL     1     -23.245  -2.582  22.025  1.00  0.00     0.027 C 
HETATM    5  C5  UNL     1     -24.300  -1.535  21.736  1.00  0.00     0.017 C 
HETATM    6  C4  UNL     1     -23.711  -0.386  20.975  1.00  0.00     0.021 C 
HETATM    7  C3  UNL     1     -22.634  -0.816  19.999  1.00  0.00     0.127 C 
HETATM    8  N2  UNL     1     -22.831  -2.199  19.621  1.00  0.00    -0.333 N 
HETATM    9  C2  UNL     1     -23.075  -2.630  18.309  1.00  0.00     0.317 C 
HETATM   10  C18 UNL     1     -22.757  -3.164  20.722  1.00  0.00     0.141 C 
HETATM   11  N1  UNL     1     -23.164  -1.795  17.184  1.00  0.00    -0.347 N 
HETATM   12  O1  UNL     1     -23.230  -3.868  18.116  1.00  0.00    -0.247 OA
HETATM   13  C1  UNL     1     -23.423  -2.323  15.848  1.00  0.00     0.151 C 
ATOM     14  H1  UNL     1     -23.045  -0.789  17.304  1.00  0.00     0.163 HD
HETATM   15  C7  UNL     1     -22.129  -1.937  22.811  1.00  0.00     0.022 C 
ENDBRANCH   1   4
BRANCH   1  16
HETATM   16  N3  UNL     1     -24.727  -4.530  22.138  1.00  0.00    -0.320 N 
HETATM   17  C10 UNL     1     -25.656  -5.343  22.835  1.00  0.00     0.259 C 
HETATM   18  O2  UNL     1     -25.699  -5.281  24.081  1.00  0.00    -0.267 OA
ATOM     19  H3  UNL     1     -24.675  -4.566  21.119  1.00  0.00     0.166 HD
BRANCH  17  20
HETATM   20  C11 UNL     1     -26.584  -6.272  22.104  1.00  0.00     0.169 C 
BRANCH  20  21
HETATM   21  N4  UNL     1     -26.328  -7.621  22.305  1.00  0.00    -0.345 N 
HETATM   22  C12 UNL     1     -26.962  -8.346  23.325  1.00  0.00     0.068 C 
HETATM   23  C13 UNL     1     -25.997  -9.278  23.998  1.00  0.00     0.045 C 
HETATM   24  C14 UNL     1     -25.634 -10.495  23.245  1.00  0.00     0.005 C 
HETATM   25  C15 UNL     1     -26.070 -10.548  21.817  1.00  0.00     0.005 C 
HETATM   26  C16 UNL     1     -25.548  -9.423  20.977  1.00  0.00     0.045 C 
HETATM   27  C17 UNL     1     -25.171  -8.208  21.795  1.00  0.00     0.068 C 
ENDBRANCH  20  21
ENDBRANCH  17  20
ENDBRANCH   1  16
TORSDOF 4
ENDMDL
MODEL 3
REMARK VINA RESULT: -8.685939190      2.616      8.116
REMARK  4 active torsions:
REMARK  status: ('A' for Active; 'I' for Inactive)
REMARK       I    between atoms: N1_2  and  C2_4 
REMARK       I    between atoms: C2_4  and  N2_6 
REMARK    1  A    between atoms: C6_10  and  C8_12 
REMARK    2  A    between atoms: C8_12  and  N3_15 
REMARK       I    between atoms: N3_15  and  C10_17 
REMARK    3  A    between atoms: C10_17  and  C11_19 
REMARK    4  A    between atoms: C11_19  and  N4_20 
ROOT
HETATM    1  C8  UNL     1     -23.171  -2.330  19.927  1.00  0.00     0.183 C 
HETATM    2  C9  UNL     1     -22.966  -0.832  19.838  1.00  0.00     0.077 C 
HETATM    3  F1  UNL     1     -21.951  -2.989  19.742  1.00  0.00    -0.219 F 
ENDROOT
BRANCH   1   4
HETATM    4  C6  UNL     1     -23.614  -2.646  21.328  1.00  0.00     0.027 C 
HETATM    5  C5  UNL     1     -22.430  -3.198  22.093  1.00  0.00     0.017 C 
HETATM    6  C4  UNL     1     -22.792  -3.437  23.527  1.00  0.00     0.021 C 
HETATM    7  C3  UNL     1     -24.224  -3.899  23.706  1.00  0.00     0.127 C 
HETATM    8  N2  UNL     1     -24.694  -4.536  22.493  1.00  0.00    -0.333 N 
HETATM    9  C2  UNL     1     -25.112  -5.873  22.417  1.00  0.00     0.317 C 
HETATM   10  C18 UNL     1     -24.713  -3.678  21.305  1.00  0.00     0.141 C 
HETATM   11  N1  UNL     1     -25.136  -6.778  23.490  1.00  0.00    -0.347 N 
HETATM   12  O1  UNL     1     -25.499  -6.304  21.296  1.00  0.00    -0.247 OA
HETATM   13  C1  UNL     1     -25.586  -8.157  23.327  1.00  0.00     0.151 C 
ATOM     14  H1  UNL     1     -24.829  -6.463  24.410  1.00  0.00     0.163 HD
HETATM   15  C7  UNL     1     -24.057  -1.362  21.988  1.00  0.00     0.022 C 
ENDBRANCH   1   4
BRANCH   1  16
HETATM   16  N3  UNL     1     -24.101  -2.771  18.930  1.00  0.00    -0.320 N 
HETATM   17  C10 UNL     1     -23.640  -3.566  17.850  1.00  0.00     0.259 C 
HETATM   18  O2  UNL     1     -22.430  -3.866  17.792  1.00  0.00    -0.267 OA
ATOM     19  H3  UNL     1     -25.086  -2.514  18.996  1.00  0.00     0.166 HD
BRANCH  17  20
HETATM   20  C11 UNL     1     -24.580  -4.052  16.782  1.00  0.00     0.169 C 
BRANCH  20  21
HETATM   21  N4  UNL     1     -24.996  -3.073  15.890  1.00  0.00    -0.345 N 
HETATM   22  C12 UNL     1     -24.158  -2.008  15.522  1.00  0.00     0.068 C 
HETATM   23  C13 UNL     1     -24.927  -0.722  15.454  1.00  0.00     0.045 C 
HETATM   24  C14 UNL     1     -25.802  -0.547  14.279  1.00  0.00     0.005 C 
HETATM   25  C15 UNL     1     -26.011  -1.752  13.420  1.00  0.00     0.005 C 
HETATM   26  C16 UNL     1     -26.596  -2.926  14.147  1.00  0.00     0.045 C 
HETATM   27  C17 UNL     1     -26.352  -2.870  15.639  1.00  0.00     0.068 C 
ENDBRANCH  20  21
ENDBRANCH  17  20
ENDBRANCH   1  16
TORSDOF 4
ENDMDL
MODEL 4
REMARK VINA RESULT: -8.655111894      0.260      1.197
REMARK  4 active torsions:
REMARK  status: ('A' for Active; 'I' for Inactive)
REMARK       I    between atoms: N1_2  and  C2_4 
REMARK       I    between atoms: C2_4  and  N2_6 
REMARK    1  A    between atoms: C6_10  and  C8_12 
REMARK    2  A    between atoms: C8_12  and  N3_15 
REMARK       I    between atoms: N3_15  and  C10_17 
REMARK    3  A    between atoms: C10_17  and  C11_19 
REMARK    4  A    between atoms: C11_19  and  N4_20 
ROOT
HETATM    1  C8  UNL     1     -25.672  -4.566  19.021  1.00  0.00     0.183 C 
HETATM    2  C9  UNL     1     -26.786  -3.699  19.573  1.00  0.00     0.077 C 
HETATM    3  F1  UNL     1     -26.204  -5.531  18.159  1.00  0.00    -0.219 F 
ENDROOT
BRANCH   1   4
HETATM    4  C6  UNL     1     -24.788  -3.689  18.181  1.00  0.00     0.027 C 
HETATM    5  C5  UNL     1     -25.197  -2.247  18.396  1.00  0.00     0.017 C 
HETATM    6  C4  UNL     1     -24.280  -1.321  17.657  1.00  0.00     0.021 C 
HETATM    7  C3  UNL     1     -23.804  -1.893  16.336  1.00  0.00     0.127 C 
HETATM    8  N2  UNL     1     -24.752  -2.873  15.850  1.00  0.00    -0.333 N 
HETATM    9  C2  UNL     1     -25.450  -2.761  14.638  1.00  0.00     0.317 C 
HETATM   10  C18 UNL     1     -24.950  -4.035  16.721  1.00  0.00     0.141 C 
HETATM   11  N1  UNL     1     -25.335  -1.695  13.731  1.00  0.00    -0.347 N 
HETATM   12  O1  UNL     1     -26.249  -3.688  14.333  1.00  0.00    -0.247 OA
HETATM   13  C1  UNL     1     -26.099  -1.653  12.489  1.00  0.00     0.151 C 
ATOM     14  H1  UNL     1     -24.698  -0.928  13.948  1.00  0.00     0.163 HD
HETATM   15  C7  UNL     1     -23.363  -3.861  18.649  1.00  0.00     0.022 C 
ENDBRANCH   1   4
BRANCH   1  16
HETATM   16  N3  UNL     1     -24.970  -5.220  20.085  1.00  0.00    -0.320 N 
HETATM   17  C10 UNL     1     -25.678  -6.076  20.966  1.00  0.00     0.259 C 
HETATM   18  O2  UNL     1     -26.903  -6.241  20.795  1.00  0.00    -0.267 OA
ATOM     19  H3  UNL     1     -23.968  -5.071  20.207  1.00  0.00     0.166 HD
BRANCH  17  20
HETATM   20  C11 UNL     1     -24.981  -6.784  22.094  1.00  0.00     0.169 C 
BRANCH  20  21
HETATM   21  N4  UNL     1     -25.359  -8.108  22.266  1.00  0.00    -0.345 N 
HETATM   22  C12 UNL     1     -24.834  -9.133  21.463  1.00  0.00     0.068 C 
HETATM   23  C13 UNL     1     -25.903 -10.116  21.084  1.00  0.00     0.045 C 
HETATM   24  C14 UNL     1     -26.333 -11.051  22.142  1.00  0.00     0.005 C 
HETATM   25  C15 UNL     1     -25.840 -10.766  23.523  1.00  0.00     0.005 C 
HETATM   26  C16 UNL     1     -26.228  -9.415  24.043  1.00  0.00     0.045 C 
HETATM   27  C17 UNL     1     -26.538  -8.430  22.937  1.00  0.00     0.068 C 
ENDBRANCH  20  21
ENDBRANCH  17  20
ENDBRANCH   1  16
TORSDOF 4
ENDMDL
MODEL 5
REMARK VINA RESULT: -8.616919229      2.647      8.228
REMARK  4 active torsions:
REMARK  status: ('A' for Active; 'I' for Inactive)
REMARK       I    between atoms: N1_2  and  C2_4 
REMARK       I    between atoms: C2_4  and  N2_6 
REMARK    1  A    between atoms: C6_10  and  C8_12 
REMARK    2  A    between atoms: C8_12  and  N3_15 
REMARK       I    between atoms: N3_15  and  C10_17 
REMARK    3  A    between atoms: C10_17  and  C11_19 
REMARK    4  A    between atoms: C11_19  and  N4_20 
ROOT
HETATM    1  C8  UNL     1     -23.128  -2.311  19.978  1.00  0.00     0.183 C 
HETATM    2  C9  UNL     1     -22.836  -0.825  19.943  1.00  0.00     0.077 C 
HETATM    3  F1  UNL     1     -21.947  -3.033  19.777  1.00  0.00    -0.219 F 
ENDROOT
BRANCH   1   4
HETATM    4  C6  UNL     1     -23.600  -2.649  21.364  1.00  0.00     0.027 C 
HETATM    5  C5  UNL     1     -22.426  -3.192  22.152  1.00  0.00     0.017 C 
HETATM    6  C4  UNL     1     -22.818  -3.452  23.574  1.00  0.00     0.021 C 
HETATM    7  C3  UNL     1     -24.247  -3.939  23.713  1.00  0.00     0.127 C 
HETATM    8  N2  UNL     1     -24.677  -4.569  22.483  1.00  0.00    -0.333 N 
HETATM    9  C2  UNL     1     -25.072  -5.911  22.382  1.00  0.00     0.317 C 
HETATM   10  C18 UNL     1     -24.681  -3.699  21.303  1.00  0.00     0.141 C 
HETATM   11  N1  UNL     1     -25.107  -6.829  23.444  1.00  0.00    -0.347 N 
HETATM   12  O1  UNL     1     -25.425  -6.336  21.247  1.00  0.00    -0.247 OA
HETATM   13  C1  UNL     1     -25.531  -8.213  23.255  1.00  0.00     0.151 C 
ATOM     14  H1  UNL     1     -24.828  -6.519  24.375  1.00  0.00     0.163 HD
HETATM   15  C7  UNL     1     -24.079  -1.380  22.027  1.00  0.00     0.022 C 
ENDBRANCH   1   4
BRANCH   1  16
HETATM   16  N3  UNL     1     -24.074  -2.661  18.960  1.00  0.00    -0.320 N 
HETATM   17  C10 UNL     1     -23.653  -3.449  17.859  1.00  0.00     0.259 C 
HETATM   18  O2  UNL     1     -22.463  -3.820  17.799  1.00  0.00    -0.267 OA
ATOM     19  H3  UNL     1     -25.042  -2.347  19.028  1.00  0.00     0.166 HD
BRANCH  17  20
HETATM   20  C11 UNL     1     -24.611  -3.841  16.769  1.00  0.00     0.169 C 
BRANCH  20  21
HETATM   21  N4  UNL     1     -25.016  -2.794  15.951  1.00  0.00    -0.345 N 
HETATM   22  C12 UNL     1     -26.197  -2.864  15.197  1.00  0.00     0.068 C 
HETATM   23  C13 UNL     1     -25.991  -2.288  13.826  1.00  0.00     0.045 C 
HETATM   24  C14 UNL     1     -25.926  -0.816  13.742  1.00  0.00     0.005 C 
HETATM   25  C15 UNL     1     -25.830  -0.079  15.038  1.00  0.00     0.005 C 
HETATM   26  C16 UNL     1     -24.641  -0.456  15.868  1.00  0.00     0.045 C 
HETATM   27  C17 UNL     1     -24.103  -1.828  15.530  1.00  0.00     0.068 C 
ENDBRANCH  20  21
ENDBRANCH  17  20
ENDBRANCH   1  16
TORSDOF 4
ENDMDL
