MODEL 1
REMARK VINA RESULT: -7.559944964      0.000      0.000
REMARK  7 active torsions:
REMARK  status: ('A' for Active; 'I' for Inactive)
REMARK    1  A    between atoms: C2_2  and  C3_3 
REMARK    2  A    between atoms: C9_11  and  N1_12 
REMARK    3  A    between atoms: N1_12  and  C10_14 
REMARK    4  A    between atoms: C10_14  and  N2_16 
REMARK    5  A    between atoms: N2_16  and  C11_18 
REMARK    6  A    between atoms: C17_25  and  C18_26 
REMARK    7  A    between atoms: C18_26  and  O3_28 
ROOT
HETATM    1  C3  UNL     1      19.315  -4.487  10.370  1.00  0.00     0.059 C 
HETATM    2  O1  UNL     1      18.504  -3.767  11.258  1.00  0.00    -0.344 OA
HETATM    3  C4  UNL     1      17.826  -4.631  12.112  1.00  0.00     0.064 C 
HETATM    4  C5  UNL     1      16.499  -3.945  12.445  1.00  0.00     0.046 C 
HETATM    5  C6  UNL     1      18.588  -4.749  13.412  1.00  0.00     0.046 C 
HETATM    6  C7  UNL     1      17.605  -5.982  11.547  1.00  0.00     0.085 C 
HETATM    7  C8  UNL     1      17.490  -5.879  10.031  1.00  0.00     0.001 A 
HETATM    8  S1  UNL     1      16.502  -6.504   8.865  1.00  0.00    -0.075 SA
HETATM    9  C9  UNL     1      17.178  -5.759   7.465  1.00  0.00     0.090 A 
HETATM   10  C17 UNL     1      18.208  -4.987   7.979  1.00  0.00     0.040 A 
HETATM   11  C20 UNL     1      18.408  -5.033   9.333  1.00  0.00     0.022 A 
ENDROOT
BRANCH   9  12
HETATM   12  N1  UNL     1      16.692  -5.981   6.137  1.00  0.00    -0.327 N 
ATOM     13  H1  UNL     1      17.347  -5.719   5.400  1.00  0.00     0.169 HD
BRANCH  12  14
HETATM   14  C10 UNL     1      15.485  -6.489   5.676  1.00  0.00     0.174 C 
HETATM   15  S2  UNL     1      15.210  -7.996   5.086  1.00  0.00    -0.041 SA
BRANCH  14  16
HETATM   16  N2  UNL     1      14.302  -5.660   5.844  1.00  0.00    -0.341 N 
ATOM     17  H2  UNL     1      13.797  -5.689   6.731  1.00  0.00     0.164 HD
BRANCH  16  18
HETATM   18  C11 UNL     1      13.824  -4.800   4.792  1.00  0.00     0.222 C 
HETATM   19  C12 UNL     1      14.515  -3.458   4.921  1.00  0.00     0.054 C 
HETATM   20  C13 UNL     1      15.128  -3.085   3.572  1.00  0.00     0.004 C 
HETATM   21  C14 UNL     1      14.025  -2.515   2.714  1.00  0.00     0.002 C 
HETATM   22  C15 UNL     1      12.884  -3.475   2.647  1.00  0.00     0.026 C 
HETATM   23  C16 UNL     1      13.297  -4.917   2.544  1.00  0.00     0.170 C 
HETATM   24  O2  UNL     1      14.122  -5.348   3.555  1.00  0.00    -0.367 OA
ENDBRANCH  16  18
ENDBRANCH  14  16
ENDBRANCH  12  14
ENDBRANCH   9  12
BRANCH  10  25
HETATM   25  C18 UNL     1      18.720  -3.911   7.067  1.00  0.00     0.053 C 
HETATM   26  C19 UNL     1      20.030  -3.329   6.905  1.00  0.00     0.077 C 
BRANCH  25  27
HETATM   27  O3  UNL     1      17.851  -3.374   6.233  1.00  0.00    -0.364 OA
ATOM     28  H3  UNL     1      17.676  -2.446   6.334  1.00  0.00     0.217 HD
ENDBRANCH  25  27
ENDBRANCH  10  25
BRANCH   1  29
HETATM   29  C2  UNL     1      20.622  -3.924  10.136  1.00  0.00     0.061 C 
HETATM   30  C1  UNL     1      21.635  -4.599  11.129  1.00  0.00     0.012 C 
ENDBRANCH   1  29
TORSDOF 7
ENDMDL
MODEL 2
REMARK VINA RESULT: -7.488562898      2.467      4.406
REMARK  7 active torsions:
REMARK  status: ('A' for Active; 'I' for Inactive)
REMARK    1  A    between atoms: C2_2  and  C3_3 
REMARK    2  A    between atoms: C9_11  and  N1_12 
REMARK    3  A    between atoms: N1_12  and  C10_14 
REMARK    4  A    between atoms: C10_14  and  N2_16 
REMARK    5  A    between atoms: N2_16  and  C11_18 
REMARK    6  A    between atoms: C17_25  and  C18_26 
REMARK    7  A    between atoms: C18_26  and  O3_28 
ROOT
HETATM    1  C3  UNL     1      20.938  -3.408   8.454  1.00  0.00     0.059 C 
HETATM    2  O1  UNL     1      21.689  -3.607   7.288  1.00  0.00    -0.344 OA
HETATM    3  C4  UNL     1      21.254  -2.761   6.274  1.00  0.00     0.064 C 
HETATM    4  C5  UNL     1      21.501  -3.508   4.962  1.00  0.00     0.046 C 
HETATM    5  C6  UNL     1      22.131  -1.530   6.241  1.00  0.00     0.046 C 
HETATM    6  C7  UNL     1      19.836  -2.352   6.401  1.00  0.00     0.085 C 
HETATM    7  C8  UNL     1      19.056  -3.460   7.099  1.00  0.00     0.001 A 
HETATM    8  S1  UNL     1      17.605  -4.215   6.879  1.00  0.00    -0.075 SA
HETATM    9  C9  UNL     1      17.653  -5.346   8.181  1.00  0.00     0.090 A 
HETATM   10  C17 UNL     1      18.879  -5.096   8.777  1.00  0.00     0.040 A 
HETATM   11  C20 UNL     1      19.644  -4.097   8.235  1.00  0.00     0.022 A 
ENDROOT
BRANCH   9  12
HETATM   12  N1  UNL     1      16.597  -6.268   8.468  1.00  0.00    -0.327 N 
ATOM     13  H1  UNL     1      15.807  -5.861   8.968  1.00  0.00     0.169 HD
BRANCH  12  14
HETATM   14  C10 UNL     1      16.460  -7.621   8.186  1.00  0.00     0.174 C 
HETATM   15  S2  UNL     1      16.723  -8.874   9.213  1.00  0.00    -0.041 SA
BRANCH  14  16
HETATM   16  N2  UNL     1      15.903  -7.982   6.892  1.00  0.00    -0.341 N 
ATOM     17  H2  UNL     1      15.870  -8.965   6.623  1.00  0.00     0.164 HD
BRANCH  16  18
HETATM   18  C11 UNL     1      15.396  -6.987   5.982  1.00  0.00     0.222 C 
HETATM   19  C12 UNL     1      15.073  -7.663   4.666  1.00  0.00     0.054 C 
HETATM   20  C13 UNL     1      13.643  -7.306   4.263  1.00  0.00     0.004 C 
HETATM   21  C14 UNL     1      13.679  -5.936   3.632  1.00  0.00     0.002 C 
HETATM   22  C15 UNL     1      14.336  -4.966   4.556  1.00  0.00     0.026 C 
HETATM   23  C16 UNL     1      13.983  -5.157   6.004  1.00  0.00     0.170 C 
HETATM   24  O2  UNL     1      14.243  -6.415   6.494  1.00  0.00    -0.367 OA
ENDBRANCH  16  18
ENDBRANCH  14  16
ENDBRANCH  12  14
ENDBRANCH   9  12
BRANCH  10  25
HETATM   25  C18 UNL     1      19.388  -6.182   9.677  1.00  0.00     0.053 C 
HETATM   26  C19 UNL     1      19.649  -6.214  11.096  1.00  0.00     0.077 C 
BRANCH  25  27
HETATM   27  O3  UNL     1      19.650  -7.347   9.117  1.00  0.00    -0.364 OA
ATOM     28  H3  UNL     1      18.907  -7.904   8.917  1.00  0.00     0.217 HD
ENDBRANCH  25  27
ENDBRANCH  10  25
BRANCH   1  29
HETATM   29  C2  UNL     1      21.695  -3.404   9.682  1.00  0.00     0.061 C 
HETATM   30  C1  UNL     1      23.221  -3.310   9.321  1.00  0.00     0.012 C 
ENDBRANCH   1  29
TORSDOF 7
ENDMDL
MODEL 3
REMARK VINA RESULT: -7.432532991      2.049      3.662
REMARK  7 active torsions:
REMARK  status: ('A' for Active; 'I' for Inactive)
REMARK    1  A    between atoms: C2_2  and  C3_3 
REMARK    2  A    between atoms: C9_11  and  N1_12 
REMARK    3  A    between atoms: N1_12  and  C10_14 
REMARK    4  A    between atoms: C10_14  and  N2_16 
REMARK    5  A    between atoms: N2_16  and  C11_18 
REMARK    6  A    between atoms: C17_25  and  C18_26 
REMARK    7  A    between atoms: C18_26  and  O3_28 
ROOT
HETATM    1  C3  UNL     1      20.288  -3.793   9.000  1.00  0.00     0.059 C 
HETATM    2  O1  UNL     1      21.336  -3.883   8.074  1.00  0.00    -0.344 OA
HETATM    3  C4  UNL     1      21.250  -2.861   7.135  1.00  0.00     0.064 C 
HETATM    4  C5  UNL     1      21.836  -3.424   5.839  1.00  0.00     0.046 C 
HETATM    5  C6  UNL     1      22.149  -1.720   7.554  1.00  0.00     0.046 C 
HETATM    6  C7  UNL     1      19.874  -2.353   6.925  1.00  0.00     0.085 C 
HETATM    7  C8  UNL     1      18.880  -3.479   7.182  1.00  0.00     0.001 A 
HETATM    8  S1  UNL     1      17.525  -4.064   6.442  1.00  0.00    -0.075 SA
HETATM    9  C9  UNL     1      17.146  -5.374   7.498  1.00  0.00     0.090 A 
HETATM   10  C17 UNL     1      18.156  -5.324   8.446  1.00  0.00     0.040 A 
HETATM   11  C20 UNL     1      19.086  -4.327   8.315  1.00  0.00     0.022 A 
ENDROOT
BRANCH   9  12
HETATM   12  N1  UNL     1      16.015  -6.233   7.320  1.00  0.00    -0.327 N 
ATOM     13  H1  UNL     1      15.578  -6.537   8.189  1.00  0.00     0.169 HD
BRANCH  12  14
HETATM   14  C10 UNL     1      15.409  -6.724   6.171  1.00  0.00     0.174 C 
HETATM   15  S2  UNL     1      15.734  -8.145   5.415  1.00  0.00    -0.041 SA
BRANCH  14  16
HETATM   16  N2  UNL     1      14.280  -5.979   5.639  1.00  0.00    -0.341 N 
ATOM     17  H2  UNL     1      13.350  -6.142   6.027  1.00  0.00     0.164 HD
BRANCH  16  18
HETATM   18  C11 UNL     1      14.438  -5.018   4.578  1.00  0.00     0.222 C 
HETATM   19  C12 UNL     1      13.520  -5.407   3.438  1.00  0.00     0.054 C 
HETATM   20  C13 UNL     1      12.676  -4.195   3.046  1.00  0.00     0.004 C 
HETATM   21  C14 UNL     1      13.525  -3.320   2.157  1.00  0.00     0.002 C 
HETATM   22  C15 UNL     1      14.814  -2.999   2.838  1.00  0.00     0.026 C 
HETATM   23  C16 UNL     1      14.683  -2.734   4.312  1.00  0.00     0.170 C 
HETATM   24  O2  UNL     1      14.097  -3.752   5.025  1.00  0.00    -0.367 OA
ENDBRANCH  16  18
ENDBRANCH  14  16
ENDBRANCH  12  14
ENDBRANCH   9  12
BRANCH  10  25
HETATM   25  C18 UNL     1      18.335  -6.571   9.258  1.00  0.00     0.053 C 
HETATM   26  C19 UNL     1      19.456  -7.466   9.414  1.00  0.00     0.077 C 
BRANCH  25  27
HETATM   27  O3  UNL     1      17.309  -6.958   9.991  1.00  0.00    -0.364 OA
ATOM     28  H3  UNL     1      17.500  -7.509  10.740  1.00  0.00     0.217 HD
ENDBRANCH  25  27
ENDBRANCH  10  25
BRANCH   1  29
HETATM   29  C2  UNL     1      20.655  -4.038  10.373  1.00  0.00     0.061 C 
HETATM   30  C1  UNL     1      22.222  -4.097  10.462  1.00  0.00     0.012 C 
ENDBRANCH   1  29
TORSDOF 7
ENDMDL
MODEL 4
REMARK VINA RESULT: -7.057385472      2.697      7.602
REMARK  7 active torsions:
REMARK  status: ('A' for Active; 'I' for Inactive)
REMARK    1  A    between atoms: C2_2  and  C3_3 
REMARK    2  A    between atoms: C9_11  and  N1_12 
REMARK    3  A    between atoms: N1_12  and  C10_14 
REMARK    4  A    between atoms: C10_14  and  N2_16 
REMARK    5  A    between atoms: N2_16  and  C11_18 
REMARK    6  A    between atoms: C17_25  and  C18_26 
REMARK    7  A    between atoms: C18_26  and  O3_28 
ROOT
HETATM    1  C3  UNL     1      15.590  -6.406   5.566  1.00  0.00     0.059 C 
HETATM    2  O1  UNL     1      14.633  -5.421   5.844  1.00  0.00    -0.344 OA
HETATM    3  C4  UNL     1      15.066  -4.177   5.398  1.00  0.00     0.064 C 
HETATM    4  C5  UNL     1      14.454  -3.147   6.350  1.00  0.00     0.046 C 
HETATM    5  C6  UNL     1      14.478  -3.903   4.033  1.00  0.00     0.046 C 
HETATM    6  C7  UNL     1      16.540  -4.041   5.336  1.00  0.00     0.085 C 
HETATM    7  C8  UNL     1      17.170  -4.927   6.404  1.00  0.00     0.001 A 
HETATM    8  S1  UNL     1      18.371  -4.770   7.525  1.00  0.00    -0.075 SA
HETATM    9  C9  UNL     1      18.298  -6.326   8.265  1.00  0.00     0.090 A 
HETATM   10  C17 UNL     1      17.267  -6.956   7.586  1.00  0.00     0.040 A 
HETATM   11  C20 UNL     1      16.654  -6.248   6.586  1.00  0.00     0.022 A 
ENDROOT
BRANCH   9  12
HETATM   12  N1  UNL     1      19.166  -6.741   9.325  1.00  0.00    -0.327 N 
ATOM     13  H1  UNL     1      20.124  -6.404   9.240  1.00  0.00     0.169 HD
BRANCH  12  14
HETATM   14  C10 UNL     1      18.931  -7.521  10.449  1.00  0.00     0.174 C 
HETATM   15  S2  UNL     1      19.763  -8.858  10.913  1.00  0.00    -0.041 SA
BRANCH  14  16
HETATM   16  N2  UNL     1      17.933  -7.050  11.395  1.00  0.00    -0.341 N 
ATOM     17  H2  UNL     1      17.155  -7.662  11.644  1.00  0.00     0.164 HD
BRANCH  16  18
HETATM   18  C11 UNL     1      18.013  -5.741  11.992  1.00  0.00     0.222 C 
HETATM   19  C12 UNL     1      16.850  -4.913  11.487  1.00  0.00     0.054 C 
HETATM   20  C13 UNL     1      16.117  -4.307  12.683  1.00  0.00     0.004 C 
HETATM   21  C14 UNL     1      16.889  -3.086  13.118  1.00  0.00     0.002 C 
HETATM   22  C15 UNL     1      18.316  -3.448  13.367  1.00  0.00     0.026 C 
HETATM   23  C16 UNL     1      18.506  -4.780  14.036  1.00  0.00     0.170 C 
HETATM   24  O2  UNL     1      17.936  -5.839  13.372  1.00  0.00    -0.367 OA
ENDBRANCH  16  18
ENDBRANCH  14  16
ENDBRANCH  12  14
ENDBRANCH   9  12
BRANCH  10  25
HETATM   25  C18 UNL     1      16.694  -8.164   8.266  1.00  0.00     0.053 C 
HETATM   26  C19 UNL     1      16.948  -9.574   8.099  1.00  0.00     0.077 C 
BRANCH  25  27
HETATM   27  O3  UNL     1      15.794  -7.948   9.204  1.00  0.00    -0.364 OA
ATOM     28  H3  UNL     1      15.006  -8.478   9.174  1.00  0.00     0.217 HD
ENDBRANCH  25  27
ENDBRANCH  10  25
BRANCH   1  29
HETATM   29  C2  UNL     1      15.063  -7.659   5.083  1.00  0.00     0.061 C 
HETATM   30  C1  UNL     1      13.844  -7.352   4.142  1.00  0.00     0.012 C 
ENDBRANCH   1  29
TORSDOF 7
ENDMDL
MODEL 5
REMARK VINA RESULT: -7.024055445      4.269      7.253
REMARK  7 active torsions:
REMARK  status: ('A' for Active; 'I' for Inactive)
REMARK    1  A    between atoms: C2_2  and  C3_3 
REMARK    2  A    between atoms: C9_11  and  N1_12 
REMARK    3  A    between atoms: N1_12  and  C10_14 
REMARK    4  A    between atoms: C10_14  and  N2_16 
REMARK    5  A    between atoms: N2_16  and  C11_18 
REMARK    6  A    between atoms: C17_25  and  C18_26 
REMARK    7  A    between atoms: C18_26  and  O3_28 
ROOT
HETATM    1  C3  UNL     1      17.451  -4.872   7.547  1.00  0.00     0.059 C 
HETATM    2  O1  UNL     1      17.654  -6.251   7.400  1.00  0.00    -0.344 OA
HETATM    3  C4  UNL     1      17.718  -6.872   8.643  1.00  0.00     0.064 C 
HETATM    4  C5  UNL     1      18.656  -8.068   8.471  1.00  0.00     0.046 C 
HETATM    5  C6  UNL     1      16.359  -7.436   8.990  1.00  0.00     0.046 C 
HETATM    6  C7  UNL     1      18.176  -5.983   9.735  1.00  0.00     0.085 C 
HETATM    7  C8  UNL     1      19.116  -4.929   9.162  1.00  0.00     0.001 A 
HETATM    8  S1  UNL     1      20.566  -4.266   9.591  1.00  0.00    -0.075 SA
HETATM    9  C9  UNL     1      20.803  -3.179   8.273  1.00  0.00     0.090 A 
HETATM   10  C17 UNL     1      19.684  -3.387   7.481  1.00  0.00     0.040 A 
HETATM   11  C20 UNL     1      18.765  -4.300   7.927  1.00  0.00     0.022 A 
ENDROOT
BRANCH   9  12
HETATM   12  N1  UNL     1      21.937  -2.315   8.153  1.00  0.00    -0.327 N 
ATOM     13  H1  UNL     1      21.922  -1.512   8.781  1.00  0.00     0.169 HD
BRANCH  12  14
HETATM   14  C10 UNL     1      23.054  -2.379   7.331  1.00  0.00     0.174 C 
HETATM   15  S2  UNL     1      24.309  -3.432   7.451  1.00  0.00    -0.041 SA
BRANCH  14  16
HETATM   16  N2  UNL     1      23.074  -1.518   6.159  1.00  0.00    -0.341 N 
ATOM     17  H2  UNL     1      23.023  -1.940   5.232  1.00  0.00     0.164 HD
BRANCH  16  18
HETATM   18  C11 UNL     1      23.163  -0.085   6.274  1.00  0.00     0.222 C 
HETATM   19  C12 UNL     1      22.402   0.536   5.122  1.00  0.00     0.054 C 
HETATM   20  C13 UNL     1      21.415   1.563   5.675  1.00  0.00     0.004 C 
HETATM   21  C14 UNL     1      22.185   2.832   5.943  1.00  0.00     0.002 C 
HETATM   22  C15 UNL     1      23.356   2.543   6.822  1.00  0.00     0.026 C 
HETATM   23  C16 UNL     1      23.077   1.545   7.911  1.00  0.00     0.170 C 
HETATM   24  O2  UNL     1      22.601   0.334   7.469  1.00  0.00    -0.367 OA
ENDBRANCH  16  18
ENDBRANCH  14  16
ENDBRANCH  12  14
ENDBRANCH   9  12
BRANCH  10  25
HETATM   25  C18 UNL     1      19.796  -2.892   6.070  1.00  0.00     0.053 C 
HETATM   26  C19 UNL     1      19.828  -3.587   4.806  1.00  0.00     0.077 C 
BRANCH  25  27
HETATM   27  O3  UNL     1      19.873  -1.587   5.900  1.00  0.00    -0.364 OA
ATOM     28  H3  UNL     1      19.146  -1.168   5.455  1.00  0.00     0.217 HD
ENDBRANCH  25  27
ENDBRANCH  10  25
BRANCH   1  29
HETATM   29  C2  UNL     1      16.510  -4.285   6.624  1.00  0.00     0.061 C 
HETATM   30  C1  UNL     1      15.745  -5.446   5.894  1.00  0.00     0.012 C 
ENDBRANCH   1  29
TORSDOF 7
ENDMDL
