MODEL 1
REMARK VINA RESULT: -8.255236978      0.000      0.000
REMARK  5 active torsions:
REMARK  status: ('A' for Active; 'I' for Inactive)
REMARK    1  A    between atoms: C2_2  and  C4_4 
REMARK    2  A    between atoms: C4_4  and  O2_6 
REMARK    3  A    between atoms: O2_6  and  C5_7 
REMARK    4  A    between atoms: C8_10  and  C9_11 
REMARK    5  A    between atoms: C9_11  and  C10_12 
ROOT
HETATM    1  C5  UNL     1      17.865  -6.953   7.357  1.00  0.00     0.150 C 
HETATM    2  C6  UNL     1      18.027  -6.040   8.563  1.00  0.00     0.067 C 
HETATM    3  C7  UNL     1      18.366  -4.638   8.049  1.00  0.00    -0.081 C 
HETATM    4  C8  UNL     1      19.592  -4.233   8.269  1.00  0.00    -0.023 C 
HETATM    5  C19 UNL     1      17.401  -3.806   7.354  1.00  0.00     0.040 C 
HETATM    6  C20 UNL     1      17.188  -4.383   5.964  1.00  0.00     0.059 C 
HETATM    7  C21 UNL     1      16.296  -5.594   6.034  1.00  0.00     0.014 C 
HETATM    8  N1  UNL     1      15.285  -5.270   5.303  1.00  0.00    -0.312 N 
ATOM      9  H1  UNL     1      15.318  -4.342   4.880  1.00  0.00     0.186 HD
HETATM   10  N2  UNL     1      14.146  -6.038   5.019  1.00  0.00    -0.337 N 
ATOM     11  H2  UNL     1      13.269  -5.523   4.938  1.00  0.00     0.180 HD
HETATM   12  C22 UNL     1      14.058  -7.497   4.824  1.00  0.00     0.139 C 
HETATM   13  C23 UNL     1      15.495  -7.941   4.677  1.00  0.00     0.022 C 
HETATM   14  C24 UNL     1      16.245  -8.105   5.942  1.00  0.00     0.019 C 
HETATM   15  C25 UNL     1      16.482  -6.879   6.769  1.00  0.00     0.023 C 
HETATM   16  C26 UNL     1      15.455  -6.957   7.922  1.00  0.00     0.024 C 
ENDROOT
BRANCH   4  17
HETATM   17  C9  UNL     1      20.133  -2.931   7.866  1.00  0.00     0.037 C 
BRANCH  17  18
HETATM   18  C10 UNL     1      21.156  -3.107   6.800  1.00  0.00     0.025 C 
HETATM   19  C11 UNL     1      22.537  -2.958   7.297  1.00  0.00    -0.084 C 
HETATM   20  C12 UNL     1      22.915  -2.288   8.360  1.00  0.00     0.015 C 
HETATM   21  C13 UNL     1      23.589  -3.640   6.445  1.00  0.00     0.034 C 
HETATM   22  C14 UNL     1      23.141  -3.369   5.014  1.00  0.00     0.005 C 
HETATM   23  C15 UNL     1      22.321  -2.104   4.890  1.00  0.00     0.010 C 
HETATM   24  C16 UNL     1      20.976  -2.206   5.591  1.00  0.00    -0.040 C 
HETATM   25  C17 UNL     1      20.534  -0.818   5.953  1.00  0.00     0.015 C 
HETATM   26  C18 UNL     1      19.969  -2.839   4.662  1.00  0.00     0.015 C 
ENDBRANCH  17  18
ENDBRANCH   4  17
BRANCH   1  27
HETATM   27  O2  UNL     1      18.254  -8.261   7.636  1.00  0.00    -0.311 OA
BRANCH  27  28
HETATM   28  C4  UNL     1      18.795  -8.708   8.830  1.00  0.00     0.288 C 
HETATM   29  O1  UNL     1      19.982  -8.467   9.067  1.00  0.00    -0.260 OA
BRANCH  28  30
HETATM   30  C2  UNL     1      17.940  -9.441   9.749  1.00  0.00     0.004 C 
HETATM   31  C1  UNL     1      18.131  -9.296  11.043  1.00  0.00     0.024 C 
HETATM   32  C3  UNL     1      16.865 -10.342   9.253  1.00  0.00     0.054 C 
ENDBRANCH  28  30
ENDBRANCH  27  28
ENDBRANCH   1  27
TORSDOF 5
ENDMDL
MODEL 2
REMARK VINA RESULT: -8.013715325      0.918      1.246
REMARK  5 active torsions:
REMARK  status: ('A' for Active; 'I' for Inactive)
REMARK    1  A    between atoms: C2_2  and  C4_4 
REMARK    2  A    between atoms: C4_4  and  O2_6 
REMARK    3  A    between atoms: O2_6  and  C5_7 
REMARK    4  A    between atoms: C8_10  and  C9_11 
REMARK    5  A    between atoms: C9_11  and  C10_12 
ROOT
HETATM    1  C5  UNL     1      17.980  -6.861   7.593  1.00  0.00     0.150 C 
HETATM    2  C6  UNL     1      18.095  -5.837   8.712  1.00  0.00     0.067 C 
HETATM    3  C7  UNL     1      18.525  -4.506   8.088  1.00  0.00    -0.081 C 
HETATM    4  C8  UNL     1      19.748  -4.121   8.356  1.00  0.00    -0.023 C 
HETATM    5  C19 UNL     1      17.645  -3.717   7.246  1.00  0.00     0.040 C 
HETATM    6  C20 UNL     1      17.507  -4.425   5.908  1.00  0.00     0.059 C 
HETATM    7  C21 UNL     1      16.564  -5.592   6.031  1.00  0.00     0.014 C 
HETATM    8  N1  UNL     1      15.620  -5.311   5.200  1.00  0.00    -0.312 N 
ATOM      9  H1  UNL     1      15.719  -4.432   4.691  1.00  0.00     0.186 HD
HETATM   10  N2  UNL     1      14.473  -6.065   4.910  1.00  0.00    -0.337 N 
ATOM     11  H2  UNL     1      13.626  -5.532   4.715  1.00  0.00     0.180 HD
HETATM   12  C22 UNL     1      14.340  -7.533   4.854  1.00  0.00     0.139 C 
HETATM   13  C23 UNL     1      15.765  -8.037   4.858  1.00  0.00     0.022 C 
HETATM   14  C24 UNL     1      16.417  -8.097   6.185  1.00  0.00     0.019 C 
HETATM   15  C25 UNL     1      16.645  -6.802   6.901  1.00  0.00     0.023 C 
HETATM   16  C26 UNL     1      15.539  -6.727   7.978  1.00  0.00     0.024 C 
ENDROOT
BRANCH   4  17
HETATM   17  C9  UNL     1      20.368  -2.886   7.867  1.00  0.00     0.037 C 
BRANCH  17  18
HETATM   18  C10 UNL     1      21.484  -3.204   6.936  1.00  0.00     0.025 C 
HETATM   19  C11 UNL     1      22.813  -2.919   7.511  1.00  0.00    -0.084 C 
HETATM   20  C12 UNL     1      23.080  -2.061   8.467  1.00  0.00     0.015 C 
HETATM   21  C13 UNL     1      23.951  -3.697   6.882  1.00  0.00     0.034 C 
HETATM   22  C14 UNL     1      23.625  -3.695   5.393  1.00  0.00     0.005 C 
HETATM   23  C15 UNL     1      22.789  -2.503   4.983  1.00  0.00     0.010 C 
HETATM   24  C16 UNL     1      21.391  -2.533   5.577  1.00  0.00    -0.040 C 
HETATM   25  C17 UNL     1      20.886  -1.122   5.651  1.00  0.00     0.015 C 
HETATM   26  C18 UNL     1      20.485  -3.356   4.694  1.00  0.00     0.015 C 
ENDBRANCH  17  18
ENDBRANCH   4  17
BRANCH   1  27
HETATM   27  O2  UNL     1      18.296  -8.146   8.028  1.00  0.00    -0.311 OA
BRANCH  27  28
HETATM   28  C4  UNL     1      18.467  -8.536   9.347  1.00  0.00     0.288 C 
HETATM   29  O1  UNL     1      17.466  -8.810  10.016  1.00  0.00    -0.260 OA
BRANCH  28  30
HETATM   30  C2  UNL     1      19.816  -8.605   9.881  1.00  0.00     0.004 C 
HETATM   31  C1  UNL     1      20.556  -9.657   9.598  1.00  0.00     0.024 C 
HETATM   32  C3  UNL     1      20.367  -7.517  10.734  1.00  0.00     0.054 C 
ENDBRANCH  28  30
ENDBRANCH  27  28
ENDBRANCH   1  27
TORSDOF 5
ENDMDL
MODEL 3
REMARK VINA RESULT: -7.941114968      4.043      6.849
REMARK  5 active torsions:
REMARK  status: ('A' for Active; 'I' for Inactive)
REMARK    1  A    between atoms: C2_2  and  C4_4 
REMARK    2  A    between atoms: C4_4  and  O2_6 
REMARK    3  A    between atoms: O2_6  and  C5_7 
REMARK    4  A    between atoms: C8_10  and  C9_11 
REMARK    5  A    between atoms: C9_11  and  C10_12 
ROOT
HETATM    1  C5  UNL     1      18.762  -6.964  10.984  1.00  0.00     0.150 C 
HETATM    2  C6  UNL     1      17.335  -7.482  10.884  1.00  0.00     0.067 C 
HETATM    3  C7  UNL     1      17.072  -7.858   9.423  1.00  0.00    -0.081 C 
HETATM    4  C8  UNL     1      16.248  -7.075   8.774  1.00  0.00    -0.023 C 
HETATM    5  C19 UNL     1      17.697  -9.003   8.786  1.00  0.00     0.040 C 
HETATM    6  C20 UNL     1      19.163  -8.675   8.553  1.00  0.00     0.059 C 
HETATM    7  C21 UNL     1      19.936  -8.799   9.839  1.00  0.00     0.014 C 
HETATM    8  N1  UNL     1      20.810  -9.710   9.582  1.00  0.00    -0.312 N 
ATOM      9  H1  UNL     1      20.781 -10.107   8.643  1.00  0.00     0.186 HD
HETATM   10  N2  UNL     1      21.798 -10.221  10.438  1.00  0.00    -0.337 N 
ATOM     11  H2  UNL     1      22.005 -11.215  10.337  1.00  0.00     0.180 HD
HETATM   12  C22 UNL     1      22.573  -9.502  11.465  1.00  0.00     0.139 C 
HETATM   13  C23 UNL     1      22.307  -8.041  11.179  1.00  0.00     0.022 C 
HETATM   14  C24 UNL     1      21.029  -7.511  11.701  1.00  0.00     0.019 C 
HETATM   15  C25 UNL     1      19.763  -8.077  11.133  1.00  0.00     0.023 C 
HETATM   16  C26 UNL     1      19.240  -9.065  12.199  1.00  0.00     0.024 C 
ENDROOT
BRANCH   4  17
HETATM   17  C9  UNL     1      15.853  -7.244   7.372  1.00  0.00     0.037 C 
BRANCH  17  18
HETATM   18  C10 UNL     1      15.490  -5.930   6.777  1.00  0.00     0.025 C 
HETATM   19  C11 UNL     1      14.664  -6.057   5.562  1.00  0.00    -0.084 C 
HETATM   20  C12 UNL     1      14.614  -7.092   4.757  1.00  0.00     0.015 C 
HETATM   21  C13 UNL     1      13.829  -4.833   5.237  1.00  0.00     0.034 C 
HETATM   22  C14 UNL     1      14.753  -3.661   5.548  1.00  0.00     0.005 C 
HETATM   23  C15 UNL     1      16.216  -4.023   5.419  1.00  0.00     0.010 C 
HETATM   24  C16 UNL     1      16.668  -5.023   6.469  1.00  0.00    -0.040 C 
HETATM   25  C17 UNL     1      17.854  -5.764   5.926  1.00  0.00     0.015 C 
HETATM   26  C18 UNL     1      17.056  -4.290   7.730  1.00  0.00     0.015 C 
ENDBRANCH  17  18
ENDBRANCH   4  17
BRANCH   1  27
HETATM   27  O2  UNL     1      18.896  -5.992  11.973  1.00  0.00    -0.311 OA
BRANCH  27  28
HETATM   28  C4  UNL     1      17.887  -5.541  12.808  1.00  0.00     0.288 C 
HETATM   29  O1  UNL     1      17.762  -6.067  13.918  1.00  0.00    -0.260 OA
BRANCH  28  30
HETATM   30  C2  UNL     1      17.023  -4.471  12.341  1.00  0.00     0.004 C 
HETATM   31  C1  UNL     1      15.807  -4.377  12.836  1.00  0.00     0.024 C 
HETATM   32  C3  UNL     1      17.488  -3.492  11.321  1.00  0.00     0.054 C 
ENDBRANCH  28  30
ENDBRANCH  27  28
ENDBRANCH   1  27
TORSDOF 5
ENDMDL
MODEL 4
REMARK VINA RESULT: -7.624468101      3.336      8.184
REMARK  5 active torsions:
REMARK  status: ('A' for Active; 'I' for Inactive)
REMARK    1  A    between atoms: C2_2  and  C4_4 
REMARK    2  A    between atoms: C4_4  and  O2_6 
REMARK    3  A    between atoms: O2_6  and  C5_7 
REMARK    4  A    between atoms: C8_10  and  C9_11 
REMARK    5  A    between atoms: C9_11  and  C10_12 
ROOT
HETATM    1  C5  UNL     1      21.248  -3.188   6.447  1.00  0.00     0.150 C 
HETATM    2  C6  UNL     1      19.904  -2.477   6.493  1.00  0.00     0.067 C 
HETATM    3  C7  UNL     1      18.987  -3.264   7.433  1.00  0.00    -0.081 C 
HETATM    4  C8  UNL     1      18.004  -3.912   6.860  1.00  0.00    -0.023 C 
HETATM    5  C19 UNL     1      19.190  -3.304   8.870  1.00  0.00     0.040 C 
HETATM    6  C20 UNL     1      20.408  -4.169   9.154  1.00  0.00     0.059 C 
HETATM    7  C21 UNL     1      21.670  -3.403   8.861  1.00  0.00     0.014 C 
HETATM    8  N1  UNL     1      22.281  -3.377   9.996  1.00  0.00    -0.312 N 
ATOM      9  H1  UNL     1      21.807  -3.842  10.770  1.00  0.00     0.186 HD
HETATM   10  N2  UNL     1      23.518  -2.787  10.295  1.00  0.00    -0.337 N 
ATOM     11  H2  UNL     1      23.601  -2.368  11.221  1.00  0.00     0.180 HD
HETATM   12  C22 UNL     1      24.714  -2.695   9.437  1.00  0.00     0.139 C 
HETATM   13  C23 UNL     1      24.430  -3.649   8.298  1.00  0.00     0.022 C 
HETATM   14  C24 UNL     1      23.559  -3.120   7.226  1.00  0.00     0.019 C 
HETATM   15  C25 UNL     1      22.143  -2.788   7.587  1.00  0.00     0.023 C 
HETATM   16  C26 UNL     1      22.105  -1.249   7.722  1.00  0.00     0.024 C 
ENDROOT
BRANCH   4  17
HETATM   17  C9  UNL     1      17.009  -4.727   7.564  1.00  0.00     0.037 C 
BRANCH  17  18
HETATM   18  C10 UNL     1      16.822  -6.027   6.865  1.00  0.00     0.025 C 
HETATM   19  C11 UNL     1      15.573  -6.084   6.081  1.00  0.00    -0.084 C 
HETATM   20  C12 UNL     1      14.489  -5.375   6.288  1.00  0.00     0.015 C 
HETATM   21  C13 UNL     1      15.584  -7.099   4.955  1.00  0.00     0.034 C 
HETATM   22  C14 UNL     1      16.299  -8.307   5.549  1.00  0.00     0.005 C 
HETATM   23  C15 UNL     1      16.163  -8.381   7.054  1.00  0.00     0.010 C 
HETATM   24  C16 UNL     1      16.886  -7.248   7.765  1.00  0.00    -0.040 C 
HETATM   25  C17 UNL     1      16.222  -7.034   9.094  1.00  0.00     0.015 C 
HETATM   26  C18 UNL     1      18.333  -7.622   7.970  1.00  0.00     0.015 C 
ENDBRANCH  17  18
ENDBRANCH   4  17
BRANCH   1  27
HETATM   27  O2  UNL     1      21.870  -3.049   5.208  1.00  0.00    -0.311 OA
BRANCH  27  28
HETATM   28  C4  UNL     1      21.872  -1.905   4.426  1.00  0.00     0.288 C 
HETATM   29  O1  UNL     1      20.789  -1.454   4.039  1.00  0.00    -0.260 OA
BRANCH  28  30
HETATM   30  C2  UNL     1      23.146  -1.289   4.099  1.00  0.00     0.004 C 
HETATM   31  C1  UNL     1      24.000  -1.961   3.355  1.00  0.00     0.024 C 
HETATM   32  C3  UNL     1      23.495   0.072   4.586  1.00  0.00     0.054 C 
ENDBRANCH  28  30
ENDBRANCH  27  28
ENDBRANCH   1  27
TORSDOF 5
ENDMDL
MODEL 5
REMARK VINA RESULT: -7.555119089      3.538      6.881
REMARK  5 active torsions:
REMARK  status: ('A' for Active; 'I' for Inactive)
REMARK    1  A    between atoms: C2_2  and  C4_4 
REMARK    2  A    between atoms: C4_4  and  O2_6 
REMARK    3  A    between atoms: O2_6  and  C5_7 
REMARK    4  A    between atoms: C8_10  and  C9_11 
REMARK    5  A    between atoms: C9_11  and  C10_12 
ROOT
HETATM    1  C5  UNL     1      18.876  -6.950  10.860  1.00  0.00     0.150 C 
HETATM    2  C6  UNL     1      17.411  -7.360  10.832  1.00  0.00     0.067 C 
HETATM    3  C7  UNL     1      17.074  -7.803   9.405  1.00  0.00    -0.081 C 
HETATM    4  C8  UNL     1      16.292  -6.998   8.729  1.00  0.00    -0.023 C 
HETATM    5  C19 UNL     1      17.589  -9.030   8.825  1.00  0.00     0.040 C 
HETATM    6  C20 UNL     1      19.067  -8.833   8.532  1.00  0.00     0.059 C 
HETATM    7  C21 UNL     1      19.868  -8.939   9.802  1.00  0.00     0.014 C 
HETATM    8  N1  UNL     1      20.662  -9.930   9.581  1.00  0.00    -0.312 N 
ATOM      9  H1  UNL     1      20.572 -10.380   8.670  1.00  0.00     0.186 HD
HETATM   10  N2  UNL     1      21.634 -10.464  10.440  1.00  0.00    -0.337 N 
ATOM     11  H2  UNL     1      21.761 -11.475  10.397  1.00  0.00     0.180 HD
HETATM   12  C22 UNL     1      22.494  -9.746  11.399  1.00  0.00     0.139 C 
HETATM   13  C23 UNL     1      22.332  -8.290  11.028  1.00  0.00     0.022 C 
HETATM   14  C24 UNL     1      21.115  -7.630  11.549  1.00  0.00     0.019 C 
HETATM   15  C25 UNL     1      19.793  -8.127  11.053  1.00  0.00     0.023 C 
HETATM   16  C26 UNL     1      19.229  -9.005  12.193  1.00  0.00     0.024 C 
ENDROOT
BRANCH   4  17
HETATM   17  C9  UNL     1      15.842  -7.222   7.352  1.00  0.00     0.037 C 
BRANCH  17  18
HETATM   18  C10 UNL     1      15.450  -5.931   6.724  1.00  0.00     0.025 C 
HETATM   19  C11 UNL     1      14.671  -6.108   5.483  1.00  0.00    -0.084 C 
HETATM   20  C12 UNL     1      14.688  -7.157   4.695  1.00  0.00     0.015 C 
HETATM   21  C13 UNL     1      13.803  -4.923   5.110  1.00  0.00     0.034 C 
HETATM   22  C14 UNL     1      14.670  -3.712   5.432  1.00  0.00     0.005 C 
HETATM   23  C15 UNL     1      16.150  -4.019   5.358  1.00  0.00     0.010 C 
HETATM   24  C16 UNL     1      16.603  -4.985   6.440  1.00  0.00    -0.040 C 
HETATM   25  C17 UNL     1      17.834  -5.689   5.949  1.00  0.00     0.015 C 
HETATM   26  C18 UNL     1      16.920  -4.218   7.701  1.00  0.00     0.015 C 
ENDBRANCH  17  18
ENDBRANCH   4  17
BRANCH   1  27
HETATM   27  O2  UNL     1      19.115  -5.934  11.781  1.00  0.00    -0.311 OA
BRANCH  27  28
HETATM   28  C4  UNL     1      19.280  -4.591  11.482  1.00  0.00     0.288 C 
HETATM   29  O1  UNL     1      18.479  -3.779  11.955  1.00  0.00    -0.260 OA
BRANCH  28  30
HETATM   30  C2  UNL     1      20.387  -4.201  10.626  1.00  0.00     0.004 C 
HETATM   31  C1  UNL     1      20.141  -3.911   9.366  1.00  0.00     0.024 C 
HETATM   32  C3  UNL     1      21.779  -4.125  11.148  1.00  0.00     0.054 C 
ENDBRANCH  28  30
ENDBRANCH  27  28
ENDBRANCH   1  27
TORSDOF 5
ENDMDL
