MODEL 1
REMARK VINA RESULT: -8.335934788      0.000      0.000
REMARK  5 active torsions:
REMARK  status: ('A' for Active; 'I' for Inactive)
REMARK    1  A    between atoms: C9_9  and  N1_10 
REMARK       I    between atoms: N1_10  and  C10_12 
REMARK       I    between atoms: C10_12  and  N2_14 
REMARK    2  A    between atoms: N2_14  and  C11_16 
REMARK    3  A    between atoms: C18_23  and  C19_24 
REMARK    4  A    between atoms: N3_29  and  N4_30 
REMARK    5  A    between atoms: N4_30  and  O2_32 
ROOT
HETATM    1  C1  UNL     1      20.088  -6.294  13.048  1.00  0.00     0.040 C 
HETATM    2  C2  UNL     1      19.693  -5.227  12.026  1.00  0.00     0.048 C 
HETATM    3  C3  UNL     1      19.818  -3.899  12.782  1.00  0.00     0.040 C 
HETATM    4  C4  UNL     1      20.719  -5.226  10.949  1.00  0.00     0.071 C 
HETATM    5  C5  UNL     1      20.221  -4.474   9.739  1.00  0.00    -0.045 A 
HETATM    6  C6  UNL     1      21.102  -3.714   8.998  1.00  0.00     0.008 A 
HETATM    7  C7  UNL     1      20.699  -3.027   7.892  1.00  0.00     0.003 A 
HETATM    8  C8  UNL     1      19.353  -3.117   7.524  1.00  0.00     0.030 A 
HETATM    9  C9  UNL     1      18.465  -3.868   8.248  1.00  0.00     0.045 A 
HETATM   10  C17 UNL     1      18.906  -4.569   9.392  1.00  0.00     0.004 A 
HETATM   11  C18 UNL     1      17.951  -5.348  10.170  1.00  0.00     0.180 C 
HETATM   12  N3  UNL     1      18.354  -5.429  11.551  1.00  0.00    -0.285 N 
ENDROOT
BRANCH   9  13
HETATM   13  N1  UNL     1      17.120  -4.015   7.864  1.00  0.00    -0.308 N 
HETATM   14  C10 UNL     1      16.663  -4.382   6.580  1.00  0.00     0.325 C 
HETATM   15  O1  UNL     1      17.446  -4.605   5.657  1.00  0.00    -0.247 OA
HETATM   16  N2  UNL     1      15.241  -4.483   6.403  1.00  0.00    -0.309 N 
ATOM     17  H2  UNL     1      14.653  -4.289   7.213  1.00  0.00     0.170 HD
ATOM     18  H1  UNL     1      16.412  -3.841   8.576  1.00  0.00     0.170 HD
BRANCH  16  19
HETATM   19  C11 UNL     1      14.595  -4.826   5.202  1.00  0.00     0.036 A 
HETATM   20  C12 UNL     1      14.297  -6.104   4.808  1.00  0.00     0.029 A 
HETATM   21  C13 UNL     1      13.628  -6.370   3.600  1.00  0.00     0.002 A 
HETATM   22  C14 UNL     1      13.255  -5.348   2.785  1.00  0.00     0.000 A 
HETATM   23  C15 UNL     1      13.555  -4.067   3.181  1.00  0.00     0.002 A 
HETATM   24  C16 UNL     1      14.199  -3.788   4.341  1.00  0.00     0.029 A 
ENDBRANCH  16  19
ENDBRANCH   9  13
BRANCH  11  25
HETATM   25  C19 UNL     1      17.857  -6.712   9.566  1.00  0.00     0.011 A 
HETATM   26  C20 UNL     1      18.825  -7.597   9.242  1.00  0.00     0.017 A 
HETATM   27  C21 UNL     1      18.453  -8.773   8.692  1.00  0.00     0.008 A 
HETATM   28  C22 UNL     1      17.107  -8.966   8.510  1.00  0.00     0.050 A 
HETATM   29  S1  UNL     1      16.427  -7.519   9.105  1.00  0.00    -0.104 SA
ENDBRANCH  11  25
BRANCH  12  30
HETATM   30  N4  UNL     1      17.371  -5.725  12.498  1.00  0.00    -0.211 N 
ATOM     31  H4  UNL     1      17.456  -6.527  13.124  1.00  0.00     0.215 HD
BRANCH  30  32
HETATM   32  O2  UNL     1      16.370  -4.953  12.543  1.00  0.00    -0.275 OA
ATOM     33  H2  UNL     1      15.947  -4.847  13.387  1.00  0.00     0.246 HD
ENDBRANCH  30  32
ENDBRANCH  12  30
TORSDOF 5
ENDMDL
MODEL 2
REMARK VINA RESULT: -8.045629274      3.794      6.391
REMARK  5 active torsions:
REMARK  status: ('A' for Active; 'I' for Inactive)
REMARK    1  A    between atoms: C9_9  and  N1_10 
REMARK       I    between atoms: N1_10  and  C10_12 
REMARK       I    between atoms: C10_12  and  N2_14 
REMARK    2  A    between atoms: N2_14  and  C11_16 
REMARK    3  A    between atoms: C18_23  and  C19_24 
REMARK    4  A    between atoms: N3_29  and  N4_30 
REMARK    5  A    between atoms: N4_30  and  O2_32 
ROOT
HETATM    1  C1  UNL     1      25.706  -2.040   5.851  1.00  0.00     0.040 C 
HETATM    2  C2  UNL     1      24.506  -2.826   6.384  1.00  0.00     0.048 C 
HETATM    3  C3  UNL     1      24.939  -4.295   6.306  1.00  0.00     0.040 C 
HETATM    4  C4  UNL     1      24.342  -2.485   7.823  1.00  0.00     0.071 C 
HETATM    5  C5  UNL     1      22.988  -2.925   8.324  1.00  0.00    -0.045 A 
HETATM    6  C6  UNL     1      22.861  -3.412   9.608  1.00  0.00     0.008 A 
HETATM    7  C7  UNL     1      21.657  -3.810  10.106  1.00  0.00     0.003 A 
HETATM    8  C8  UNL     1      20.540  -3.708   9.270  1.00  0.00     0.030 A 
HETATM    9  C9  UNL     1      20.649  -3.226   7.992  1.00  0.00     0.045 A 
HETATM   10  C17 UNL     1      21.909  -2.822   7.499  1.00  0.00     0.004 A 
HETATM   11  C18 UNL     1      22.019  -2.331   6.130  1.00  0.00     0.180 C 
HETATM   12  N3  UNL     1      23.332  -2.588   5.595  1.00  0.00    -0.285 N 
ENDROOT
BRANCH   9  13
HETATM   13  N1  UNL     1      19.531  -3.066   7.155  1.00  0.00    -0.308 N 
HETATM   14  C10 UNL     1      18.460  -3.976   7.023  1.00  0.00     0.325 C 
HETATM   15  O1  UNL     1      18.429  -5.030   7.657  1.00  0.00    -0.247 OA
HETATM   16  N2  UNL     1      17.409  -3.612   6.113  1.00  0.00    -0.309 N 
ATOM     17  H2  UNL     1      17.498  -2.720   5.626  1.00  0.00     0.170 HD
ATOM     18  H1  UNL     1      19.489  -2.216   6.594  1.00  0.00     0.170 HD
BRANCH  16  19
HETATM   19  C11 UNL     1      16.267  -4.386   5.841  1.00  0.00     0.036 A 
HETATM   20  C12 UNL     1      16.250  -5.751   5.736  1.00  0.00     0.029 A 
HETATM   21  C13 UNL     1      15.063  -6.461   5.483  1.00  0.00     0.002 A 
HETATM   22  C14 UNL     1      13.887  -5.797   5.334  1.00  0.00     0.000 A 
HETATM   23  C15 UNL     1      13.905  -4.426   5.439  1.00  0.00     0.002 A 
HETATM   24  C16 UNL     1      15.038  -3.723   5.682  1.00  0.00     0.029 A 
ENDBRANCH  16  19
ENDBRANCH   9  13
BRANCH  11  25
HETATM   25  C19 UNL     1      21.728  -0.865   6.134  1.00  0.00     0.011 A 
HETATM   26  C20 UNL     1      22.228   0.127   6.902  1.00  0.00     0.017 A 
HETATM   27  C21 UNL     1      21.774   1.382   6.694  1.00  0.00     0.008 A 
HETATM   28  C22 UNL     1      20.834   1.538   5.707  1.00  0.00     0.050 A 
HETATM   29  S1  UNL     1      20.626  -0.049   5.120  1.00  0.00    -0.104 SA
ENDBRANCH  11  25
BRANCH  12  30
HETATM   30  N4  UNL     1      23.474  -2.608   4.205  1.00  0.00    -0.211 N 
ATOM     31  H4  UNL     1      24.350  -2.342   3.753  1.00  0.00     0.215 HD
BRANCH  30  32
HETATM   32  O2  UNL     1      22.466  -2.972   3.533  1.00  0.00    -0.275 OA
ATOM     33  H2  UNL     1      22.636  -3.419   2.712  1.00  0.00     0.246 HD
ENDBRANCH  30  32
ENDBRANCH  12  30
TORSDOF 5
ENDMDL
MODEL 3
REMARK VINA RESULT: -7.280057263      2.790      6.130
REMARK  5 active torsions:
REMARK  status: ('A' for Active; 'I' for Inactive)
REMARK    1  A    between atoms: C9_9  and  N1_10 
REMARK       I    between atoms: N1_10  and  C10_12 
REMARK       I    between atoms: C10_12  and  N2_14 
REMARK    2  A    between atoms: N2_14  and  C11_16 
REMARK    3  A    between atoms: C18_23  and  C19_24 
REMARK    4  A    between atoms: N3_29  and  N4_30 
REMARK    5  A    between atoms: N4_30  and  O2_32 
ROOT
HETATM    1  C1  UNL     1      16.686  -9.118   9.274  1.00  0.00     0.040 C 
HETATM    2  C2  UNL     1      16.826  -8.114   8.128  1.00  0.00     0.048 C 
HETATM    3  C3  UNL     1      17.030  -8.977   6.878  1.00  0.00     0.040 C 
HETATM    4  C4  UNL     1      15.523  -7.411   7.977  1.00  0.00     0.071 C 
HETATM    5  C5  UNL     1      15.682  -6.172   7.130  1.00  0.00    -0.045 A 
HETATM    6  C6  UNL     1      14.673  -5.804   6.264  1.00  0.00     0.008 A 
HETATM    7  C7  UNL     1      14.768  -4.688   5.489  1.00  0.00     0.003 A 
HETATM    8  C8  UNL     1      15.929  -3.915   5.598  1.00  0.00     0.030 A 
HETATM    9  C9  UNL     1      16.940  -4.266   6.454  1.00  0.00     0.045 A 
HETATM   10  C17 UNL     1      16.818  -5.429   7.246  1.00  0.00     0.004 A 
HETATM   11  C18 UNL     1      17.908  -5.807   8.138  1.00  0.00     0.180 C 
HETATM   12  N3  UNL     1      17.939  -7.234   8.338  1.00  0.00    -0.285 N 
ENDROOT
BRANCH   9  13
HETATM   13  N1  UNL     1      18.090  -3.474   6.618  1.00  0.00    -0.308 N 
HETATM   14  C10 UNL     1      19.219  -3.471   5.771  1.00  0.00     0.325 C 
HETATM   15  O1  UNL     1      19.285  -4.201   4.782  1.00  0.00    -0.247 OA
HETATM   16  N2  UNL     1      20.287  -2.575   6.118  1.00  0.00    -0.309 N 
ATOM     17  H2  UNL     1      20.161  -1.995   6.948  1.00  0.00     0.170 HD
ATOM     18  H1  UNL     1      18.110  -2.845   7.421  1.00  0.00     0.170 HD
BRANCH  16  19
HETATM   19  C11 UNL     1      21.491  -2.433   5.406  1.00  0.00     0.036 A 
HETATM   20  C12 UNL     1      21.732  -1.482   4.450  1.00  0.00     0.029 A 
HETATM   21  C13 UNL     1      22.972  -1.387   3.794  1.00  0.00     0.002 A 
HETATM   22  C14 UNL     1      23.976  -2.251   4.100  1.00  0.00     0.000 A 
HETATM   23  C15 UNL     1      23.733  -3.204   5.059  1.00  0.00     0.002 A 
HETATM   24  C16 UNL     1      22.545  -3.314   5.703  1.00  0.00     0.029 A 
ENDBRANCH  16  19
ENDBRANCH   9  13
BRANCH  11  25
HETATM   25  C19 UNL     1      17.717  -5.095   9.438  1.00  0.00     0.011 A 
HETATM   26  C20 UNL     1      16.830  -5.308  10.433  1.00  0.00     0.017 A 
HETATM   27  C21 UNL     1      16.875  -4.495  11.511  1.00  0.00     0.008 A 
HETATM   28  C22 UNL     1      17.833  -3.512  11.496  1.00  0.00     0.050 A 
HETATM   29  S1  UNL     1      18.618  -3.761  10.003  1.00  0.00    -0.104 SA
ENDBRANCH  11  25
BRANCH  12  30
HETATM   30  N4  UNL     1      19.140  -7.803   8.768  1.00  0.00    -0.211 N 
ATOM     31  H4  UNL     1      19.621  -8.515   8.217  1.00  0.00     0.215 HD
BRANCH  30  32
HETATM   32  O2  UNL     1      19.604  -7.394   9.872  1.00  0.00    -0.275 OA
ATOM     33  H2  UNL     1      20.506  -7.096   9.874  1.00  0.00     0.246 HD
ENDBRANCH  30  32
ENDBRANCH  12  30
TORSDOF 5
ENDMDL
MODEL 4
REMARK VINA RESULT: -7.276793761      2.692      5.701
REMARK  5 active torsions:
REMARK  status: ('A' for Active; 'I' for Inactive)
REMARK    1  A    between atoms: C9_9  and  N1_10 
REMARK       I    between atoms: N1_10  and  C10_12 
REMARK       I    between atoms: C10_12  and  N2_14 
REMARK    2  A    between atoms: N2_14  and  C11_16 
REMARK    3  A    between atoms: C18_23  and  C19_24 
REMARK    4  A    between atoms: N3_29  and  N4_30 
REMARK    5  A    between atoms: N4_30  and  O2_32 
ROOT
HETATM    1  C1  UNL     1      18.082  -9.152  11.129  1.00  0.00     0.040 C 
HETATM    2  C2  UNL     1      18.076  -8.302   9.856  1.00  0.00     0.048 C 
HETATM    3  C3  UNL     1      18.779  -9.169   8.807  1.00  0.00     0.040 C 
HETATM    4  C4  UNL     1      16.661  -8.138   9.426  1.00  0.00     0.071 C 
HETATM    5  C5  UNL     1      16.539  -7.030   8.408  1.00  0.00    -0.045 A 
HETATM    6  C6  UNL     1      15.637  -7.153   7.372  1.00  0.00     0.008 A 
HETATM    7  C7  UNL     1      15.484  -6.173   6.437  1.00  0.00     0.003 A 
HETATM    8  C8  UNL     1      16.276  -5.026   6.560  1.00  0.00     0.030 A 
HETATM    9  C9  UNL     1      17.176  -4.889   7.583  1.00  0.00     0.045 A 
HETATM   10  C17 UNL     1      17.317  -5.919   8.538  1.00  0.00     0.004 A 
HETATM   11  C18 UNL     1      18.293  -5.775   9.612  1.00  0.00     0.180 C 
HETATM   12  N3  UNL     1      18.769  -7.061  10.053  1.00  0.00    -0.285 N 
ENDROOT
BRANCH   9  13
HETATM   13  N1  UNL     1      17.942  -3.722   7.755  1.00  0.00    -0.308 N 
HETATM   14  C10 UNL     1      18.964  -3.270   6.893  1.00  0.00     0.325 C 
HETATM   15  O1  UNL     1      19.280  -3.899   5.882  1.00  0.00    -0.247 OA
HETATM   16  N2  UNL     1      19.619  -2.043   7.251  1.00  0.00    -0.309 N 
ATOM     17  H2  UNL     1      19.302  -1.573   8.100  1.00  0.00     0.170 HD
ATOM     18  H1  UNL     1      17.741  -3.151   8.575  1.00  0.00     0.170 HD
BRANCH  16  19
HETATM   19  C11 UNL     1      20.661  -1.437   6.527  1.00  0.00     0.036 A 
HETATM   20  C12 UNL     1      21.882  -2.006   6.282  1.00  0.00     0.029 A 
HETATM   21  C13 UNL     1      22.870  -1.348   5.530  1.00  0.00     0.002 A 
HETATM   22  C14 UNL     1      22.631  -0.111   5.020  1.00  0.00     0.000 A 
HETATM   23  C15 UNL     1      21.405   0.459   5.266  1.00  0.00     0.002 A 
HETATM   24  C16 UNL     1      20.439  -0.158   5.989  1.00  0.00     0.029 A 
ENDBRANCH  16  19
ENDBRANCH   9  13
BRANCH  11  25
HETATM   25  C19 UNL     1      17.645  -5.037  10.738  1.00  0.00     0.011 A 
HETATM   26  C20 UNL     1      16.609  -5.382  11.532  1.00  0.00     0.017 A 
HETATM   27  C21 UNL     1      16.216  -4.506  12.483  1.00  0.00     0.008 A 
HETATM   28  C22 UNL     1      16.916  -3.328  12.556  1.00  0.00     0.050 A 
HETATM   29  S1  UNL     1      18.074  -3.490  11.315  1.00  0.00    -0.104 SA
ENDBRANCH  11  25
BRANCH  12  30
HETATM   30  N4  UNL     1      19.995  -7.106  10.721  1.00  0.00    -0.211 N 
ATOM     31  H4  UNL     1      20.275  -7.919  11.270  1.00  0.00     0.215 HD
BRANCH  30  32
HETATM   32  O2  UNL     1      20.742  -6.091  10.613  1.00  0.00    -0.275 OA
ATOM     33  H2  UNL     1      21.671  -6.252  10.494  1.00  0.00     0.246 HD
ENDBRANCH  30  32
ENDBRANCH  12  30
TORSDOF 5
ENDMDL
MODEL 5
REMARK VINA RESULT: -7.105428631      1.267      1.630
REMARK  5 active torsions:
REMARK  status: ('A' for Active; 'I' for Inactive)
REMARK    1  A    between atoms: C9_9  and  N1_10 
REMARK       I    between atoms: N1_10  and  C10_12 
REMARK       I    between atoms: C10_12  and  N2_14 
REMARK    2  A    between atoms: N2_14  and  C11_16 
REMARK    3  A    between atoms: C18_23  and  C19_24 
REMARK    4  A    between atoms: N3_29  and  N4_30 
REMARK    5  A    between atoms: N4_30  and  O2_32 
ROOT
HETATM    1  C1  UNL     1      21.607  -6.101  13.210  1.00  0.00     0.040 C 
HETATM    2  C2  UNL     1      20.929  -5.135  12.236  1.00  0.00     0.048 C 
HETATM    3  C3  UNL     1      20.901  -3.793  12.976  1.00  0.00     0.040 C 
HETATM    4  C4  UNL     1      21.823  -4.977  11.057  1.00  0.00     0.071 C 
HETATM    5  C5  UNL     1      21.080  -4.342   9.906  1.00  0.00    -0.045 A 
HETATM    6  C6  UNL     1      21.735  -3.455   9.079  1.00  0.00     0.008 A 
HETATM    7  C7  UNL     1      21.107  -2.867   8.021  1.00  0.00     0.003 A 
HETATM    8  C8  UNL     1      19.766  -3.193   7.796  1.00  0.00     0.030 A 
HETATM    9  C9  UNL     1      19.101  -4.072   8.609  1.00  0.00     0.045 A 
HETATM   10  C17 UNL     1      19.773  -4.667   9.699  1.00  0.00     0.004 A 
HETATM   11  C18 UNL     1      19.052  -5.586  10.573  1.00  0.00     0.180 C 
HETATM   12  N3  UNL     1      19.604  -5.573  11.903  1.00  0.00    -0.285 N 
ENDROOT
BRANCH   9  13
HETATM   13  N1  UNL     1      17.770  -4.455   8.368  1.00  0.00    -0.308 N 
HETATM   14  C10 UNL     1      17.200  -4.711   7.102  1.00  0.00     0.325 C 
HETATM   15  O1  UNL     1      17.858  -4.608   6.066  1.00  0.00    -0.247 OA
HETATM   16  N2  UNL     1      15.817  -5.098   7.080  1.00  0.00    -0.309 N 
ATOM     17  H2  UNL     1      15.336  -5.169   7.977  1.00  0.00     0.170 HD
ATOM     18  H1  UNL     1      17.161  -4.556   9.179  1.00  0.00     0.170 HD
BRANCH  16  19
HETATM   19  C11 UNL     1      15.073  -5.388   5.923  1.00  0.00     0.036 A 
HETATM   20  C12 UNL     1      14.365  -4.469   5.194  1.00  0.00     0.029 A 
HETATM   21  C13 UNL     1      13.660  -4.829   4.031  1.00  0.00     0.002 A 
HETATM   22  C14 UNL     1      13.668  -6.117   3.598  1.00  0.00     0.000 A 
HETATM   23  C15 UNL     1      14.379  -7.038   4.330  1.00  0.00     0.002 A 
HETATM   24  C16 UNL     1      15.064  -6.712   5.453  1.00  0.00     0.029 A 
ENDBRANCH  16  19
ENDBRANCH   9  13
BRANCH  11  25
HETATM   25  C19 UNL     1      19.133  -6.956   9.981  1.00  0.00     0.011 A 
HETATM   26  C20 UNL     1      18.340  -7.570   9.077  1.00  0.00     0.017 A 
HETATM   27  C21 UNL     1      18.645  -8.836   8.719  1.00  0.00     0.008 A 
HETATM   28  C22 UNL     1      19.749  -9.392   9.315  1.00  0.00     0.050 A 
HETATM   29  S1  UNL     1      20.307  -8.142  10.333  1.00  0.00    -0.104 SA
ENDBRANCH  11  25
BRANCH  12  30
HETATM   30  N4  UNL     1      18.790  -6.017  12.949  1.00  0.00    -0.211 N 
ATOM     31  H4  UNL     1      18.953  -6.912  13.409  1.00  0.00     0.215 HD
BRANCH  30  32
HETATM   32  O2  UNL     1      17.841  -5.256  13.296  1.00  0.00    -0.275 OA
ATOM     33  H2  UNL     1      16.965  -5.518  13.039  1.00  0.00     0.246 HD
ENDBRANCH  30  32
ENDBRANCH  12  30
TORSDOF 5
ENDMDL
