MODEL 1
REMARK VINA RESULT: -9.783778147      0.000      0.000
REMARK  4 active torsions:
REMARK  status: ('A' for Active; 'I' for Inactive)
REMARK    1  A    between atoms: C2_2  and  N1_3 
REMARK       I    between atoms: N1_3  and  C3_5 
REMARK       I    between atoms: C3_5  and  N3_9 
REMARK    2  A    between atoms: N3_9  and  C5_11 
REMARK    3  A    between atoms: C8_14  and  C9_15 
REMARK    4  A    between atoms: C9_15  and  C10_17 
ROOT
HETATM    1  C5  UNL     1      14.510  -4.930   5.419  1.00  0.00     0.049 A 
HETATM    2  C6  UNL     1      15.018  -6.132   5.863  1.00  0.00     0.031 A 
HETATM    3  C7  UNL     1      16.022  -6.232   6.796  1.00  0.00     0.018 A 
HETATM    4  C8  UNL     1      16.559  -5.082   7.324  1.00  0.00     0.015 A 
HETATM    5  C22 UNL     1      16.066  -3.839   6.897  1.00  0.00     0.018 A 
HETATM    6  C23 UNL     1      15.065  -3.801   5.966  1.00  0.00     0.031 A 
ENDROOT
BRANCH   4   7
HETATM    7  C9  UNL     1      17.642  -5.042   8.287  1.00  0.00     0.192 C 
HETATM    8  O1  UNL     1      17.505  -5.710   9.360  1.00  0.00    -0.287 OA
BRANCH   7   9
HETATM    9  C10 UNL     1      18.863  -4.290   8.100  1.00  0.00     0.016 A 
HETATM   10  C11 UNL     1      19.914  -4.331   8.983  1.00  0.00     0.017 A 
HETATM   11  C12 UNL     1      21.084  -3.591   8.804  1.00  0.00     0.021 A 
HETATM   12  C13 UNL     1      21.212  -2.782   7.704  1.00  0.00     0.022 A 
HETATM   13  C14 UNL     1      20.176  -2.716   6.794  1.00  0.00     0.023 A 
HETATM   14  S2  UNL     1      22.717  -1.825   7.483  1.00  0.00    -0.088 SA
HETATM   15  C15 UNL     1      19.036  -3.458   7.001  1.00  0.00     0.035 A 
HETATM   16  S1  UNL     1      20.359  -1.667   5.351  1.00  0.00    -0.088 SA
HETATM   17  C16 UNL     1      21.216  -0.171   5.900  1.00  0.00     0.022 A 
HETATM   18  C17 UNL     1      20.827   1.051   5.368  1.00  0.00     0.020 A 
HETATM   19  C21 UNL     1      22.230  -0.225   6.815  1.00  0.00     0.022 A 
HETATM   20  C18 UNL     1      21.434   2.229   5.734  1.00  0.00     0.001 A 
HETATM   21  C19 UNL     1      22.460   2.132   6.665  1.00  0.00     0.001 A 
HETATM   22  C20 UNL     1      22.855   0.933   7.200  1.00  0.00     0.020 A 
ENDBRANCH   7   9
ENDBRANCH   4   7
BRANCH   1  23
HETATM   23  N3  UNL     1      13.486  -4.817   4.466  1.00  0.00    -0.192 N 
HETATM   24  C3  UNL     1      13.595  -5.169   3.114  1.00  0.00     0.673 C 
HETATM   25  N1  UNL     1      13.873  -4.148   2.134  1.00  0.00    -0.227 N 
HETATM   26  N2  UNL     1      13.455  -6.368   2.739  1.00  0.00    -0.231 N 
ATOM     27  H1  UNL     1      14.109  -4.422   1.180  1.00  0.00     0.177 HD
HETATM   28  C4  UNL     1      13.177  -7.489   3.592  1.00  0.00     0.165 C 
ATOM     29  H2  UNL     1      13.547  -6.556   1.741  1.00  0.00     0.177 HD
ATOM     30  H3  UNL     1      12.590  -4.448   4.782  1.00  0.00     0.184 HD
BRANCH  25  31
HETATM   31  C2  UNL     1      13.824  -2.750   2.473  1.00  0.00     0.133 C 
HETATM   32  C1  UNL     1      15.212  -2.146   2.471  1.00  0.00     0.027 C 
ENDBRANCH  25  31
ENDBRANCH   1  23
TORSDOF 4
ENDMDL
MODEL 2
REMARK VINA RESULT: -9.276983534      4.140      8.340
REMARK  4 active torsions:
REMARK  status: ('A' for Active; 'I' for Inactive)
REMARK    1  A    between atoms: C2_2  and  N1_3 
REMARK       I    between atoms: N1_3  and  C3_5 
REMARK       I    between atoms: C3_5  and  N3_9 
REMARK    2  A    between atoms: N3_9  and  C5_11 
REMARK    3  A    between atoms: C8_14  and  C9_15 
REMARK    4  A    between atoms: C9_15  and  C10_17 
ROOT
HETATM    1  C5  UNL     1      22.032  -1.975   6.711  1.00  0.00     0.049 A 
HETATM    2  C6  UNL     1      20.906  -2.265   5.973  1.00  0.00     0.031 A 
HETATM    3  C7  UNL     1      19.904  -3.097   6.412  1.00  0.00     0.018 A 
HETATM    4  C8  UNL     1      20.018  -3.680   7.653  1.00  0.00     0.015 A 
HETATM    5  C22 UNL     1      21.151  -3.407   8.434  1.00  0.00     0.018 A 
HETATM    6  C23 UNL     1      22.116  -2.570   7.945  1.00  0.00     0.031 A 
ENDROOT
BRANCH   4   7
HETATM    7  C9  UNL     1      19.056  -4.602   8.224  1.00  0.00     0.192 C 
HETATM    8  O1  UNL     1      19.261  -5.012   9.409  1.00  0.00    -0.287 OA
BRANCH   7   9
HETATM    9  C10 UNL     1      17.881  -5.079   7.527  1.00  0.00     0.016 A 
HETATM   10  C11 UNL     1      17.644  -6.407   7.275  1.00  0.00     0.017 A 
HETATM   11  C12 UNL     1      16.516  -6.860   6.589  1.00  0.00     0.021 A 
HETATM   12  C13 UNL     1      15.589  -5.955   6.140  1.00  0.00     0.022 A 
HETATM   13  C14 UNL     1      15.793  -4.611   6.376  1.00  0.00     0.023 A 
HETATM   14  S2  UNL     1      14.143  -6.542   5.250  1.00  0.00    -0.088 SA
HETATM   15  C15 UNL     1      16.916  -4.198   7.054  1.00  0.00     0.035 A 
HETATM   16  S1  UNL     1      14.568  -3.436   5.798  1.00  0.00    -0.088 SA
HETATM   17  C16 UNL     1      14.002  -4.025   4.183  1.00  0.00     0.022 A 
HETATM   18  C17 UNL     1      13.753  -3.092   3.185  1.00  0.00     0.020 A 
HETATM   19  C21 UNL     1      13.816  -5.356   3.934  1.00  0.00     0.022 A 
HETATM   20  C18 UNL     1      13.318  -3.464   1.935  1.00  0.00     0.001 A 
HETATM   21  C19 UNL     1      13.141  -4.825   1.722  1.00  0.00     0.001 A 
HETATM   22  C20 UNL     1      13.383  -5.759   2.697  1.00  0.00     0.020 A 
ENDBRANCH   7   9
ENDBRANCH   4   7
BRANCH   1  23
HETATM   23  N3  UNL     1      23.061  -1.128   6.271  1.00  0.00    -0.192 N 
HETATM   24  C3  UNL     1      22.937  -0.155   5.269  1.00  0.00     0.673 C 
HETATM   25  N1  UNL     1      23.359  -0.463   3.925  1.00  0.00    -0.227 N 
HETATM   26  N2  UNL     1      22.461   0.988   5.525  1.00  0.00    -0.231 N 
ATOM     27  H1  UNL     1      23.125   0.180   3.169  1.00  0.00     0.177 HD
HETATM   28  C4  UNL     1      22.001   1.439   6.808  1.00  0.00     0.165 C 
ATOM     29  H2  UNL     1      22.398   1.648   4.751  1.00  0.00     0.177 HD
ATOM     30  H3  UNL     1      23.973  -1.228   6.716  1.00  0.00     0.184 HD
BRANCH  25  31
HETATM   31  C2  UNL     1      24.104  -1.658   3.628  1.00  0.00     0.133 C 
HETATM   32  C1  UNL     1      24.440  -1.731   2.154  1.00  0.00     0.027 C 
ENDBRANCH  25  31
ENDBRANCH   1  23
TORSDOF 4
ENDMDL
MODEL 3
REMARK VINA RESULT: -9.092563985      4.090      8.373
REMARK  4 active torsions:
REMARK  status: ('A' for Active; 'I' for Inactive)
REMARK    1  A    between atoms: C2_2  and  N1_3 
REMARK       I    between atoms: N1_3  and  C3_5 
REMARK       I    between atoms: C3_5  and  N3_9 
REMARK    2  A    between atoms: N3_9  and  C5_11 
REMARK    3  A    between atoms: C8_14  and  C9_15 
REMARK    4  A    between atoms: C9_15  and  C10_17 
ROOT
HETATM    1  C5  UNL     1      21.722  -2.269   7.247  1.00  0.00     0.049 A 
HETATM    2  C6  UNL     1      20.672  -2.541   6.397  1.00  0.00     0.031 A 
HETATM    3  C7  UNL     1      19.657  -3.416   6.703  1.00  0.00     0.018 A 
HETATM    4  C8  UNL     1      19.676  -4.063   7.916  1.00  0.00     0.015 A 
HETATM    5  C22 UNL     1      20.730  -3.810   8.808  1.00  0.00     0.018 A 
HETATM    6  C23 UNL     1      21.713  -2.928   8.450  1.00  0.00     0.031 A 
ENDROOT
BRANCH   4   7
HETATM    7  C9  UNL     1      18.691  -5.033   8.351  1.00  0.00     0.192 C 
HETATM    8  O1  UNL     1      18.838  -5.551   9.502  1.00  0.00    -0.287 OA
BRANCH   7   9
HETATM    9  C10 UNL     1      17.555  -5.445   7.554  1.00  0.00     0.016 A 
HETATM   10  C11 UNL     1      17.324  -6.749   7.193  1.00  0.00     0.017 A 
HETATM   11  C12 UNL     1      16.234  -7.137   6.412  1.00  0.00     0.021 A 
HETATM   12  C13 UNL     1      15.342  -6.191   5.977  1.00  0.00     0.022 A 
HETATM   13  C14 UNL     1      15.541  -4.870   6.322  1.00  0.00     0.023 A 
HETATM   14  S2  UNL     1      13.945  -6.696   4.965  1.00  0.00    -0.088 SA
HETATM   15  C15 UNL     1      16.626  -4.521   7.092  1.00  0.00     0.035 A 
HETATM   16  S1  UNL     1      14.360  -3.643   5.762  1.00  0.00    -0.088 SA
HETATM   17  C16 UNL     1      13.886  -4.107   4.078  1.00  0.00     0.022 A 
HETATM   18  C17 UNL     1      13.702  -3.101   3.139  1.00  0.00     0.020 A 
HETATM   19  C21 UNL     1      13.705  -5.415   3.722  1.00  0.00     0.022 A 
HETATM   20  C18 UNL     1      13.338  -3.377   1.842  1.00  0.00     0.001 A 
HETATM   21  C19 UNL     1      13.163  -4.717   1.520  1.00  0.00     0.001 A 
HETATM   22  C20 UNL     1      13.342  -5.721   2.436  1.00  0.00     0.020 A 
ENDBRANCH   7   9
ENDBRANCH   4   7
BRANCH   1  23
HETATM   23  N3  UNL     1      22.764  -1.378   6.944  1.00  0.00    -0.192 N 
HETATM   24  C3  UNL     1      23.080  -0.907   5.663  1.00  0.00     0.673 C 
HETATM   25  N1  UNL     1      24.138  -1.539   4.913  1.00  0.00    -0.227 N 
HETATM   26  N2  UNL     1      22.452   0.065   5.152  1.00  0.00    -0.231 N 
ATOM     27  H1  UNL     1      24.262  -1.305   3.929  1.00  0.00     0.177 HD
HETATM   28  C4  UNL     1      21.381   0.792   5.772  1.00  0.00     0.165 C 
ATOM     29  H2  UNL     1      22.732   0.358   4.216  1.00  0.00     0.177 HD
ATOM     30  H3  UNL     1      23.338  -1.048   7.719  1.00  0.00     0.184 HD
BRANCH  25  31
HETATM   31  C2  UNL     1      25.022  -2.495   5.526  1.00  0.00     0.133 C 
HETATM   32  C1  UNL     1      24.449  -3.893   5.438  1.00  0.00     0.027 C 
ENDBRANCH  25  31
ENDBRANCH   1  23
TORSDOF 4
ENDMDL
MODEL 4
REMARK VINA RESULT: -9.025597012      4.218      8.479
REMARK  4 active torsions:
REMARK  status: ('A' for Active; 'I' for Inactive)
REMARK    1  A    between atoms: C2_2  and  N1_3 
REMARK       I    between atoms: N1_3  and  C3_5 
REMARK       I    between atoms: C3_5  and  N3_9 
REMARK    2  A    between atoms: N3_9  and  C5_11 
REMARK    3  A    between atoms: C8_14  and  C9_15 
REMARK    4  A    between atoms: C9_15  and  C10_17 
ROOT
HETATM    1  C5  UNL     1      21.662  -1.721   5.930  1.00  0.00     0.049 A 
HETATM    2  C6  UNL     1      21.782  -1.941   7.284  1.00  0.00     0.031 A 
HETATM    3  C7  UNL     1      21.015  -2.847   7.977  1.00  0.00     0.018 A 
HETATM    4  C8  UNL     1      20.071  -3.579   7.296  1.00  0.00     0.015 A 
HETATM    5  C22 UNL     1      19.920  -3.384   5.915  1.00  0.00     0.018 A 
HETATM    6  C23 UNL     1      20.713  -2.469   5.278  1.00  0.00     0.031 A 
ENDROOT
BRANCH   4   7
HETATM    7  C9  UNL     1      19.173  -4.541   7.906  1.00  0.00     0.192 C 
HETATM    8  O1  UNL     1      19.474  -4.983   9.059  1.00  0.00    -0.287 OA
BRANCH   7   9
HETATM    9  C10 UNL     1      17.961  -5.024   7.282  1.00  0.00     0.016 A 
HETATM   10  C11 UNL     1      17.690  -6.357   7.098  1.00  0.00     0.017 A 
HETATM   11  C12 UNL     1      16.525  -6.816   6.482  1.00  0.00     0.021 A 
HETATM   12  C13 UNL     1      15.595  -5.913   6.034  1.00  0.00     0.022 A 
HETATM   13  C14 UNL     1      15.832  -4.565   6.202  1.00  0.00     0.023 A 
HETATM   14  S2  UNL     1      14.101  -6.509   5.233  1.00  0.00    -0.088 SA
HETATM   15  C15 UNL     1      16.992  -4.145   6.813  1.00  0.00     0.035 A 
HETATM   16  S1  UNL     1      14.604  -3.392   5.627  1.00  0.00    -0.088 SA
HETATM   17  C16 UNL     1      13.958  -4.038   4.065  1.00  0.00     0.022 A 
HETATM   18  C17 UNL     1      13.682  -3.144   3.040  1.00  0.00     0.020 A 
HETATM   19  C21 UNL     1      13.738  -5.375   3.882  1.00  0.00     0.022 A 
HETATM   20  C18 UNL     1      13.186  -3.560   1.827  1.00  0.00     0.001 A 
HETATM   21  C19 UNL     1      12.976  -4.925   1.681  1.00  0.00     0.001 A 
HETATM   22  C20 UNL     1      13.244  -5.821   2.684  1.00  0.00     0.020 A 
ENDBRANCH   7   9
ENDBRANCH   4   7
BRANCH   1  23
HETATM   23  N3  UNL     1      22.439  -0.798   5.214  1.00  0.00    -0.192 N 
HETATM   24  C3  UNL     1      23.490  -0.038   5.746  1.00  0.00     0.673 C 
HETATM   25  N1  UNL     1      23.244   1.321   6.162  1.00  0.00    -0.227 N 
HETATM   26  N2  UNL     1      24.650  -0.525   5.868  1.00  0.00    -0.231 N 
ATOM     27  H1  UNL     1      23.959   1.818   6.691  1.00  0.00     0.177 HD
HETATM   28  C4  UNL     1      25.047  -1.855   5.500  1.00  0.00     0.165 C 
ATOM     29  H2  UNL     1      25.369   0.081   6.263  1.00  0.00     0.177 HD
ATOM     30  H3  UNL     1      22.222  -0.670   4.226  1.00  0.00     0.184 HD
BRANCH  25  31
HETATM   31  C2  UNL     1      22.010   1.990   5.845  1.00  0.00     0.133 C 
HETATM   32  C1  UNL     1      21.646   2.989   6.923  1.00  0.00     0.027 C 
ENDBRANCH  25  31
ENDBRANCH   1  23
TORSDOF 4
ENDMDL
MODEL 5
REMARK VINA RESULT: -8.966614218      2.844      3.757
REMARK  4 active torsions:
REMARK  status: ('A' for Active; 'I' for Inactive)
REMARK    1  A    between atoms: C2_2  and  N1_3 
REMARK       I    between atoms: N1_3  and  C3_5 
REMARK       I    between atoms: C3_5  and  N3_9 
REMARK    2  A    between atoms: N3_9  and  C5_11 
REMARK    3  A    between atoms: C8_14  and  C9_15 
REMARK    4  A    between atoms: C9_15  and  C10_17 
ROOT
HETATM    1  C5  UNL     1      16.375  -5.064   6.730  1.00  0.00     0.049 A 
HETATM    2  C6  UNL     1      17.265  -4.563   5.806  1.00  0.00     0.031 A 
HETATM    3  C7  UNL     1      18.493  -4.043   6.139  1.00  0.00     0.018 A 
HETATM    4  C8  UNL     1      18.867  -4.013   7.462  1.00  0.00     0.015 A 
HETATM    5  C22 UNL     1      17.987  -4.516   8.432  1.00  0.00     0.018 A 
HETATM    6  C23 UNL     1      16.777  -5.022   8.041  1.00  0.00     0.031 A 
ENDROOT
BRANCH   4   7
HETATM    7  C9  UNL     1      20.115  -3.464   7.956  1.00  0.00     0.192 C 
HETATM    8  O1  UNL     1      20.547  -3.887   9.074  1.00  0.00    -0.287 OA
BRANCH   7   9
HETATM    9  C10 UNL     1      20.893  -2.467   7.253  1.00  0.00     0.016 A 
HETATM   10  C11 UNL     1      20.376  -1.265   6.837  1.00  0.00     0.017 A 
HETATM   11  C12 UNL     1      21.128  -0.314   6.147  1.00  0.00     0.021 A 
HETATM   12  C13 UNL     1      22.445  -0.569   5.862  1.00  0.00     0.022 A 
HETATM   13  C14 UNL     1      23.000  -1.766   6.265  1.00  0.00     0.023 A 
HETATM   14  S2  UNL     1      23.407   0.656   4.966  1.00  0.00    -0.088 SA
HETATM   15  C15 UNL     1      22.230  -2.683   6.944  1.00  0.00     0.035 A 
HETATM   16  S1  UNL     1      24.727  -2.084   5.903  1.00  0.00    -0.088 SA
HETATM   17  C16 UNL     1      25.043  -1.419   4.249  1.00  0.00     0.022 A 
HETATM   18  C17 UNL     1      25.878  -2.128   3.396  1.00  0.00     0.020 A 
HETATM   19  C21 UNL     1      24.482  -0.243   3.834  1.00  0.00     0.022 A 
HETATM   20  C18 UNL     1      26.167  -1.683   2.128  1.00  0.00     0.001 A 
HETATM   21  C19 UNL     1      25.579  -0.485   1.744  1.00  0.00     0.001 A 
HETATM   22  C20 UNL     1      24.751   0.226   2.575  1.00  0.00     0.020 A 
ENDBRANCH   7   9
ENDBRANCH   4   7
BRANCH   1  23
HETATM   23  N3  UNL     1      15.118  -5.595   6.400  1.00  0.00    -0.192 N 
HETATM   24  C3  UNL     1      14.800  -6.235   5.194  1.00  0.00     0.673 C 
HETATM   25  N1  UNL     1      14.152  -5.489   4.144  1.00  0.00    -0.227 N 
HETATM   26  N2  UNL     1      15.073  -7.456   5.012  1.00  0.00    -0.231 N 
ATOM     27  H1  UNL     1      14.064  -5.904   3.217  1.00  0.00     0.177 HD
HETATM   28  C4  UNL     1      15.714  -8.324   5.959  1.00  0.00     0.165 C 
ATOM     29  H2  UNL     1      14.816  -7.859   4.112  1.00  0.00     0.177 HD
ATOM     30  H3  UNL     1      14.376  -5.508   7.094  1.00  0.00     0.184 HD
BRANCH  25  31
HETATM   31  C2  UNL     1      13.625  -4.170   4.377  1.00  0.00     0.133 C 
HETATM   32  C1  UNL     1      14.534  -3.115   3.785  1.00  0.00     0.027 C 
ENDBRANCH  25  31
ENDBRANCH   1  23
TORSDOF 4
ENDMDL
