MODEL 1
REMARK VINA RESULT: -8.664094550      0.000      0.000
REMARK  8 active torsions:
REMARK  status: ('A' for Active; 'I' for Inactive)
REMARK    1  A    between atoms: C2_2  and  O1_3 
REMARK    2  A    between atoms: O1_3  and  C3_4 
REMARK    3  A    between atoms: C4_5  and  S1_6 
REMARK    4  A    between atoms: S1_6  and  N1_9 
REMARK    5  A    between atoms: N1_9  and  C5_11 
REMARK    6  A    between atoms: C12_21  and  N3_22 
REMARK       I    between atoms: N3_22  and  C13_24 
REMARK    7  A    between atoms: C13_24  and  C14_26 
REMARK    8  A    between atoms: C17_29  and  C18_30 
ROOT
HETATM    1  C3  UNL     1     -13.202 -38.823 -11.510  1.00  0.00     0.133 A 
HETATM    2  C4  UNL     1     -13.777 -38.283 -12.617  1.00  0.00     0.116 A 
HETATM    3  C10 UNL     1     -14.724 -39.101 -13.264  1.00  0.00     0.030 A 
HETATM    4  C11 UNL     1     -15.033 -40.357 -12.802  1.00  0.00     0.034 A 
HETATM    5  C12 UNL     1     -14.460 -40.918 -11.690  1.00  0.00     0.076 A 
HETATM    6  C24 UNL     1     -13.522 -40.104 -11.048  1.00  0.00     0.177 A 
HETATM    7  F1  UNL     1     -12.895 -40.563  -9.942  1.00  0.00    -0.201 F 
ENDROOT
BRANCH   5   8
HETATM    8  N3  UNL     1     -14.735 -42.194 -11.175  1.00  0.00    -0.324 N 
HETATM    9  C13 UNL     1     -15.702 -42.581 -10.253  1.00  0.00     0.226 C 
HETATM   10  O5  UNL     1     -16.512 -41.789  -9.724  1.00  0.00    -0.273 OA
ATOM     11  H3  UNL     1     -14.140 -42.945 -11.526  1.00  0.00     0.169 HD
BRANCH   9  12
HETATM   12  C14 UNL     1     -15.859 -43.995  -9.809  1.00  0.00     0.078 C 
HETATM   13  C15 UNL     1     -15.131 -44.844 -10.833  1.00  0.00     0.014 C 
HETATM   14  C16 UNL     1     -15.389 -46.319 -10.624  1.00  0.00     0.006 C 
HETATM   15  C17 UNL     1     -15.897 -46.536  -9.235  1.00  0.00    -0.007 C 
HETATM   16  C22 UNL     1     -15.064 -45.727  -8.278  1.00  0.00     0.006 C 
HETATM   17  C23 UNL     1     -15.233 -44.251  -8.467  1.00  0.00     0.014 C 
BRANCH  15  18
HETATM   18  C18 UNL     1     -15.915 -47.978  -8.825  1.00  0.00    -0.048 C 
HETATM   19  C19 UNL     1     -16.975 -48.785  -9.489  1.00  0.00     0.015 C 
HETATM   20  C20 UNL     1     -16.166 -48.023  -7.321  1.00  0.00     0.015 C 
HETATM   21  C21 UNL     1     -14.563 -48.578  -9.106  1.00  0.00     0.015 C 
ENDBRANCH  15  18
ENDBRANCH   9  12
ENDBRANCH   5   8
BRANCH   1  22
HETATM   22  O1  UNL     1     -12.263 -38.098 -10.776  1.00  0.00    -0.347 OA
BRANCH  22  23
HETATM   23  C2  UNL     1     -10.895 -38.325 -10.833  1.00  0.00     0.171 C 
HETATM   24  C1  UNL     1     -10.190 -38.422 -12.112  1.00  0.00     0.034 C 
ENDBRANCH  22  23
ENDBRANCH   1  22
BRANCH   2  25
HETATM   25  S1  UNL     1     -13.366 -36.757 -13.351  1.00  0.00     0.267 S 
HETATM   26  O2  UNL     1     -14.616 -36.211 -14.023  1.00  0.00    -0.200 OA
HETATM   27  O3  UNL     1     -12.429 -37.030 -14.551  1.00  0.00    -0.200 OA
BRANCH  25  28
HETATM   28  N1  UNL     1     -12.700 -35.562 -12.391  1.00  0.00    -0.258 N 
ATOM     29  H1  UNL     1     -11.781 -35.193 -12.633  1.00  0.00     0.181 HD
BRANCH  28  30
HETATM   30  C5  UNL     1     -13.305 -35.088 -11.355  1.00  0.00     0.187 A 
HETATM   31  O4  UNL     1     -14.567 -34.771 -11.193  1.00  0.00    -0.218 OA
HETATM   32  N2  UNL     1     -14.788 -34.322  -9.995  1.00  0.00    -0.263 N 
HETATM   33  C6  UNL     1     -13.647 -34.318  -9.273  1.00  0.00     0.039 A 
ATOM     34  H2  UNL     1     -15.696 -34.016  -9.647  1.00  0.00     0.194 HD
HETATM   35  C7  UNL     1     -13.429 -33.891  -7.867  1.00  0.00     0.071 C 
HETATM   36  C8  UNL     1     -12.687 -34.814 -10.156  1.00  0.00     0.016 A 
HETATM   37  C9  UNL     1     -11.247 -35.019  -9.874  1.00  0.00     0.055 C 
ENDBRANCH  28  30
ENDBRANCH  25  28
ENDBRANCH   2  25
TORSDOF 8
ENDMDL
MODEL 2
REMARK VINA RESULT: -8.522536995      1.514      2.353
REMARK  8 active torsions:
REMARK  status: ('A' for Active; 'I' for Inactive)
REMARK    1  A    between atoms: C2_2  and  O1_3 
REMARK    2  A    between atoms: O1_3  and  C3_4 
REMARK    3  A    between atoms: C4_5  and  S1_6 
REMARK    4  A    between atoms: S1_6  and  N1_9 
REMARK    5  A    between atoms: N1_9  and  C5_11 
REMARK    6  A    between atoms: C12_21  and  N3_22 
REMARK       I    between atoms: N3_22  and  C13_24 
REMARK    7  A    between atoms: C13_24  and  C14_26 
REMARK    8  A    between atoms: C17_29  and  C18_30 
ROOT
HETATM    1  C3  UNL     1     -14.237 -39.543 -13.218  1.00  0.00     0.133 A 
HETATM    2  C4  UNL     1     -13.616 -38.483 -12.637  1.00  0.00     0.116 A 
HETATM    3  C10 UNL     1     -13.243 -38.665 -11.291  1.00  0.00     0.030 A 
HETATM    4  C11 UNL     1     -13.498 -39.836 -10.621  1.00  0.00     0.034 A 
HETATM    5  C12 UNL     1     -14.127 -40.914 -11.189  1.00  0.00     0.076 A 
HETATM    6  C24 UNL     1     -14.495 -40.732 -12.525  1.00  0.00     0.177 A 
HETATM    7  F1  UNL     1     -15.124 -41.732 -13.180  1.00  0.00    -0.201 F 
ENDROOT
BRANCH   5   8
HETATM    8  N3  UNL     1     -14.416 -42.131 -10.553  1.00  0.00    -0.324 N 
HETATM    9  C13 UNL     1     -15.598 -42.548  -9.950  1.00  0.00     0.226 C 
HETATM   10  O5  UNL     1     -16.632 -41.848  -9.890  1.00  0.00    -0.273 OA
ATOM     11  H3  UNL     1     -13.650 -42.804 -10.529  1.00  0.00     0.169 HD
BRANCH   9  12
HETATM   12  C14 UNL     1     -15.737 -43.888  -9.311  1.00  0.00     0.078 C 
HETATM   13  C15 UNL     1     -15.177 -44.890 -10.304  1.00  0.00     0.014 C 
HETATM   14  C16 UNL     1     -15.450 -46.314  -9.876  1.00  0.00     0.006 C 
HETATM   15  C17 UNL     1     -15.774 -46.335  -8.418  1.00  0.00    -0.007 C 
HETATM   16  C22 UNL     1     -14.797 -45.454  -7.687  1.00  0.00     0.006 C 
HETATM   17  C23 UNL     1     -14.945 -44.007  -8.040  1.00  0.00     0.014 C 
BRANCH  15  18
HETATM   18  C18 UNL     1     -15.781 -47.714  -7.827  1.00  0.00    -0.048 C 
HETATM   19  C19 UNL     1     -14.785 -48.639  -8.433  1.00  0.00     0.015 C 
HETATM   20  C20 UNL     1     -17.169 -48.303  -8.059  1.00  0.00     0.015 C 
HETATM   21  C21 UNL     1     -15.544 -47.605  -6.345  1.00  0.00     0.015 C 
ENDBRANCH  15  18
ENDBRANCH   9  12
ENDBRANCH   5   8
BRANCH   1  22
HETATM   22  O1  UNL     1     -14.636 -39.486 -14.553  1.00  0.00    -0.347 OA
BRANCH  22  23
HETATM   23  C2  UNL     1     -13.880 -39.982 -15.607  1.00  0.00     0.171 C 
HETATM   24  C1  UNL     1     -12.481 -40.374 -15.425  1.00  0.00     0.034 C 
ENDBRANCH  22  23
ENDBRANCH   1  22
BRANCH   2  25
HETATM   25  S1  UNL     1     -13.358 -36.918 -13.361  1.00  0.00     0.267 S 
HETATM   26  O2  UNL     1     -14.452 -36.697 -14.395  1.00  0.00    -0.200 OA
HETATM   27  O3  UNL     1     -12.081 -36.990 -14.231  1.00  0.00    -0.200 OA
BRANCH  25  28
HETATM   28  N1  UNL     1     -13.274 -35.580 -12.364  1.00  0.00    -0.258 N 
ATOM     29  H1  UNL     1     -13.927 -34.813 -12.518  1.00  0.00     0.181 HD
BRANCH  28  30
HETATM   30  C5  UNL     1     -12.414 -35.480 -11.408  1.00  0.00     0.187 A 
HETATM   31  O4  UNL     1     -11.150 -35.828 -11.378  1.00  0.00    -0.218 OA
HETATM   32  N2  UNL     1     -10.618 -35.563 -10.224  1.00  0.00    -0.263 N 
HETATM   33  C6  UNL     1     -11.530 -35.006  -9.399  1.00  0.00     0.039 A 
ATOM     34  H2  UNL     1      -9.647 -35.750  -9.975  1.00  0.00     0.194 HD
HETATM   35  C7  UNL     1     -11.367 -34.546  -7.995  1.00  0.00     0.071 C 
HETATM   36  C8  UNL     1     -12.693 -34.953 -10.168  1.00  0.00     0.016 A 
HETATM   37  C9  UNL     1     -14.011 -34.425  -9.744  1.00  0.00     0.055 C 
ENDBRANCH  28  30
ENDBRANCH  25  28
ENDBRANCH   2  25
TORSDOF 8
ENDMDL
MODEL 3
REMARK VINA RESULT: -8.457868303      1.438      2.573
REMARK  8 active torsions:
REMARK  status: ('A' for Active; 'I' for Inactive)
REMARK    1  A    between atoms: C2_2  and  O1_3 
REMARK    2  A    between atoms: O1_3  and  C3_4 
REMARK    3  A    between atoms: C4_5  and  S1_6 
REMARK    4  A    between atoms: S1_6  and  N1_9 
REMARK    5  A    between atoms: N1_9  and  C5_11 
REMARK    6  A    between atoms: C12_21  and  N3_22 
REMARK       I    between atoms: N3_22  and  C13_24 
REMARK    7  A    between atoms: C13_24  and  C14_26 
REMARK    8  A    between atoms: C17_29  and  C18_30 
ROOT
HETATM    1  C3  UNL     1     -14.454 -38.895 -12.867  1.00  0.00     0.133 A 
HETATM    2  C4  UNL     1     -13.584 -38.030 -12.281  1.00  0.00     0.116 A 
HETATM    3  C10 UNL     1     -12.967 -38.501 -11.105  1.00  0.00     0.030 A 
HETATM    4  C11 UNL     1     -13.236 -39.746 -10.593  1.00  0.00     0.034 A 
HETATM    5  C12 UNL     1     -14.113 -40.629 -11.169  1.00  0.00     0.076 A 
HETATM    6  C24 UNL     1     -14.724 -40.162 -12.336  1.00  0.00     0.177 A 
HETATM    7  F1  UNL     1     -15.608 -40.953 -12.982  1.00  0.00    -0.201 F 
ENDROOT
BRANCH   5   8
HETATM    8  N3  UNL     1     -14.429 -41.909 -10.689  1.00  0.00    -0.324 N 
HETATM    9  C13 UNL     1     -15.608 -42.365 -10.109  1.00  0.00     0.226 C 
HETATM   10  O5  UNL     1     -16.614 -41.645  -9.924  1.00  0.00    -0.273 OA
ATOM     11  H3  UNL     1     -13.688 -42.604 -10.778  1.00  0.00     0.169 HD
BRANCH   9  12
HETATM   12  C14 UNL     1     -15.778 -43.772  -9.648  1.00  0.00     0.078 C 
HETATM   13  C15 UNL     1     -15.146 -44.646 -10.715  1.00  0.00     0.014 C 
HETATM   14  C16 UNL     1     -15.435 -46.111 -10.483  1.00  0.00     0.006 C 
HETATM   15  C17 UNL     1     -15.855 -46.309  -9.062  1.00  0.00    -0.007 C 
HETATM   16  C22 UNL     1     -14.935 -45.524  -8.167  1.00  0.00     0.006 C 
HETATM   17  C23 UNL     1     -15.070 -44.044  -8.351  1.00  0.00     0.014 C 
BRANCH  15  18
HETATM   18  C18 UNL     1     -15.890 -47.750  -8.645  1.00  0.00    -0.048 C 
HETATM   19  C19 UNL     1     -14.617 -48.483  -8.887  1.00  0.00     0.015 C 
HETATM   20  C20 UNL     1     -16.986 -48.434  -9.455  1.00  0.00     0.015 C 
HETATM   21  C21 UNL     1     -16.252 -47.821  -7.186  1.00  0.00     0.015 C 
ENDBRANCH  15  18
ENDBRANCH   9  12
ENDBRANCH   5   8
BRANCH   1  22
HETATM   22  O1  UNL     1     -15.111 -38.546 -14.047  1.00  0.00    -0.347 OA
BRANCH  22  23
HETATM   23  C2  UNL     1     -16.484 -38.357 -14.140  1.00  0.00     0.171 C 
HETATM   24  C1  UNL     1     -17.240 -37.716 -13.063  1.00  0.00     0.034 C 
ENDBRANCH  22  23
ENDBRANCH   1  22
BRANCH   2  25
HETATM   25  S1  UNL     1     -13.269 -36.391 -12.781  1.00  0.00     0.267 S 
HETATM   26  O2  UNL     1     -14.211 -36.065 -13.930  1.00  0.00    -0.200 OA
HETATM   27  O3  UNL     1     -11.880 -36.348 -13.461  1.00  0.00    -0.200 OA
BRANCH  25  28
HETATM   28  N1  UNL     1     -13.363 -35.174 -11.640  1.00  0.00    -0.258 N 
ATOM     29  H1  UNL     1     -14.101 -34.476 -11.728  1.00  0.00     0.181 HD
BRANCH  28  30
HETATM   30  C5  UNL     1     -12.540 -35.084 -10.651  1.00  0.00     0.187 A 
HETATM   31  O4  UNL     1     -11.283 -35.451 -10.572  1.00  0.00    -0.218 OA
HETATM   32  N2  UNL     1     -10.793 -35.191  -9.398  1.00  0.00    -0.263 N 
HETATM   33  C6  UNL     1     -11.727 -34.620  -8.610  1.00  0.00     0.039 A 
ATOM     34  H2  UNL     1      -9.834 -35.391  -9.111  1.00  0.00     0.194 HD
HETATM   35  C7  UNL     1     -11.612 -34.160  -7.201  1.00  0.00     0.071 C 
HETATM   36  C8  UNL     1     -12.859 -34.551  -9.423  1.00  0.00     0.016 A 
HETATM   37  C9  UNL     1     -14.185 -34.004  -9.052  1.00  0.00     0.055 C 
ENDBRANCH  28  30
ENDBRANCH  25  28
ENDBRANCH   2  25
TORSDOF 8
ENDMDL
MODEL 4
REMARK VINA RESULT: -8.430373862      1.727      2.713
REMARK  8 active torsions:
REMARK  status: ('A' for Active; 'I' for Inactive)
REMARK    1  A    between atoms: C2_2  and  O1_3 
REMARK    2  A    between atoms: O1_3  and  C3_4 
REMARK    3  A    between atoms: C4_5  and  S1_6 
REMARK    4  A    between atoms: S1_6  and  N1_9 
REMARK    5  A    between atoms: N1_9  and  C5_11 
REMARK    6  A    between atoms: C12_21  and  N3_22 
REMARK       I    between atoms: N3_22  and  C13_24 
REMARK    7  A    between atoms: C13_24  and  C14_26 
REMARK    8  A    between atoms: C17_29  and  C18_30 
ROOT
HETATM    1  C3  UNL     1     -15.889 -39.181 -12.572  1.00  0.00     0.133 A 
HETATM    2  C4  UNL     1     -14.708 -38.508 -12.603  1.00  0.00     0.116 A 
HETATM    3  C10 UNL     1     -13.672 -39.071 -11.832  1.00  0.00     0.030 A 
HETATM    4  C11 UNL     1     -13.855 -40.218 -11.100  1.00  0.00     0.034 A 
HETATM    5  C12 UNL     1     -15.039 -40.908 -11.054  1.00  0.00     0.076 A 
HETATM    6  C24 UNL     1     -16.066 -40.349 -11.821  1.00  0.00     0.177 A 
HETATM    7  F1  UNL     1     -17.276 -40.949 -11.843  1.00  0.00    -0.201 F 
ENDROOT
BRANCH   5   8
HETATM    8  N3  UNL     1     -15.283 -42.081 -10.323  1.00  0.00    -0.324 N 
HETATM    9  C13 UNL     1     -15.326 -43.399 -10.765  1.00  0.00     0.226 C 
HETATM   10  O5  UNL     1     -15.141 -43.739 -11.954  1.00  0.00    -0.273 OA
ATOM     11  H3  UNL     1     -15.453 -41.947  -9.326  1.00  0.00     0.169 HD
BRANCH   9  12
HETATM   12  C14 UNL     1     -15.603 -44.539  -9.845  1.00  0.00     0.078 C 
HETATM   13  C15 UNL     1     -14.845 -45.728 -10.405  1.00  0.00     0.014 C 
HETATM   14  C16 UNL     1     -15.207 -47.010  -9.691  1.00  0.00     0.006 C 
HETATM   15  C17 UNL     1     -15.838 -46.678  -8.378  1.00  0.00    -0.007 C 
HETATM   16  C22 UNL     1     -15.039 -45.591  -7.713  1.00  0.00     0.006 C 
HETATM   17  C23 UNL     1     -15.104 -44.290  -8.450  1.00  0.00     0.014 C 
BRANCH  15  18
HETATM   18  C18 UNL     1     -15.976 -47.861  -7.466  1.00  0.00    -0.048 C 
HETATM   19  C19 UNL     1     -17.377 -48.332  -7.289  1.00  0.00     0.015 C 
HETATM   20  C20 UNL     1     -15.444 -47.448  -6.098  1.00  0.00     0.015 C 
HETATM   21  C21 UNL     1     -15.123 -48.982  -7.998  1.00  0.00     0.015 C 
ENDBRANCH  15  18
ENDBRANCH   9  12
ENDBRANCH   5   8
BRANCH   1  22
HETATM   22  O1  UNL     1     -16.981 -38.728 -13.311  1.00  0.00    -0.347 OA
BRANCH  22  23
HETATM   23  C2  UNL     1     -17.279 -39.164 -14.595  1.00  0.00     0.171 C 
HETATM   24  C1  UNL     1     -17.631 -38.221 -15.659  1.00  0.00     0.034 C 
ENDBRANCH  22  23
ENDBRANCH   1  22
BRANCH   2  25
HETATM   25  S1  UNL     1     -14.413 -36.985 -13.397  1.00  0.00     0.267 S 
HETATM   26  O2  UNL     1     -15.689 -36.161 -13.315  1.00  0.00    -0.200 OA
HETATM   27  O3  UNL     1     -14.278 -37.246 -14.916  1.00  0.00    -0.200 OA
BRANCH  25  28
HETATM   28  N1  UNL     1     -13.129 -36.049 -12.880  1.00  0.00    -0.258 N 
ATOM     29  H1  UNL     1     -12.353 -35.884 -13.521  1.00  0.00     0.181 HD
BRANCH  28  30
HETATM   30  C5  UNL     1     -13.081 -35.527 -11.702  1.00  0.00     0.187 A 
HETATM   31  O4  UNL     1     -13.994 -34.850 -11.047  1.00  0.00    -0.218 OA
HETATM   32  N2  UNL     1     -13.561 -34.491  -9.877  1.00  0.00    -0.263 N 
HETATM   33  C6  UNL     1     -12.298 -34.926  -9.685  1.00  0.00     0.039 A 
ATOM     34  H2  UNL     1     -14.101 -33.956  -9.196  1.00  0.00     0.194 HD
HETATM   35  C7  UNL     1     -11.414 -34.748  -8.503  1.00  0.00     0.071 C 
HETATM   36  C8  UNL     1     -11.988 -35.597 -10.868  1.00  0.00     0.016 A 
HETATM   37  C9  UNL     1     -10.711 -36.274 -11.194  1.00  0.00     0.055 C 
ENDBRANCH  28  30
ENDBRANCH  25  28
ENDBRANCH   2  25
TORSDOF 8
ENDMDL
MODEL 5
REMARK VINA RESULT: -8.400231973      2.430      3.625
REMARK  8 active torsions:
REMARK  status: ('A' for Active; 'I' for Inactive)
REMARK    1  A    between atoms: C2_2  and  O1_3 
REMARK    2  A    between atoms: O1_3  and  C3_4 
REMARK    3  A    between atoms: C4_5  and  S1_6 
REMARK    4  A    between atoms: S1_6  and  N1_9 
REMARK    5  A    between atoms: N1_9  and  C5_11 
REMARK    6  A    between atoms: C12_21  and  N3_22 
REMARK       I    between atoms: N3_22  and  C13_24 
REMARK    7  A    between atoms: C13_24  and  C14_26 
REMARK    8  A    between atoms: C17_29  and  C18_30 
ROOT
HETATM    1  C3  UNL     1     -14.604 -38.939 -12.894  1.00  0.00     0.133 A 
HETATM    2  C4  UNL     1     -13.738 -38.032 -12.369  1.00  0.00     0.116 A 
HETATM    3  C10 UNL     1     -13.081 -38.436 -11.191  1.00  0.00     0.030 A 
HETATM    4  C11 UNL     1     -13.309 -39.663 -10.618  1.00  0.00     0.034 A 
HETATM    5  C12 UNL     1     -14.181 -40.589 -11.131  1.00  0.00     0.076 A 
HETATM    6  C24 UNL     1     -14.831 -40.187 -12.301  1.00  0.00     0.177 A 
HETATM    7  F1  UNL     1     -15.714 -41.024 -12.888  1.00  0.00    -0.201 F 
ENDROOT
BRANCH   5   8
HETATM    8  N3  UNL     1     -14.455 -41.854 -10.588  1.00  0.00    -0.324 N 
HETATM    9  C13 UNL     1     -15.629 -42.327 -10.013  1.00  0.00     0.226 C 
HETATM   10  O5  UNL     1     -16.669 -41.642  -9.893  1.00  0.00    -0.273 OA
ATOM     11  H3  UNL     1     -13.683 -42.520 -10.620  1.00  0.00     0.169 HD
BRANCH   9  12
HETATM   12  C14 UNL     1     -15.753 -43.713  -9.478  1.00  0.00     0.078 C 
HETATM   13  C15 UNL     1     -15.146 -44.626 -10.526  1.00  0.00     0.014 C 
HETATM   14  C16 UNL     1     -15.396 -46.084 -10.211  1.00  0.00     0.006 C 
HETATM   15  C17 UNL     1     -15.755 -46.219  -8.767  1.00  0.00    -0.007 C 
HETATM   16  C22 UNL     1     -14.817 -45.374  -7.949  1.00  0.00     0.006 C 
HETATM   17  C23 UNL     1     -14.990 -43.908  -8.198  1.00  0.00     0.014 C 
BRANCH  15  18
HETATM   18  C18 UNL     1     -15.745 -47.638  -8.280  1.00  0.00    -0.048 C 
HETATM   19  C19 UNL     1     -16.990 -48.394  -8.584  1.00  0.00     0.015 C 
HETATM   20  C20 UNL     1     -15.579 -47.599  -6.764  1.00  0.00     0.015 C 
HETATM   21  C21 UNL     1     -14.557 -48.345  -8.877  1.00  0.00     0.015 C 
ENDBRANCH  15  18
ENDBRANCH   9  12
ENDBRANCH   5   8
BRANCH   1  22
HETATM   22  O1  UNL     1     -15.298 -38.657 -14.070  1.00  0.00    -0.347 OA
BRANCH  22  23
HETATM   23  C2  UNL     1     -16.668 -38.437 -14.125  1.00  0.00     0.171 C 
HETATM   24  C1  UNL     1     -17.378 -37.773 -13.031  1.00  0.00     0.034 C 
ENDBRANCH  22  23
ENDBRANCH   1  22
BRANCH   2  25
HETATM   25  S1  UNL     1     -13.472 -36.409 -12.948  1.00  0.00     0.267 S 
HETATM   26  O2  UNL     1     -12.641 -36.499 -14.219  1.00  0.00    -0.200 OA
HETATM   27  O3  UNL     1     -12.514 -35.693 -11.968  1.00  0.00    -0.200 OA
BRANCH  25  28
HETATM   28  N1  UNL     1     -14.799 -35.435 -13.235  1.00  0.00    -0.258 N 
ATOM     29  H1  UNL     1     -15.698 -35.700 -12.833  1.00  0.00     0.181 HD
BRANCH  28  30
HETATM   30  C5  UNL     1     -14.731 -34.361 -13.946  1.00  0.00     0.187 A 
HETATM   31  O4  UNL     1     -14.390 -33.144 -13.595  1.00  0.00    -0.218 OA
HETATM   32  N2  UNL     1     -14.446 -32.332 -14.606  1.00  0.00    -0.263 N 
HETATM   33  C6  UNL     1     -14.839 -32.987 -15.719  1.00  0.00     0.039 A 
ATOM     34  H2  UNL     1     -14.224 -31.337 -14.566  1.00  0.00     0.194 HD
HETATM   35  C7  UNL     1     -15.039 -32.462 -17.095  1.00  0.00     0.071 C 
HETATM   36  C8  UNL     1     -15.023 -34.302 -15.290  1.00  0.00     0.016 A 
HETATM   37  C9  UNL     1     -15.457 -35.452 -16.118  1.00  0.00     0.055 C 
ENDBRANCH  28  30
ENDBRANCH  25  28
ENDBRANCH   2  25
TORSDOF 8
ENDMDL
