MODEL 1
REMARK VINA RESULT: -8.732601291      0.000      0.000
REMARK  8 active torsions:
REMARK  status: ('A' for Active; 'I' for Inactive)
REMARK    1  A    between atoms: C6_7  and  C7_8 
REMARK    2  A    between atoms: N1_15  and  C13_16 
REMARK    3  A    between atoms: C13_16  and  C14_17 
REMARK    4  A    between atoms: C14_17  and  O1_18 
REMARK    5  A    between atoms: C14_17  and  C15_20 
REMARK    6  A    between atoms: C15_20  and  N2_21 
REMARK    7  A    between atoms: C18_24  and  N3_25 
REMARK    8  A    between atoms: N3_25  and  C19_27 
ROOT
HETATM    1  C13 UNL     1     -12.322 -39.137 -14.914  1.00  0.00     0.091 C 
ENDROOT
BRANCH   1   2
HETATM    2  N1  UNL     1     -13.559 -39.400 -14.314  1.00  0.00    -0.390 N 
HETATM    3  C12 UNL     1     -14.689 -39.591 -15.158  1.00  0.00     0.123 C 
HETATM    4  C11 UNL     1     -15.416 -40.866 -14.832  1.00  0.00     0.042 C 
HETATM    5  C6  UNL     1     -15.928 -40.784 -13.380  1.00  0.00     0.053 C 
HETATM    6  C5  UNL     1     -16.424 -42.144 -13.079  1.00  0.00     0.105 C 
HETATM    7  C28 UNL     1     -14.890 -40.246 -12.484  1.00  0.00     0.025 C 
HETATM    8  C4  UNL     1     -16.364 -42.619 -11.859  1.00  0.00     0.021 C 
HETATM    9  F1  UNL     1     -16.960 -42.911 -14.094  1.00  0.00    -0.210 F 
HETATM   10  C2  UNL     1     -15.802 -41.834 -10.762  1.00  0.00    -0.027 C 
HETATM   11  C1  UNL     1     -15.208 -42.830  -9.753  1.00  0.00     0.019 C 
HETATM   12  C3  UNL     1     -16.870 -41.089  -9.995  1.00  0.00     0.019 C 
HETATM   13  C29 UNL     1     -14.671 -40.940 -11.188  1.00  0.00     0.020 C 
HETATM   14  C27 UNL     1     -13.538 -40.348 -13.230  1.00  0.00     0.128 C 
BRANCH   5  15
HETATM   15  C7  UNL     1     -17.155 -39.908 -13.492  1.00  0.00    -0.002 A 
HETATM   16  C8  UNL     1     -17.585 -38.855 -12.750  1.00  0.00     0.016 A 
HETATM   17  C9  UNL     1     -18.732 -38.259 -13.106  1.00  0.00     0.008 A 
HETATM   18  C10 UNL     1     -19.391 -38.758 -14.196  1.00  0.00     0.050 A 
HETATM   19  S1  UNL     1     -18.395 -40.043 -14.692  1.00  0.00    -0.105 SA
ENDBRANCH   5  15
ENDBRANCH   1   2
BRANCH   1  20
HETATM   20  C14 UNL     1     -11.067 -39.564 -14.252  1.00  0.00     0.184 C 
BRANCH  20  21
HETATM   21  O1  UNL     1     -10.450 -40.639 -14.877  1.00  0.00    -0.389 OA
ATOM     22  H1  UNL     1      -9.517 -40.693 -14.703  1.00  0.00     0.210 HD
ENDBRANCH  20  21
BRANCH  20  23
HETATM   23  C15 UNL     1     -10.093 -38.411 -14.057  1.00  0.00     0.309 C 
BRANCH  23  24
HETATM   24  N2  UNL     1      -9.762 -38.150 -12.710  1.00  0.00     0.091 N 
HETATM   25  C16 UNL     1     -10.658 -38.653 -11.709  1.00  0.00     0.274 C 
HETATM   26  C17 UNL     1     -10.602 -37.755 -10.456  1.00  0.00     0.055 C 
HETATM   27  C18 UNL     1     -11.350 -36.467 -10.720  1.00  0.00     0.085 C 
HETATM   28  C25 UNL     1     -11.057 -36.131 -12.186  1.00  0.00     0.055 C 
HETATM   29  C26 UNL     1      -9.698 -36.717 -12.507  1.00  0.00     0.274 C 
BRANCH  27  30
HETATM   30  N3  UNL     1     -10.800 -35.430  -9.911  1.00  0.00    -0.385 N 
ATOM     31  H3  UNL     1      -9.856 -35.099 -10.112  1.00  0.00     0.160 HD
BRANCH  30  32
HETATM   32  C19 UNL     1     -11.527 -34.830  -8.821  1.00  0.00     0.028 A 
HETATM   33  C20 UNL     1     -10.960 -34.640  -7.581  1.00  0.00     0.032 A 
HETATM   34  C21 UNL     1     -11.642 -34.069  -6.521  1.00  0.00     0.044 A 
HETATM   35  C22 UNL     1     -12.951 -33.668  -6.704  1.00  0.00     0.116 A 
HETATM   36  F2  UNL     1     -13.629 -33.107  -5.678  1.00  0.00    -0.206 F 
HETATM   37  C23 UNL     1     -13.532 -33.854  -7.944  1.00  0.00     0.044 A 
HETATM   38  C24 UNL     1     -12.839 -34.424  -8.989  1.00  0.00     0.032 A 
ENDBRANCH  30  32
ENDBRANCH  27  30
ENDBRANCH  23  24
ENDBRANCH  20  23
ENDBRANCH   1  20
TORSDOF 8
ENDMDL
MODEL 2
REMARK VINA RESULT: -8.655962029      2.623      4.134
REMARK  8 active torsions:
REMARK  status: ('A' for Active; 'I' for Inactive)
REMARK    1  A    between atoms: C6_7  and  C7_8 
REMARK    2  A    between atoms: N1_15  and  C13_16 
REMARK    3  A    between atoms: C13_16  and  C14_17 
REMARK    4  A    between atoms: C14_17  and  O1_18 
REMARK    5  A    between atoms: C14_17  and  C15_20 
REMARK    6  A    between atoms: C15_20  and  N2_21 
REMARK    7  A    between atoms: C18_24  and  N3_25 
REMARK    8  A    between atoms: N3_25  and  C19_27 
ROOT
HETATM    1  C13 UNL     1     -11.841 -39.184 -15.639  1.00  0.00     0.091 C 
ENDROOT
BRANCH   1   2
HETATM    2  N1  UNL     1     -13.039 -38.531 -15.323  1.00  0.00    -0.390 N 
HETATM    3  C12 UNL     1     -13.734 -38.934 -14.148  1.00  0.00     0.123 C 
HETATM    4  C11 UNL     1     -14.056 -37.760 -13.265  1.00  0.00     0.042 C 
HETATM    5  C6  UNL     1     -14.974 -36.795 -14.042  1.00  0.00     0.053 C 
HETATM    6  C5  UNL     1     -15.053 -35.586 -13.195  1.00  0.00     0.105 C 
HETATM    7  C28 UNL     1     -14.492 -36.605 -15.421  1.00  0.00     0.025 C 
HETATM    8  C4  UNL     1     -15.205 -34.403 -13.736  1.00  0.00     0.021 C 
HETATM    9  F1  UNL     1     -14.974 -35.715 -11.822  1.00  0.00    -0.210 F 
HETATM   10  C2  UNL     1     -15.292 -34.233 -15.185  1.00  0.00    -0.027 C 
HETATM   11  C1  UNL     1     -14.729 -32.840 -15.510  1.00  0.00     0.019 C 
HETATM   12  C3  UNL     1     -16.724 -34.199 -15.665  1.00  0.00     0.019 C 
HETATM   13  C29 UNL     1     -14.451 -35.216 -15.951  1.00  0.00     0.020 C 
HETATM   14  C27 UNL     1     -13.027 -37.099 -15.471  1.00  0.00     0.128 C 
BRANCH   5  15
HETATM   15  C7  UNL     1     -16.330 -37.457 -13.953  1.00  0.00    -0.002 A 
HETATM   16  C8  UNL     1     -17.097 -37.808 -12.888  1.00  0.00     0.016 A 
HETATM   17  C9  UNL     1     -18.286 -38.382 -13.129  1.00  0.00     0.008 A 
HETATM   18  C10 UNL     1     -18.641 -38.574 -14.437  1.00  0.00     0.050 A 
HETATM   19  S1  UNL     1     -17.310 -37.952 -15.292  1.00  0.00    -0.105 SA
ENDBRANCH   5  15
ENDBRANCH   1   2
BRANCH   1  20
HETATM   20  C14 UNL     1     -10.895 -39.565 -14.564  1.00  0.00     0.184 C 
BRANCH  20  21
HETATM   21  O1  UNL     1     -10.256 -40.776 -14.793  1.00  0.00    -0.389 OA
ATOM     22  H1  UNL     1     -10.224 -41.019 -15.710  1.00  0.00     0.210 HD
ENDBRANCH  20  21
BRANCH  20  23
HETATM   23  C15 UNL     1      -9.889 -38.464 -14.260  1.00  0.00     0.309 C 
BRANCH  23  24
HETATM   24  N2  UNL     1      -9.657 -38.252 -12.884  1.00  0.00     0.091 N 
HETATM   25  C16 UNL     1     -10.655 -38.733 -11.972  1.00  0.00     0.274 C 
HETATM   26  C17 UNL     1     -10.658 -37.868 -10.695  1.00  0.00     0.055 C 
HETATM   27  C18 UNL     1     -11.319 -36.538 -10.983  1.00  0.00     0.085 C 
HETATM   28  C25 UNL     1     -10.891 -36.183 -12.411  1.00  0.00     0.055 C 
HETATM   29  C26 UNL     1      -9.541 -36.829 -12.638  1.00  0.00     0.274 C 
BRANCH  27  30
HETATM   30  N3  UNL     1     -10.787 -35.548 -10.104  1.00  0.00    -0.385 N 
ATOM     31  H3  UNL     1      -9.807 -35.280 -10.203  1.00  0.00     0.160 HD
BRANCH  30  32
HETATM   32  C19 UNL     1     -11.580 -34.914  -9.082  1.00  0.00     0.028 A 
HETATM   33  C20 UNL     1     -11.065 -34.603  -7.844  1.00  0.00     0.032 A 
HETATM   34  C21 UNL     1     -11.810 -33.997  -6.849  1.00  0.00     0.044 A 
HETATM   35  C22 UNL     1     -13.132 -33.684  -7.098  1.00  0.00     0.116 A 
HETATM   36  F2  UNL     1     -13.873 -33.090  -6.136  1.00  0.00    -0.206 F 
HETATM   37  C23 UNL     1     -13.662 -33.991  -8.337  1.00  0.00     0.044 A 
HETATM   38  C24 UNL     1     -12.906 -34.595  -9.316  1.00  0.00     0.032 A 
ENDBRANCH  30  32
ENDBRANCH  27  30
ENDBRANCH  23  24
ENDBRANCH  20  23
ENDBRANCH   1  20
TORSDOF 8
ENDMDL
MODEL 3
REMARK VINA RESULT: -8.599090226      1.640      3.123
REMARK  8 active torsions:
REMARK  status: ('A' for Active; 'I' for Inactive)
REMARK    1  A    between atoms: C6_7  and  C7_8 
REMARK    2  A    between atoms: N1_15  and  C13_16 
REMARK    3  A    between atoms: C13_16  and  C14_17 
REMARK    4  A    between atoms: C14_17  and  O1_18 
REMARK    5  A    between atoms: C14_17  and  C15_20 
REMARK    6  A    between atoms: C15_20  and  N2_21 
REMARK    7  A    between atoms: C18_24  and  N3_25 
REMARK    8  A    between atoms: N3_25  and  C19_27 
ROOT
HETATM    1  C13 UNL     1     -12.848 -39.611 -14.508  1.00  0.00     0.091 C 
ENDROOT
BRANCH   1   2
HETATM    2  N1  UNL     1     -13.782 -40.465 -13.910  1.00  0.00    -0.390 N 
HETATM    3  C12 UNL     1     -14.089 -40.267 -12.534  1.00  0.00     0.123 C 
HETATM    4  C11 UNL     1     -15.571 -40.161 -12.306  1.00  0.00     0.042 C 
HETATM    5  C6  UNL     1     -16.234 -41.482 -12.746  1.00  0.00     0.053 C 
HETATM    6  C5  UNL     1     -17.686 -41.209 -12.699  1.00  0.00     0.105 C 
HETATM    7  C28 UNL     1     -15.690 -41.941 -14.036  1.00  0.00     0.025 C 
HETATM    8  C4  UNL     1     -18.504 -41.811 -13.526  1.00  0.00     0.021 C 
HETATM    9  F1  UNL     1     -18.178 -40.316 -11.766  1.00  0.00    -0.210 F 
HETATM   10  C2  UNL     1     -18.016 -42.760 -14.525  1.00  0.00    -0.027 C 
HETATM   11  C1  UNL     1     -18.982 -42.694 -15.719  1.00  0.00     0.019 C 
HETATM   12  C3  UNL     1     -18.094 -44.187 -14.035  1.00  0.00     0.019 C 
HETATM   13  C29 UNL     1     -16.657 -42.411 -15.063  1.00  0.00     0.020 C 
HETATM   14  C27 UNL     1     -14.964 -40.738 -14.686  1.00  0.00     0.128 C 
BRANCH   5  15
HETATM   15  C7  UNL     1     -15.947 -42.417 -11.594  1.00  0.00    -0.002 A 
HETATM   16  C8  UNL     1     -16.075 -42.263 -10.250  1.00  0.00     0.016 A 
HETATM   17  C9  UNL     1     -15.745 -43.297  -9.462  1.00  0.00     0.008 A 
HETATM   18  C10 UNL     1     -15.300 -44.439 -10.072  1.00  0.00     0.050 A 
HETATM   19  S1  UNL     1     -15.353 -44.039 -11.723  1.00  0.00    -0.105 SA
ENDBRANCH   5  15
ENDBRANCH   1   2
BRANCH   1  20
HETATM   20  C14 UNL     1     -11.407 -39.743 -14.190  1.00  0.00     0.184 C 
BRANCH  20  21
HETATM   21  O1  UNL     1     -10.740 -40.645 -15.008  1.00  0.00    -0.389 OA
ATOM     22  H1  UNL     1      -9.916 -40.947 -14.645  1.00  0.00     0.210 HD
ENDBRANCH  20  21
BRANCH  20  23
HETATM   23  C15 UNL     1     -10.693 -38.399 -14.161  1.00  0.00     0.309 C 
BRANCH  23  24
HETATM   24  N2  UNL     1     -10.147 -38.058 -12.905  1.00  0.00     0.091 N 
HETATM   25  C16 UNL     1     -10.759 -38.640 -11.746  1.00  0.00     0.274 C 
HETATM   26  C17 UNL     1     -10.582 -37.705 -10.533  1.00  0.00     0.055 C 
HETATM   27  C18 UNL     1     -11.530 -36.532 -10.653  1.00  0.00     0.085 C 
HETATM   28  C25 UNL     1     -11.570 -36.206 -12.150  1.00  0.00     0.055 C 
HETATM   29  C26 UNL     1     -10.234 -36.622 -12.726  1.00  0.00     0.274 C 
BRANCH  27  30
HETATM   30  N3  UNL     1     -10.975 -35.408  -9.972  1.00  0.00    -0.385 N 
ATOM     31  H3  UNL     1     -10.094 -35.017 -10.306  1.00  0.00     0.160 HD
BRANCH  30  32
HETATM   32  C19 UNL     1     -11.613 -34.804  -8.829  1.00  0.00     0.028 A 
HETATM   33  C20 UNL     1     -10.960 -34.642  -7.628  1.00  0.00     0.032 A 
HETATM   34  C21 UNL     1     -11.555 -34.067  -6.519  1.00  0.00     0.044 A 
HETATM   35  C22 UNL     1     -12.863 -33.632  -6.610  1.00  0.00     0.116 A 
HETATM   36  F2  UNL     1     -13.457 -33.067  -5.536  1.00  0.00    -0.206 F 
HETATM   37  C23 UNL     1     -13.530 -33.789  -7.810  1.00  0.00     0.044 A 
HETATM   38  C24 UNL     1     -12.923 -34.364  -8.905  1.00  0.00     0.032 A 
ENDBRANCH  30  32
ENDBRANCH  27  30
ENDBRANCH  23  24
ENDBRANCH  20  23
ENDBRANCH   1  20
TORSDOF 8
ENDMDL
MODEL 4
REMARK VINA RESULT: -8.137170368      3.282      7.943
REMARK  8 active torsions:
REMARK  status: ('A' for Active; 'I' for Inactive)
REMARK    1  A    between atoms: C6_7  and  C7_8 
REMARK    2  A    between atoms: N1_15  and  C13_16 
REMARK    3  A    between atoms: C13_16  and  C14_17 
REMARK    4  A    between atoms: C14_17  and  O1_18 
REMARK    5  A    between atoms: C14_17  and  C15_20 
REMARK    6  A    between atoms: C15_20  and  N2_21 
REMARK    7  A    between atoms: C18_24  and  N3_25 
REMARK    8  A    between atoms: N3_25  and  C19_27 
ROOT
HETATM    1  C13 UNL     1     -15.413 -37.137 -15.188  1.00  0.00     0.091 C 
ENDROOT
BRANCH   1   2
HETATM    2  N1  UNL     1     -14.431 -36.944 -14.210  1.00  0.00    -0.390 N 
HETATM    3  C12 UNL     1     -14.806 -37.084 -12.844  1.00  0.00     0.123 C 
HETATM    4  C11 UNL     1     -13.894 -38.029 -12.112  1.00  0.00     0.042 C 
HETATM    5  C6  UNL     1     -12.463 -37.457 -12.145  1.00  0.00     0.053 C 
HETATM    6  C5  UNL     1     -11.612 -38.541 -11.609  1.00  0.00     0.105 C 
HETATM    7  C28 UNL     1     -12.125 -36.957 -13.489  1.00  0.00     0.025 C 
HETATM    8  C4  UNL     1     -10.376 -38.683 -12.021  1.00  0.00     0.021 C 
HETATM    9  F1  UNL     1     -12.128 -39.402 -10.660  1.00  0.00    -0.210 F 
HETATM   10  C2  UNL     1      -9.800 -37.789 -13.023  1.00  0.00    -0.027 C 
HETATM   11  C1  UNL     1      -8.741 -38.597 -13.791  1.00  0.00     0.019 C 
HETATM   12  C3  UNL     1      -9.039 -36.647 -12.392  1.00  0.00     0.019 C 
HETATM   13  C29 UNL     1     -10.796 -37.321 -14.047  1.00  0.00     0.020 C 
HETATM   14  C27 UNL     1     -13.155 -37.556 -14.477  1.00  0.00     0.128 C 
BRANCH   5  15
HETATM   15  C7  UNL     1     -12.491 -36.384 -11.081  1.00  0.00    -0.002 A 
HETATM   16  C8  UNL     1     -11.677 -36.139 -10.021  1.00  0.00     0.016 A 
HETATM   17  C9  UNL     1     -11.955 -35.082  -9.244  1.00  0.00     0.008 A 
HETATM   18  C10 UNL     1     -13.045 -34.324  -9.575  1.00  0.00     0.050 A 
HETATM   19  S1  UNL     1     -13.650 -35.104 -10.958  1.00  0.00    -0.105 SA
ENDBRANCH   5  15
ENDBRANCH   1   2
BRANCH   1  20
HETATM   20  C14 UNL     1     -16.599 -37.975 -14.897  1.00  0.00     0.184 C 
BRANCH  20  21
HETATM   21  O1  UNL     1     -17.736 -37.587 -15.594  1.00  0.00    -0.389 OA
ATOM     22  H1  UNL     1     -18.546 -37.847 -15.171  1.00  0.00     0.210 HD
ENDBRANCH  20  21
BRANCH  20  23
HETATM   23  C15 UNL     1     -16.322 -39.460 -15.088  1.00  0.00     0.309 C 
BRANCH  23  24
HETATM   24  N2  UNL     1     -17.047 -40.303 -14.218  1.00  0.00     0.091 N 
HETATM   25  C16 UNL     1     -17.108 -39.919 -12.837  1.00  0.00     0.274 C 
HETATM   26  C17 UNL     1     -17.264 -41.171 -11.951  1.00  0.00     0.055 C 
HETATM   27  C18 UNL     1     -15.941 -41.900 -11.864  1.00  0.00     0.085 C 
HETATM   28  C25 UNL     1     -15.314 -41.750 -13.254  1.00  0.00     0.055 C 
HETATM   29  C26 UNL     1     -16.455 -41.626 -14.240  1.00  0.00     0.274 C 
BRANCH  27  30
HETATM   30  N3  UNL     1     -16.183 -43.287 -11.637  1.00  0.00    -0.385 N 
ATOM     31  H3  UNL     1     -16.698 -43.817 -12.341  1.00  0.00     0.160 HD
BRANCH  30  32
HETATM   32  C19 UNL     1     -15.728 -43.968 -10.451  1.00  0.00     0.028 A 
HETATM   33  C20 UNL     1     -15.569 -43.316  -9.250  1.00  0.00     0.032 A 
HETATM   34  C21 UNL     1     -15.131 -43.951  -8.101  1.00  0.00     0.044 A 
HETATM   35  C22 UNL     1     -14.837 -45.300  -8.151  1.00  0.00     0.116 A 
HETATM   36  F2  UNL     1     -14.409 -45.934  -7.037  1.00  0.00    -0.206 F 
HETATM   37  C23 UNL     1     -14.991 -45.966  -9.352  1.00  0.00     0.044 A 
HETATM   38  C24 UNL     1     -15.428 -45.319 -10.486  1.00  0.00     0.032 A 
ENDBRANCH  30  32
ENDBRANCH  27  30
ENDBRANCH  23  24
ENDBRANCH  20  23
ENDBRANCH   1  20
TORSDOF 8
ENDMDL
MODEL 5
REMARK VINA RESULT: -8.068922920      2.814      4.180
REMARK  8 active torsions:
REMARK  status: ('A' for Active; 'I' for Inactive)
REMARK    1  A    between atoms: C6_7  and  C7_8 
REMARK    2  A    between atoms: N1_15  and  C13_16 
REMARK    3  A    between atoms: C13_16  and  C14_17 
REMARK    4  A    between atoms: C14_17  and  O1_18 
REMARK    5  A    between atoms: C14_17  and  C15_20 
REMARK    6  A    between atoms: C15_20  and  N2_21 
REMARK    7  A    between atoms: C18_24  and  N3_25 
REMARK    8  A    between atoms: N3_25  and  C19_27 
ROOT
HETATM    1  C13 UNL     1     -15.358 -40.054 -13.752  1.00  0.00     0.091 C 
ENDROOT
BRANCH   1   2
HETATM    2  N1  UNL     1     -15.209 -41.286 -13.103  1.00  0.00    -0.390 N 
HETATM    3  C12 UNL     1     -16.235 -41.704 -12.210  1.00  0.00     0.123 C 
HETATM    4  C11 UNL     1     -16.718 -43.092 -12.530  1.00  0.00     0.042 C 
HETATM    5  C6  UNL     1     -15.538 -44.072 -12.375  1.00  0.00     0.053 C 
HETATM    6  C5  UNL     1     -16.039 -45.353 -12.918  1.00  0.00     0.105 C 
HETATM    7  C28 UNL     1     -14.315 -43.527 -12.990  1.00  0.00     0.025 C 
HETATM    8  C4  UNL     1     -15.220 -46.195 -13.498  1.00  0.00     0.021 C 
HETATM    9  F1  UNL     1     -17.380 -45.660 -12.801  1.00  0.00    -0.210 F 
HETATM   10  C2  UNL     1     -13.796 -45.900 -13.639  1.00  0.00    -0.027 C 
HETATM   11  C1  UNL     1     -13.311 -46.617 -14.909  1.00  0.00     0.019 C 
HETATM   12  C3  UNL     1     -12.981 -46.497 -12.516  1.00  0.00     0.019 C 
HETATM   13  C29 UNL     1     -13.508 -44.439 -13.844  1.00  0.00     0.020 C 
HETATM   14  C27 UNL     1     -14.744 -42.372 -13.927  1.00  0.00     0.128 C 
BRANCH   5  15
HETATM   15  C7  UNL     1     -15.437 -44.264 -10.879  1.00  0.00    -0.002 A 
HETATM   16  C8  UNL     1     -15.449 -43.377  -9.851  1.00  0.00     0.016 A 
HETATM   17  C9  UNL     1     -15.351 -43.857  -8.602  1.00  0.00     0.008 A 
HETATM   18  C10 UNL     1     -15.245 -45.213  -8.454  1.00  0.00     0.050 A 
HETATM   19  S1  UNL     1     -15.283 -45.779 -10.056  1.00  0.00    -0.105 SA
ENDBRANCH   5  15
ENDBRANCH   1   2
BRANCH   1  20
HETATM   20  C14 UNL     1     -14.647 -38.856 -13.247  1.00  0.00     0.184 C 
BRANCH  20  21
HETATM   21  O1  UNL     1     -15.363 -38.151 -12.290  1.00  0.00    -0.389 OA
ATOM     22  H1  UNL     1     -15.393 -37.215 -12.453  1.00  0.00     0.210 HD
ENDBRANCH  20  21
BRANCH  20  23
HETATM   23  C15 UNL     1     -13.244 -39.179 -12.753  1.00  0.00     0.309 C 
BRANCH  23  24
HETATM   24  N2  UNL     1     -12.352 -38.085 -12.781  1.00  0.00     0.091 N 
HETATM   25  C16 UNL     1     -11.006 -38.329 -12.349  1.00  0.00     0.274 C 
HETATM   26  C17 UNL     1     -10.399 -37.036 -11.769  1.00  0.00     0.055 C 
HETATM   27  C18 UNL     1     -10.974 -36.776 -10.395  1.00  0.00     0.085 C 
HETATM   28  C25 UNL     1     -12.437 -37.221 -10.485  1.00  0.00     0.055 C 
HETATM   29  C26 UNL     1     -12.864 -37.034 -11.925  1.00  0.00     0.274 C 
BRANCH  27  30
HETATM   30  N3  UNL     1     -10.955 -35.373 -10.135  1.00  0.00    -0.385 N 
ATOM     31  H3  UNL     1     -10.487 -34.757 -10.800  1.00  0.00     0.160 HD
BRANCH  30  32
HETATM   32  C19 UNL     1     -11.571 -34.794  -8.968  1.00  0.00     0.028 A 
HETATM   33  C20 UNL     1     -10.897 -34.661  -7.775  1.00  0.00     0.032 A 
HETATM   34  C21 UNL     1     -11.471 -34.111  -6.643  1.00  0.00     0.044 A 
HETATM   35  C22 UNL     1     -12.779 -33.670  -6.702  1.00  0.00     0.116 A 
HETATM   36  F2  UNL     1     -13.353 -33.129  -5.604  1.00  0.00    -0.206 F 
HETATM   37  C23 UNL     1     -13.467 -33.799  -7.893  1.00  0.00     0.044 A 
HETATM   38  C24 UNL     1     -12.880 -34.349  -9.011  1.00  0.00     0.032 A 
ENDBRANCH  30  32
ENDBRANCH  27  30
ENDBRANCH  23  24
ENDBRANCH  20  23
ENDBRANCH   1  20
TORSDOF 8
ENDMDL
