MODEL 1
REMARK VINA RESULT: -8.271294203      0.000      0.000
REMARK  7 active torsions:
REMARK  status: ('A' for Active; 'I' for Inactive)
REMARK    1  A    between atoms: C2_2  and  C3_3 
REMARK    2  A    between atoms: C3_3  and  C4_4 
REMARK    3  A    between atoms: C4_4  and  C5_5 
REMARK    4  A    between atoms: C5_5  and  C6_6 
REMARK    5  A    between atoms: C6_6  and  C7_7 
REMARK    6  A    between atoms: C22_23  and  O2_24 
REMARK    7  A    between atoms: C23_26  and  C24_27 
ROOT
HETATM    1  C7  UNL     1      -6.174 -21.454   3.325  1.00  0.00    -0.014 C 
HETATM    2  C8  UNL     1      -6.461 -22.771   3.919  1.00  0.00     0.005 C 
HETATM    3  C9  UNL     1      -7.036 -22.718   5.347  1.00  0.00     0.011 C 
HETATM    4  C10 UNL     1      -8.302 -21.907   5.199  1.00  0.00    -0.027 C 
HETATM    5  C11 UNL     1      -9.065 -22.577   4.080  1.00  0.00     0.016 C 
HETATM    6  C12 UNL     1      -7.819 -20.520   4.822  1.00  0.00     0.002 C 
HETATM    7  C13 UNL     1      -7.289 -20.437   3.451  1.00  0.00     0.010 C 
HETATM    8  C14 UNL     1      -8.845 -19.555   5.247  1.00  0.00     0.026 C 
HETATM    9  C15 UNL     1      -9.983 -19.285   4.347  1.00  0.00     0.009 C 
HETATM   10  C16 UNL     1     -10.829 -18.214   5.038  1.00  0.00     0.018 C 
HETATM   11  C17 UNL     1     -11.197 -18.528   6.428  1.00  0.00     0.024 C 
HETATM   12  C18 UNL     1     -11.216 -17.264   7.297  1.00  0.00     0.024 C 
HETATM   13  C19 UNL     1     -12.541 -19.163   6.497  1.00  0.00     0.136 C 
HETATM   14  O1  UNL     1     -13.686 -18.815   6.378  1.00  0.00    -0.297 OA
HETATM   15  C20 UNL     1     -11.810 -20.448   6.788  1.00  0.00     0.088 C 
HETATM   16  C21 UNL     1     -10.553 -19.698   7.086  1.00  0.00     0.044 C 
HETATM   17  C22 UNL     1      -9.259 -20.144   6.587  1.00  0.00     0.078 C 
HETATM   18  C23 UNL     1      -9.102 -21.657   6.409  1.00  0.00     0.098 C 
ENDROOT
BRANCH   1  19
HETATM   19  C6  UNL     1      -5.942 -21.655   1.836  1.00  0.00     0.005 C 
BRANCH  19  20
HETATM   20  C5  UNL     1      -7.109 -21.243   1.014  1.00  0.00     0.000 C 
BRANCH  20  21
HETATM   21  C4  UNL     1      -7.815 -22.445   0.457  1.00  0.00     0.000 C 
BRANCH  21  22
HETATM   22  C3  UNL     1      -7.386 -22.730  -0.940  1.00  0.00    -0.000 C 
BRANCH  22  23
HETATM   23  C2  UNL     1      -7.171 -21.434  -1.717  1.00  0.00    -0.005 C 
HETATM   24  C1  UNL     1      -7.852 -21.463  -3.055  1.00  0.00     0.005 C 
ENDBRANCH  22  23
ENDBRANCH  21  22
ENDBRANCH  20  21
ENDBRANCH  19  20
ENDBRANCH   1  19
BRANCH  18  25
HETATM   25  C24 UNL     1      -8.675 -22.340   7.647  1.00  0.00     0.131 C 
HETATM   26  C25 UNL     1      -9.575 -23.220   8.447  1.00  0.00     0.091 C 
HETATM   27  O3  UNL     1      -7.535 -22.245   8.131  1.00  0.00    -0.298 OA
ENDBRANCH  18  25
BRANCH  17  28
HETATM   28  O2  UNL     1      -8.241 -19.749   7.460  1.00  0.00    -0.388 OA
ATOM     29  H2  UNL     1      -8.704 -19.436   8.228  1.00  0.00     0.210 HD
ENDBRANCH  17  28
TORSDOF 7
ENDMDL
MODEL 2
REMARK VINA RESULT: -8.082710189      1.009      1.280
REMARK  7 active torsions:
REMARK  status: ('A' for Active; 'I' for Inactive)
REMARK    1  A    between atoms: C2_2  and  C3_3 
REMARK    2  A    between atoms: C3_3  and  C4_4 
REMARK    3  A    between atoms: C4_4  and  C5_5 
REMARK    4  A    between atoms: C5_5  and  C6_6 
REMARK    5  A    between atoms: C6_6  and  C7_7 
REMARK    6  A    between atoms: C22_23  and  O2_24 
REMARK    7  A    between atoms: C23_26  and  C24_27 
ROOT
HETATM    1  C7  UNL     1      -6.129 -21.541   3.553  1.00  0.00    -0.014 C 
HETATM    2  C8  UNL     1      -6.449 -22.869   4.105  1.00  0.00     0.005 C 
HETATM    3  C9  UNL     1      -7.059 -22.843   5.519  1.00  0.00     0.011 C 
HETATM    4  C10 UNL     1      -8.310 -22.011   5.360  1.00  0.00    -0.027 C 
HETATM    5  C11 UNL     1      -9.053 -22.641   4.206  1.00  0.00     0.016 C 
HETATM    6  C12 UNL     1      -7.799 -20.622   5.031  1.00  0.00     0.002 C 
HETATM    7  C13 UNL     1      -7.233 -20.512   3.677  1.00  0.00     0.010 C 
HETATM    8  C14 UNL     1      -8.821 -19.653   5.455  1.00  0.00     0.026 C 
HETATM    9  C15 UNL     1      -9.933 -19.344   4.534  1.00  0.00     0.009 C 
HETATM   10  C16 UNL     1     -10.780 -18.279   5.231  1.00  0.00     0.018 C 
HETATM   11  C17 UNL     1     -11.188 -18.622   6.602  1.00  0.00     0.024 C 
HETATM   12  C18 UNL     1     -11.212 -17.381   7.503  1.00  0.00     0.024 C 
HETATM   13  C19 UNL     1     -12.543 -19.239   6.622  1.00  0.00     0.136 C 
HETATM   14  O1  UNL     1     -13.679 -18.872   6.483  1.00  0.00    -0.297 OA
HETATM   15  C20 UNL     1     -11.837 -20.542   6.898  1.00  0.00     0.088 C 
HETATM   16  C21 UNL     1     -10.577 -19.818   7.246  1.00  0.00     0.044 C 
HETATM   17  C22 UNL     1      -9.278 -20.269   6.769  1.00  0.00     0.078 C 
HETATM   18  C23 UNL     1      -9.137 -21.780   6.556  1.00  0.00     0.098 C 
ENDROOT
BRANCH   1  19
HETATM   19  C6  UNL     1      -5.861 -21.708   2.065  1.00  0.00     0.005 C 
BRANCH  19  20
HETATM   20  C5  UNL     1      -7.032 -21.338   1.228  1.00  0.00     0.000 C 
BRANCH  20  21
HETATM   21  C4  UNL     1      -6.600 -20.529   0.039  1.00  0.00     0.000 C 
BRANCH  21  22
HETATM   22  C3  UNL     1      -5.860 -19.306   0.453  1.00  0.00    -0.000 C 
BRANCH  22  23
HETATM   23  C2  UNL     1      -5.191 -18.643  -0.749  1.00  0.00    -0.005 C 
HETATM   24  C1  UNL     1      -5.779 -19.114  -2.048  1.00  0.00     0.005 C 
ENDBRANCH  22  23
ENDBRANCH  21  22
ENDBRANCH  20  21
ENDBRANCH  19  20
ENDBRANCH   1  19
BRANCH  18  25
HETATM   25  C24 UNL     1      -8.751 -22.501   7.786  1.00  0.00     0.131 C 
HETATM   26  C25 UNL     1      -9.691 -23.368   8.554  1.00  0.00     0.091 C 
HETATM   27  O3  UNL     1      -7.617 -22.450   8.289  1.00  0.00    -0.298 OA
ENDBRANCH  18  25
BRANCH  17  28
HETATM   28  O2  UNL     1      -8.277 -19.912   7.676  1.00  0.00    -0.388 OA
ATOM     29  H2  UNL     1      -8.240 -18.964   7.616  1.00  0.00     0.210 HD
ENDBRANCH  17  28
TORSDOF 7
ENDMDL
MODEL 3
REMARK VINA RESULT: -8.015691558      0.955      1.233
REMARK  7 active torsions:
REMARK  status: ('A' for Active; 'I' for Inactive)
REMARK    1  A    between atoms: C2_2  and  C3_3 
REMARK    2  A    between atoms: C3_3  and  C4_4 
REMARK    3  A    between atoms: C4_4  and  C5_5 
REMARK    4  A    between atoms: C5_5  and  C6_6 
REMARK    5  A    between atoms: C6_6  and  C7_7 
REMARK    6  A    between atoms: C22_23  and  O2_24 
REMARK    7  A    between atoms: C23_26  and  C24_27 
ROOT
HETATM    1  C7  UNL     1      -6.665 -20.764   2.113  1.00  0.00    -0.014 C 
HETATM    2  C8  UNL     1      -6.757 -22.110   2.707  1.00  0.00     0.005 C 
HETATM    3  C9  UNL     1      -7.095 -22.124   4.209  1.00  0.00     0.011 C 
HETATM    4  C10 UNL     1      -8.423 -21.408   4.289  1.00  0.00    -0.027 C 
HETATM    5  C11 UNL     1      -9.307 -22.115   3.289  1.00  0.00     0.016 C 
HETATM    6  C12 UNL     1      -8.109 -19.983   3.881  1.00  0.00     0.002 C 
HETATM    7  C13 UNL     1      -7.815 -19.837   2.446  1.00  0.00     0.010 C 
HETATM    8  C14 UNL     1      -9.118 -19.105   4.493  1.00  0.00     0.026 C 
HETATM    9  C15 UNL     1     -10.404 -18.906   3.795  1.00  0.00     0.009 C 
HETATM   10  C16 UNL     1     -11.201 -17.914   4.644  1.00  0.00     0.018 C 
HETATM   11  C17 UNL     1     -11.315 -18.279   6.064  1.00  0.00     0.024 C 
HETATM   12  C18 UNL     1     -11.284 -17.035   6.962  1.00  0.00     0.024 C 
HETATM   13  C19 UNL     1     -12.582 -19.014   6.330  1.00  0.00     0.136 C 
HETATM   14  O1  UNL     1     -13.752 -18.751   6.406  1.00  0.00    -0.297 OA
HETATM   15  C20 UNL     1     -11.723 -20.246   6.463  1.00  0.00     0.088 C 
HETATM   16  C21 UNL     1     -10.491 -19.408   6.576  1.00  0.00     0.044 C 
HETATM   17  C22 UNL     1      -9.267 -19.746   5.864  1.00  0.00     0.078 C 
HETATM   18  C23 UNL     1      -9.032 -21.240   5.620  1.00  0.00     0.098 C 
ENDROOT
BRANCH   1  19
HETATM   19  C6  UNL     1      -6.663 -20.922   0.600  1.00  0.00     0.005 C 
BRANCH  19  20
HETATM   20  C5  UNL     1      -7.372 -22.149   0.153  1.00  0.00     0.000 C 
BRANCH  20  21
HETATM   21  C4  UNL     1      -7.032 -22.466  -1.275  1.00  0.00     0.000 C 
BRANCH  21  22
HETATM   22  C3  UNL     1      -8.177 -22.183  -2.183  1.00  0.00    -0.000 C 
BRANCH  22  23
HETATM   23  C2  UNL     1      -7.724 -21.367  -3.391  1.00  0.00    -0.005 C 
HETATM   24  C1  UNL     1      -7.133 -20.048  -2.987  1.00  0.00     0.005 C 
ENDBRANCH  22  23
ENDBRANCH  21  22
ENDBRANCH  20  21
ENDBRANCH  19  20
ENDBRANCH   1  19
BRANCH  18  25
HETATM   25  C24 UNL     1      -8.363 -21.910   6.752  1.00  0.00     0.131 C 
HETATM   26  C25 UNL     1      -7.429 -23.061   6.585  1.00  0.00     0.091 C 
HETATM   27  O3  UNL     1      -8.517 -21.580   7.939  1.00  0.00    -0.298 OA
ENDBRANCH  18  25
BRANCH  17  28
HETATM   28  O2  UNL     1      -8.152 -19.291   6.573  1.00  0.00    -0.388 OA
ATOM     29  H2  UNL     1      -7.417 -19.509   6.011  1.00  0.00     0.210 HD
ENDBRANCH  17  28
TORSDOF 7
ENDMDL
MODEL 4
REMARK VINA RESULT: -7.505687580      2.327      4.385
REMARK  7 active torsions:
REMARK  status: ('A' for Active; 'I' for Inactive)
REMARK    1  A    between atoms: C2_2  and  C3_3 
REMARK    2  A    between atoms: C3_3  and  C4_4 
REMARK    3  A    between atoms: C4_4  and  C5_5 
REMARK    4  A    between atoms: C5_5  and  C6_6 
REMARK    5  A    between atoms: C6_6  and  C7_7 
REMARK    6  A    between atoms: C22_23  and  O2_24 
REMARK    7  A    between atoms: C23_26  and  C24_27 
ROOT
HETATM    1  C7  UNL     1      -9.328 -21.550   3.465  1.00  0.00    -0.014 C 
HETATM    2  C8  UNL     1      -9.114 -20.186   2.952  1.00  0.00     0.005 C 
HETATM    3  C9  UNL     1      -9.924 -19.095   3.678  1.00  0.00     0.011 C 
HETATM    4  C10 UNL     1      -9.475 -19.206   5.116  1.00  0.00    -0.027 C 
HETATM    5  C11 UNL     1      -7.967 -19.144   5.060  1.00  0.00     0.016 C 
HETATM    6  C12 UNL     1      -9.983 -20.562   5.565  1.00  0.00     0.002 C 
HETATM    7  C13 UNL     1      -9.248 -21.689   4.971  1.00  0.00     0.010 C 
HETATM    8  C14 UNL     1     -10.156 -20.518   7.026  1.00  0.00     0.026 C 
HETATM    9  C15 UNL     1      -8.989 -20.790   7.888  1.00  0.00     0.009 C 
HETATM   10  C16 UNL     1      -9.499 -20.724   9.329  1.00  0.00     0.018 C 
HETATM   11  C17 UNL     1     -10.243 -19.498   9.659  1.00  0.00     0.024 C 
HETATM   12  C18 UNL     1     -11.390 -19.789  10.634  1.00  0.00     0.024 C 
HETATM   13  C19 UNL     1      -9.351 -18.480  10.278  1.00  0.00     0.136 C 
HETATM   14  O1  UNL     1      -8.806 -18.315  11.337  1.00  0.00    -0.297 OA
HETATM   15  C20 UNL     1      -9.445 -17.743   8.966  1.00  0.00     0.088 C 
HETATM   16  C21 UNL     1     -10.616 -18.574   8.552  1.00  0.00     0.044 C 
HETATM   17  C22 UNL     1     -10.730 -19.120   7.207  1.00  0.00     0.078 C 
HETATM   18  C23 UNL     1     -10.081 -18.289   6.096  1.00  0.00     0.098 C 
ENDROOT
BRANCH   1  19
HETATM   19  C6  UNL     1      -8.236 -22.440   2.891  1.00  0.00     0.005 C 
BRANCH  19  20
HETATM   20  C5  UNL     1      -7.254 -22.875   3.918  1.00  0.00     0.000 C 
BRANCH  20  21
HETATM   21  C4  UNL     1      -5.938 -22.182   3.719  1.00  0.00     0.000 C 
BRANCH  21  22
HETATM   22  C3  UNL     1      -5.863 -21.528   2.385  1.00  0.00    -0.000 C 
BRANCH  22  23
HETATM   23  C2  UNL     1      -5.447 -20.065   2.520  1.00  0.00    -0.005 C 
HETATM   24  C1  UNL     1      -5.827 -19.260   1.311  1.00  0.00     0.005 C 
ENDBRANCH  22  23
ENDBRANCH  21  22
ENDBRANCH  20  21
ENDBRANCH  19  20
ENDBRANCH   1  19
BRANCH  18  25
HETATM   25  C24 UNL     1     -10.974 -17.239   5.567  1.00  0.00     0.131 C 
HETATM   26  C25 UNL     1     -10.809 -15.791   5.882  1.00  0.00     0.091 C 
HETATM   27  O3  UNL     1     -11.938 -17.465   4.818  1.00  0.00    -0.298 OA
ENDBRANCH  18  25
BRANCH  17  28
HETATM   28  O2  UNL     1     -12.075 -19.258   6.852  1.00  0.00    -0.388 OA
ATOM     29  H2  UNL     1     -12.538 -18.742   7.501  1.00  0.00     0.210 HD
ENDBRANCH  17  28
TORSDOF 7
ENDMDL
MODEL 5
REMARK VINA RESULT: -7.448459020      2.408      4.825
REMARK  7 active torsions:
REMARK  status: ('A' for Active; 'I' for Inactive)
REMARK    1  A    between atoms: C2_2  and  C3_3 
REMARK    2  A    between atoms: C3_3  and  C4_4 
REMARK    3  A    between atoms: C4_4  and  C5_5 
REMARK    4  A    between atoms: C5_5  and  C6_6 
REMARK    5  A    between atoms: C6_6  and  C7_7 
REMARK    6  A    between atoms: C22_23  and  O2_24 
REMARK    7  A    between atoms: C23_26  and  C24_27 
ROOT
HETATM    1  C7  UNL     1      -9.357 -21.229   3.191  1.00  0.00    -0.014 C 
HETATM    2  C8  UNL     1      -8.920 -19.854   2.895  1.00  0.00     0.005 C 
HETATM    3  C9  UNL     1      -9.756 -18.756   3.579  1.00  0.00     0.011 C 
HETATM    4  C10 UNL     1      -9.618 -19.059   5.052  1.00  0.00    -0.027 C 
HETATM    5  C11 UNL     1      -8.130 -19.162   5.292  1.00  0.00     0.016 C 
HETATM    6  C12 UNL     1     -10.328 -20.386   5.232  1.00  0.00     0.002 C 
HETATM    7  C13 UNL     1      -9.594 -21.525   4.658  1.00  0.00     0.010 C 
HETATM    8  C14 UNL     1     -10.787 -20.467   6.628  1.00  0.00     0.026 C 
HETATM    9  C15 UNL     1      -9.847 -20.954   7.657  1.00  0.00     0.009 C 
HETATM   10  C16 UNL     1     -10.628 -20.973   8.972  1.00  0.00     0.018 C 
HETATM   11  C17 UNL     1     -11.307 -19.709   9.299  1.00  0.00     0.024 C 
HETATM   12  C18 UNL     1     -12.649 -19.963   9.997  1.00  0.00     0.024 C 
HETATM   13  C19 UNL     1     -10.469 -18.865  10.193  1.00  0.00     0.136 C 
HETATM   14  O1  UNL     1     -10.135 -18.868  11.348  1.00  0.00    -0.297 OA
HETATM   15  C20 UNL     1     -10.229 -17.996   8.985  1.00  0.00     0.088 C 
HETATM   16  C21 UNL     1     -11.363 -18.644   8.260  1.00  0.00     0.044 C 
HETATM   17  C22 UNL     1     -11.255 -19.038   6.863  1.00  0.00     0.078 C 
HETATM   18  C23 UNL     1     -10.322 -18.180   6.002  1.00  0.00     0.098 C 
ENDROOT
BRANCH   1  19
HETATM   19  C6  UNL     1      -8.258 -22.176   2.733  1.00  0.00     0.005 C 
BRANCH  19  20
HETATM   20  C5  UNL     1      -6.910 -21.554   2.786  1.00  0.00     0.000 C 
BRANCH  20  21
HETATM   21  C4  UNL     1      -6.061 -22.218   3.831  1.00  0.00     0.000 C 
BRANCH  21  22
HETATM   22  C3  UNL     1      -6.788 -23.334   4.495  1.00  0.00    -0.000 C 
BRANCH  22  23
HETATM   23  C2  UNL     1      -6.870 -23.109   6.002  1.00  0.00    -0.005 C 
HETATM   24  C1  UNL     1      -7.882 -24.009   6.649  1.00  0.00     0.005 C 
ENDBRANCH  22  23
ENDBRANCH  21  22
ENDBRANCH  20  21
ENDBRANCH  19  20
ENDBRANCH   1  19
BRANCH  18  25
HETATM   25  C24 UNL     1     -10.990 -16.988   5.442  1.00  0.00     0.131 C 
HETATM   26  C25 UNL     1     -10.748 -15.604   5.942  1.00  0.00     0.091 C 
HETATM   27  O3  UNL     1     -11.810 -17.030   4.510  1.00  0.00    -0.298 OA
ENDBRANCH  18  25
BRANCH  17  28
HETATM   28  O2  UNL     1     -12.507 -18.987   6.245  1.00  0.00    -0.388 OA
ATOM     29  H2  UNL     1     -12.389 -18.366   5.536  1.00  0.00     0.210 HD
ENDBRANCH  17  28
TORSDOF 7
ENDMDL
