MODEL 1
REMARK VINA RESULT: -6.399122802      0.000      0.000
REMARK  5 active torsions:
REMARK  status: ('A' for Active; 'I' for Inactive)
REMARK    1  A    between atoms: N1_2  and  C2_5 
REMARK    2  A    between atoms: C6_10  and  C7_11 
REMARK    3  A    between atoms: C8_12  and  C9_13 
REMARK    4  A    between atoms: C9_13  and  N2_14 
REMARK    5  A    between atoms: N2_14  and  C10_16 
ROOT
HETATM    1  C2  UNL     1      35.523  -3.298  52.857  1.00  0.00     0.357 C 
HETATM    2  O1  UNL     1      34.200  -3.348  52.473  1.00  0.00    -0.351 OA
HETATM    3  C3  UNL     1      33.493  -3.452  53.666  1.00  0.00     0.210 C 
HETATM    4  C4  UNL     1      34.331  -4.454  54.431  1.00  0.00    -0.021 A 
HETATM    5  C5  UNL     1      34.043  -5.335  55.434  1.00  0.00     0.021 A 
HETATM    6  C6  UNL     1      35.032  -6.177  56.001  1.00  0.00    -0.034 A 
HETATM    7  C13 UNL     1      36.284  -6.021  55.454  1.00  0.00     0.036 A 
HETATM    8  C14 UNL     1      36.583  -5.129  54.434  1.00  0.00     0.046 A 
HETATM    9 CL1  UNL     1      38.229  -5.005  53.804  1.00  0.00    -0.084 Cl
HETATM   10  C15 UNL     1      35.595  -4.339  53.919  1.00  0.00     0.028 A 
ENDROOT
BRANCH   6  11
HETATM   11  C7  UNL     1      34.658  -7.018  57.097  1.00  0.00     0.013 C 
HETATM   12  C8  UNL     1      34.668  -8.286  57.257  1.00  0.00     0.017 C 
BRANCH  12  13
HETATM   13  C9  UNL     1      35.076  -9.327  56.310  1.00  0.00     0.083 C 
BRANCH  13  14
HETATM   14  N2  UNL     1      34.270  -9.586  55.191  1.00  0.00    -0.395 N 
ATOM     15  H2  UNL     1      33.309  -9.896  55.335  1.00  0.00     0.159 HD
BRANCH  14  16
HETATM   16  C10 UNL     1      34.742  -9.430  53.882  1.00  0.00     0.072 C 
HETATM   17  C11 UNL     1      34.228  -8.230  53.167  1.00  0.00     0.031 C 
HETATM   18  C12 UNL     1      36.263  -9.375  53.787  1.00  0.00     0.031 C 
ENDBRANCH  14  16
ENDBRANCH  13  14
ENDBRANCH  12  13
ENDBRANCH   6  11
BRANCH   1  19
HETATM   19  N1  UNL     1      36.449  -3.515  51.802  1.00  0.00    -0.048 N 
HETATM   20  C1  UNL     1      36.233  -2.711  50.642  1.00  0.00     0.270 C 
ATOM     21  H12 UNL     1      36.470  -4.503  51.548  1.00  0.00     0.280 HD
ATOM     22  H11 UNL     1      37.404  -3.399  52.140  1.00  0.00     0.280 HD
ENDBRANCH   1  19
TORSDOF 5
ENDMDL
MODEL 2
REMARK VINA RESULT: -6.153717516      1.795      2.364
REMARK  5 active torsions:
REMARK  status: ('A' for Active; 'I' for Inactive)
REMARK    1  A    between atoms: N1_2  and  C2_5 
REMARK    2  A    between atoms: C6_10  and  C7_11 
REMARK    3  A    between atoms: C8_12  and  C9_13 
REMARK    4  A    between atoms: C9_13  and  N2_14 
REMARK    5  A    between atoms: N2_14  and  C10_16 
ROOT
HETATM    1  C2  UNL     1      35.521  -3.433  52.262  1.00  0.00     0.357 C 
HETATM    2  O1  UNL     1      36.881  -3.311  52.447  1.00  0.00    -0.351 OA
HETATM    3  C3  UNL     1      37.272  -4.534  52.982  1.00  0.00     0.210 C 
HETATM    4  C4  UNL     1      36.167  -4.797  53.982  1.00  0.00    -0.021 A 
HETATM    5  C5  UNL     1      36.106  -5.534  55.129  1.00  0.00     0.021 A 
HETATM    6  C6  UNL     1      34.919  -5.630  55.899  1.00  0.00    -0.034 A 
HETATM    7  C13 UNL     1      33.857  -4.923  55.385  1.00  0.00     0.036 A 
HETATM    8  C14 UNL     1      33.913  -4.171  54.220  1.00  0.00     0.046 A 
HETATM    9 CL1  UNL     1      32.486  -3.303  53.644  1.00  0.00    -0.084 Cl
HETATM   10  C15 UNL     1      35.080  -4.109  53.513  1.00  0.00     0.028 A 
ENDROOT
BRANCH   6  11
HETATM   11  C7  UNL     1      34.925  -6.482  57.049  1.00  0.00     0.013 C 
HETATM   12  C8  UNL     1      34.686  -7.728  57.203  1.00  0.00     0.017 C 
BRANCH  12  13
HETATM   13  C9  UNL     1      34.297  -8.719  56.197  1.00  0.00     0.083 C 
BRANCH  13  14
HETATM   14  N2  UNL     1      35.279  -9.246  55.343  1.00  0.00    -0.395 N 
ATOM     15  H2  UNL     1      35.936  -9.933  55.712  1.00  0.00     0.159 HD
BRANCH  14  16
HETATM   16  C10 UNL     1      35.385  -8.858  54.002  1.00  0.00     0.072 C 
HETATM   17  C11 UNL     1      35.719  -9.956  53.055  1.00  0.00     0.031 C 
HETATM   18  C12 UNL     1      34.127  -8.185  53.463  1.00  0.00     0.031 C 
ENDBRANCH  14  16
ENDBRANCH  13  14
ENDBRANCH  12  13
ENDBRANCH   6  11
BRANCH   1  19
HETATM   19  N1  UNL     1      34.848  -2.204  52.028  1.00  0.00    -0.048 N 
HETATM   20  C1  UNL     1      34.525  -1.950  50.661  1.00  0.00     0.270 C 
ATOM     21  H12 UNL     1      35.386  -1.427  52.414  1.00  0.00     0.280 HD
ATOM     22  H11 UNL     1      34.010  -2.143  52.607  1.00  0.00     0.280 HD
ENDBRANCH   1  19
TORSDOF 5
ENDMDL
MODEL 3
REMARK VINA RESULT: -6.114929424      1.654      2.179
REMARK  5 active torsions:
REMARK  status: ('A' for Active; 'I' for Inactive)
REMARK    1  A    between atoms: N1_2  and  C2_5 
REMARK    2  A    between atoms: C6_10  and  C7_11 
REMARK    3  A    between atoms: C8_12  and  C9_13 
REMARK    4  A    between atoms: C9_13  and  N2_14 
REMARK    5  A    between atoms: N2_14  and  C10_16 
ROOT
HETATM    1  C2  UNL     1      35.823  -3.849  52.613  1.00  0.00     0.357 C 
HETATM    2  O1  UNL     1      37.173  -3.795  52.883  1.00  0.00    -0.351 OA
HETATM    3  C3  UNL     1      37.452  -5.001  53.517  1.00  0.00     0.210 C 
HETATM    4  C4  UNL     1      36.270  -5.133  54.454  1.00  0.00    -0.021 A 
HETATM    5  C5  UNL     1      36.088  -5.788  55.638  1.00  0.00     0.021 A 
HETATM    6  C6  UNL     1      34.851  -5.764  56.329  1.00  0.00    -0.034 A 
HETATM    7  C13 UNL     1      33.871  -5.032  55.700  1.00  0.00     0.036 A 
HETATM    8  C14 UNL     1      34.048  -4.363  54.498  1.00  0.00     0.046 A 
HETATM    9 CL1  UNL     1      32.719  -3.452  53.774  1.00  0.00    -0.084 Cl
HETATM   10  C15 UNL     1      35.261  -4.415  53.870  1.00  0.00     0.028 A 
ENDROOT
BRANCH   6  11
HETATM   11  C7  UNL     1      34.729  -6.538  57.527  1.00  0.00     0.013 C 
HETATM   12  C8  UNL     1      34.735  -7.796  57.747  1.00  0.00     0.017 C 
BRANCH  12  13
HETATM   13  C9  UNL     1      34.862  -8.896  56.787  1.00  0.00     0.083 C 
BRANCH  13  14
HETATM   14  N2  UNL     1      34.009  -8.931  55.673  1.00  0.00    -0.395 N 
ATOM     15  H2  UNL     1      33.004  -8.832  55.817  1.00  0.00     0.159 HD
BRANCH  14  16
HETATM   16  C10 UNL     1      34.494  -9.096  54.370  1.00  0.00     0.072 C 
HETATM   17  C11 UNL     1      34.122  -8.012  53.419  1.00  0.00     0.031 C 
HETATM   18  C12 UNL     1      36.010  -9.238  54.299  1.00  0.00     0.031 C 
ENDBRANCH  14  16
ENDBRANCH  13  14
ENDBRANCH  12  13
ENDBRANCH   6  11
BRANCH   1  19
HETATM   19  N1  UNL     1      35.245  -2.601  52.259  1.00  0.00    -0.048 N 
HETATM   20  C1  UNL     1      35.179  -2.350  50.855  1.00  0.00     0.270 C 
ATOM     21  H12 UNL     1      35.731  -1.838  52.732  1.00  0.00     0.280 HD
ATOM     22  H11 UNL     1      34.320  -2.507  52.678  1.00  0.00     0.280 HD
ENDBRANCH   1  19
TORSDOF 5
ENDMDL
MODEL 4
REMARK VINA RESULT: -6.112152805      2.982      6.805
REMARK  5 active torsions:
REMARK  status: ('A' for Active; 'I' for Inactive)
REMARK    1  A    between atoms: N1_2  and  C2_5 
REMARK    2  A    between atoms: C6_10  and  C7_11 
REMARK    3  A    between atoms: C8_12  and  C9_13 
REMARK    4  A    between atoms: C9_13  and  N2_14 
REMARK    5  A    between atoms: N2_14  and  C10_16 
ROOT
HETATM    1  C2  UNL     1      35.296  -5.105  55.386  1.00  0.00     0.357 C 
HETATM    2  O1  UNL     1      36.211  -5.945  54.789  1.00  0.00    -0.351 OA
HETATM    3  C3  UNL     1      36.959  -5.117  53.960  1.00  0.00     0.210 C 
HETATM    4  C4  UNL     1      35.883  -4.245  53.348  1.00  0.00    -0.021 A 
HETATM    5  C5  UNL     1      35.804  -3.547  52.178  1.00  0.00     0.021 A 
HETATM    6  C6  UNL     1      34.661  -2.781  51.835  1.00  0.00    -0.034 A 
HETATM    7  C13 UNL     1      33.661  -2.810  52.779  1.00  0.00     0.036 A 
HETATM    8  C14 UNL     1      33.734  -3.519  53.969  1.00  0.00     0.046 A 
HETATM    9 CL1  UNL     1      32.392  -3.485  55.116  1.00  0.00    -0.084 Cl
HETATM   10  C15 UNL     1      34.857  -4.243  54.254  1.00  0.00     0.028 A 
ENDROOT
BRANCH   6  11
HETATM   11  C7  UNL     1      34.694  -2.022  50.621  1.00  0.00     0.013 C 
HETATM   12  C8  UNL     1      35.531  -1.968  49.657  1.00  0.00     0.017 C 
BRANCH  12  13
HETATM   13  C9  UNL     1      36.792  -2.698  49.495  1.00  0.00     0.083 C 
BRANCH  13  14
HETATM   14  N2  UNL     1      37.215  -3.050  48.204  1.00  0.00    -0.395 N 
ATOM     15  H2  UNL     1      36.513  -3.225  47.485  1.00  0.00     0.159 HD
BRANCH  14  16
HETATM   16  C10 UNL     1      38.569  -3.167  47.871  1.00  0.00     0.072 C 
HETATM   17  C11 UNL     1      38.969  -4.491  47.320  1.00  0.00     0.031 C 
HETATM   18  C12 UNL     1      39.043  -2.118  46.871  1.00  0.00     0.031 C 
ENDBRANCH  14  16
ENDBRANCH  13  14
ENDBRANCH  12  13
ENDBRANCH   6  11
BRANCH   1  19
HETATM   19  N1  UNL     1      34.219  -5.772  56.028  1.00  0.00    -0.048 N 
HETATM   20  C1  UNL     1      34.337  -5.868  57.448  1.00  0.00     0.270 C 
ATOM     21  H12 UNL     1      34.082  -6.697  55.621  1.00  0.00     0.280 HD
ATOM     22  H11 UNL     1      33.332  -5.335  55.776  1.00  0.00     0.280 HD
ENDBRANCH   1  19
TORSDOF 5
ENDMDL
MODEL 5
REMARK VINA RESULT: -6.097967167      2.445      3.842
REMARK  5 active torsions:
REMARK  status: ('A' for Active; 'I' for Inactive)
REMARK    1  A    between atoms: N1_2  and  C2_5 
REMARK    2  A    between atoms: C6_10  and  C7_11 
REMARK    3  A    between atoms: C8_12  and  C9_13 
REMARK    4  A    between atoms: C9_13  and  N2_14 
REMARK    5  A    between atoms: N2_14  and  C10_16 
ROOT
HETATM    1  C2  UNL     1      35.594  -3.100  52.456  1.00  0.00     0.357 C 
HETATM    2  O1  UNL     1      34.277  -3.116  52.052  1.00  0.00    -0.351 OA
HETATM    3  C3  UNL     1      33.548  -3.158  53.235  1.00  0.00     0.210 C 
HETATM    4  C4  UNL     1      34.338  -4.165  54.044  1.00  0.00    -0.021 A 
HETATM    5  C5  UNL     1      34.004  -5.005  55.068  1.00  0.00     0.021 A 
HETATM    6  C6  UNL     1      34.954  -5.863  55.676  1.00  0.00    -0.034 A 
HETATM    7  C13 UNL     1      36.219  -5.767  55.145  1.00  0.00     0.036 A 
HETATM    8  C14 UNL     1      36.565  -4.918  54.104  1.00  0.00     0.046 A 
HETATM    9 CL1  UNL     1      38.223  -4.870  53.499  1.00  0.00    -0.084 Cl
HETATM   10  C15 UNL     1      35.613  -4.109  53.550  1.00  0.00     0.028 A 
ENDROOT
BRANCH   6  11
HETATM   11  C7  UNL     1      34.533  -6.657  56.790  1.00  0.00     0.013 C 
HETATM   12  C8  UNL     1      34.119  -6.354  57.961  1.00  0.00     0.017 C 
BRANCH  12  13
HETATM   13  C9  UNL     1      33.952  -5.028  58.561  1.00  0.00     0.083 C 
BRANCH  13  14
HETATM   14  N2  UNL     1      32.761  -4.733  59.243  1.00  0.00    -0.395 N 
ATOM     15  H2  UNL     1      32.499  -5.302  60.047  1.00  0.00     0.159 HD
BRANCH  14  16
HETATM   16  C10 UNL     1      31.923  -3.681  58.854  1.00  0.00     0.072 C 
HETATM   17  C11 UNL     1      31.913  -3.392  57.394  1.00  0.00     0.031 C 
HETATM   18  C12 UNL     1      30.469  -3.877  59.269  1.00  0.00     0.031 C 
ENDBRANCH  14  16
ENDBRANCH  13  14
ENDBRANCH  12  13
ENDBRANCH   6  11
BRANCH   1  19
HETATM   19  N1  UNL     1      36.528  -3.381  51.424  1.00  0.00    -0.048 N 
HETATM   20  C1  UNL     1      36.365  -2.597  50.241  1.00  0.00     0.270 C 
ATOM     21  H12 UNL     1      36.514  -4.375  51.194  1.00  0.00     0.280 HD
ATOM     22  H11 UNL     1      37.482  -3.295  51.776  1.00  0.00     0.280 HD
ENDBRANCH   1  19
TORSDOF 5
ENDMDL
