MODEL 1
REMARK VINA RESULT: -6.882465470      0.000      0.000
REMARK  5 active torsions:
REMARK  status: ('A' for Active; 'I' for Inactive)
REMARK    1  A    between atoms: C2_2  and  C3_3 
REMARK    2  A    between atoms: C3_3  and  C4_4 
REMARK    3  A    between atoms: C4_4  and  C5_5 
REMARK    4  A    between atoms: C5_5  and  N1_6 
REMARK    5  A    between atoms: C14_19  and  N3_20 
ROOT
HETATM    1  N1  UNL     1      36.082  -2.794  50.863  1.00  0.00    -0.276 N 
HETATM    2  N2  UNL     1      36.903  -3.521  51.601  1.00  0.00    -0.295 N 
ATOM      3  H2  UNL     1      37.872  -3.730  51.357  1.00  0.00     0.187 HD
HETATM    4  C6  UNL     1      36.282  -3.951  52.726  1.00  0.00     0.070 A 
HETATM    5  C7  UNL     1      36.657  -4.713  53.801  1.00  0.00    -0.009 A 
HETATM    6  C8  UNL     1      38.035  -5.245  53.860  1.00  0.00     0.052 C 
HETATM    7  C9  UNL     1      35.756  -4.974  54.810  1.00  0.00     0.064 A 
HETATM    8 CL1  UNL     1      36.227  -5.957  56.205  1.00  0.00    -0.082 Cl
HETATM    9  C10 UNL     1      34.469  -4.462  54.729  1.00  0.00     0.063 A 
HETATM   10 CL2  UNL     1      33.355  -4.826  56.046  1.00  0.00    -0.082 Cl
HETATM   11  C11 UNL     1      34.066  -3.691  53.655  1.00  0.00    -0.022 A 
HETATM   12  C12 UNL     1      32.724  -3.182  53.614  1.00  0.00     0.051 C 
HETATM   13  C13 UNL     1      34.998  -3.461  52.682  1.00  0.00     0.045 A 
HETATM   14  C14 UNL     1      34.902  -2.751  51.520  1.00  0.00     0.129 A 
ENDROOT
BRANCH   1  15
HETATM   15  C5  UNL     1      36.423  -2.183  49.602  1.00  0.00     0.151 C 
BRANCH  15  16
HETATM   16  C4  UNL     1      37.170  -3.106  48.690  1.00  0.00     0.022 C 
BRANCH  16  17
HETATM   17  C3  UNL     1      38.277  -2.273  48.029  1.00  0.00     0.001 C 
BRANCH  17  18
HETATM   18  C2  UNL     1      39.242  -3.214  47.298  1.00  0.00    -0.004 C 
HETATM   19  C1  UNL     1      39.057  -4.643  47.735  1.00  0.00     0.005 C 
ENDBRANCH  17  18
ENDBRANCH  16  17
ENDBRANCH  15  16
ENDBRANCH   1  15
BRANCH  14  20
HETATM   20  N3  UNL     1      33.879  -2.129  51.087  1.00  0.00    -0.384 N 
ATOM     21  H32 UNL     1      33.699  -1.839  50.126  1.00  0.00     0.157 HD
ATOM     22  H31 UNL     1      33.101  -1.843  51.681  1.00  0.00     0.157 HD
ENDBRANCH  14  20
TORSDOF 5
ENDMDL
MODEL 2
REMARK VINA RESULT: -6.441378870      3.835      5.826
REMARK  5 active torsions:
REMARK  status: ('A' for Active; 'I' for Inactive)
REMARK    1  A    between atoms: C2_2  and  C3_3 
REMARK    2  A    between atoms: C3_3  and  C4_4 
REMARK    3  A    between atoms: C4_4  and  C5_5 
REMARK    4  A    between atoms: C5_5  and  N1_6 
REMARK    5  A    between atoms: C14_19  and  N3_20 
ROOT
HETATM    1  N1  UNL     1      34.411  -5.636  54.872  1.00  0.00    -0.276 N 
HETATM    2  N2  UNL     1      33.964  -4.986  55.933  1.00  0.00    -0.295 N 
ATOM      3  H2  UNL     1      33.547  -4.055  55.911  1.00  0.00     0.187 HD
HETATM    4  C6  UNL     1      34.136  -5.727  57.055  1.00  0.00     0.070 A 
HETATM    5  C7  UNL     1      33.859  -5.540  58.384  1.00  0.00    -0.009 A 
HETATM    6  C8  UNL     1      33.226  -4.275  58.816  1.00  0.00     0.052 C 
HETATM    7  C9  UNL     1      34.171  -6.521  59.298  1.00  0.00     0.064 A 
HETATM    8 CL1  UNL     1      33.819  -6.293  61.019  1.00  0.00    -0.082 Cl
HETATM    9  C10 UNL     1      34.765  -7.698  58.866  1.00  0.00     0.063 A 
HETATM   10 CL2  UNL     1      35.142  -8.922  60.077  1.00  0.00    -0.082 Cl
HETATM   11  C11 UNL     1      35.054  -7.911  57.531  1.00  0.00    -0.022 A 
HETATM   12  C12 UNL     1      35.669  -9.144  57.129  1.00  0.00     0.051 C 
HETATM   13  C13 UNL     1      34.725  -6.905  56.665  1.00  0.00     0.045 A 
HETATM   14  C14 UNL     1      34.884  -6.822  55.311  1.00  0.00     0.129 A 
ENDROOT
BRANCH   1  15
HETATM   15  C5  UNL     1      34.379  -5.134  53.521  1.00  0.00     0.151 C 
BRANCH  15  16
HETATM   16  C4  UNL     1      33.874  -3.727  53.432  1.00  0.00     0.022 C 
BRANCH  16  17
HETATM   17  C3  UNL     1      34.812  -2.980  52.474  1.00  0.00     0.001 C 
BRANCH  17  18
HETATM   18  C2  UNL     1      33.976  -2.299  51.384  1.00  0.00    -0.004 C 
HETATM   19  C1  UNL     1      34.832  -1.858  50.226  1.00  0.00     0.005 C 
ENDBRANCH  17  18
ENDBRANCH  16  17
ENDBRANCH  15  16
ENDBRANCH   1  15
BRANCH  14  20
HETATM   20  N3  UNL     1      35.392  -7.703  54.546  1.00  0.00    -0.384 N 
ATOM     21  H32 UNL     1      35.182  -7.852  53.559  1.00  0.00     0.157 HD
ATOM     22  H31 UNL     1      36.091  -8.380  54.852  1.00  0.00     0.157 HD
ENDBRANCH  14  20
TORSDOF 5
ENDMDL
MODEL 3
REMARK VINA RESULT: -6.437447553      4.068      5.650
REMARK  5 active torsions:
REMARK  status: ('A' for Active; 'I' for Inactive)
REMARK    1  A    between atoms: C2_2  and  C3_3 
REMARK    2  A    between atoms: C3_3  and  C4_4 
REMARK    3  A    between atoms: C4_4  and  C5_5 
REMARK    4  A    between atoms: C5_5  and  N1_6 
REMARK    5  A    between atoms: C14_19  and  N3_20 
ROOT
HETATM    1  N1  UNL     1      34.136  -5.654  54.394  1.00  0.00    -0.276 N 
HETATM    2  N2  UNL     1      34.262  -6.618  53.498  1.00  0.00    -0.295 N 
ATOM      3  H2  UNL     1      34.213  -6.482  52.488  1.00  0.00     0.187 HD
HETATM    4  C6  UNL     1      34.467  -7.813  54.106  1.00  0.00     0.070 A 
HETATM    5  C7  UNL     1      34.656  -9.096  53.666  1.00  0.00    -0.009 A 
HETATM    6  C8  UNL     1      34.659  -9.365  52.211  1.00  0.00     0.052 C 
HETATM    7  C9  UNL     1      34.841 -10.116  54.573  1.00  0.00     0.064 A 
HETATM    8 CL1  UNL     1      35.087 -11.780  54.018  1.00  0.00    -0.082 Cl
HETATM    9  C10 UNL     1      34.833  -9.835  55.931  1.00  0.00     0.063 A 
HETATM   10 CL2  UNL     1      35.074 -11.176  57.049  1.00  0.00    -0.082 Cl
HETATM   11  C11 UNL     1      34.644  -8.549  56.401  1.00  0.00    -0.022 A 
HETATM   12  C12 UNL     1      34.644  -8.306  57.815  1.00  0.00     0.051 C 
HETATM   13  C13 UNL     1      34.466  -7.574  55.459  1.00  0.00     0.045 A 
HETATM   14  C14 UNL     1      34.259  -6.232  55.609  1.00  0.00     0.129 A 
ENDROOT
BRANCH   1  15
HETATM   15  C5  UNL     1      33.909  -4.264  54.087  1.00  0.00     0.151 C 
BRANCH  15  16
HETATM   16  C4  UNL     1      34.693  -3.792  52.902  1.00  0.00     0.022 C 
BRANCH  16  17
HETATM   17  C3  UNL     1      34.218  -2.364  52.599  1.00  0.00     0.001 C 
BRANCH  17  18
HETATM   18  C2  UNL     1      33.776  -2.285  51.132  1.00  0.00    -0.004 C 
HETATM   19  C1  UNL     1      34.923  -1.916  50.228  1.00  0.00     0.005 C 
ENDBRANCH  17  18
ENDBRANCH  16  17
ENDBRANCH  15  16
ENDBRANCH   1  15
BRANCH  14  20
HETATM   20  N3  UNL     1      34.188  -5.588  56.704  1.00  0.00    -0.384 N 
ATOM     21  H32 UNL     1      33.513  -4.861  56.945  1.00  0.00     0.157 HD
ATOM     22  H31 UNL     1      34.823  -5.737  57.488  1.00  0.00     0.157 HD
ENDBRANCH  14  20
TORSDOF 5
ENDMDL
MODEL 4
REMARK VINA RESULT: -6.389114350      3.352      5.138
REMARK  5 active torsions:
REMARK  status: ('A' for Active; 'I' for Inactive)
REMARK    1  A    between atoms: C2_2  and  C3_3 
REMARK    2  A    between atoms: C3_3  and  C4_4 
REMARK    3  A    between atoms: C4_4  and  C5_5 
REMARK    4  A    between atoms: C5_5  and  N1_6 
REMARK    5  A    between atoms: C14_19  and  N3_20 
ROOT
HETATM    1  N1  UNL     1      33.841  -4.805  54.564  1.00  0.00    -0.276 N 
HETATM    2  N2  UNL     1      33.772  -4.574  55.865  1.00  0.00    -0.295 N 
ATOM      3  H2  UNL     1      33.483  -3.689  56.283  1.00  0.00     0.187 HD
HETATM    4  C6  UNL     1      34.137  -5.675  56.566  1.00  0.00     0.070 A 
HETATM    5  C7  UNL     1      34.241  -5.976  57.899  1.00  0.00    -0.009 A 
HETATM    6  C8  UNL     1      33.905  -4.940  58.899  1.00  0.00     0.052 C 
HETATM    7  C9  UNL     1      34.655  -7.229  58.292  1.00  0.00     0.064 A 
HETATM    8 CL1  UNL     1      34.796  -7.632  60.011  1.00  0.00    -0.082 Cl
HETATM    9  C10 UNL     1      34.965  -8.182  57.333  1.00  0.00     0.063 A 
HETATM   10 CL2  UNL     1      35.490  -9.770  57.890  1.00  0.00    -0.082 Cl
HETATM   11  C11 UNL     1      34.867  -7.904  55.982  1.00  0.00    -0.022 A 
HETATM   12  C12 UNL     1      35.198  -8.920  55.025  1.00  0.00     0.051 C 
HETATM   13  C13 UNL     1      34.452  -6.645  55.645  1.00  0.00     0.045 A 
HETATM   14  C14 UNL     1      34.261  -6.081  54.417  1.00  0.00     0.129 A 
ENDROOT
BRANCH   1  15
HETATM   15  C5  UNL     1      33.522  -3.847  53.536  1.00  0.00     0.151 C 
BRANCH  15  16
HETATM   16  C4  UNL     1      34.736  -3.245  52.900  1.00  0.00     0.022 C 
BRANCH  16  17
HETATM   17  C3  UNL     1      34.266  -1.992  52.148  1.00  0.00     0.001 C 
BRANCH  17  18
HETATM   18  C2  UNL     1      34.464  -2.209  50.643  1.00  0.00    -0.004 C 
HETATM   19  C1  UNL     1      35.922  -2.352  50.292  1.00  0.00     0.005 C 
ENDBRANCH  17  18
ENDBRANCH  16  17
ENDBRANCH  15  16
ENDBRANCH   1  15
BRANCH  14  20
HETATM   20  N3  UNL     1      34.439  -6.635  53.285  1.00  0.00    -0.384 N 
ATOM     21  H32 UNL     1      34.783  -7.580  53.113  1.00  0.00     0.157 HD
ATOM     22  H31 UNL     1      34.247  -6.174  52.396  1.00  0.00     0.157 HD
ENDBRANCH  14  20
TORSDOF 5
ENDMDL
MODEL 5
REMARK VINA RESULT: -6.279145572      2.663      4.566
REMARK  5 active torsions:
REMARK  status: ('A' for Active; 'I' for Inactive)
REMARK    1  A    between atoms: C2_2  and  C3_3 
REMARK    2  A    between atoms: C3_3  and  C4_4 
REMARK    3  A    between atoms: C4_4  and  C5_5 
REMARK    4  A    between atoms: C5_5  and  N1_6 
REMARK    5  A    between atoms: C14_19  and  N3_20 
ROOT
HETATM    1  N1  UNL     1      34.170  -4.338  53.734  1.00  0.00    -0.276 N 
HETATM    2  N2  UNL     1      33.610  -5.509  53.986  1.00  0.00    -0.295 N 
ATOM      3  H2  UNL     1      32.607  -5.691  53.954  1.00  0.00     0.187 HD
HETATM    4  C6  UNL     1      34.553  -6.434  54.294  1.00  0.00     0.070 A 
HETATM    5  C7  UNL     1      34.524  -7.762  54.627  1.00  0.00    -0.009 A 
HETATM    6  C8  UNL     1      33.222  -8.458  54.701  1.00  0.00     0.052 C 
HETATM    7  C9  UNL     1      35.699  -8.432  54.889  1.00  0.00     0.064 A 
HETATM    8 CL1  UNL     1      35.677 -10.149  55.321  1.00  0.00    -0.082 Cl
HETATM    9  C10 UNL     1      36.907  -7.755  54.813  1.00  0.00     0.063 A 
HETATM   10 CL2  UNL     1      38.379  -8.660  55.157  1.00  0.00    -0.082 Cl
HETATM   11  C11 UNL     1      36.962  -6.415  54.478  1.00  0.00    -0.022 A 
HETATM   12  C12 UNL     1      38.235  -5.755  54.412  1.00  0.00     0.051 C 
HETATM   13  C13 UNL     1      35.769  -5.797  54.228  1.00  0.00     0.045 A 
HETATM   14  C14 UNL     1      35.503  -4.503  53.881  1.00  0.00     0.129 A 
ENDROOT
BRANCH   1  15
HETATM   15  C5  UNL     1      33.455  -3.139  53.374  1.00  0.00     0.151 C 
BRANCH  15  16
HETATM   16  C4  UNL     1      33.323  -2.959  51.894  1.00  0.00     0.022 C 
BRANCH  16  17
HETATM   17  C3  UNL     1      34.208  -1.764  51.513  1.00  0.00     0.001 C 
BRANCH  17  18
HETATM   18  C2  UNL     1      34.758  -1.980  50.098  1.00  0.00    -0.004 C 
HETATM   19  C1  UNL     1      36.187  -2.454  50.127  1.00  0.00     0.005 C 
ENDBRANCH  17  18
ENDBRANCH  16  17
ENDBRANCH  15  16
ENDBRANCH   1  15
BRANCH  14  20
HETATM   20  N3  UNL     1      36.350  -3.568  53.711  1.00  0.00    -0.384 N 
ATOM     21  H32 UNL     1      36.849  -3.053  54.437  1.00  0.00     0.157 HD
ATOM     22  H31 UNL     1      36.630  -3.222  52.793  1.00  0.00     0.157 HD
ENDBRANCH  14  20
TORSDOF 5
ENDMDL
