MODEL 1
REMARK VINA RESULT: -8.916531914      0.000      0.000
REMARK  15 active torsions:
REMARK  status: ('A' for Active; 'I' for Inactive)
REMARK    1  A    between atoms: N2_3  and  C2_5 
REMARK    2  A    between atoms: C2_5  and  N3_6 
REMARK    3  A    between atoms: C2_5  and  C3_10 
REMARK    4  A    between atoms: C2_5  and  C9_28 
REMARK    5  A    between atoms: C3_10  and  N4_11 
REMARK    6  A    between atoms: C5_17  and  C6_18 
REMARK    7  A    between atoms: C6_18  and  O1_19 
REMARK    8  A    between atoms: C6_18  and  N7_21 
REMARK    9  A    between atoms: N7_21  and  C7_24 
REMARK   10  A    between atoms: C7_24  and  C8_25 
REMARK   11  A    between atoms: C9_28  and  N9_29 
REMARK   12  A    between atoms: C12_34  and  N11_35 
REMARK   13  A    between atoms: N11_35  and  C13_37 
REMARK   14  A    between atoms: C13_37  and  C14_38 
REMARK   15  A    between atoms: C18_45  and  N13_46 
ROOT
HETATM    1  N1  UNL     1      20.841  18.629  52.483  1.00  0.00    -0.172 NA
HETATM    2  C1  UNL     1      20.160  19.531  52.232  1.00  0.00     0.179 C 
HETATM    3  N2  UNL     1      19.314  20.637  51.933  1.00  0.00    -0.292 N 
ATOM      4  H2  UNL     1      19.337  21.058  51.004  1.00  0.00     0.174 HD
ENDROOT
BRANCH   3   5
HETATM    5  C2  UNL     1      18.430  21.160  52.933  1.00  0.00     0.236 C 
BRANCH   5   6
HETATM    6  N3  UNL     1      19.187  21.083  54.188  1.00  0.00    -0.049 N 
ATOM      7  H33 UNL     1      19.958  20.416  54.165  1.00  0.00     0.277 HD
ATOM      8  H32 UNL     1      19.753  21.909  54.380  1.00  0.00     0.277 HD
ATOM      9  H31 UNL     1      18.489  20.883  54.905  1.00  0.00     0.277 HD
ENDBRANCH   5   6
BRANCH   5  10
HETATM   10  C3  UNL     1      17.179  20.359  53.076  1.00  0.00     0.195 C 
BRANCH  10  11
HETATM   11  N4  UNL     1      16.531  20.391  54.352  1.00  0.00    -0.323 N 
HETATM   12  C4  UNL     1      17.114  19.827  55.460  1.00  0.00     0.201 A 
HETATM   13  N5  UNL     1      16.302  20.013  56.499  1.00  0.00    -0.295 N 
HETATM   14  N6  UNL     1      15.253  20.656  56.105  1.00  0.00    -0.284 N 
ATOM     15  H5  UNL     1      16.480  19.699  57.453  1.00  0.00     0.187 HD
HETATM   16  C5  UNL     1      15.395  20.892  54.761  1.00  0.00     0.156 A 
ATOM     17  H6  UNL     1      14.464  20.937  56.686  1.00  0.00     0.188 HD
BRANCH  16  18
HETATM   18  C6  UNL     1      14.333  21.595  54.000  1.00  0.00     0.389 C 
BRANCH  18  19
HETATM   19  O1  UNL     1      14.110  20.883  52.799  1.00  0.00    -0.364 OA
ATOM     20  H1  UNL     1      13.184  20.939  52.592  1.00  0.00     0.212 HD
ENDBRANCH  18  19
BRANCH  18  21
HETATM   21  N7  UNL     1      13.045  21.557  54.688  1.00  0.00    -0.034 N 
ATOM     22  H72 UNL     1      12.903  20.680  55.190  1.00  0.00     0.281 HD
ATOM     23  H71 UNL     1      13.017  22.189  55.488  1.00  0.00     0.281 HD
BRANCH  21  24
HETATM   24  C7  UNL     1      11.971  21.826  53.735  1.00  0.00     0.334 C 
BRANCH  24  25
HETATM   25  C8  UNL     1      11.998  23.234  53.280  1.00  0.00     0.257 C 
HETATM   26  N8  UNL     1      11.749  24.295  54.173  1.00  0.00    -0.061 NA
HETATM   27  O2  UNL     1      12.251  23.456  52.073  1.00  0.00    -0.275 OA
ENDBRANCH  24  25
ENDBRANCH  21  24
ENDBRANCH  18  21
ENDBRANCH  16  18
ENDBRANCH  10  11
ENDBRANCH   5  10
BRANCH   5  28
HETATM   28  C9  UNL     1      18.065  22.607  52.676  1.00  0.00     0.195 C 
BRANCH  28  29
HETATM   29  N9  UNL     1      17.965  22.922  51.273  1.00  0.00    -0.323 N 
HETATM   30  C10 UNL     1      18.882  23.508  50.493  1.00  0.00     0.185 A 
HETATM   31  N10 UNL     1      18.402  23.659  49.248  1.00  0.00    -0.346 N 
HETATM   32  C11 UNL     1      17.160  23.159  49.236  1.00  0.00     0.123 A 
ATOM     33  H10 UNL     1      18.892  24.076  48.457  1.00  0.00     0.167 HD
HETATM   34  C12 UNL     1      16.220  23.049  48.252  1.00  0.00     0.148 A 
HETATM   35  C19 UNL     1      16.889  22.698  50.504  1.00  0.00     0.155 A 
HETATM   36  N12 UNL     1      15.023  22.465  48.591  1.00  0.00    -0.175 N 
HETATM   37  C18 UNL     1      14.747  22.013  49.807  1.00  0.00     0.679 A 
ATOM     38  H12 UNL     1      14.309  22.374  47.868  1.00  0.00     0.186 HD
HETATM   39  N14 UNL     1      15.672  22.124  50.773  1.00  0.00    -0.174 N 
ATOM     40  H14 UNL     1      15.470  21.780  51.711  1.00  0.00     0.186 HD
BRANCH  34  41
HETATM   41  N11 UNL     1      16.334  23.435  47.041  1.00  0.00    -0.368 N 
ATOM     42  H11 UNL     1      17.287  23.477  46.680  1.00  0.00     0.161 HD
BRANCH  41  43
HETATM   43  C13 UNL     1      15.315  23.813  46.127  1.00  0.00     0.186 C 
BRANCH  43  44
HETATM   44  C14 UNL     1      15.927  24.333  44.856  1.00  0.00     0.070 A 
HETATM   45  C15 UNL     1      15.277  24.583  43.675  1.00  0.00     0.036 A 
HETATM   46  C16 UNL     1      16.210  25.050  42.756  1.00  0.00     0.027 A 
HETATM   47  C17 UNL     1      17.400  25.057  43.452  1.00  0.00     0.142 A 
HETATM   48  O3  UNL     1      17.184  24.629  44.680  1.00  0.00    -0.325 OA
ENDBRANCH  43  44
ENDBRANCH  41  43
ENDBRANCH  34  41
BRANCH  37  49
HETATM   49  N13 UNL     1      13.588  21.460  50.068  1.00  0.00    -0.234 N 
ATOM     50 2H13 UNL     1      13.544  20.489  50.378  1.00  0.00     0.174 HD
ATOM     51 1H13 UNL     1      12.722  21.989  49.961  1.00  0.00     0.174 HD
ENDBRANCH  37  49
ENDBRANCH  28  29
ENDBRANCH   5  28
ENDBRANCH   3   5
TORSDOF 15
ENDMDL
MODEL 2
REMARK VINA RESULT: -8.767861007      2.006      8.088
REMARK  15 active torsions:
REMARK  status: ('A' for Active; 'I' for Inactive)
REMARK    1  A    between atoms: N2_3  and  C2_5 
REMARK    2  A    between atoms: C2_5  and  N3_6 
REMARK    3  A    between atoms: C2_5  and  C3_10 
REMARK    4  A    between atoms: C2_5  and  C9_28 
REMARK    5  A    between atoms: C3_10  and  N4_11 
REMARK    6  A    between atoms: C5_17  and  C6_18 
REMARK    7  A    between atoms: C6_18  and  O1_19 
REMARK    8  A    between atoms: C6_18  and  N7_21 
REMARK    9  A    between atoms: N7_21  and  C7_24 
REMARK   10  A    between atoms: C7_24  and  C8_25 
REMARK   11  A    between atoms: C9_28  and  N9_29 
REMARK   12  A    between atoms: C12_34  and  N11_35 
REMARK   13  A    between atoms: N11_35  and  C13_37 
REMARK   14  A    between atoms: C13_37  and  C14_38 
REMARK   15  A    between atoms: C18_45  and  N13_46 
ROOT
HETATM    1  N1  UNL     1      20.420  19.711  51.473  1.00  0.00    -0.172 NA
HETATM    2  C1  UNL     1      20.041  20.568  50.793  1.00  0.00     0.179 C 
HETATM    3  N2  UNL     1      19.561  21.618  49.958  1.00  0.00    -0.292 N 
ATOM      4  H2  UNL     1      20.128  21.945  49.176  1.00  0.00     0.174 HD
ENDROOT
BRANCH   3   5
HETATM    5  C2  UNL     1      18.285  22.217  50.215  1.00  0.00     0.236 C 
BRANCH   5   6
HETATM    6  N3  UNL     1      17.318  21.119  50.098  1.00  0.00    -0.049 N 
ATOM      7  H33 UNL     1      17.739  20.191  50.151  1.00  0.00     0.277 HD
ATOM      8  H32 UNL     1      16.709  21.016  50.909  1.00  0.00     0.277 HD
ATOM      9  H31 UNL     1      16.820  21.297  49.225  1.00  0.00     0.277 HD
ENDBRANCH   5   6
BRANCH   5  10
HETATM   10  C3  UNL     1      17.932  23.276  49.224  1.00  0.00     0.195 C 
BRANCH  10  11
HETATM   11  N4  UNL     1      16.600  23.798  49.281  1.00  0.00    -0.323 N 
HETATM   12  C4  UNL     1      16.234  24.707  50.243  1.00  0.00     0.201 A 
HETATM   13  N5  UNL     1      14.954  25.024  50.051  1.00  0.00    -0.295 N 
HETATM   14  N6  UNL     1      14.505  24.369  49.032  1.00  0.00    -0.284 N 
ATOM     15  H5  UNL     1      14.416  25.680  50.617  1.00  0.00     0.187 HD
HETATM   16  C5  UNL     1      15.534  23.601  48.549  1.00  0.00     0.156 A 
ATOM     17  H6  UNL     1      13.559  24.415  48.655  1.00  0.00     0.188 HD
BRANCH  16  18
HETATM   18  C6  UNL     1      15.328  22.703  47.386  1.00  0.00     0.389 C 
BRANCH  18  19
HETATM   19  O1  UNL     1      13.969  22.781  47.007  1.00  0.00    -0.364 OA
ATOM     20  H1  UNL     1      13.792  23.672  46.728  1.00  0.00     0.212 HD
ENDBRANCH  18  19
BRANCH  18  21
HETATM   21  N7  UNL     1      16.060  23.155  46.205  1.00  0.00    -0.034 N 
ATOM     22  H72 UNL     1      17.024  23.406  46.423  1.00  0.00     0.281 HD
ATOM     23  H71 UNL     1      16.250  22.392  45.556  1.00  0.00     0.281 HD
BRANCH  21  24
HETATM   24  C7  UNL     1      15.335  24.253  45.570  1.00  0.00     0.334 C 
BRANCH  24  25
HETATM   25  C8  UNL     1      15.890  24.559  44.233  1.00  0.00     0.257 C 
HETATM   26  N8  UNL     1      17.136  25.202  44.088  1.00  0.00    -0.061 NA
HETATM   27  O2  UNL     1      15.218  24.230  43.228  1.00  0.00    -0.275 OA
ENDBRANCH  24  25
ENDBRANCH  21  24
ENDBRANCH  18  21
ENDBRANCH  16  18
ENDBRANCH  10  11
ENDBRANCH   5  10
BRANCH   5  28
HETATM   28  C9  UNL     1      18.192  22.795  51.612  1.00  0.00     0.195 C 
BRANCH  28  29
HETATM   29  N9  UNL     1      17.267  22.082  52.456  1.00  0.00    -0.323 N 
HETATM   30  C10 UNL     1      15.934  22.010  52.341  1.00  0.00     0.185 A 
HETATM   31  N10 UNL     1      15.423  21.273  53.341  1.00  0.00    -0.346 N 
HETATM   32  C11 UNL     1      16.448  20.869  54.102  1.00  0.00     0.123 A 
ATOM     33  H10 UNL     1      14.437  21.060  53.492  1.00  0.00     0.167 HD
HETATM   34  C12 UNL     1      16.511  20.105  55.232  1.00  0.00     0.148 A 
HETATM   35  C19 UNL     1      17.600  21.375  53.546  1.00  0.00     0.155 A 
HETATM   36  N12 UNL     1      17.757  19.874  55.764  1.00  0.00    -0.175 N 
HETATM   37  C18 UNL     1      18.877  20.353  55.240  1.00  0.00     0.679 A 
ATOM     38  H12 UNL     1      17.824  19.305  56.608  1.00  0.00     0.186 HD
HETATM   39  N14 UNL     1      18.812  21.105  54.130  1.00  0.00    -0.174 N 
ATOM     40  H14 UNL     1      19.667  21.478  53.719  1.00  0.00     0.186 HD
BRANCH  34  41
HETATM   41  N11 UNL     1      15.529  19.577  55.853  1.00  0.00    -0.368 N 
ATOM     42  H11 UNL     1      15.370  18.587  55.666  1.00  0.00     0.161 HD
BRANCH  41  43
HETATM   43  C13 UNL     1      14.627  20.180  56.770  1.00  0.00     0.186 C 
BRANCH  43  44
HETATM   44  C14 UNL     1      13.286  20.380  56.119  1.00  0.00     0.070 A 
HETATM   45  C15 UNL     1      12.126  19.710  56.410  1.00  0.00     0.036 A 
HETATM   46  C16 UNL     1      11.123  20.197  55.578  1.00  0.00     0.027 A 
HETATM   47  C17 UNL     1      11.751  21.158  54.815  1.00  0.00     0.142 A 
HETATM   48  O3  UNL     1      13.019  21.230  55.168  1.00  0.00    -0.325 OA
ENDBRANCH  43  44
ENDBRANCH  41  43
ENDBRANCH  34  41
BRANCH  37  49
HETATM   49  N13 UNL     1      20.038  20.094  55.790  1.00  0.00    -0.234 N 
ATOM     50 2H13 UNL     1      20.717  19.511  55.301  1.00  0.00     0.174 HD
ATOM     51 1H13 UNL     1      20.273  20.468  56.710  1.00  0.00     0.174 HD
ENDBRANCH  37  49
ENDBRANCH  28  29
ENDBRANCH   5  28
ENDBRANCH   3   5
TORSDOF 15
ENDMDL
MODEL 3
REMARK VINA RESULT: -8.493780001      1.034      1.445
REMARK  15 active torsions:
REMARK  status: ('A' for Active; 'I' for Inactive)
REMARK    1  A    between atoms: N2_3  and  C2_5 
REMARK    2  A    between atoms: C2_5  and  N3_6 
REMARK    3  A    between atoms: C2_5  and  C3_10 
REMARK    4  A    between atoms: C2_5  and  C9_28 
REMARK    5  A    between atoms: C3_10  and  N4_11 
REMARK    6  A    between atoms: C5_17  and  C6_18 
REMARK    7  A    between atoms: C6_18  and  O1_19 
REMARK    8  A    between atoms: C6_18  and  N7_21 
REMARK    9  A    between atoms: N7_21  and  C7_24 
REMARK   10  A    between atoms: C7_24  and  C8_25 
REMARK   11  A    between atoms: C9_28  and  N9_29 
REMARK   12  A    between atoms: C12_34  and  N11_35 
REMARK   13  A    between atoms: N11_35  and  C13_37 
REMARK   14  A    between atoms: C13_37  and  C14_38 
REMARK   15  A    between atoms: C18_45  and  N13_46 
ROOT
HETATM    1  N1  UNL     1      20.834  18.874  52.245  1.00  0.00    -0.172 NA
HETATM    2  C1  UNL     1      20.156  19.794  52.059  1.00  0.00     0.179 C 
HETATM    3  N2  UNL     1      19.313  20.921  51.838  1.00  0.00    -0.292 N 
ATOM      4  H2  UNL     1      19.390  21.452  50.971  1.00  0.00     0.174 HD
ENDROOT
BRANCH   3   5
HETATM    5  C2  UNL     1      18.355  21.310  52.831  1.00  0.00     0.236 C 
BRANCH   5   6
HETATM    6  N3  UNL     1      19.110  21.361  54.089  1.00  0.00    -0.049 N 
ATOM      7  H33 UNL     1      18.602  20.990  54.891  1.00  0.00     0.277 HD
ATOM      8  H32 UNL     1      19.889  20.704  54.130  1.00  0.00     0.277 HD
ATOM      9  H31 UNL     1      19.387  22.338  54.191  1.00  0.00     0.277 HD
ENDBRANCH   5   6
BRANCH   5  10
HETATM   10  C3  UNL     1      17.241  20.328  52.979  1.00  0.00     0.195 C 
BRANCH  10  11
HETATM   11  N4  UNL     1      16.498  20.370  54.202  1.00  0.00    -0.323 N 
HETATM   12  C4  UNL     1      16.969  19.764  55.341  1.00  0.00     0.201 A 
HETATM   13  N5  UNL     1      16.088  19.970  56.318  1.00  0.00    -0.295 N 
HETATM   14  N6  UNL     1      15.101  20.664  55.856  1.00  0.00    -0.284 N 
ATOM     15  H5  UNL     1      16.178  19.634  57.277  1.00  0.00     0.187 HD
HETATM   16  C5  UNL     1      15.356  20.914  54.532  1.00  0.00     0.156 A 
ATOM     17  H6  UNL     1      14.281  20.970  56.380  1.00  0.00     0.188 HD
BRANCH  16  18
HETATM   18  C6  UNL     1      14.387  21.674  53.704  1.00  0.00     0.389 C 
BRANCH  18  19
HETATM   19  O1  UNL     1      13.913  20.815  52.685  1.00  0.00    -0.364 OA
ATOM     20  H1  UNL     1      13.532  20.050  53.100  1.00  0.00     0.212 HD
ENDBRANCH  18  19
BRANCH  18  21
HETATM   21  N7  UNL     1      13.189  22.040  54.456  1.00  0.00    -0.034 N 
ATOM     22  H72 UNL     1      13.335  21.982  55.463  1.00  0.00     0.281 HD
ATOM     23  H71 UNL     1      12.987  23.038  54.394  1.00  0.00     0.281 HD
BRANCH  21  24
HETATM   24  C7  UNL     1      12.063  21.221  54.013  1.00  0.00     0.334 C 
BRANCH  24  25
HETATM   25  C8  UNL     1      11.511  20.421  55.129  1.00  0.00     0.257 C 
HETATM   26  N8  UNL     1      10.211  20.654  55.622  1.00  0.00    -0.061 NA
HETATM   27  O2  UNL     1      12.235  19.527  55.626  1.00  0.00    -0.275 OA
ENDBRANCH  24  25
ENDBRANCH  21  24
ENDBRANCH  18  21
ENDBRANCH  16  18
ENDBRANCH  10  11
ENDBRANCH   5  10
BRANCH   5  28
HETATM   28  C9  UNL     1      17.773  22.682  52.561  1.00  0.00     0.195 C 
BRANCH  28  29
HETATM   29  N9  UNL     1      17.708  22.998  51.156  1.00  0.00    -0.323 N 
HETATM   30  C10 UNL     1      18.572  23.723  50.433  1.00  0.00     0.185 A 
HETATM   31  N10 UNL     1      18.146  23.819  49.163  1.00  0.00    -0.346 N 
HETATM   32  C11 UNL     1      16.993  23.143  49.077  1.00  0.00     0.123 A 
ATOM     33  H10 UNL     1      18.614  24.314  48.404  1.00  0.00     0.167 HD
HETATM   34  C12 UNL     1      16.137  22.911  48.039  1.00  0.00     0.148 A 
HETATM   35  C19 UNL     1      16.721  22.630  50.324  1.00  0.00     0.155 A 
HETATM   36  N12 UNL     1      15.021  22.153  48.305  1.00  0.00    -0.175 N 
HETATM   37  C18 UNL     1      14.746  21.649  49.500  1.00  0.00     0.679 A 
ATOM     38  H12 UNL     1      14.370  21.969  47.541  1.00  0.00     0.186 HD
HETATM   39  N14 UNL     1      15.588  21.881  50.519  1.00  0.00    -0.174 N 
ATOM     40  H14 UNL     1      15.386  21.498  51.442  1.00  0.00     0.186 HD
BRANCH  34  41
HETATM   41  N11 UNL     1      16.261  23.325  46.839  1.00  0.00    -0.368 N 
ATOM     42  H11 UNL     1      17.169  23.154  46.405  1.00  0.00     0.161 HD
BRANCH  41  43
HETATM   43  C13 UNL     1      15.309  23.992  46.023  1.00  0.00     0.186 C 
BRANCH  43  44
HETATM   44  C14 UNL     1      15.863  24.191  44.639  1.00  0.00     0.070 A 
HETATM   45  C15 UNL     1      17.181  24.357  44.301  1.00  0.00     0.036 A 
HETATM   46  C16 UNL     1      17.259  24.512  42.921  1.00  0.00     0.027 A 
HETATM   47  C17 UNL     1      15.950  24.428  42.495  1.00  0.00     0.142 A 
HETATM   48  O3  UNL     1      15.168  24.239  43.538  1.00  0.00    -0.325 OA
ENDBRANCH  43  44
ENDBRANCH  41  43
ENDBRANCH  34  41
BRANCH  37  49
HETATM   49  N13 UNL     1      13.668  20.929  49.691  1.00  0.00    -0.234 N 
ATOM     50 2H13 UNL     1      13.232  20.444  48.907  1.00  0.00     0.174 HD
ATOM     51 1H13 UNL     1      13.252  20.849  50.619  1.00  0.00     0.174 HD
ENDBRANCH  37  49
ENDBRANCH  28  29
ENDBRANCH   5  28
ENDBRANCH   3   5
TORSDOF 15
ENDMDL
MODEL 4
REMARK VINA RESULT: -8.285339794      1.578      1.976
REMARK  15 active torsions:
REMARK  status: ('A' for Active; 'I' for Inactive)
REMARK    1  A    between atoms: N2_3  and  C2_5 
REMARK    2  A    between atoms: C2_5  and  N3_6 
REMARK    3  A    between atoms: C2_5  and  C3_10 
REMARK    4  A    between atoms: C2_5  and  C9_28 
REMARK    5  A    between atoms: C3_10  and  N4_11 
REMARK    6  A    between atoms: C5_17  and  C6_18 
REMARK    7  A    between atoms: C6_18  and  O1_19 
REMARK    8  A    between atoms: C6_18  and  N7_21 
REMARK    9  A    between atoms: N7_21  and  C7_24 
REMARK   10  A    between atoms: C7_24  and  C8_25 
REMARK   11  A    between atoms: C9_28  and  N9_29 
REMARK   12  A    between atoms: C12_34  and  N11_35 
REMARK   13  A    between atoms: N11_35  and  C13_37 
REMARK   14  A    between atoms: C13_37  and  C14_38 
REMARK   15  A    between atoms: C18_45  and  N13_46 
ROOT
HETATM    1  N1  UNL     1      21.104  18.619  52.534  1.00  0.00    -0.172 NA
HETATM    2  C1  UNL     1      20.324  19.372  52.940  1.00  0.00     0.179 C 
HETATM    3  N2  UNL     1      19.364  20.304  53.429  1.00  0.00    -0.292 N 
ATOM      4  H2  UNL     1      19.245  20.431  54.434  1.00  0.00     0.174 HD
ENDROOT
BRANCH   3   5
HETATM    5  C2  UNL     1      18.566  21.065  52.514  1.00  0.00     0.236 C 
BRANCH   5   6
HETATM    6  N3  UNL     1      18.463  22.399  53.116  1.00  0.00    -0.049 N 
ATOM      7  H33 UNL     1      18.912  22.476  54.029  1.00  0.00     0.277 HD
ATOM      8  H32 UNL     1      19.028  23.108  52.648  1.00  0.00     0.277 HD
ATOM      9  H31 UNL     1      17.464  22.607  53.128  1.00  0.00     0.277 HD
ENDBRANCH   5   6
BRANCH   5  10
HETATM   10  C3  UNL     1      17.192  20.507  52.342  1.00  0.00     0.195 C 
BRANCH  10  11
HETATM   11  N4  UNL     1      16.207  20.905  53.303  1.00  0.00    -0.323 N 
HETATM   12  C4  UNL     1      16.445  20.797  54.651  1.00  0.00     0.201 A 
HETATM   13  N5  UNL     1      15.372  21.245  55.300  1.00  0.00    -0.295 N 
HETATM   14  N6  UNL     1      14.485  21.621  54.440  1.00  0.00    -0.284 N 
ATOM     15  H5  UNL     1      15.268  21.284  56.314  1.00  0.00     0.187 HD
HETATM   16  C5  UNL     1      15.006  21.408  53.189  1.00  0.00     0.156 A 
ATOM     17  H6  UNL     1      13.565  22.007  54.652  1.00  0.00     0.188 HD
BRANCH  16  18
HETATM   18  C6  UNL     1      14.212  21.717  51.975  1.00  0.00     0.389 C 
BRANCH  18  19
HETATM   19  O1  UNL     1      12.873  21.940  52.372  1.00  0.00    -0.364 OA
ATOM     20  H1  UNL     1      12.311  21.744  51.631  1.00  0.00     0.212 HD
ENDBRANCH  18  19
BRANCH  18  21
HETATM   21  N7  UNL     1      14.620  22.976  51.355  1.00  0.00    -0.034 N 
ATOM     22  H72 UNL     1      15.298  23.482  51.924  1.00  0.00     0.281 HD
ATOM     23  H71 UNL     1      15.202  22.827  50.531  1.00  0.00     0.281 HD
BRANCH  21  24
HETATM   24  C7  UNL     1      13.438  23.782  51.058  1.00  0.00     0.334 C 
BRANCH  24  25
HETATM   25  C8  UNL     1      13.810  25.171  50.712  1.00  0.00     0.257 C 
HETATM   26  N8  UNL     1      15.013  25.460  50.037  1.00  0.00    -0.061 NA
HETATM   27  O2  UNL     1      13.021  26.089  51.037  1.00  0.00    -0.275 OA
ENDBRANCH  24  25
ENDBRANCH  21  24
ENDBRANCH  18  21
ENDBRANCH  16  18
ENDBRANCH  10  11
ENDBRANCH   5  10
BRANCH   5  28
HETATM   28  C9  UNL     1      19.220  21.197  51.154  1.00  0.00     0.195 C 
BRANCH  28  29
HETATM   29  N9  UNL     1      18.528  22.113  50.283  1.00  0.00    -0.323 N 
HETATM   30  C10 UNL     1      18.800  23.406  50.064  1.00  0.00     0.185 A 
HETATM   31  N10 UNL     1      17.906  23.928  49.207  1.00  0.00    -0.346 N 
HETATM   32  C11 UNL     1      17.054  22.951  48.877  1.00  0.00     0.123 A 
ATOM     33  H10 UNL     1      17.882  24.891  48.871  1.00  0.00     0.167 HD
HETATM   34  C12 UNL     1      15.966  22.917  48.052  1.00  0.00     0.148 A 
HETATM   35  C19 UNL     1      17.445  21.816  49.550  1.00  0.00     0.155 A 
HETATM   36  N12 UNL     1      15.305  21.717  47.935  1.00  0.00    -0.175 N 
HETATM   37  C18 UNL     1      15.670  20.614  48.575  1.00  0.00     0.679 A 
ATOM     38  H12 UNL     1      14.490  21.673  47.323  1.00  0.00     0.186 HD
HETATM   39  N14 UNL     1      16.739  20.651  49.386  1.00  0.00    -0.174 N 
ATOM     40  H14 UNL     1      17.028  19.809  49.882  1.00  0.00     0.186 HD
BRANCH  34  41
HETATM   41  N11 UNL     1      15.492  23.888  47.374  1.00  0.00    -0.368 N 
ATOM     42  H11 UNL     1      15.676  24.819  47.748  1.00  0.00     0.161 HD
BRANCH  41  43
HETATM   43  C13 UNL     1      14.742  23.850  46.168  1.00  0.00     0.186 C 
BRANCH  43  44
HETATM   44  C14 UNL     1      15.601  24.278  45.011  1.00  0.00     0.070 A 
HETATM   45  C15 UNL     1      15.168  24.752  43.800  1.00  0.00     0.036 A 
HETATM   46  C16 UNL     1      16.284  25.029  43.017  1.00  0.00     0.027 A 
HETATM   47  C17 UNL     1      17.354  24.698  43.822  1.00  0.00     0.142 A 
HETATM   48  O3  UNL     1      16.904  24.263  44.981  1.00  0.00    -0.325 OA
ENDBRANCH  43  44
ENDBRANCH  41  43
ENDBRANCH  34  41
BRANCH  37  49
HETATM   49  N13 UNL     1      15.003  19.498  48.418  1.00  0.00    -0.234 N 
ATOM     50 2H13 UNL     1      14.113  19.500  47.920  1.00  0.00     0.174 HD
ATOM     51 1H13 UNL     1      15.362  18.619  48.793  1.00  0.00     0.174 HD
ENDBRANCH  37  49
ENDBRANCH  28  29
ENDBRANCH   5  28
ENDBRANCH   3   5
TORSDOF 15
ENDMDL
MODEL 5
REMARK VINA RESULT: -8.213014595      1.767      2.448
REMARK  15 active torsions:
REMARK  status: ('A' for Active; 'I' for Inactive)
REMARK    1  A    between atoms: N2_3  and  C2_5 
REMARK    2  A    between atoms: C2_5  and  N3_6 
REMARK    3  A    between atoms: C2_5  and  C3_10 
REMARK    4  A    between atoms: C2_5  and  C9_28 
REMARK    5  A    between atoms: C3_10  and  N4_11 
REMARK    6  A    between atoms: C5_17  and  C6_18 
REMARK    7  A    between atoms: C6_18  and  O1_19 
REMARK    8  A    between atoms: C6_18  and  N7_21 
REMARK    9  A    between atoms: N7_21  and  C7_24 
REMARK   10  A    between atoms: C7_24  and  C8_25 
REMARK   11  A    between atoms: C9_28  and  N9_29 
REMARK   12  A    between atoms: C12_34  and  N11_35 
REMARK   13  A    between atoms: N11_35  and  C13_37 
REMARK   14  A    between atoms: C13_37  and  C14_38 
REMARK   15  A    between atoms: C18_45  and  N13_46 
ROOT
HETATM    1  N1  UNL     1      20.470  22.658  49.596  1.00  0.00    -0.172 NA
HETATM    2  C1  UNL     1      19.571  22.023  49.955  1.00  0.00     0.179 C 
HETATM    3  N2  UNL     1      18.469  21.243  50.409  1.00  0.00    -0.292 N 
ATOM      4  H2  UNL     1      18.043  20.555  49.788  1.00  0.00     0.174 HD
ENDROOT
BRANCH   3   5
HETATM    5  C2  UNL     1      17.957  21.421  51.736  1.00  0.00     0.236 C 
BRANCH   5   6
HETATM    6  N3  UNL     1      18.939  22.280  52.410  1.00  0.00    -0.049 N 
ATOM      7  H33 UNL     1      19.908  22.012  52.239  1.00  0.00     0.277 HD
ATOM      8  H32 UNL     1      19.007  23.219  52.016  1.00  0.00     0.277 HD
ATOM      9  H31 UNL     1      18.673  22.263  53.395  1.00  0.00     0.277 HD
ENDBRANCH   5   6
BRANCH   5  10
HETATM   10  C3  UNL     1      17.843  20.139  52.490  1.00  0.00     0.195 C 
BRANCH  10  11
HETATM   11  N4  UNL     1      18.290  20.145  53.851  1.00  0.00    -0.323 N 
HETATM   12  C4  UNL     1      19.628  20.163  54.158  1.00  0.00     0.201 A 
HETATM   13  N5  UNL     1      19.751  20.175  55.484  1.00  0.00    -0.295 N 
HETATM   14  N6  UNL     1      18.574  20.164  56.017  1.00  0.00    -0.284 N 
ATOM     15  H5  UNL     1      20.633  20.191  55.997  1.00  0.00     0.187 HD
HETATM   16  C5  UNL     1      17.659  20.145  54.995  1.00  0.00     0.156 A 
ATOM     17  H6  UNL     1      18.363  20.170  57.015  1.00  0.00     0.188 HD
BRANCH  16  18
HETATM   18  C6  UNL     1      16.204  20.100  55.282  1.00  0.00     0.389 C 
BRANCH  18  19
HETATM   19  O1  UNL     1      16.033  20.136  56.685  1.00  0.00    -0.364 OA
ATOM     20  H1  UNL     1      15.430  20.841  56.890  1.00  0.00     0.212 HD
ENDBRANCH  18  19
BRANCH  18  21
HETATM   21  N7  UNL     1      15.511  21.293  54.802  1.00  0.00    -0.034 N 
ATOM     22  H72 UNL     1      15.779  22.129  55.322  1.00  0.00     0.281 HD
ATOM     23  H71 UNL     1      15.839  21.583  53.881  1.00  0.00     0.281 HD
BRANCH  21  24
HETATM   24  C7  UNL     1      14.068  21.067  54.829  1.00  0.00     0.334 C 
BRANCH  24  25
HETATM   25  C8  UNL     1      13.413  21.644  53.635  1.00  0.00     0.257 C 
HETATM   26  N8  UNL     1      13.451  20.987  52.389  1.00  0.00    -0.061 NA
HETATM   27  O2  UNL     1      12.819  22.740  53.764  1.00  0.00    -0.275 OA
ENDBRANCH  24  25
ENDBRANCH  21  24
ENDBRANCH  18  21
ENDBRANCH  16  18
ENDBRANCH  10  11
ENDBRANCH   5  10
BRANCH   5  28
HETATM   28  C9  UNL     1      16.615  22.123  51.744  1.00  0.00     0.195 C 
BRANCH  28  29
HETATM   29  N9  UNL     1      16.299  22.747  50.484  1.00  0.00    -0.323 N 
HETATM   30  C10 UNL     1      16.630  23.976  50.066  1.00  0.00     0.185 A 
HETATM   31  N10 UNL     1      16.122  24.200  48.843  1.00  0.00    -0.346 N 
HETATM   32  C11 UNL     1      15.460  23.096  48.477  1.00  0.00     0.123 A 
ATOM     33  H10 UNL     1      16.223  25.054  48.294  1.00  0.00     0.167 HD
HETATM   34  C12 UNL     1      14.762  22.772  47.349  1.00  0.00     0.148 A 
HETATM   35  C19 UNL     1      15.572  22.188  49.504  1.00  0.00     0.155 A 
HETATM   36  N12 UNL     1      14.198  21.519  47.299  1.00  0.00    -0.175 N 
HETATM   37  C18 UNL     1      14.299  20.631  48.279  1.00  0.00     0.679 A 
ATOM     38  H12 UNL     1      13.673  21.259  46.464  1.00  0.00     0.186 HD
HETATM   39  N14 UNL     1      14.984  20.954  49.387  1.00  0.00    -0.174 N 
ATOM     40  H14 UNL     1      15.067  20.278  50.146  1.00  0.00     0.186 HD
BRANCH  34  41
HETATM   41  N11 UNL     1      14.575  23.513  46.327  1.00  0.00    -0.368 N 
ATOM     42  H11 UNL     1      13.660  23.429  45.884  1.00  0.00     0.161 HD
BRANCH  41  43
HETATM   43  C13 UNL     1      15.466  24.439  45.722  1.00  0.00     0.186 C 
BRANCH  43  44
HETATM   44  C14 UNL     1      15.888  23.941  44.368  1.00  0.00     0.070 A 
HETATM   45  C15 UNL     1      15.476  24.424  43.153  1.00  0.00     0.036 A 
HETATM   46  C16 UNL     1      16.102  23.683  42.156  1.00  0.00     0.027 A 
HETATM   47  C17 UNL     1      16.876  22.772  42.845  1.00  0.00     0.142 A 
HETATM   48  O3  UNL     1      16.718  22.963  44.139  1.00  0.00    -0.325 OA
ENDBRANCH  43  44
ENDBRANCH  41  43
ENDBRANCH  34  41
BRANCH  37  49
HETATM   49  N13 UNL     1      13.743  19.450  48.171  1.00  0.00    -0.234 N 
ATOM     50 2H13 UNL     1      13.567  19.050  47.249  1.00  0.00     0.174 HD
ATOM     51 1H13 UNL     1      13.478  18.921  49.003  1.00  0.00     0.174 HD
ENDBRANCH  37  49
ENDBRANCH  28  29
ENDBRANCH   5  28
ENDBRANCH   3   5
TORSDOF 15
ENDMDL
