MODEL 1
REMARK VINA RESULT: -8.164748628      0.000      0.000
REMARK  12 active torsions:
REMARK  status: ('A' for Active; 'I' for Inactive)
REMARK    1  A    between atoms: C1_4  and  C2_5 
REMARK    2  A    between atoms: C2_5  and  C3_6 
REMARK       I    between atoms: C3_6  and  N2_8 
REMARK    3  A    between atoms: N2_8  and  C4_10 
REMARK    4  A    between atoms: C4_10  and  C5_11 
REMARK    5  A    between atoms: C4_10  and  N4_24 
REMARK       I    between atoms: C5_11  and  N3_13 
REMARK    6  A    between atoms: N3_13  and  C6_15 
REMARK    7  A    between atoms: C6_15  and  C7_16 
REMARK    8  A    between atoms: C6_15  and  C8_19 
REMARK    9  A    between atoms: C8_19  and  C9_21 
REMARK   10  A    between atoms: C10_25  and  N5_26 
REMARK   11  A    between atoms: C12_32  and  O8_33 
REMARK   12  A    between atoms: C13_35  and  N7_36 
ROOT
HETATM    1  C4  UNL     1      14.248  22.771  50.427  1.00  0.00     0.306 C 
ENDROOT
BRANCH   1   2
HETATM    2  N2  UNL     1      13.871  21.402  50.128  1.00  0.00    -0.331 N 
HETATM    3  C3  UNL     1      13.777  20.922  48.792  1.00  0.00     0.224 C 
HETATM    4  O1  UNL     1      14.017  21.658  47.805  1.00  0.00    -0.273 OA
ATOM      5  H2  UNL     1      13.667  20.765  50.898  1.00  0.00     0.165 HD
BRANCH   3   6
HETATM    6  C2  UNL     1      13.384  19.503  48.558  1.00  0.00     0.146 C 
BRANCH   6   7
HETATM    7  C1  UNL     1      14.554  18.685  48.139  1.00  0.00     0.062 C 
HETATM    8  N1  UNL     1      15.747  19.050  48.317  1.00  0.00    -0.411 N 
ATOM      9  H12 UNL     1      15.899  19.950  48.771  1.00  0.00     0.155 HD
ATOM     10  H11 UNL     1      16.549  18.489  48.030  1.00  0.00     0.155 HD
ENDBRANCH   6   7
ENDBRANCH   3   6
ENDBRANCH   1   2
BRANCH   1  11
HETATM   11  C5  UNL     1      15.645  22.826  50.925  1.00  0.00     0.262 C 
HETATM   12  O2  UNL     1      16.245  23.923  51.007  1.00  0.00    -0.269 OA
HETATM   13  N3  UNL     1      16.318  21.647  51.314  1.00  0.00    -0.337 N 
ATOM     14  H3  UNL     1      15.828  20.755  51.248  1.00  0.00     0.164 HD
BRANCH  13  15
HETATM   15  C6  UNL     1      17.715  21.662  51.818  1.00  0.00     0.267 C 
BRANCH  15  16
HETATM   16  C7  UNL     1      18.583  21.142  50.738  1.00  0.00     0.205 C 
HETATM   17  O3  UNL     1      18.051  20.767  49.669  1.00  0.00    -0.646 OA
HETATM   18  O4  UNL     1      19.940  21.060  50.874  1.00  0.00    -0.646 OA
ENDBRANCH  15  16
BRANCH  15  19
HETATM   19  C8  UNL     1      17.786  20.760  52.978  1.00  0.00     0.258 C 
HETATM   20  O5  UNL     1      18.060  19.531  52.778  1.00  0.00    -0.283 OA
BRANCH  19  21
HETATM   21  C9  UNL     1      17.554  21.232  54.324  1.00  0.00     0.249 C 
HETATM   22  O6  UNL     1      17.085  22.366  54.559  1.00  0.00    -0.642 OA
HETATM   23  O7  UNL     1      17.878  20.353  55.382  1.00  0.00    -0.642 OA
ENDBRANCH  19  21
ENDBRANCH  15  19
ENDBRANCH  13  15
ENDBRANCH   1  11
BRANCH   1  24
HETATM   24  N4  UNL     1      13.313  23.233  51.447  1.00  0.00    -0.116 N 
HETATM   25  C10 UNL     1      12.871  24.507  51.355  1.00  0.00     0.683 A 
HETATM   26  N6  UNL     1      12.008  24.954  52.277  1.00  0.00    -0.188 N 
HETATM   27  C11 UNL     1      11.552  24.209  53.293  1.00  0.00     0.100 A 
ATOM     28  H6  UNL     1      11.679  25.916  52.202  1.00  0.00     0.184 HD
HETATM   29  C12 UNL     1      10.665  24.654  54.247  1.00  0.00     0.127 A 
HETATM   30  C16 UNL     1      12.008  22.894  53.389  1.00  0.00     0.063 A 
HETATM   31  C13 UNL     1      10.208  23.851  55.297  1.00  0.00     0.138 A 
HETATM   32  C14 UNL     1      10.691  22.564  55.341  1.00  0.00     0.040 A 
HETATM   33  C15 UNL     1      11.578  22.080  54.409  1.00  0.00     0.022 A 
HETATM   34  C17 UNL     1      12.901  22.443  52.429  1.00  0.00     0.276 A 
HETATM   35  O11 UNL     1      13.317  21.247  52.514  1.00  0.00    -0.266 OA
BRANCH  25  36
HETATM   36  N5  UNL     1      13.284  25.266  50.386  1.00  0.00    -0.234 N 
ATOM     37  H52 UNL     1      12.637  25.658  49.702  1.00  0.00     0.174 HD
ATOM     38  H51 UNL     1      14.277  25.480  50.298  1.00  0.00     0.174 HD
ENDBRANCH  25  36
BRANCH  29  39
HETATM   39  O8  UNL     1      10.196  25.934  54.189  1.00  0.00    -0.356 OA
ATOM     40  H8  UNL     1       9.943  26.380  54.990  1.00  0.00     0.218 HD
ENDBRANCH  29  39
BRANCH  31  41
HETATM   41  N7  UNL     1       9.290  24.374  56.248  1.00  0.00    -0.113 N 
HETATM   42  O9  UNL     1       9.618  25.066  57.231  1.00  0.00    -0.532 OA
HETATM   43  O10 UNL     1       7.953  24.110  56.090  1.00  0.00    -0.532 OA
ENDBRANCH  31  41
ENDBRANCH   1  24
TORSDOF 12
ENDMDL
MODEL 2
REMARK VINA RESULT: -8.133365285      0.932      1.265
REMARK  12 active torsions:
REMARK  status: ('A' for Active; 'I' for Inactive)
REMARK    1  A    between atoms: C1_4  and  C2_5 
REMARK    2  A    between atoms: C2_5  and  C3_6 
REMARK       I    between atoms: C3_6  and  N2_8 
REMARK    3  A    between atoms: N2_8  and  C4_10 
REMARK    4  A    between atoms: C4_10  and  C5_11 
REMARK    5  A    between atoms: C4_10  and  N4_24 
REMARK       I    between atoms: C5_11  and  N3_13 
REMARK    6  A    between atoms: N3_13  and  C6_15 
REMARK    7  A    between atoms: C6_15  and  C7_16 
REMARK    8  A    between atoms: C6_15  and  C8_19 
REMARK    9  A    between atoms: C8_19  and  C9_21 
REMARK   10  A    between atoms: C10_25  and  N5_26 
REMARK   11  A    between atoms: C12_32  and  O8_33 
REMARK   12  A    between atoms: C13_35  and  N7_36 
ROOT
HETATM    1  C4  UNL     1      14.995  22.548  50.326  1.00  0.00     0.306 C 
ENDROOT
BRANCH   1   2
HETATM    2  N2  UNL     1      14.715  21.167  49.978  1.00  0.00    -0.331 N 
HETATM    3  C3  UNL     1      14.148  20.808  48.724  1.00  0.00     0.224 C 
HETATM    4  O1  UNL     1      13.862  21.667  47.855  1.00  0.00    -0.273 OA
ATOM      5  H2  UNL     1      14.932  20.433  50.651  1.00  0.00     0.165 HD
BRANCH   3   6
HETATM    6  C2  UNL     1      13.887  19.369  48.432  1.00  0.00     0.146 C 
BRANCH   6   7
HETATM    7  C1  UNL     1      15.110  18.696  47.917  1.00  0.00     0.062 C 
HETATM    8  N1  UNL     1      15.399  17.499  48.181  1.00  0.00    -0.411 N 
ATOM      9  H12 UNL     1      14.754  16.981  48.777  1.00  0.00     0.155 HD
ATOM     10  H11 UNL     1      16.237  17.038  47.827  1.00  0.00     0.155 HD
ENDBRANCH   6   7
ENDBRANCH   3   6
ENDBRANCH   1   2
BRANCH   1  11
HETATM   11  C5  UNL     1      16.342  22.664  50.939  1.00  0.00     0.262 C 
HETATM   12  O2  UNL     1      16.898  23.784  51.037  1.00  0.00    -0.269 OA
HETATM   13  N3  UNL     1      17.017  21.520  51.419  1.00  0.00    -0.337 N 
ATOM     14  H3  UNL     1      16.563  20.611  51.338  1.00  0.00     0.164 HD
BRANCH  13  15
HETATM   15  C6  UNL     1      18.364  21.597  52.038  1.00  0.00     0.267 C 
BRANCH  15  16
HETATM   16  C7  UNL     1      19.170  20.483  51.490  1.00  0.00     0.205 C 
HETATM   17  O3  UNL     1      19.587  20.566  50.313  1.00  0.00    -0.646 OA
HETATM   18  O4  UNL     1      19.469  19.373  52.229  1.00  0.00    -0.646 OA
ENDBRANCH  15  16
BRANCH  15  19
HETATM   19  C8  UNL     1      18.205  21.417  53.489  1.00  0.00     0.258 C 
HETATM   20  O5  UNL     1      19.227  21.568  54.237  1.00  0.00    -0.283 OA
BRANCH  19  21
HETATM   21  C9  UNL     1      16.931  21.076  54.079  1.00  0.00     0.249 C 
HETATM   22  O6  UNL     1      16.521  19.897  54.141  1.00  0.00    -0.642 OA
HETATM   23  O7  UNL     1      16.151  22.137  54.592  1.00  0.00    -0.642 OA
ENDBRANCH  19  21
ENDBRANCH  15  19
ENDBRANCH  13  15
ENDBRANCH   1  11
BRANCH   1  24
HETATM   24  N4  UNL     1      13.957  22.943  51.271  1.00  0.00    -0.116 N 
HETATM   25  C10 UNL     1      13.430  24.181  51.135  1.00  0.00     0.683 A 
HETATM   26  N6  UNL     1      12.472  24.566  51.989  1.00  0.00    -0.188 N 
HETATM   27  C11 UNL     1      12.000  23.794  52.977  1.00  0.00     0.100 A 
ATOM     28  H6  UNL     1      12.079  25.501  51.881  1.00  0.00     0.184 HD
HETATM   29  C12 UNL     1      11.016  24.176  53.860  1.00  0.00     0.127 A 
HETATM   30  C16 UNL     1      12.544  22.517  53.118  1.00  0.00     0.063 A 
HETATM   31  C13 UNL     1      10.544  23.345  54.883  1.00  0.00     0.138 A 
HETATM   32  C14 UNL     1      11.117  22.098  54.974  1.00  0.00     0.040 A 
HETATM   33  C15 UNL     1      12.102  21.678  54.112  1.00  0.00     0.022 A 
HETATM   34  C17 UNL     1      13.535  22.129  52.229  1.00  0.00     0.276 A 
HETATM   35  O11 UNL     1      14.031  20.968  52.356  1.00  0.00    -0.266 OA
BRANCH  25  36
HETATM   36  N5  UNL     1      13.855  24.964  50.192  1.00  0.00    -0.234 N 
ATOM     37  H52 UNL     1      14.066  25.946  50.367  1.00  0.00     0.174 HD
ATOM     38  H51 UNL     1      13.982  24.598  49.248  1.00  0.00     0.174 HD
ENDBRANCH  25  36
BRANCH  29  39
HETATM   39  O8  UNL     1      10.458  25.417  53.756  1.00  0.00    -0.356 OA
ATOM     40  H8  UNL     1       9.552  25.505  53.484  1.00  0.00     0.218 HD
ENDBRANCH  29  39
BRANCH  31  41
HETATM   41  N7  UNL     1       9.524  23.803  55.760  1.00  0.00    -0.113 N 
HETATM   42  O9  UNL     1       8.431  23.229  55.924  1.00  0.00    -0.532 OA
HETATM   43  O10 UNL     1       9.739  24.951  56.480  1.00  0.00    -0.532 OA
ENDBRANCH  31  41
ENDBRANCH   1  24
TORSDOF 12
ENDMDL
MODEL 3
REMARK VINA RESULT: -7.847905290      4.093      6.756
REMARK  12 active torsions:
REMARK  status: ('A' for Active; 'I' for Inactive)
REMARK    1  A    between atoms: C1_4  and  C2_5 
REMARK    2  A    between atoms: C2_5  and  C3_6 
REMARK       I    between atoms: C3_6  and  N2_8 
REMARK    3  A    between atoms: N2_8  and  C4_10 
REMARK    4  A    between atoms: C4_10  and  C5_11 
REMARK    5  A    between atoms: C4_10  and  N4_24 
REMARK       I    between atoms: C5_11  and  N3_13 
REMARK    6  A    between atoms: N3_13  and  C6_15 
REMARK    7  A    between atoms: C6_15  and  C7_16 
REMARK    8  A    between atoms: C6_15  and  C8_19 
REMARK    9  A    between atoms: C8_19  and  C9_21 
REMARK   10  A    between atoms: C10_25  and  N5_26 
REMARK   11  A    between atoms: C12_32  and  O8_33 
REMARK   12  A    between atoms: C13_35  and  N7_36 
ROOT
HETATM    1  C4  UNL     1      14.961  21.930  49.460  1.00  0.00     0.306 C 
ENDROOT
BRANCH   1   2
HETATM    2  N2  UNL     1      15.684  22.224  48.236  1.00  0.00    -0.331 N 
HETATM    3  C3  UNL     1      15.189  23.147  47.274  1.00  0.00     0.224 C 
HETATM    4  O1  UNL     1      14.103  23.755  47.435  1.00  0.00    -0.273 OA
ATOM      5  H2  UNL     1      16.572  21.755  48.061  1.00  0.00     0.165 HD
BRANCH   3   6
HETATM    6  C2  UNL     1      15.984  23.401  46.038  1.00  0.00     0.146 C 
BRANCH   6   7
HETATM    7  C1  UNL     1      15.459  24.581  45.298  1.00  0.00     0.062 C 
HETATM    8  N1  UNL     1      14.526  24.504  44.455  1.00  0.00    -0.411 N 
ATOM      9  H12 UNL     1      14.122  23.583  44.284  1.00  0.00     0.155 HD
ATOM     10  H11 UNL     1      14.167  25.312  43.948  1.00  0.00     0.155 HD
ENDBRANCH   6   7
ENDBRANCH   3   6
ENDBRANCH   1   2
BRANCH   1  11
HETATM   11  C5  UNL     1      15.888  21.924  50.620  1.00  0.00     0.262 C 
HETATM   12  O2  UNL     1      15.463  22.179  51.771  1.00  0.00    -0.269 OA
HETATM   13  N3  UNL     1      17.259  21.633  50.445  1.00  0.00    -0.337 N 
ATOM     14  H3  UNL     1      17.603  21.426  49.508  1.00  0.00     0.164 HD
BRANCH  13  15
HETATM   15  C6  UNL     1      18.216  21.617  51.580  1.00  0.00     0.267 C 
BRANCH  15  16
HETATM   16  C7  UNL     1      18.823  22.964  51.670  1.00  0.00     0.205 C 
HETATM   17  O3  UNL     1      18.908  23.510  52.793  1.00  0.00    -0.646 OA
HETATM   18  O4  UNL     1      19.289  23.624  50.568  1.00  0.00    -0.646 OA
ENDBRANCH  15  16
BRANCH  15  19
HETATM   19  C8  UNL     1      19.263  20.629  51.274  1.00  0.00     0.258 C 
HETATM   20  O5  UNL     1      19.690  20.547  50.075  1.00  0.00    -0.283 OA
BRANCH  19  21
HETATM   21  C9  UNL     1      19.809  19.760  52.289  1.00  0.00     0.249 C 
HETATM   22  O6  UNL     1      19.296  19.658  53.424  1.00  0.00    -0.642 OA
HETATM   23  O7  UNL     1      20.962  19.014  51.952  1.00  0.00    -0.642 OA
ENDBRANCH  19  21
ENDBRANCH  15  19
ENDBRANCH  13  15
ENDBRANCH   1  11
BRANCH   1  24
HETATM   24  N4  UNL     1      14.360  20.615  49.268  1.00  0.00    -0.116 N 
HETATM   25  C10 UNL     1      13.191  20.367  49.899  1.00  0.00     0.683 A 
HETATM   26  N6  UNL     1      12.616  19.168  49.734  1.00  0.00    -0.188 N 
HETATM   27  C11 UNL     1      13.134  18.192  48.976  1.00  0.00     0.100 A 
ATOM     28  H6  UNL     1      11.734  18.987  50.213  1.00  0.00     0.184 HD
HETATM   29  C12 UNL     1      12.554  16.956  48.797  1.00  0.00     0.127 A 
HETATM   30  C16 UNL     1      14.341  18.448  48.325  1.00  0.00     0.063 A 
HETATM   31  C13 UNL     1      13.120  15.956  47.998  1.00  0.00     0.138 A 
HETATM   32  C14 UNL     1      14.311  16.265  47.381  1.00  0.00     0.040 A 
HETATM   33  C15 UNL     1      14.922  17.486  47.533  1.00  0.00     0.022 A 
HETATM   34  C17 UNL     1      14.926  19.692  48.503  1.00  0.00     0.276 A 
HETATM   35  O11 UNL     1      16.024  19.926  47.911  1.00  0.00    -0.266 OA
BRANCH  25  36
HETATM   36  N5  UNL     1      12.651  21.283  50.642  1.00  0.00    -0.234 N 
ATOM     37  H52 UNL     1      12.469  22.221  50.287  1.00  0.00     0.174 HD
ATOM     38  H51 UNL     1      12.399  21.070  51.607  1.00  0.00     0.174 HD
ENDBRANCH  25  36
BRANCH  29  39
HETATM   39  O8  UNL     1      11.374  16.666  49.417  1.00  0.00    -0.356 OA
ATOM     40  H8  UNL     1      10.554  16.939  49.020  1.00  0.00     0.218 HD
ENDBRANCH  29  39
BRANCH  31  41
HETATM   41  N7  UNL     1      12.468  14.702  47.856  1.00  0.00    -0.113 N 
HETATM   42  O9  UNL     1      12.339  13.872  48.775  1.00  0.00    -0.532 OA
HETATM   43  O10 UNL     1      11.941  14.367  46.634  1.00  0.00    -0.532 OA
ENDBRANCH  31  41
ENDBRANCH   1  24
TORSDOF 12
ENDMDL
MODEL 4
REMARK VINA RESULT: -7.728505929      1.085      2.382
REMARK  12 active torsions:
REMARK  status: ('A' for Active; 'I' for Inactive)
REMARK    1  A    between atoms: C1_4  and  C2_5 
REMARK    2  A    between atoms: C2_5  and  C3_6 
REMARK       I    between atoms: C3_6  and  N2_8 
REMARK    3  A    between atoms: N2_8  and  C4_10 
REMARK    4  A    between atoms: C4_10  and  C5_11 
REMARK    5  A    between atoms: C4_10  and  N4_24 
REMARK       I    between atoms: C5_11  and  N3_13 
REMARK    6  A    between atoms: N3_13  and  C6_15 
REMARK    7  A    between atoms: C6_15  and  C7_16 
REMARK    8  A    between atoms: C6_15  and  C8_19 
REMARK    9  A    between atoms: C8_19  and  C9_21 
REMARK   10  A    between atoms: C10_25  and  N5_26 
REMARK   11  A    between atoms: C12_32  and  O8_33 
REMARK   12  A    between atoms: C13_35  and  N7_36 
ROOT
HETATM    1  C4  UNL     1      14.457  22.012  50.263  1.00  0.00     0.306 C 
ENDROOT
BRANCH   1   2
HETATM    2  N2  UNL     1      13.784  20.826  49.765  1.00  0.00    -0.331 N 
HETATM    3  C3  UNL     1      13.848  20.444  48.397  1.00  0.00     0.224 C 
HETATM    4  O1  UNL     1      14.491  21.112  47.551  1.00  0.00    -0.273 OA
ATOM      5  H2  UNL     1      13.250  20.251  50.415  1.00  0.00     0.165 HD
BRANCH   3   6
HETATM    6  C2  UNL     1      13.132  19.213  47.954  1.00  0.00     0.146 C 
BRANCH   6   7
HETATM    7  C1  UNL     1      14.072  18.069  47.812  1.00  0.00     0.062 C 
HETATM    8  N1  UNL     1      15.315  18.173  47.994  1.00  0.00    -0.411 N 
ATOM      9  H12 UNL     1      15.676  19.092  48.249  1.00  0.00     0.155 HD
ATOM     10  H11 UNL     1      15.959  17.388  47.896  1.00  0.00     0.155 HD
ENDBRANCH   6   7
ENDBRANCH   3   6
ENDBRANCH   1   2
BRANCH   1  11
HETATM   11  C5  UNL     1      15.764  21.650  50.868  1.00  0.00     0.262 C 
HETATM   12  O2  UNL     1      16.523  20.834  50.294  1.00  0.00    -0.269 OA
HETATM   13  N3  UNL     1      16.171  22.219  52.095  1.00  0.00    -0.337 N 
ATOM     14  H3  UNL     1      15.553  22.883  52.560  1.00  0.00     0.164 HD
BRANCH  13  15
HETATM   15  C6  UNL     1      17.471  21.883  52.730  1.00  0.00     0.267 C 
BRANCH  15  16
HETATM   16  C7  UNL     1      17.223  21.692  54.177  1.00  0.00     0.205 C 
HETATM   17  O3  UNL     1      16.426  22.464  54.755  1.00  0.00    -0.646 OA
HETATM   18  O4  UNL     1      17.837  20.704  54.894  1.00  0.00    -0.646 OA
ENDBRANCH  15  16
BRANCH  15  19
HETATM   19  C8  UNL     1      18.377  23.025  52.536  1.00  0.00     0.258 C 
HETATM   20  O5  UNL     1      19.136  23.372  53.501  1.00  0.00    -0.283 OA
BRANCH  19  21
HETATM   21  C9  UNL     1      18.424  23.756  51.291  1.00  0.00     0.249 C 
HETATM   22  O6  UNL     1      19.362  23.622  50.476  1.00  0.00    -0.642 OA
HETATM   23  O7  UNL     1      17.356  24.641  51.019  1.00  0.00    -0.642 OA
ENDBRANCH  19  21
ENDBRANCH  15  19
ENDBRANCH  13  15
ENDBRANCH   1  11
BRANCH   1  24
HETATM   24  N4  UNL     1      13.565  22.593  51.260  1.00  0.00    -0.116 N 
HETATM   25  C10 UNL     1      13.265  23.905  51.136  1.00  0.00     0.683 A 
HETATM   26  N6  UNL     1      12.444  24.462  52.037  1.00  0.00    -0.188 N 
HETATM   27  C11 UNL     1      11.898  23.791  53.061  1.00  0.00     0.100 A 
ATOM     28  H6  UNL     1      12.221  25.452  51.938  1.00  0.00     0.184 HD
HETATM   29  C12 UNL     1      11.052  24.350  53.993  1.00  0.00     0.127 A 
HETATM   30  C16 UNL     1      12.208  22.438  53.189  1.00  0.00     0.063 A 
HETATM   31  C13 UNL     1      10.498  23.622  55.052  1.00  0.00     0.138 A 
HETATM   32  C14 UNL     1      10.839  22.292  55.128  1.00  0.00     0.040 A 
HETATM   33  C15 UNL     1      11.679  21.696  54.218  1.00  0.00     0.022 A 
HETATM   34  C17 UNL     1      13.059  21.873  52.251  1.00  0.00     0.276 A 
HETATM   35  O11 UNL     1      13.342  20.641  52.366  1.00  0.00    -0.266 OA
BRANCH  25  36
HETATM   36  N5  UNL     1      13.769  24.595  50.160  1.00  0.00    -0.234 N 
ATOM     37  H52 UNL     1      13.471  24.450  49.195  1.00  0.00     0.174 HD
ATOM     38  H51 UNL     1      14.481  25.299  50.350  1.00  0.00     0.174 HD
ENDBRANCH  25  36
BRANCH  29  39
HETATM   39  O8  UNL     1      10.724  25.671  53.904  1.00  0.00    -0.356 OA
ATOM     40  H8  UNL     1      10.319  26.003  53.111  1.00  0.00     0.218 HD
ENDBRANCH  29  39
BRANCH  31  41
HETATM   41  N7  UNL     1       9.631  24.261  55.979  1.00  0.00    -0.113 N 
HETATM   42  O9  UNL     1       8.523  23.811  56.327  1.00  0.00    -0.532 OA
HETATM   43  O10 UNL     1      10.022  25.453  56.536  1.00  0.00    -0.532 OA
ENDBRANCH  31  41
ENDBRANCH   1  24
TORSDOF 12
ENDMDL
MODEL 5
REMARK VINA RESULT: -7.683839878      1.205      1.479
REMARK  12 active torsions:
REMARK  status: ('A' for Active; 'I' for Inactive)
REMARK    1  A    between atoms: C1_4  and  C2_5 
REMARK    2  A    between atoms: C2_5  and  C3_6 
REMARK       I    between atoms: C3_6  and  N2_8 
REMARK    3  A    between atoms: N2_8  and  C4_10 
REMARK    4  A    between atoms: C4_10  and  C5_11 
REMARK    5  A    between atoms: C4_10  and  N4_24 
REMARK       I    between atoms: C5_11  and  N3_13 
REMARK    6  A    between atoms: N3_13  and  C6_15 
REMARK    7  A    between atoms: C6_15  and  C7_16 
REMARK    8  A    between atoms: C6_15  and  C8_19 
REMARK    9  A    between atoms: C8_19  and  C9_21 
REMARK   10  A    between atoms: C10_25  and  N5_26 
REMARK   11  A    between atoms: C12_32  and  O8_33 
REMARK   12  A    between atoms: C13_35  and  N7_36 
ROOT
HETATM    1  C4  UNL     1      15.065  22.506  50.263  1.00  0.00     0.306 C 
ENDROOT
BRANCH   1   2
HETATM    2  N2  UNL     1      14.756  21.158  49.822  1.00  0.00    -0.331 N 
HETATM    3  C3  UNL     1      14.225  20.892  48.530  1.00  0.00     0.224 C 
HETATM    4  O1  UNL     1      13.999  21.810  47.704  1.00  0.00    -0.273 OA
ATOM      5  H2  UNL     1      14.924  20.379  50.458  1.00  0.00     0.165 HD
BRANCH   3   6
HETATM    6  C2  UNL     1      13.930  19.483  48.143  1.00  0.00     0.146 C 
BRANCH   6   7
HETATM    7  C1  UNL     1      15.185  18.719  47.907  1.00  0.00     0.062 C 
HETATM    8  N1  UNL     1      15.300  17.490  48.163  1.00  0.00    -0.411 N 
ATOM      9  H12 UNL     1      14.486  17.012  48.549  1.00  0.00     0.155 HD
ATOM     10  H11 UNL     1      16.160  16.967  48.001  1.00  0.00     0.155 HD
ENDBRANCH   6   7
ENDBRANCH   3   6
ENDBRANCH   1   2
BRANCH   1  11
HETATM   11  C5  UNL     1      16.404  22.547  50.902  1.00  0.00     0.262 C 
HETATM   12  O2  UNL     1      16.868  23.630  51.330  1.00  0.00    -0.269 OA
HETATM   13  N3  UNL     1      17.174  21.371  51.037  1.00  0.00    -0.337 N 
ATOM     14  H3  UNL     1      16.795  20.491  50.688  1.00  0.00     0.164 HD
BRANCH  13  15
HETATM   15  C6  UNL     1      18.517  21.372  51.670  1.00  0.00     0.267 C 
BRANCH  15  16
HETATM   16  C7  UNL     1      19.522  21.337  50.584  1.00  0.00     0.205 C 
HETATM   17  O3  UNL     1      19.857  20.228  50.112  1.00  0.00    -0.646 OA
HETATM   18  O4  UNL     1      20.091  22.475  50.086  1.00  0.00    -0.646 OA
ENDBRANCH  15  16
BRANCH  15  19
HETATM   19  C8  UNL     1      18.634  20.152  52.483  1.00  0.00     0.258 C 
HETATM   20  O5  UNL     1      17.676  19.310  52.459  1.00  0.00    -0.283 OA
BRANCH  19  21
HETATM   21  C9  UNL     1      19.796  19.889  53.300  1.00  0.00     0.249 C 
HETATM   22  O6  UNL     1      19.889  20.301  54.476  1.00  0.00    -0.642 OA
HETATM   23  O7  UNL     1      20.841  19.138  52.716  1.00  0.00    -0.642 OA
ENDBRANCH  19  21
ENDBRANCH  15  19
ENDBRANCH  13  15
ENDBRANCH   1  11
BRANCH   1  24
HETATM   24  N4  UNL     1      14.022  22.868  51.215  1.00  0.00    -0.116 N 
HETATM   25  C10 UNL     1      13.399  24.054  51.036  1.00  0.00     0.683 A 
HETATM   26  N6  UNL     1      12.434  24.407  51.895  1.00  0.00    -0.188 N 
HETATM   27  C11 UNL     1      12.046  23.651  52.931  1.00  0.00     0.100 A 
ATOM     28  H6  UNL     1      11.968  25.303  51.754  1.00  0.00     0.184 HD
HETATM   29  C12 UNL     1      11.056  24.001  53.821  1.00  0.00     0.127 A 
HETATM   30  C16 UNL     1      12.689  22.428  53.117  1.00  0.00     0.063 A 
HETATM   31  C13 UNL     1      10.673  23.189  54.894  1.00  0.00     0.138 A 
HETATM   32  C14 UNL     1      11.342  21.994  55.029  1.00  0.00     0.040 A 
HETATM   33  C15 UNL     1      12.336  21.607  54.162  1.00  0.00     0.022 A 
HETATM   34  C17 UNL     1      13.686  22.073  52.221  1.00  0.00     0.276 A 
HETATM   35  O11 UNL     1      14.272  20.959  52.390  1.00  0.00    -0.266 OA
BRANCH  25  36
HETATM   36  N5  UNL     1      13.740  24.819  50.045  1.00  0.00    -0.234 N 
ATOM     37  H52 UNL     1      13.997  24.435  49.136  1.00  0.00     0.174 HD
ATOM     38  H51 UNL     1      13.756  25.832  50.168  1.00  0.00     0.174 HD
ENDBRANCH  25  36
BRANCH  29  39
HETATM   39  O8  UNL     1      10.403  25.190  53.674  1.00  0.00    -0.356 OA
ATOM     40  H8  UNL     1      10.093  25.656  54.442  1.00  0.00     0.218 HD
ENDBRANCH  29  39
BRANCH  31  41
HETATM   41  N7  UNL     1       9.641  23.611  55.776  1.00  0.00    -0.113 N 
HETATM   42  O9  UNL     1       8.585  22.981  55.971  1.00  0.00    -0.532 OA
HETATM   43  O10 UNL     1       9.802  24.787  56.464  1.00  0.00    -0.532 OA
ENDBRANCH  31  41
ENDBRANCH   1  24
TORSDOF 12
ENDMDL
