MODEL 1
REMARK VINA RESULT: -7.029337649      0.000      0.000
REMARK  4 active torsions:
REMARK  status: ('A' for Active; 'I' for Inactive)
REMARK    1  A    between atoms: C2_2  and  C4_10 
REMARK    2  A    between atoms: N1_3  and  N2_5 
REMARK    3  A    between atoms: N5_13  and  O1_14 
REMARK    4  A    between atoms: C7_16  and  N6_17 
ROOT
HETATM    1  C4  UNL     1      54.732 130.943 -90.783  1.00  0.00     0.074 A 
HETATM    2  C5  UNL     1      53.856 130.010 -91.286  1.00  0.00     0.052 A 
HETATM    3  C6  UNL     1      54.237 128.993 -92.135  1.00  0.00     0.144 A 
HETATM    4  N5  UNL     1      55.534 128.925 -92.478  1.00  0.00    -0.064 N 
HETATM    5  C7  UNL     1      56.420 129.823 -92.004  1.00  0.00     0.702 A 
HETATM    6  N7  UNL     1      56.030 130.805 -91.179  1.00  0.00    -0.188 N 
ATOM      7  H7  UNL     1      56.725 131.469 -90.836  1.00  0.00     0.184 HD
ENDROOT
BRANCH   1   8
HETATM    8  C2  UNL     1      54.324 132.011 -89.891  1.00  0.00     0.049 C 
HETATM    9  C1  UNL     1      54.704 133.400 -90.219  1.00  0.00     0.072 C 
HETATM   10  N1  UNL     1      53.644 131.773 -88.833  1.00  0.00    -0.301 N 
ATOM     11  H1  UNL     1      53.382 130.812 -88.610  1.00  0.00     0.186 HD
BRANCH  10  12
HETATM   12  N2  UNL     1      53.254 132.805 -87.980  1.00  0.00    -0.276 N 
HETATM   13  C3  UNL     1      53.534 132.771 -86.726  1.00  0.00     0.215 C 
HETATM   14  N3  UNL     1      54.252 131.653 -86.226  1.00  0.00    -0.065 NA
HETATM   15  N4  UNL     1      53.159 133.795 -85.822  1.00  0.00    -0.065 NA
ATOM     16  H2  UNL     1      52.739 133.600 -88.358  1.00  0.00     0.189 HD
ENDBRANCH  10  12
ENDBRANCH   1   8
BRANCH   5  17
HETATM   17  N6  UNL     1      57.654 129.685 -92.385  1.00  0.00    -0.232 N 
ATOM     18  H62 UNL     1      58.066 130.260 -93.120  1.00  0.00     0.174 HD
ATOM     19  H61 UNL     1      58.203 128.968 -91.911  1.00  0.00     0.174 HD
ENDBRANCH   5  17
BRANCH   4  20
HETATM   20  O1  UNL     1      55.962 127.922 -93.327  1.00  0.00    -0.270 OA
ATOM     21  H1  UNL     1      55.726 127.020 -93.144  1.00  0.00     0.245 HD
ENDBRANCH   4  20
TORSDOF 4
ENDMDL
MODEL 2
REMARK VINA RESULT: -6.685281630      1.033      1.677
REMARK  4 active torsions:
REMARK  status: ('A' for Active; 'I' for Inactive)
REMARK    1  A    between atoms: C2_2  and  C4_10 
REMARK    2  A    between atoms: N1_3  and  N2_5 
REMARK    3  A    between atoms: N5_13  and  O1_14 
REMARK    4  A    between atoms: C7_16  and  N6_17 
ROOT
HETATM    1  C4  UNL     1      55.436 131.099 -90.993  1.00  0.00     0.074 A 
HETATM    2  C5  UNL     1      56.711 131.330 -91.454  1.00  0.00     0.052 A 
HETATM    3  C6  UNL     1      57.411 130.433 -92.231  1.00  0.00     0.144 A 
HETATM    4  N5  UNL     1      56.801 129.277 -92.545  1.00  0.00    -0.064 N 
HETATM    5  C7  UNL     1      55.552 129.017 -92.110  1.00  0.00     0.702 A 
HETATM    6  N7  UNL     1      54.887 129.904 -91.355  1.00  0.00    -0.188 N 
ATOM      7  H7  UNL     1      53.943 129.678 -91.042  1.00  0.00     0.184 HD
ENDROOT
BRANCH   1   8
HETATM    8  C2  UNL     1      54.706 132.049 -90.176  1.00  0.00     0.049 C 
HETATM    9  C1  UNL     1      54.761 133.483 -90.527  1.00  0.00     0.072 C 
HETATM   10  N1  UNL     1      54.021 131.669 -89.163  1.00  0.00    -0.301 N 
ATOM     11  H1  UNL     1      53.985 130.679 -88.925  1.00  0.00     0.186 HD
BRANCH  10  12
HETATM   12  N2  UNL     1      53.321 132.589 -88.382  1.00  0.00    -0.276 N 
HETATM   13  C3  UNL     1      53.360 132.535 -87.099  1.00  0.00     0.215 C 
HETATM   14  N3  UNL     1      54.135 131.512 -86.491  1.00  0.00    -0.065 NA
HETATM   15  N4  UNL     1      52.667 133.446 -86.265  1.00  0.00    -0.065 NA
ATOM     16  H2  UNL     1      52.770 133.317 -88.837  1.00  0.00     0.189 HD
ENDBRANCH  10  12
ENDBRANCH   1   8
BRANCH   5  17
HETATM   17  N6  UNL     1      55.036 127.877 -92.459  1.00  0.00    -0.232 N 
ATOM     18  H62 UNL     1      55.494 127.253 -93.123  1.00  0.00     0.174 HD
ATOM     19  H61 UNL     1      54.143 127.628 -92.034  1.00  0.00     0.174 HD
ENDBRANCH   5  17
BRANCH   4  20
HETATM   20  O1  UNL     1      57.464 128.346 -93.321  1.00  0.00    -0.270 OA
ATOM     21  H1  UNL     1      57.145 128.153 -94.195  1.00  0.00     0.245 HD
ENDBRANCH   4  20
TORSDOF 4
ENDMDL
MODEL 3
REMARK VINA RESULT: -4.640642180      2.004      2.887
REMARK  4 active torsions:
REMARK  status: ('A' for Active; 'I' for Inactive)
REMARK    1  A    between atoms: C2_2  and  C4_10 
REMARK    2  A    between atoms: N1_3  and  N2_5 
REMARK    3  A    between atoms: N5_13  and  O1_14 
REMARK    4  A    between atoms: C7_16  and  N6_17 
ROOT
HETATM    1  C4  UNL     1      54.120 132.028 -89.552  1.00  0.00     0.074 A 
HETATM    2  C5  UNL     1      54.792 133.105 -90.081  1.00  0.00     0.052 A 
HETATM    3  C6  UNL     1      55.364 133.102 -91.334  1.00  0.00     0.144 A 
HETATM    4  N5  UNL     1      55.250 131.980 -92.065  1.00  0.00    -0.064 N 
HETATM    5  C7  UNL     1      54.599 130.905 -91.578  1.00  0.00     0.702 A 
HETATM    6  N7  UNL     1      54.049 130.928 -90.355  1.00  0.00    -0.188 N 
ATOM      7  H7  UNL     1      53.562 130.098 -90.016  1.00  0.00     0.184 HD
ENDROOT
BRANCH   1   8
HETATM    8  C2  UNL     1      53.522 132.039 -88.231  1.00  0.00     0.049 C 
HETATM    9  C1  UNL     1      53.870 133.131 -87.300  1.00  0.00     0.072 C 
HETATM   10  N1  UNL     1      52.703 131.127 -87.862  1.00  0.00    -0.301 N 
ATOM     11  H1  UNL     1      52.465 130.375 -88.509  1.00  0.00     0.186 HD
BRANCH  10  12
HETATM   12  N2  UNL     1      52.131 131.145 -86.590  1.00  0.00    -0.276 N 
HETATM   13  C3  UNL     1      52.653 130.486 -85.619  1.00  0.00     0.215 C 
HETATM   14  N3  UNL     1      53.831 129.735 -85.870  1.00  0.00    -0.065 NA
HETATM   15  N4  UNL     1      52.108 130.474 -84.311  1.00  0.00    -0.065 NA
ATOM     16  H2  UNL     1      51.284 131.690 -86.429  1.00  0.00     0.189 HD
ENDBRANCH  10  12
ENDBRANCH   1   8
BRANCH   5  17
HETATM   17  N6  UNL     1      54.535 129.861 -92.349  1.00  0.00    -0.232 N 
ATOM     18  H62 UNL     1      55.295 129.601 -92.979  1.00  0.00     0.174 HD
ATOM     19  H61 UNL     1      53.683 129.303 -92.297  1.00  0.00     0.174 HD
ENDBRANCH   5  17
BRANCH   4  20
HETATM   20  O1  UNL     1      55.808 131.930 -93.327  1.00  0.00    -0.270 OA
ATOM     21  H1  UNL     1      55.474 131.307 -93.963  1.00  0.00     0.245 HD
ENDBRANCH   4  20
TORSDOF 4
ENDMDL
MODEL 4
REMARK VINA RESULT: -4.294557941      2.998      6.192
REMARK  4 active torsions:
REMARK  status: ('A' for Active; 'I' for Inactive)
REMARK    1  A    between atoms: C2_2  and  C4_10 
REMARK    2  A    between atoms: N1_3  and  N2_5 
REMARK    3  A    between atoms: N5_13  and  O1_14 
REMARK    4  A    between atoms: C7_16  and  N6_17 
ROOT
HETATM    1  C4  UNL     1      54.204 132.432 -88.845  1.00  0.00     0.074 A 
HETATM    2  C5  UNL     1      54.737 133.451 -88.092  1.00  0.00     0.052 A 
HETATM    3  C6  UNL     1      54.299 133.767 -86.824  1.00  0.00     0.144 A 
HETATM    4  N5  UNL     1      53.297 133.031 -86.313  1.00  0.00    -0.064 N 
HETATM    5  C7  UNL     1      52.750 132.025 -87.024  1.00  0.00     0.702 A 
HETATM    6  N7  UNL     1      53.192 131.733 -88.256  1.00  0.00    -0.188 N 
ATOM      7  H7  UNL     1      52.758 130.965 -88.768  1.00  0.00     0.184 HD
ENDROOT
BRANCH   1   8
HETATM    8  C2  UNL     1      54.670 132.106 -90.179  1.00  0.00     0.049 C 
HETATM    9  C1  UNL     1      55.024 133.206 -91.099  1.00  0.00     0.072 C 
HETATM   10  N1  UNL     1      54.782 130.892 -90.569  1.00  0.00    -0.301 N 
ATOM     11  H1  UNL     1      54.537 130.136 -89.930  1.00  0.00     0.186 HD
BRANCH  10  12
HETATM   12  N2  UNL     1      55.231 130.587 -91.853  1.00  0.00    -0.276 N 
HETATM   13  C3  UNL     1      56.379 130.043 -92.043  1.00  0.00     0.215 C 
HETATM   14  N3  UNL     1      57.185 129.757 -90.909  1.00  0.00    -0.065 NA
HETATM   15  N4  UNL     1      56.879 129.716 -93.327  1.00  0.00    -0.065 NA
ATOM     16  H2  UNL     1      54.639 130.800 -92.656  1.00  0.00     0.189 HD
ENDBRANCH  10  12
ENDBRANCH   1   8
BRANCH   5  17
HETATM   17  N6  UNL     1      51.787 131.364 -86.456  1.00  0.00    -0.232 N 
ATOM     18  H62 UNL     1      51.927 130.439 -86.049  1.00  0.00     0.174 HD
ATOM     19  H61 UNL     1      50.873 131.814 -86.432  1.00  0.00     0.174 HD
ENDBRANCH   5  17
BRANCH   4  20
HETATM   20  O1  UNL     1      52.824 133.311 -85.046  1.00  0.00    -0.270 OA
ATOM     21  H1  UNL     1      51.900 133.197 -84.855  1.00  0.00     0.245 HD
ENDBRANCH   4  20
TORSDOF 4
ENDMDL
MODEL 5
REMARK VINA RESULT: -3.946241916      2.971      6.036
REMARK  4 active torsions:
REMARK  status: ('A' for Active; 'I' for Inactive)
REMARK    1  A    between atoms: C2_2  and  C4_10 
REMARK    2  A    between atoms: N1_3  and  N2_5 
REMARK    3  A    between atoms: N5_13  and  O1_14 
REMARK    4  A    between atoms: C7_16  and  N6_17 
ROOT
HETATM    1  C4  UNL     1      54.815 131.044 -91.967  1.00  0.00     0.074 A 
HETATM    2  C5  UNL     1      54.635 131.883 -93.042  1.00  0.00     0.052 A 
HETATM    3  C6  UNL     1      54.559 133.254 -92.928  1.00  0.00     0.144 A 
HETATM    4  N5  UNL     1      54.669 133.782 -91.697  1.00  0.00    -0.064 N 
HETATM    5  C7  UNL     1      54.846 132.988 -90.622  1.00  0.00     0.702 A 
HETATM    6  N7  UNL     1      54.917 131.656 -90.753  1.00  0.00    -0.188 N 
ATOM      7  H7  UNL     1      55.053 131.083 -89.920  1.00  0.00     0.184 HD
ENDROOT
BRANCH   1   8
HETATM    8  C2  UNL     1      54.893 129.601 -92.095  1.00  0.00     0.049 C 
HETATM    9  C1  UNL     1      53.837 128.893 -92.847  1.00  0.00     0.072 C 
HETATM   10  N1  UNL     1      55.854 128.936 -91.572  1.00  0.00    -0.301 N 
ATOM     11  H1  UNL     1      56.582 129.429 -91.055  1.00  0.00     0.186 HD
BRANCH  10  12
HETATM   12  N2  UNL     1      55.922 127.549 -91.700  1.00  0.00    -0.276 N 
HETATM   13  C3  UNL     1      56.733 126.998 -92.530  1.00  0.00     0.215 C 
HETATM   14  N3  UNL     1      57.562 127.837 -93.320  1.00  0.00    -0.065 NA
HETATM   15  N4  UNL     1      56.837 125.595 -92.695  1.00  0.00    -0.065 NA
ATOM     16  H2  UNL     1      55.318 126.962 -91.124  1.00  0.00     0.189 HD
ENDBRANCH  10  12
ENDBRANCH   1   8
BRANCH   5  17
HETATM   17  N6  UNL     1      54.943 133.579 -89.469  1.00  0.00    -0.232 N 
ATOM     18  H62 UNL     1      55.835 133.691 -88.987  1.00  0.00     0.174 HD
ATOM     19  H61 UNL     1      54.078 133.934 -89.060  1.00  0.00     0.174 HD
ENDBRANCH   5  17
BRANCH   4  20
HETATM   20  O1  UNL     1      54.598 135.152 -91.534  1.00  0.00    -0.270 OA
ATOM     21  H1  UNL     1      55.233 135.591 -90.980  1.00  0.00     0.245 HD
ENDBRANCH   4  20
TORSDOF 4
ENDMDL
