MODEL 1
REMARK VINA RESULT: -5.261757745      0.000      0.000
REMARK  3 active torsions:
REMARK  status: ('A' for Active; 'I' for Inactive)
REMARK    1  A    between atoms: C2_2  and  N1_3 
REMARK       I    between atoms: N1_3  and  C3_5 
REMARK       I    between atoms: C3_5  and  N4_10 
REMARK    2  A    between atoms: N4_10  and  C5_12 
REMARK    3  A    between atoms: C7_18  and  N7_19 
ROOT
HETATM    1  N1  UNL     1      53.529 131.635 -87.685  1.00  0.00    -0.225 N 
ATOM      2  H1  UNL     1      53.006 132.298 -87.113  1.00  0.00     0.177 HD
HETATM    3  C3  UNL     1      53.867 132.026 -89.004  1.00  0.00     0.701 C 
HETATM    4  N2  UNL     1      54.507 133.152 -89.172  1.00  0.00    -0.126 N 
ATOM      5  H2  UNL     1      54.751 133.724 -88.363  1.00  0.00     0.197 HD
HETATM    6  C4  UNL     1      54.860 133.579 -90.458  1.00  0.00     0.196 C 
HETATM    7  N3  UNL     1      55.135 133.922 -91.518  1.00  0.00    -0.171 NA
HETATM    8  N4  UNL     1      53.511 131.225 -90.075  1.00  0.00    -0.021 N 
ATOM      9  H4  UNL     1      52.523 131.276 -90.325  1.00  0.00     0.203 HD
ENDROOT
BRANCH   1  10
HETATM   10  C2  UNL     1      53.874 130.368 -87.093  1.00  0.00     0.133 C 
HETATM   11  C1  UNL     1      53.508 130.207 -85.659  1.00  0.00     0.027 C 
ENDBRANCH   1  10
BRANCH   8  12
HETATM   12  C5  UNL     1      54.190 130.441 -90.801  1.00  0.00     0.712 A 
HETATM   13  N5  UNL     1      53.621 129.372 -91.359  1.00  0.00    -0.186 N 
HETATM   14  C6  UNL     1      54.333 128.529 -92.130  1.00  0.00     0.215 A 
ATOM     15  H5  UNL     1      52.630 129.190 -91.200  1.00  0.00     0.185 HD
HETATM   16  N6  UNL     1      55.635 128.791 -92.322  1.00  0.00    -0.187 N 
HETATM   17  C7  UNL     1      56.254 129.850 -91.785  1.00  0.00     0.691 A 
ATOM     18  H6  UNL     1      56.178 128.155 -92.905  1.00  0.00     0.185 HD
HETATM   19  N8  UNL     1      55.494 130.657 -91.026  1.00  0.00    -0.022 N 
ATOM     20  H8  UNL     1      55.931 131.475 -90.599  1.00  0.00     0.203 HD
BRANCH  17  21
HETATM   21  N7  UNL     1      57.504 130.048 -92.006  1.00  0.00    -0.234 N 
ATOM     22  H72 UNL     1      58.247 129.704 -91.398  1.00  0.00     0.174 HD
ATOM     23  H71 UNL     1      57.803 130.576 -92.826  1.00  0.00     0.174 HD
ENDBRANCH  17  21
ENDBRANCH   8  12
TORSDOF 3
ENDMDL
MODEL 2
REMARK VINA RESULT: -4.710459852      1.728      4.695
REMARK  3 active torsions:
REMARK  status: ('A' for Active; 'I' for Inactive)
REMARK    1  A    between atoms: C2_2  and  N1_3 
REMARK       I    between atoms: N1_3  and  C3_5 
REMARK       I    between atoms: C3_5  and  N4_10 
REMARK    2  A    between atoms: N4_10  and  C5_12 
REMARK    3  A    between atoms: C7_18  and  N7_19 
ROOT
HETATM    1  N1  UNL     1      55.140 130.223 -92.944  1.00  0.00    -0.225 N 
ATOM      2  H1  UNL     1      55.592 130.052 -93.843  1.00  0.00     0.177 HD
HETATM    3  C3  UNL     1      55.003 131.568 -92.521  1.00  0.00     0.701 C 
HETATM    4  N2  UNL     1      54.420 132.415 -93.327  1.00  0.00    -0.126 N 
ATOM      5  H2  UNL     1      54.077 132.098 -94.234  1.00  0.00     0.197 HD
HETATM    6  C4  UNL     1      54.263 133.755 -92.952  1.00  0.00     0.196 C 
HETATM    7  N3  UNL     1      54.150 134.852 -92.635  1.00  0.00    -0.171 NA
HETATM    8  N4  UNL     1      55.489 131.957 -91.285  1.00  0.00    -0.021 N 
ATOM      9  H4  UNL     1      56.503 132.061 -91.249  1.00  0.00     0.203 HD
ENDROOT
BRANCH   1  10
HETATM   10  C2  UNL     1      54.686 129.079 -92.196  1.00  0.00     0.133 C 
HETATM   11  C1  UNL     1      55.603 127.907 -92.194  1.00  0.00     0.027 C 
ENDBRANCH   1  10
BRANCH   8  12
HETATM   12  C5  UNL     1      54.901 132.208 -90.191  1.00  0.00     0.712 A 
HETATM   13  N5  UNL     1      55.022 133.407 -89.618  1.00  0.00    -0.186 N 
HETATM   14  C6  UNL     1      54.406 133.684 -88.454  1.00  0.00     0.215 A 
ATOM     15  H5  UNL     1      55.591 134.124 -90.069  1.00  0.00     0.185 HD
HETATM   16  N6  UNL     1      53.666 132.722 -87.883  1.00  0.00    -0.187 N 
HETATM   17  C7  UNL     1      53.513 131.504 -88.417  1.00  0.00     0.691 A 
ATOM     18  H6  UNL     1      53.198 132.929 -87.001  1.00  0.00     0.185 HD
HETATM   19  N8  UNL     1      54.149 131.283 -89.579  1.00  0.00    -0.022 N 
ATOM     20  H8  UNL     1      54.056 130.366 -90.017  1.00  0.00     0.203 HD
BRANCH  17  21
HETATM   21  N7  UNL     1      52.790 130.623 -87.821  1.00  0.00    -0.234 N 
ATOM     22  H72 UNL     1      52.918 129.618 -87.934  1.00  0.00     0.174 HD
ATOM     23  H71 UNL     1      52.038 130.914 -87.196  1.00  0.00     0.174 HD
ENDBRANCH  17  21
ENDBRANCH   8  12
TORSDOF 3
ENDMDL
MODEL 3
REMARK VINA RESULT: -4.691918354      2.218      4.241
REMARK  3 active torsions:
REMARK  status: ('A' for Active; 'I' for Inactive)
REMARK    1  A    between atoms: C2_2  and  N1_3 
REMARK       I    between atoms: N1_3  and  C3_5 
REMARK       I    between atoms: C3_5  and  N4_10 
REMARK    2  A    between atoms: N4_10  and  C5_12 
REMARK    3  A    between atoms: C7_18  and  N7_19 
ROOT
HETATM    1  N1  UNL     1      51.043 133.232 -87.111  1.00  0.00    -0.225 N 
ATOM      2  H1  UNL     1      50.640 133.491 -86.211  1.00  0.00     0.177 HD
HETATM    3  C3  UNL     1      52.210 132.429 -87.105  1.00  0.00     0.701 C 
HETATM    4  N2  UNL     1      52.184 131.303 -86.442  1.00  0.00    -0.126 N 
ATOM      5  H2  UNL     1      51.336 131.024 -85.948  1.00  0.00     0.197 HD
HETATM    6  C4  UNL     1      53.315 130.478 -86.407  1.00  0.00     0.196 C 
HETATM    7  N3  UNL     1      54.252 129.815 -86.378  1.00  0.00    -0.171 NA
HETATM    8  N4  UNL     1      53.342 132.848 -87.783  1.00  0.00    -0.021 N 
ATOM      9  H4  UNL     1      53.861 133.588 -87.311  1.00  0.00     0.203 HD
ENDROOT
BRANCH   1  10
HETATM   10  C2  UNL     1      50.383 133.707 -88.300  1.00  0.00     0.133 C 
HETATM   11  C1  UNL     1      49.474 134.870 -88.109  1.00  0.00     0.027 C 
ENDBRANCH   1  10
BRANCH   8  12
HETATM   12  C5  UNL     1      53.848 132.478 -88.883  1.00  0.00     0.712 A 
HETATM   13  N5  UNL     1      54.705 133.268 -89.532  1.00  0.00    -0.186 N 
HETATM   14  C6  UNL     1      55.246 132.887 -90.705  1.00  0.00     0.215 A 
ATOM     15  H5  UNL     1      54.953 134.173 -89.135  1.00  0.00     0.185 HD
HETATM   16  N6  UNL     1      54.901 131.691 -91.205  1.00  0.00    -0.187 N 
HETATM   17  C7  UNL     1      54.047 130.862 -90.593  1.00  0.00     0.691 A 
ATOM     18  H6  UNL     1      55.310 131.400 -92.093  1.00  0.00     0.185 HD
HETATM   19  N8  UNL     1      53.537 131.292 -89.427  1.00  0.00    -0.022 N 
ATOM     20  H8  UNL     1      52.882 130.688 -88.931  1.00  0.00     0.203 HD
BRANCH  17  21
HETATM   21  N7  UNL     1      53.755 129.728 -91.123  1.00  0.00    -0.234 N 
ATOM     22  H72 UNL     1      53.049 129.608 -91.849  1.00  0.00     0.174 HD
ATOM     23  H71 UNL     1      54.239 128.882 -90.823  1.00  0.00     0.174 HD
ENDBRANCH  17  21
ENDBRANCH   8  12
TORSDOF 3
ENDMDL
MODEL 4
REMARK VINA RESULT: -4.479039930      9.293     10.874
REMARK  3 active torsions:
REMARK  status: ('A' for Active; 'I' for Inactive)
REMARK    1  A    between atoms: C2_2  and  N1_3 
REMARK       I    between atoms: N1_3  and  C3_5 
REMARK       I    between atoms: C3_5  and  N4_10 
REMARK    2  A    between atoms: N4_10  and  C5_12 
REMARK    3  A    between atoms: C7_18  and  N7_19 
ROOT
HETATM    1  N1  UNL     1      60.382 140.255 -86.151  1.00  0.00    -0.225 N 
ATOM      2  H1  UNL     1      61.215 140.126 -85.577  1.00  0.00     0.177 HD
HETATM    3  C3  UNL     1      60.364 139.653 -87.433  1.00  0.00     0.701 C 
HETATM    4  N2  UNL     1      60.604 138.371 -87.519  1.00  0.00    -0.126 N 
ATOM      5  H2  UNL     1      60.795 137.832 -86.674  1.00  0.00     0.197 HD
HETATM    6  C4  UNL     1      60.599 137.734 -88.766  1.00  0.00     0.196 C 
HETATM    7  N3  UNL     1      60.601 137.225 -89.795  1.00  0.00    -0.171 NA
HETATM    8  N4  UNL     1      60.107 140.422 -88.555  1.00  0.00    -0.021 N 
ATOM      9  H4  UNL     1      60.891 141.004 -88.851  1.00  0.00     0.203 HD
ENDROOT
BRANCH   1  10
HETATM   10  C2  UNL     1      59.305 141.036 -85.600  1.00  0.00     0.133 C 
HETATM   11  C1  UNL     1      59.015 140.805 -84.158  1.00  0.00     0.027 C 
ENDBRANCH   1  10
BRANCH   8  12
HETATM   12  C5  UNL     1      59.075 140.532 -89.280  1.00  0.00     0.712 A 
HETATM   13  N5  UNL     1      59.171 140.464 -90.609  1.00  0.00    -0.186 N 
HETATM   14  C6  UNL     1      58.082 140.584 -91.390  1.00  0.00     0.215 A 
ATOM     15  H5  UNL     1      60.085 140.318 -91.039  1.00  0.00     0.185 HD
HETATM   16  N6  UNL     1      56.894 140.776 -90.798  1.00  0.00    -0.187 N 
HETATM   17  C7  UNL     1      56.743 140.851 -89.470  1.00  0.00     0.691 A 
ATOM     18  H6  UNL     1      56.066 140.867 -91.387  1.00  0.00     0.185 HD
HETATM   19  N8  UNL     1      57.864 140.724 -88.739  1.00  0.00    -0.022 N 
ATOM     20  H8  UNL     1      57.789 140.777 -87.723  1.00  0.00     0.203 HD
BRANCH  17  21
HETATM   21  N7  UNL     1      55.578 141.036 -88.961  1.00  0.00    -0.234 N 
ATOM     22  H72 UNL     1      55.332 141.846 -88.390  1.00  0.00     0.174 HD
ATOM     23  H71 UNL     1      54.835 140.354 -89.117  1.00  0.00     0.174 HD
ENDBRANCH  17  21
ENDBRANCH   8  12
TORSDOF 3
ENDMDL
MODEL 5
REMARK VINA RESULT: -4.385738011      1.681      4.551
REMARK  3 active torsions:
REMARK  status: ('A' for Active; 'I' for Inactive)
REMARK    1  A    between atoms: C2_2  and  N1_3 
REMARK       I    between atoms: N1_3  and  C3_5 
REMARK       I    between atoms: C3_5  and  N4_10 
REMARK    2  A    between atoms: N4_10  and  C5_12 
REMARK    3  A    between atoms: C7_18  and  N7_19 
ROOT
HETATM    1  N1  UNL     1      55.579 130.157 -93.069  1.00  0.00    -0.225 N 
ATOM      2  H1  UNL     1      56.150 130.118 -93.913  1.00  0.00     0.177 HD
HETATM    3  C3  UNL     1      55.273 131.435 -92.538  1.00  0.00     0.701 C 
HETATM    4  N2  UNL     1      54.720 132.317 -93.327  1.00  0.00    -0.126 N 
ATOM      5  H2  UNL     1      54.518 132.075 -94.297  1.00  0.00     0.197 HD
HETATM    6  C4  UNL     1      54.402 133.593 -92.847  1.00  0.00     0.196 C 
HETATM    7  N3  UNL     1      54.155 134.639 -92.442  1.00  0.00    -0.171 NA
HETATM    8  N4  UNL     1      55.570 131.725 -91.218  1.00  0.00    -0.021 N 
ATOM      9  H4  UNL     1      56.560 131.900 -91.041  1.00  0.00     0.203 HD
ENDROOT
BRANCH   1  10
HETATM   10  C2  UNL     1      55.140 128.909 -92.500  1.00  0.00     0.133 C 
HETATM   11  C1  UNL     1      56.218 127.930 -92.189  1.00  0.00     0.027 C 
ENDBRANCH   1  10
BRANCH   8  12
HETATM   12  C5  UNL     1      54.835 131.812 -90.190  1.00  0.00     0.712 A 
HETATM   13  N5  UNL     1      53.889 130.902 -89.957  1.00  0.00    -0.186 N 
HETATM   14  C6  UNL     1      53.098 130.986 -88.871  1.00  0.00     0.215 A 
ATOM     15  H5  UNL     1      53.761 130.131 -90.612  1.00  0.00     0.185 HD
HETATM   16  N6  UNL     1      53.287 132.012 -88.026  1.00  0.00    -0.187 N 
HETATM   17  C7  UNL     1      54.222 132.950 -88.215  1.00  0.00     0.691 A 
ATOM     18  H6  UNL     1      52.690 132.078 -87.202  1.00  0.00     0.185 HD
HETATM   19  N8  UNL     1      54.982 132.816 -89.315  1.00  0.00    -0.022 N 
ATOM     20  H8  UNL     1      55.706 133.513 -89.492  1.00  0.00     0.203 HD
BRANCH  17  21
HETATM   21  N7  UNL     1      54.355 133.910 -87.370  1.00  0.00    -0.234 N 
ATOM     22  H72 UNL     1      53.569 134.382 -86.923  1.00  0.00     0.174 HD
ATOM     23  H71 UNL     1      55.285 134.240 -87.110  1.00  0.00     0.174 HD
ENDBRANCH  17  21
ENDBRANCH   8  12
TORSDOF 3
ENDMDL
