MODEL 1
REMARK VINA RESULT: -6.217492416      0.000      0.000
REMARK  4 active torsions:
REMARK  status: ('A' for Active; 'I' for Inactive)
REMARK       I    between atoms: N1_2  and  C2_4 
REMARK       I    between atoms: C2_4  and  N2_6 
REMARK    1  A    between atoms: N2_6  and  N3_8 
REMARK    2  A    between atoms: N3_8  and  C3_10 
REMARK    3  A    between atoms: C3_10  and  N4_12 
REMARK    4  A    between atoms: N4_12  and  N5_14 
ROOT
HETATM    1  N3  UNL     1      54.262 132.114 -89.861  1.00  0.00    -0.271 N 
ATOM      2  H3  UNL     1      54.225 133.098 -89.594  1.00  0.00     0.189 HD
ENDROOT
BRANCH   1   3
HETATM    3  N2  UNL     1      53.614 131.195 -89.047  1.00  0.00    -0.249 N 
HETATM    4  C2  UNL     1      53.565 131.415 -87.657  1.00  0.00     0.334 C 
HETATM    5  N1  UNL     1      52.919 130.502 -86.808  1.00  0.00    -0.346 N 
HETATM    6  O1  UNL     1      54.098 132.438 -87.113  1.00  0.00    -0.246 OA
HETATM    7  C1  UNL     1      52.850 130.701 -85.380  1.00  0.00     0.151 C 
ATOM      8  H1  UNL     1      52.485 129.672 -87.213  1.00  0.00     0.163 HD
ATOM      9  H2  UNL     1      53.177 130.367 -89.452  1.00  0.00     0.192 HD
ENDBRANCH   1   3
BRANCH   1  10
HETATM   10  C3  UNL     1      54.970 131.775 -91.037  1.00  0.00     0.201 C 
HETATM   11  S1  UNL     1      54.910 132.731 -92.376  1.00  0.00    -0.038 SA
BRANCH  10  12
HETATM   12  N4  UNL     1      55.736 130.596 -91.076  1.00  0.00    -0.295 N 
ATOM     13  H4  UNL     1      56.371 130.368 -90.311  1.00  0.00     0.183 HD
BRANCH  12  14
HETATM   14  N5  UNL     1      55.619 129.743 -92.173  1.00  0.00    -0.238 NA
HETATM   15  C4  UNL     1      56.664 128.741 -92.205  1.00  0.00     0.135 C 
HETATM   16  C5  UNL     1      54.299 129.142 -92.248  1.00  0.00     0.135 C 
ENDBRANCH  12  14
ENDBRANCH  10  12
ENDBRANCH   1  10
TORSDOF 4
ENDMDL
MODEL 2
REMARK VINA RESULT: -5.905158643      1.243      1.304
REMARK  4 active torsions:
REMARK  status: ('A' for Active; 'I' for Inactive)
REMARK       I    between atoms: N1_2  and  C2_4 
REMARK       I    between atoms: C2_4  and  N2_6 
REMARK    1  A    between atoms: N2_6  and  N3_8 
REMARK    2  A    between atoms: N3_8  and  C3_10 
REMARK    3  A    between atoms: C3_10  and  N4_12 
REMARK    4  A    between atoms: N4_12  and  N5_14 
ROOT
HETATM    1  N3  UNL     1      54.979 131.768 -90.306  1.00  0.00    -0.271 N 
ATOM      2  H3  UNL     1      55.481 132.581 -89.949  1.00  0.00     0.189 HD
ENDROOT
BRANCH   1   3
HETATM    3  N2  UNL     1      53.890 131.306 -89.578  1.00  0.00    -0.249 N 
HETATM    4  C2  UNL     1      53.556 131.930 -88.362  1.00  0.00     0.334 C 
HETATM    5  N1  UNL     1      52.463 131.483 -87.603  1.00  0.00    -0.346 N 
HETATM    6  O1  UNL     1      54.222 132.915 -87.898  1.00  0.00    -0.246 OA
HETATM    7  C1  UNL     1      52.093 132.104 -86.353  1.00  0.00     0.151 C 
ATOM      8  H1  UNL     1      51.912 130.696 -87.945  1.00  0.00     0.163 HD
ATOM      9  H2  UNL     1      53.337 130.522 -89.922  1.00  0.00     0.192 HD
ENDBRANCH   1   3
BRANCH   1  10
HETATM   10  C3  UNL     1      55.436 131.186 -91.510  1.00  0.00     0.201 C 
HETATM   11  S1  UNL     1      54.934 131.744 -92.975  1.00  0.00    -0.038 SA
BRANCH  10  12
HETATM   12  N4  UNL     1      56.332 130.101 -91.466  1.00  0.00    -0.295 N 
ATOM     13  H4  UNL     1      56.900 129.935 -90.635  1.00  0.00     0.183 HD
BRANCH  12  14
HETATM   14  N5  UNL     1      56.434 129.257 -92.571  1.00  0.00    -0.238 NA
HETATM   15  C4  UNL     1      57.651 129.480 -93.323  1.00  0.00     0.135 C 
HETATM   16  C5  UNL     1      56.285 127.861 -92.198  1.00  0.00     0.135 C 
ENDBRANCH  12  14
ENDBRANCH  10  12
ENDBRANCH   1  10
TORSDOF 4
ENDMDL
MODEL 3
REMARK VINA RESULT: -5.813201386      1.596      1.657
REMARK  4 active torsions:
REMARK  status: ('A' for Active; 'I' for Inactive)
REMARK       I    between atoms: N1_2  and  C2_4 
REMARK       I    between atoms: C2_4  and  N2_6 
REMARK    1  A    between atoms: N2_6  and  N3_8 
REMARK    2  A    between atoms: N3_8  and  C3_10 
REMARK    3  A    between atoms: C3_10  and  N4_12 
REMARK    4  A    between atoms: N4_12  and  N5_14 
ROOT
HETATM    1  N3  UNL     1      54.204 131.375 -90.307  1.00  0.00    -0.271 N 
ATOM      2  H3  UNL     1      53.524 130.645 -90.094  1.00  0.00     0.189 HD
ENDROOT
BRANCH   1   3
HETATM    3  N2  UNL     1      54.252 132.482 -89.471  1.00  0.00    -0.249 N 
HETATM    4  C2  UNL     1      53.952 132.332 -88.104  1.00  0.00     0.334 C 
HETATM    5  N1  UNL     1      53.989 133.434 -87.235  1.00  0.00    -0.346 N 
HETATM    6  O1  UNL     1      53.635 131.204 -87.599  1.00  0.00    -0.246 OA
HETATM    7  C1  UNL     1      53.689 133.311 -85.829  1.00  0.00     0.151 C 
ATOM      8  H1  UNL     1      54.236 134.350 -87.610  1.00  0.00     0.163 HD
ATOM      9  H2  UNL     1      54.502 133.398 -89.844  1.00  0.00     0.192 HD
ENDBRANCH   1   3
BRANCH   1  10
HETATM   10  C3  UNL     1      55.037 131.192 -91.434  1.00  0.00     0.201 C 
HETATM   11  S1  UNL     1      54.832 132.084 -92.802  1.00  0.00    -0.038 SA
BRANCH  10  12
HETATM   12  N4  UNL     1      56.059 130.225 -91.399  1.00  0.00    -0.295 N 
ATOM     13  H4  UNL     1      56.645 130.124 -90.571  1.00  0.00     0.183 HD
BRANCH  12  14
HETATM   14  N5  UNL     1      56.261 129.407 -92.510  1.00  0.00    -0.238 NA
HETATM   15  C4  UNL     1      57.533 129.659 -93.155  1.00  0.00     0.135 C 
HETATM   16  C5  UNL     1      56.098 128.002 -92.180  1.00  0.00     0.135 C 
ENDBRANCH  12  14
ENDBRANCH  10  12
ENDBRANCH   1  10
TORSDOF 4
ENDMDL
MODEL 4
REMARK VINA RESULT: -5.715690334      1.089      1.462
REMARK  4 active torsions:
REMARK  status: ('A' for Active; 'I' for Inactive)
REMARK       I    between atoms: N1_2  and  C2_4 
REMARK       I    between atoms: C2_4  and  N2_6 
REMARK    1  A    between atoms: N2_6  and  N3_8 
REMARK    2  A    between atoms: N3_8  and  C3_10 
REMARK    3  A    between atoms: C3_10  and  N4_12 
REMARK    4  A    between atoms: N4_12  and  N5_14 
ROOT
HETATM    1  N3  UNL     1      55.081 131.676 -90.376  1.00  0.00    -0.271 N 
ATOM      2  H3  UNL     1      55.839 132.110 -89.848  1.00  0.00     0.189 HD
ENDROOT
BRANCH   1   3
HETATM    3  N2  UNL     1      53.952 131.270 -89.676  1.00  0.00    -0.249 N 
HETATM    4  C2  UNL     1      53.581 131.955 -88.504  1.00  0.00     0.334 C 
HETATM    5  N1  UNL     1      52.447 131.567 -87.774  1.00  0.00    -0.346 N 
HETATM    6  O1  UNL     1      54.249 132.945 -88.056  1.00  0.00    -0.246 OA
HETATM    7  C1  UNL     1      52.039 132.251 -86.569  1.00  0.00     0.151 C 
ATOM      8  H1  UNL     1      51.893 130.776 -88.104  1.00  0.00     0.163 HD
ATOM      9  H2  UNL     1      53.397 130.482 -90.008  1.00  0.00     0.192 HD
ENDBRANCH   1   3
BRANCH   1  10
HETATM   10  C3  UNL     1      55.249 131.526 -91.771  1.00  0.00     0.201 C 
HETATM   11  S1  UNL     1      54.740 132.685 -92.822  1.00  0.00    -0.038 SA
BRANCH  10  12
HETATM   12  N4  UNL     1      55.855 130.363 -92.282  1.00  0.00    -0.295 N 
ATOM     13  H4  UNL     1      56.705 130.428 -92.841  1.00  0.00     0.183 HD
BRANCH  12  14
HETATM   14  N5  UNL     1      55.279 129.122 -92.014  1.00  0.00    -0.238 NA
HETATM   15  C4  UNL     1      54.026 128.934 -92.716  1.00  0.00     0.135 C 
HETATM   16  C5  UNL     1      56.205 128.033 -92.272  1.00  0.00     0.135 C 
ENDBRANCH  12  14
ENDBRANCH  10  12
ENDBRANCH   1  10
TORSDOF 4
ENDMDL
MODEL 5
REMARK VINA RESULT: -5.619429595      2.463      5.385
REMARK  4 active torsions:
REMARK  status: ('A' for Active; 'I' for Inactive)
REMARK       I    between atoms: N1_2  and  C2_4 
REMARK       I    between atoms: C2_4  and  N2_6 
REMARK    1  A    between atoms: N2_6  and  N3_8 
REMARK    2  A    between atoms: N3_8  and  C3_10 
REMARK    3  A    between atoms: C3_10  and  N4_12 
REMARK    4  A    between atoms: N4_12  and  N5_14 
ROOT
HETATM    1  N3  UNL     1      53.897 132.479 -88.741  1.00  0.00    -0.271 N 
ATOM      2  H3  UNL     1      54.303 133.339 -89.109  1.00  0.00     0.189 HD
ENDROOT
BRANCH   1   3
HETATM    3  N2  UNL     1      53.898 131.358 -89.560  1.00  0.00    -0.249 N 
HETATM    4  C2  UNL     1      54.528 131.419 -90.817  1.00  0.00     0.334 C 
HETATM    5  N1  UNL     1      54.543 130.303 -91.668  1.00  0.00    -0.346 N 
HETATM    6  O1  UNL     1      55.106 132.477 -91.236  1.00  0.00    -0.246 OA
HETATM    7  C1  UNL     1      55.184 130.334 -92.961  1.00  0.00     0.151 C 
ATOM      8  H1  UNL     1      54.088 129.443 -91.363  1.00  0.00     0.163 HD
ATOM      9  H2  UNL     1      53.445 130.497 -89.254  1.00  0.00     0.192 HD
ENDBRANCH   1   3
BRANCH   1  10
HETATM   10  C3  UNL     1      53.369 132.506 -87.430  1.00  0.00     0.201 C 
HETATM   11  S1  UNL     1      54.016 133.475 -86.268  1.00  0.00    -0.038 SA
BRANCH  10  12
HETATM   12  N4  UNL     1      52.274 131.686 -87.100  1.00  0.00    -0.295 N 
ATOM     13  H4  UNL     1      51.322 131.991 -87.303  1.00  0.00     0.183 HD
BRANCH  12  14
HETATM   14  N5  UNL     1      52.505 130.453 -86.494  1.00  0.00    -0.238 NA
HETATM   15  C4  UNL     1      53.913 130.212 -86.256  1.00  0.00     0.135 C 
HETATM   16  C5  UNL     1      51.723 130.295 -85.280  1.00  0.00     0.135 C 
ENDBRANCH  12  14
ENDBRANCH  10  12
ENDBRANCH   1  10
TORSDOF 4
ENDMDL
