MODEL 1
REMARK VINA RESULT: -5.220285515      0.000      0.000
REMARK  2 active torsions:
REMARK  status: ('A' for Active; 'I' for Inactive)
REMARK    1  A    between atoms: O1_2  and  N1_3 
REMARK       I    between atoms: N1_3  and  C2_5 
REMARK       I    between atoms: C2_5  and  N3_9 
REMARK    2  A    between atoms: C7_16  and  N4_17 
ROOT
HETATM    1  N1  UNL     1      56.311 131.844 -90.799  1.00  0.00    -0.097 N 
ATOM      2  H1  UNL     1      56.901 131.572 -90.013  1.00  0.00     0.213 HD
HETATM    3  C2  UNL     1      54.986 132.258 -90.524  1.00  0.00     0.697 C 
HETATM    4  N2  UNL     1      54.525 133.334 -91.051  1.00  0.00    -0.233 N 
ATOM      5  H21 UNL     1      53.570 133.632 -90.852  1.00  0.00     0.174 HD
ATOM      6  H22 UNL     1      55.135 133.872 -91.666  1.00  0.00     0.174 HD
HETATM    7  N3  UNL     1      54.141 131.511 -89.671  1.00  0.00    -0.175 N 
ATOM      8  H3  UNL     1      53.784 130.616 -90.008  1.00  0.00     0.186 HD
HETATM    9  C3  UNL     1      53.797 131.897 -88.492  1.00  0.00     0.126 A 
HETATM   10  C4  UNL     1      52.969 131.112 -87.720  1.00  0.00     0.081 A 
HETATM   11  C5  UNL     1      52.617 131.547 -86.466  1.00  0.00     0.056 A 
HETATM   12  C6  UNL     1      51.727 130.716 -85.620  1.00  0.00     0.077 C 
HETATM   13  O2  UNL     1      53.049 132.698 -85.976  1.00  0.00    -0.284 OA
HETATM   14  C7  UNL     1      53.840 133.454 -86.706  1.00  0.00     0.223 A 
HETATM   15  N5  UNL     1      54.209 133.056 -87.949  1.00  0.00    -0.308 N 
ATOM     16  H5  UNL     1      54.824 133.660 -88.494  1.00  0.00     0.171 HD
ENDROOT
BRANCH  14  17
HETATM   17  N4  UNL     1      54.244 134.577 -86.191  1.00  0.00    -0.365 N 
ATOM     18  H42 UNL     1      54.682 134.626 -85.271  1.00  0.00     0.159 HD
ATOM     19  H41 UNL     1      54.109 135.426 -86.740  1.00  0.00     0.159 HD
ENDBRANCH  14  17
BRANCH   1  20
HETATM   20  O1  UNL     1      56.841 131.785 -92.042  1.00  0.00    -0.272 OA
HETATM   21  C1  UNL     1      56.769 130.523 -92.574  1.00  0.00     0.238 C 
ENDBRANCH   1  20
TORSDOF 2
ENDMDL
MODEL 2
REMARK VINA RESULT: -5.212296974      1.530      5.473
REMARK  2 active torsions:
REMARK  status: ('A' for Active; 'I' for Inactive)
REMARK    1  A    between atoms: O1_2  and  N1_3 
REMARK       I    between atoms: N1_3  and  C2_5 
REMARK       I    between atoms: C2_5  and  N3_9 
REMARK    2  A    between atoms: C7_16  and  N4_17 
ROOT
HETATM    1  N1  UNL     1      51.881 131.974 -87.421  1.00  0.00    -0.097 N 
ATOM      2  H1  UNL     1      51.246 132.239 -88.173  1.00  0.00     0.213 HD
HETATM    3  C2  UNL     1      53.256 131.841 -87.727  1.00  0.00     0.697 C 
HETATM    4  N2  UNL     1      54.139 132.393 -86.978  1.00  0.00    -0.233 N 
ATOM      5  H21 UNL     1      55.130 132.297 -87.199  1.00  0.00     0.174 HD
ATOM      6  H22 UNL     1      53.823 132.923 -86.165  1.00  0.00     0.174 HD
HETATM    7  N3  UNL     1      53.693 131.106 -88.854  1.00  0.00    -0.175 N 
ATOM      8  H3  UNL     1      53.607 130.089 -88.829  1.00  0.00     0.186 HD
HETATM    9  C3  UNL     1      54.194 131.649 -89.907  1.00  0.00     0.126 A 
HETATM   10  C4  UNL     1      54.598 130.864 -90.965  1.00  0.00     0.081 A 
HETATM   11  C5  UNL     1      55.130 131.468 -92.079  1.00  0.00     0.056 A 
HETATM   12  C6  UNL     1      55.570 130.640 -93.227  1.00  0.00     0.077 C 
HETATM   13  O2  UNL     1      55.266 132.781 -92.166  1.00  0.00    -0.284 OA
HETATM   14  C7  UNL     1      54.883 133.538 -91.161  1.00  0.00     0.223 A 
HETATM   15  N5  UNL     1      54.353 132.976 -90.046  1.00  0.00    -0.308 N 
ATOM     16  H5  UNL     1      54.063 133.586 -89.281  1.00  0.00     0.171 HD
ENDROOT
BRANCH  14  17
HETATM   17  N4  UNL     1      55.033 134.824 -91.283  1.00  0.00    -0.365 N 
ATOM     18  H42 UNL     1      54.311 135.484 -90.995  1.00  0.00     0.159 HD
ATOM     19  H41 UNL     1      55.908 135.163 -91.683  1.00  0.00     0.159 HD
ENDBRANCH  14  17
BRANCH   1  20
HETATM   20  O1  UNL     1      51.357 131.770 -86.190  1.00  0.00    -0.272 OA
HETATM   21  C1  UNL     1      51.719 130.552 -85.672  1.00  0.00     0.238 C 
ENDBRANCH   1  20
TORSDOF 2
ENDMDL
MODEL 3
REMARK VINA RESULT: -4.158213454      1.673      5.576
REMARK  2 active torsions:
REMARK  status: ('A' for Active; 'I' for Inactive)
REMARK    1  A    between atoms: O1_2  and  N1_3 
REMARK       I    between atoms: N1_3  and  C2_5 
REMARK       I    between atoms: C2_5  and  N3_9 
REMARK    2  A    between atoms: C7_16  and  N4_17 
ROOT
HETATM    1  N1  UNL     1      52.467 132.826 -87.733  1.00  0.00    -0.097 N 
ATOM      2  H1  UNL     1      52.329 133.477 -88.506  1.00  0.00     0.213 HD
HETATM    3  C2  UNL     1      53.323 131.719 -87.941  1.00  0.00     0.697 C 
HETATM    4  N2  UNL     1      54.229 131.434 -87.077  1.00  0.00    -0.233 N 
ATOM      5  H21 UNL     1      54.846 130.635 -87.227  1.00  0.00     0.174 HD
ATOM      6  H22 UNL     1      54.310 132.022 -86.248  1.00  0.00     0.174 HD
HETATM    7  N3  UNL     1      53.209 130.904 -89.091  1.00  0.00    -0.175 N 
ATOM      8  H3  UNL     1      52.401 130.285 -89.166  1.00  0.00     0.186 HD
HETATM    9  C3  UNL     1      54.069 130.900 -90.049  1.00  0.00     0.126 A 
HETATM   10  C4  UNL     1      53.888 130.076 -91.138  1.00  0.00     0.081 A 
HETATM   11  C5  UNL     1      54.820 130.090 -92.147  1.00  0.00     0.056 A 
HETATM   12  C6  UNL     1      54.643 129.211 -93.327  1.00  0.00     0.077 C 
HETATM   13  O2  UNL     1      55.887 130.872 -92.105  1.00  0.00    -0.284 OA
HETATM   14  C7  UNL     1      56.068 131.661 -91.068  1.00  0.00     0.223 A 
HETATM   15  N5  UNL     1      55.168 131.674 -90.054  1.00  0.00    -0.308 N 
ATOM     16  H5  UNL     1      55.331 132.296 -89.263  1.00  0.00     0.171 HD
ENDROOT
BRANCH  14  17
HETATM   17  N4  UNL     1      57.128 132.414 -91.062  1.00  0.00    -0.365 N 
ATOM     18  H42 UNL     1      57.595 132.701 -91.922  1.00  0.00     0.159 HD
ATOM     19  H41 UNL     1      57.488 132.717 -90.157  1.00  0.00     0.159 HD
ENDBRANCH  14  17
BRANCH   1  20
HETATM   20  O1  UNL     1      51.821 133.074 -86.571  1.00  0.00    -0.272 OA
HETATM   21  C1  UNL     1      51.044 132.014 -86.177  1.00  0.00     0.238 C 
ENDBRANCH   1  20
TORSDOF 2
ENDMDL
MODEL 4
REMARK VINA RESULT: -3.864450916      1.912      5.782
REMARK  2 active torsions:
REMARK  status: ('A' for Active; 'I' for Inactive)
REMARK    1  A    between atoms: O1_2  and  N1_3 
REMARK       I    between atoms: N1_3  and  C2_5 
REMARK       I    between atoms: C2_5  and  N3_9 
REMARK    2  A    between atoms: C7_16  and  N4_17 
ROOT
HETATM    1  N1  UNL     1      54.187 131.800 -86.483  1.00  0.00    -0.097 N 
ATOM      2  H1  UNL     1      55.025 131.236 -86.621  1.00  0.00     0.213 HD
HETATM    3  C2  UNL     1      53.427 132.151 -87.623  1.00  0.00     0.697 C 
HETATM    4  N2  UNL     1      52.153 131.993 -87.621  1.00  0.00    -0.233 N 
ATOM      5  H21 UNL     1      51.604 132.246 -88.444  1.00  0.00     0.174 HD
ATOM      6  H22 UNL     1      51.713 131.612 -86.784  1.00  0.00     0.174 HD
HETATM    7  N3  UNL     1      54.037 132.679 -88.784  1.00  0.00    -0.175 N 
ATOM      8  H3  UNL     1      54.406 133.630 -88.745  1.00  0.00     0.186 HD
HETATM    9  C3  UNL     1      54.154 132.026 -89.887  1.00  0.00     0.126 A 
HETATM   10  C4  UNL     1      54.762 132.610 -90.976  1.00  0.00     0.081 A 
HETATM   11  C5  UNL     1      54.875 131.893 -92.142  1.00  0.00     0.056 A 
HETATM   12  C6  UNL     1      55.527 132.504 -93.325  1.00  0.00     0.077 C 
HETATM   13  O2  UNL     1      54.416 130.656 -92.251  1.00  0.00    -0.284 OA
HETATM   14  C7  UNL     1      53.833 130.091 -91.216  1.00  0.00     0.223 A 
HETATM   15  N5  UNL     1      53.705 130.770 -90.049  1.00  0.00    -0.308 N 
ATOM     16  H5  UNL     1      53.251 130.308 -89.261  1.00  0.00     0.171 HD
ENDROOT
BRANCH  14  17
HETATM   17  N4  UNL     1      53.394 128.875 -91.361  1.00  0.00    -0.365 N 
ATOM     18  H42 UNL     1      52.924 128.566 -92.211  1.00  0.00     0.159 HD
ATOM     19  H41 UNL     1      53.536 128.226 -90.588  1.00  0.00     0.159 HD
ENDBRANCH  14  17
BRANCH   1  20
HETATM   20  O1  UNL     1      53.870 132.168 -85.220  1.00  0.00    -0.272 OA
HETATM   21  C1  UNL     1      53.146 131.202 -84.568  1.00  0.00     0.238 C 
ENDBRANCH   1  20
TORSDOF 2
ENDMDL
MODEL 5
REMARK VINA RESULT: -3.371298963      9.434      9.905
REMARK  2 active torsions:
REMARK  status: ('A' for Active; 'I' for Inactive)
REMARK    1  A    between atoms: O1_2  and  N1_3 
REMARK       I    between atoms: N1_3  and  C2_5 
REMARK       I    between atoms: C2_5  and  N3_9 
REMARK    2  A    between atoms: C7_16  and  N4_17 
ROOT
HETATM    1  N1  UNL     1      58.225 139.873 -90.977  1.00  0.00    -0.097 N 
ATOM      2  H1  UNL     1      57.711 139.107 -90.542  1.00  0.00     0.213 HD
HETATM    3  C2  UNL     1      59.167 140.574 -90.188  1.00  0.00     0.697 C 
HETATM    4  N2  UNL     1      60.345 140.802 -90.643  1.00  0.00    -0.233 N 
ATOM      5  H21 UNL     1      61.025 141.307 -90.074  1.00  0.00     0.174 HD
ATOM      6  H22 UNL     1      60.577 140.468 -91.579  1.00  0.00     0.174 HD
HETATM    7  N3  UNL     1      58.846 141.036 -88.891  1.00  0.00    -0.175 N 
ATOM      8  H3  UNL     1      58.200 141.822 -88.805  1.00  0.00     0.186 HD
HETATM    9  C3  UNL     1      59.323 140.521 -87.812  1.00  0.00     0.126 A 
HETATM   10  C4  UNL     1      58.961 141.029 -86.584  1.00  0.00     0.081 A 
HETATM   11  C5  UNL     1      59.484 140.461 -85.447  1.00  0.00     0.056 A 
HETATM   12  C6  UNL     1      59.106 140.994 -84.116  1.00  0.00     0.077 C 
HETATM   13  O2  UNL     1      60.325 139.441 -85.497  1.00  0.00    -0.284 OA
HETATM   14  C7  UNL     1      60.677 138.950 -86.665  1.00  0.00     0.223 A 
HETATM   15  N5  UNL     1      60.179 139.485 -87.808  1.00  0.00    -0.308 N 
ATOM     16  H5  UNL     1      60.466 139.085 -88.701  1.00  0.00     0.171 HD
ENDROOT
BRANCH  14  17
HETATM   17  N4  UNL     1      61.505 137.948 -86.674  1.00  0.00    -0.365 N 
ATOM     18  H42 UNL     1      61.485 137.221 -85.958  1.00  0.00     0.159 HD
ATOM     19  H41 UNL     1      62.189 137.906 -87.429  1.00  0.00     0.159 HD
ENDBRANCH  14  17
BRANCH   1  20
HETATM   20  O1  UNL     1      57.963 140.158 -92.273  1.00  0.00    -0.272 OA
HETATM   21  C1  UNL     1      56.621 140.320 -92.504  1.00  0.00     0.238 C 
ENDBRANCH   1  20
TORSDOF 2
ENDMDL
