MODEL 1
REMARK VINA RESULT: -4.979400598      0.000      0.000
REMARK  3 active torsions:
REMARK  status: ('A' for Active; 'I' for Inactive)
REMARK    1  A    between atoms: N1_2  and  C2_4 
REMARK    2  A    between atoms: C5_13  and  N5_14 
REMARK    3  A    between atoms: N5_14  and  C6_16 
ROOT
HETATM    1  C2  UNL     1      54.700 132.850 -90.760  1.00  0.00     0.706 A 
HETATM    2  N2  UNL     1      54.446 131.652 -91.315  1.00  0.00    -0.022 N 
ATOM      3  H2  UNL     1      54.651 131.499 -92.302  1.00  0.00     0.203 HD
HETATM    4  C3  UNL     1      53.932 130.669 -90.589  1.00  0.00     0.706 A 
HETATM    5  N3  UNL     1      53.687 129.517 -91.122  1.00  0.00    -0.229 N 
ATOM      6  H3  UNL     1      53.292 128.767 -90.553  1.00  0.00     0.177 HD
HETATM    7  C4  UNL     1      53.969 129.292 -92.502  1.00  0.00     0.165 C 
HETATM    8  N4  UNL     1      53.652 130.856 -89.265  1.00  0.00    -0.021 N 
ATOM      9  H4  UNL     1      53.256 130.098 -88.709  1.00  0.00     0.203 HD
HETATM   10  C5  UNL     1      53.904 132.052 -88.705  1.00  0.00     0.712 A 
HETATM   11  N7  UNL     1      54.424 133.035 -89.457  1.00  0.00    -0.021 N 
ATOM     12  H7  UNL     1      54.615 133.941 -89.030  1.00  0.00     0.203 HD
ENDROOT
BRANCH  10  13
HETATM   13  N5  UNL     1      53.626 132.193 -87.446  1.00  0.00    -0.180 N 
ATOM     14  H5  UNL     1      54.232 132.777 -86.870  1.00  0.00     0.185 HD
BRANCH  13  15
HETATM   15  C6  UNL     1      52.507 131.562 -86.839  1.00  0.00     0.087 C 
HETATM   16  C7  UNL     1      52.666 130.506 -85.832  1.00  0.00     0.089 C 
HETATM   17  N6  UNL     1      51.339 131.954 -87.210  1.00  0.00    -0.389 N 
ATOM     18  H62 UNL     1      51.229 132.688 -87.910  1.00  0.00     0.157 HD
ATOM     19  H61 UNL     1      50.536 131.501 -86.774  1.00  0.00     0.157 HD
ENDBRANCH  13  15
ENDBRANCH  10  13
BRANCH   1  20
HETATM   20  N1  UNL     1      55.202 133.817 -91.460  1.00  0.00    -0.229 N 
HETATM   21  C1  UNL     1      54.491 134.488 -92.499  1.00  0.00     0.165 C 
ATOM     22  H1  UNL     1      56.157 134.115 -91.257  1.00  0.00     0.177 HD
ENDBRANCH   1  20
TORSDOF 3
ENDMDL
MODEL 2
REMARK VINA RESULT: -4.697818227      1.224      4.276
REMARK  3 active torsions:
REMARK  status: ('A' for Active; 'I' for Inactive)
REMARK    1  A    between atoms: N1_2  and  C2_4 
REMARK    2  A    between atoms: C5_13  and  N5_14 
REMARK    3  A    between atoms: N5_14  and  C6_16 
ROOT
HETATM    1  C2  UNL     1      54.663 132.982 -90.435  1.00  0.00     0.706 A 
HETATM    2  N2  UNL     1      54.404 133.059 -89.118  1.00  0.00    -0.022 N 
ATOM      3  H2  UNL     1      54.591 133.927 -88.616  1.00  0.00     0.203 HD
HETATM    4  C3  UNL     1      53.908 132.017 -88.466  1.00  0.00     0.706 A 
HETATM    5  N3  UNL     1      53.659 132.090 -87.200  1.00  0.00    -0.229 N 
ATOM      6  H3  UNL     1      53.277 131.282 -86.709  1.00  0.00     0.177 HD
HETATM    7  C4  UNL     1      53.918 133.300 -86.488  1.00  0.00     0.165 C 
HETATM    8  N4  UNL     1      53.651 130.847 -89.122  1.00  0.00    -0.021 N 
ATOM      9  H4  UNL     1      53.269 130.046 -88.618  1.00  0.00     0.203 HD
HETATM   10  C5  UNL     1      53.907 130.764 -90.439  1.00  0.00     0.712 A 
HETATM   11  N7  UNL     1      54.410 131.830 -91.080  1.00  0.00    -0.021 N 
ATOM     12  H7  UNL     1      54.604 131.765 -92.079  1.00  0.00     0.203 HD
ENDROOT
BRANCH  10  13
HETATM   13  N5  UNL     1      53.650 129.637 -91.028  1.00  0.00    -0.180 N 
ATOM     14  H5  UNL     1      52.963 129.009 -90.610  1.00  0.00     0.185 HD
BRANCH  13  15
HETATM   15  C6  UNL     1      54.291 129.244 -92.233  1.00  0.00     0.087 C 
HETATM   16  C7  UNL     1      55.646 128.680 -92.241  1.00  0.00     0.089 C 
HETATM   17  N6  UNL     1      53.634 129.404 -93.327  1.00  0.00    -0.389 N 
ATOM     18  H62 UNL     1      52.692 129.796 -93.321  1.00  0.00     0.157 HD
ATOM     19  H61 UNL     1      54.094 129.121 -94.192  1.00  0.00     0.157 HD
ENDBRANCH  13  15
ENDBRANCH  10  13
BRANCH   1  20
HETATM   20  N1  UNL     1      55.148 133.994 -91.080  1.00  0.00    -0.229 N 
HETATM   21  C1  UNL     1      54.577 134.507 -92.283  1.00  0.00     0.165 C 
ATOM     22  H1  UNL     1      55.982 134.449 -90.709  1.00  0.00     0.177 HD
ENDBRANCH   1  20
TORSDOF 3
ENDMDL
MODEL 3
REMARK VINA RESULT: -4.675309928      1.237      1.463
REMARK  3 active torsions:
REMARK  status: ('A' for Active; 'I' for Inactive)
REMARK    1  A    between atoms: N1_2  and  C2_4 
REMARK    2  A    between atoms: C5_13  and  N5_14 
REMARK    3  A    between atoms: N5_14  and  C6_16 
ROOT
HETATM    1  C2  UNL     1      55.637 132.080 -90.733  1.00  0.00     0.706 A 
HETATM    2  N2  UNL     1      55.103 130.998 -91.326  1.00  0.00    -0.022 N 
ATOM      3  H2  UNL     1      55.555 130.597 -92.147  1.00  0.00     0.203 HD
HETATM    4  C3  UNL     1      53.994 130.448 -90.852  1.00  0.00     0.706 A 
HETATM    5  N3  UNL     1      53.479 129.408 -91.421  1.00  0.00    -0.229 N 
ATOM      6  H3  UNL     1      52.626 128.993 -91.047  1.00  0.00     0.177 HD
HETATM    7  C4  UNL     1      54.103 128.840 -92.572  1.00  0.00     0.165 C 
HETATM    8  N4  UNL     1      53.375 130.971 -89.752  1.00  0.00    -0.021 N 
ATOM      9  H4  UNL     1      52.522 130.546 -89.389  1.00  0.00     0.203 HD
HETATM   10  C5  UNL     1      53.905 132.053 -89.154  1.00  0.00     0.712 A 
HETATM   11  N7  UNL     1      55.028 132.595 -89.651  1.00  0.00    -0.021 N 
ATOM     12  H7  UNL     1      55.428 133.416 -89.196  1.00  0.00     0.203 HD
ENDROOT
BRANCH  10  13
HETATM   13  N5  UNL     1      53.290 132.521 -88.112  1.00  0.00    -0.180 N 
ATOM     14  H5  UNL     1      53.225 133.532 -87.993  1.00  0.00     0.185 HD
BRANCH  13  15
HETATM   15  C6  UNL     1      52.705 131.677 -87.132  1.00  0.00     0.087 C 
HETATM   16  C7  UNL     1      53.520 130.845 -86.239  1.00  0.00     0.089 C 
HETATM   17  N6  UNL     1      51.420 131.669 -87.054  1.00  0.00    -0.389 N 
ATOM     18  H62 UNL     1      50.853 132.248 -87.675  1.00  0.00     0.157 HD
ATOM     19  H61 UNL     1      51.000 131.064 -86.349  1.00  0.00     0.157 HD
ENDBRANCH  13  15
ENDBRANCH  10  13
BRANCH   1  20
HETATM   20  N1  UNL     1      56.719 132.625 -91.189  1.00  0.00    -0.229 N 
HETATM   21  C1  UNL     1      57.991 131.976 -91.181  1.00  0.00     0.165 C 
ATOM     22  H1  UNL     1      56.660 133.568 -91.573  1.00  0.00     0.177 HD
ENDBRANCH   1  20
TORSDOF 3
ENDMDL
MODEL 4
REMARK VINA RESULT: -4.537127363      1.527      2.943
REMARK  3 active torsions:
REMARK  status: ('A' for Active; 'I' for Inactive)
REMARK    1  A    between atoms: N1_2  and  C2_4 
REMARK    2  A    between atoms: C5_13  and  N5_14 
REMARK    3  A    between atoms: N5_14  and  C6_16 
ROOT
HETATM    1  C2  UNL     1      54.057 130.270 -91.003  1.00  0.00     0.706 A 
HETATM    2  N2  UNL     1      55.280 130.637 -91.423  1.00  0.00    -0.022 N 
ATOM      3  H2  UNL     1      55.728 130.125 -92.183  1.00  0.00     0.203 HD
HETATM    4  C3  UNL     1      55.908 131.659 -90.859  1.00  0.00     0.706 A 
HETATM    5  N3  UNL     1      57.085 132.012 -91.262  1.00  0.00    -0.229 N 
ATOM      6  H3  UNL     1      57.559 132.800 -90.821  1.00  0.00     0.177 HD
HETATM    7  C4  UNL     1      57.721 131.301 -92.323  1.00  0.00     0.165 C 
HETATM    8  N4  UNL     1      55.324 132.357 -89.841  1.00  0.00    -0.021 N 
ATOM      9  H4  UNL     1      55.809 133.143 -89.408  1.00  0.00     0.203 HD
HETATM   10  C5  UNL     1      54.100 131.995 -89.417  1.00  0.00     0.712 A 
HETATM   11  N7  UNL     1      53.481 130.957 -90.001  1.00  0.00    -0.021 N 
ATOM     12  H7  UNL     1      52.553 130.684 -89.678  1.00  0.00     0.203 HD
ENDROOT
BRANCH  10  13
HETATM   13  N5  UNL     1      53.576 132.681 -88.449  1.00  0.00    -0.180 N 
ATOM     14  H5  UNL     1      53.670 133.697 -88.459  1.00  0.00     0.185 HD
BRANCH  13  15
HETATM   15  C6  UNL     1      52.877 132.070 -87.374  1.00  0.00     0.087 C 
HETATM   16  C7  UNL     1      53.577 131.331 -86.315  1.00  0.00     0.089 C 
HETATM   17  N6  UNL     1      51.596 132.188 -87.363  1.00  0.00    -0.389 N 
ATOM     18  H62 UNL     1      51.110 132.702 -88.099  1.00  0.00     0.157 HD
ATOM     19  H61 UNL     1      51.094 131.750 -86.591  1.00  0.00     0.157 HD
ENDBRANCH  13  15
ENDBRANCH  10  13
BRANCH   1  20
HETATM   20  N1  UNL     1      53.435 129.274 -91.547  1.00  0.00    -0.229 N 
HETATM   21  C1  UNL     1      53.630 128.869 -92.901  1.00  0.00     0.165 C 
ATOM     22  H1  UNL     1      52.770 128.750 -90.977  1.00  0.00     0.177 HD
ENDBRANCH   1  20
TORSDOF 3
ENDMDL
MODEL 5
REMARK VINA RESULT: -4.511384068      0.897      1.022
REMARK  3 active torsions:
REMARK  status: ('A' for Active; 'I' for Inactive)
REMARK    1  A    between atoms: N1_2  and  C2_4 
REMARK    2  A    between atoms: C5_13  and  N5_14 
REMARK    3  A    between atoms: N5_14  and  C6_16 
ROOT
HETATM    1  C2  UNL     1      54.682 132.735 -90.861  1.00  0.00     0.706 A 
HETATM    2  N2  UNL     1      54.585 131.638 -91.632  1.00  0.00    -0.022 N 
ATOM      3  H2  UNL     1      54.866 131.682 -92.611  1.00  0.00     0.203 HD
HETATM    4  C3  UNL     1      54.128 130.500 -91.130  1.00  0.00     0.706 A 
HETATM    5  N3  UNL     1      54.033 129.444 -91.870  1.00  0.00    -0.229 N 
ATOM      6  H3  UNL     1      53.679 128.574 -91.473  1.00  0.00     0.177 HD
HETATM    7  C4  UNL     1      54.422 129.496 -93.242  1.00  0.00     0.165 C 
HETATM    8  N4  UNL     1      53.747 130.422 -89.820  1.00  0.00    -0.021 N 
ATOM      9  H4  UNL     1      53.394 129.545 -89.436  1.00  0.00     0.203 HD
HETATM   10  C5  UNL     1      53.842 131.516 -89.044  1.00  0.00     0.712 A 
HETATM   11  N7  UNL     1      54.308 132.659 -89.572  1.00  0.00    -0.021 N 
ATOM     12  H7  UNL     1      54.379 133.487 -88.982  1.00  0.00     0.203 HD
ENDROOT
BRANCH  10  13
HETATM   13  N5  UNL     1      53.472 131.404 -87.806  1.00  0.00    -0.180 N 
ATOM     14  H5  UNL     1      53.580 130.503 -87.340  1.00  0.00     0.185 HD
BRANCH  13  15
HETATM   15  C6  UNL     1      52.921 132.490 -87.075  1.00  0.00     0.087 C 
HETATM   16  C7  UNL     1      53.726 133.277 -86.133  1.00  0.00     0.089 C 
HETATM   17  N6  UNL     1      51.679 132.760 -87.271  1.00  0.00    -0.389 N 
ATOM     18  H62 UNL     1      51.119 132.213 -87.926  1.00  0.00     0.157 HD
ATOM     19  H61 UNL     1      51.283 133.541 -86.747  1.00  0.00     0.157 HD
ENDBRANCH  13  15
ENDBRANCH  10  13
BRANCH   1  20
HETATM   20  N1  UNL     1      55.128 133.851 -91.342  1.00  0.00    -0.229 N 
HETATM   21  C1  UNL     1      54.529 134.529 -92.445  1.00  0.00     0.165 C 
ATOM     22  H1  UNL     1      55.952 134.269 -90.908  1.00  0.00     0.177 HD
ENDBRANCH   1  20
TORSDOF 3
ENDMDL
