MODEL 1
REMARK VINA RESULT: -5.529384894      0.000      0.000
REMARK  2 active torsions:
REMARK  status: ('A' for Active; 'I' for Inactive)
REMARK    1  A    between atoms: C2_9  and  C3_10 
REMARK    2  A    between atoms: N6_17  and  N7_19 
ROOT
HETATM    1  C3  UNL     1      56.008 130.499 -92.075  1.00  0.00     0.056 A 
HETATM    2  C4  UNL     1      57.304 130.537 -92.615  1.00  0.00     0.020 A 
HETATM    3  C5  UNL     1      57.855 129.453 -93.250  1.00  0.00     0.018 A 
HETATM    4  C6  UNL     1      57.064 128.327 -93.327  1.00  0.00     0.090 A 
HETATM    5  N5  UNL     1      55.847 128.259 -92.833  1.00  0.00    -0.350 N 
ATOM      6  H5  UNL     1      55.321 127.391 -92.930  1.00  0.00     0.166 HD
HETATM    7  C7  UNL     1      55.253 129.344 -92.178  1.00  0.00     0.133 A 
HETATM    8  N6  UNL     1      54.121 129.107 -91.738  1.00  0.00    -0.291 N 
ATOM      9  H6  UNL     1      53.889 128.152 -92.011  1.00  0.00     0.188 HD
ENDROOT
BRANCH   1  10
HETATM   10  C2  UNL     1      55.501 131.654 -91.374  1.00  0.00     0.153 A 
HETATM   11  N1  UNL     1      54.907 132.744 -91.943  1.00  0.00    -0.264 N 
HETATM   12  C1  UNL     1      54.615 133.045 -93.327  1.00  0.00     0.181 C 
HETATM   13  N2  UNL     1      54.612 133.639 -90.985  1.00  0.00    -0.225 N 
HETATM   14  N3  UNL     1      55.002 133.148 -89.833  1.00  0.00    -0.226 N 
ATOM     15  H2  UNL     1      54.162 134.543 -91.129  1.00  0.00     0.210 HD
HETATM   16  N4  UNL     1      55.531 131.963 -90.081  1.00  0.00    -0.268 N 
ATOM     17  H3  UNL     1      54.914 133.595 -88.921  1.00  0.00     0.210 HD
ATOM     18  H4  UNL     1      55.919 131.353 -89.361  1.00  0.00     0.190 HD
ENDBRANCH   1  10
BRANCH   8  19
HETATM   19  N7  UNL     1      53.114 129.566 -91.077  1.00  0.00    -0.344 N 
ATOM     20  H72 UNL     1      52.986 128.916 -90.301  1.00  0.00     0.176 HD
ATOM     21  H71 UNL     1      52.407 130.298 -91.014  1.00  0.00     0.176 HD
ENDBRANCH   8  19
TORSDOF 2
ENDMDL
MODEL 2
REMARK VINA RESULT: -5.184138546      1.677      2.570
REMARK  2 active torsions:
REMARK  status: ('A' for Active; 'I' for Inactive)
REMARK    1  A    between atoms: C2_9  and  C3_10 
REMARK    2  A    between atoms: N6_17  and  N7_19 
ROOT
HETATM    1  C3  UNL     1      54.870 130.517 -91.352  1.00  0.00     0.056 A 
HETATM    2  C4  UNL     1      53.841 129.804 -91.989  1.00  0.00     0.020 A 
HETATM    3  C5  UNL     1      54.101 128.891 -92.980  1.00  0.00     0.018 A 
HETATM    4  C6  UNL     1      55.427 128.713 -93.311  1.00  0.00     0.090 A 
HETATM    5  N5  UNL     1      56.413 129.364 -92.734  1.00  0.00    -0.350 N 
ATOM      6  H5  UNL     1      57.370 129.179 -93.032  1.00  0.00     0.166 HD
HETATM    7  C7  UNL     1      56.187 130.304 -91.721  1.00  0.00     0.133 A 
HETATM    8  N6  UNL     1      57.214 130.856 -91.308  1.00  0.00    -0.291 N 
ATOM      9  H6  UNL     1      57.999 130.438 -91.809  1.00  0.00     0.188 HD
ENDROOT
BRANCH   1  10
HETATM   10  C2  UNL     1      54.532 131.502 -90.353  1.00  0.00     0.153 A 
HETATM   11  N1  UNL     1      54.707 132.852 -90.462  1.00  0.00    -0.264 N 
HETATM   12  C1  UNL     1      55.237 133.651 -91.544  1.00  0.00     0.181 C 
HETATM   13  N2  UNL     1      54.327 133.442 -89.315  1.00  0.00    -0.225 N 
HETATM   14  N3  UNL     1      53.920 132.507 -88.490  1.00  0.00    -0.226 N 
ATOM     15  H2  UNL     1      54.350 134.443 -89.122  1.00  0.00     0.210 HD
HETATM   16  N4  UNL     1      54.049 131.355 -89.123  1.00  0.00    -0.268 N 
ATOM     17  H3  UNL     1      53.571 132.644 -87.542  1.00  0.00     0.210 HD
ATOM     18  H4  UNL     1      53.806 130.453 -88.713  1.00  0.00     0.190 HD
ENDBRANCH   1  10
BRANCH   8  19
HETATM   19  N7  UNL     1      57.705 131.740 -90.510  1.00  0.00    -0.344 N 
ATOM     20  H72 UNL     1      58.127 131.207 -89.749  1.00  0.00     0.176 HD
ATOM     21  H71 UNL     1      57.841 132.735 -90.330  1.00  0.00     0.176 HD
ENDBRANCH   8  19
TORSDOF 2
ENDMDL
MODEL 3
REMARK VINA RESULT: -4.682689839      1.775      2.826
REMARK  2 active torsions:
REMARK  status: ('A' for Active; 'I' for Inactive)
REMARK    1  A    between atoms: C2_9  and  C3_10 
REMARK    2  A    between atoms: N6_17  and  N7_19 
ROOT
HETATM    1  C3  UNL     1      55.270 130.677 -92.036  1.00  0.00     0.056 A 
HETATM    2  C4  UNL     1      54.335 129.747 -92.520  1.00  0.00     0.020 A 
HETATM    3  C5  UNL     1      54.600 128.401 -92.542  1.00  0.00     0.018 A 
HETATM    4  C6  UNL     1      55.833 128.015 -92.063  1.00  0.00     0.090 A 
HETATM    5  N5  UNL     1      56.730 128.860 -91.603  1.00  0.00    -0.350 N 
ATOM      6  H5  UNL     1      57.621 128.500 -91.264  1.00  0.00     0.166 HD
HETATM    7  C7  UNL     1      56.496 130.240 -91.566  1.00  0.00     0.133 A 
HETATM    8  N6  UNL     1      57.452 130.901 -91.141  1.00  0.00    -0.291 N 
ATOM      9  H6  UNL     1      58.182 130.237 -90.882  1.00  0.00     0.188 HD
ENDROOT
BRANCH   1  10
HETATM   10  C2  UNL     1      54.955 132.085 -92.084  1.00  0.00     0.153 A 
HETATM   11  N1  UNL     1      54.694 132.888 -91.011  1.00  0.00    -0.264 N 
HETATM   12  C1  UNL     1      54.668 132.594 -89.595  1.00  0.00     0.181 C 
HETATM   13  N2  UNL     1      54.393 134.124 -91.445  1.00  0.00    -0.225 N 
HETATM   14  N3  UNL     1      54.454 134.123 -92.755  1.00  0.00    -0.226 N 
ATOM     15  H2  UNL     1      54.157 134.923 -90.857  1.00  0.00     0.210 HD
HETATM   16  N4  UNL     1      54.790 132.898 -93.122  1.00  0.00    -0.268 N 
ATOM     17  H3  UNL     1      54.276 134.915 -93.372  1.00  0.00     0.210 HD
ATOM     18  H4  UNL     1      54.910 132.611 -94.093  1.00  0.00     0.190 HD
ENDBRANCH   1  10
BRANCH   8  19
HETATM   19  N7  UNL     1      57.909 132.080 -90.891  1.00  0.00    -0.344 N 
ATOM     20  H72 UNL     1      57.295 132.456 -90.168  1.00  0.00     0.176 HD
ATOM     21  H71 UNL     1      58.619 132.777 -91.116  1.00  0.00     0.176 HD
ENDBRANCH   8  19
TORSDOF 2
ENDMDL
MODEL 4
REMARK VINA RESULT: -4.472531155     10.679     11.431
REMARK  2 active torsions:
REMARK  status: ('A' for Active; 'I' for Inactive)
REMARK    1  A    between atoms: C2_9  and  C3_10 
REMARK    2  A    between atoms: N6_17  and  N7_19 
ROOT
HETATM    1  C3  UNL     1      60.746 139.719 -88.527  1.00  0.00     0.056 A 
HETATM    2  C4  UNL     1      61.738 139.855 -89.513  1.00  0.00     0.020 A 
HETATM    3  C5  UNL     1      61.494 140.501 -90.698  1.00  0.00     0.018 A 
HETATM    4  C6  UNL     1      60.223 141.009 -90.864  1.00  0.00     0.090 A 
HETATM    5  N5  UNL     1      59.274 140.899 -89.961  1.00  0.00    -0.350 N 
ATOM      6  H5  UNL     1      58.357 141.301 -90.155  1.00  0.00     0.166 HD
HETATM    7  C7  UNL     1      59.485 140.246 -88.742  1.00  0.00     0.133 A 
HETATM    8  N6  UNL     1      58.482 140.194 -88.018  1.00  0.00    -0.291 N 
ATOM      9  H6  UNL     1      57.738 140.696 -88.504  1.00  0.00     0.188 HD
ENDROOT
BRANCH   1  10
HETATM   10  C2  UNL     1      61.046 138.985 -87.321  1.00  0.00     0.153 A 
HETATM   11  N1  UNL     1      61.374 139.525 -86.111  1.00  0.00    -0.264 N 
HETATM   12  C1  UNL     1      61.499 140.905 -85.695  1.00  0.00     0.181 C 
HETATM   13  N2  UNL     1      61.635 138.536 -85.239  1.00  0.00    -0.225 N 
HETATM   14  N3  UNL     1      61.484 137.392 -85.863  1.00  0.00    -0.226 N 
ATOM     15  H2  UNL     1      61.904 138.654 -84.263  1.00  0.00     0.210 HD
HETATM   16  N4  UNL     1      61.132 137.676 -87.105  1.00  0.00    -0.268 N 
ATOM     17  H3  UNL     1      61.613 136.461 -85.466  1.00  0.00     0.210 HD
ATOM     18  H4  UNL     1      60.949 136.970 -87.818  1.00  0.00     0.190 HD
ENDBRANCH   1  10
BRANCH   8  19
HETATM   19  N7  UNL     1      57.987 139.770 -86.907  1.00  0.00    -0.344 N 
ATOM     20  H72 UNL     1      58.793 139.515 -86.336  1.00  0.00     0.176 HD
ATOM     21  H71 UNL     1      57.136 139.588 -86.375  1.00  0.00     0.176 HD
ENDBRANCH   8  19
TORSDOF 2
ENDMDL
MODEL 5
REMARK VINA RESULT: -4.153089711      1.559      2.364
REMARK  2 active torsions:
REMARK  status: ('A' for Active; 'I' for Inactive)
REMARK    1  A    between atoms: C2_9  and  C3_10 
REMARK    2  A    between atoms: N6_17  and  N7_19 
ROOT
HETATM    1  C3  UNL     1      55.268 130.518 -91.541  1.00  0.00     0.056 A 
HETATM    2  C4  UNL     1      54.229 129.670 -91.956  1.00  0.00     0.020 A 
HETATM    3  C5  UNL     1      54.475 128.409 -92.439  1.00  0.00     0.018 A 
HETATM    4  C6  UNL     1      55.798 128.024 -92.490  1.00  0.00     0.090 A 
HETATM    5  N5  UNL     1      56.793 128.795 -92.108  1.00  0.00    -0.350 N 
ATOM      6  H5  UNL     1      57.747 128.440 -92.174  1.00  0.00     0.166 HD
HETATM    7  C7  UNL     1      56.581 130.086 -91.612  1.00  0.00     0.133 A 
HETATM    8  N6  UNL     1      57.621 130.695 -91.333  1.00  0.00    -0.291 N 
ATOM      9  H6  UNL     1      58.397 130.056 -91.508  1.00  0.00     0.188 HD
ENDROOT
BRANCH   1  10
HETATM   10  C2  UNL     1      54.952 131.853 -91.090  1.00  0.00     0.153 A 
HETATM   11  N1  UNL     1      54.679 132.927 -91.887  1.00  0.00    -0.264 N 
HETATM   12  C1  UNL     1      54.616 133.044 -93.328  1.00  0.00     0.181 C 
HETATM   13  N2  UNL     1      54.483 134.012 -91.118  1.00  0.00    -0.225 N 
HETATM   14  N3  UNL     1      54.626 133.654 -89.864  1.00  0.00    -0.226 N 
ATOM     15  H2  UNL     1      54.262 134.950 -91.451  1.00  0.00     0.210 HD
HETATM   16  N4  UNL     1      54.906 132.362 -89.863  1.00  0.00    -0.268 N 
ATOM     17  H3  UNL     1      54.537 134.257 -89.046  1.00  0.00     0.210 HD
ATOM     18  H4  UNL     1      55.068 131.818 -89.016  1.00  0.00     0.190 HD
ENDBRANCH   1  10
BRANCH   8  19
HETATM   19  N7  UNL     1      58.132 131.801 -90.913  1.00  0.00    -0.344 N 
ATOM     20  H72 UNL     1      58.344 131.640 -89.928  1.00  0.00     0.176 HD
ATOM     21  H71 UNL     1      58.406 132.753 -91.157  1.00  0.00     0.176 HD
ENDBRANCH   8  19
TORSDOF 2
ENDMDL
