MODEL 1
REMARK VINA RESULT: -8.308463140      0.000      0.000
REMARK  4 active torsions:
REMARK  status: ('A' for Active; 'I' for Inactive)
REMARK    1  A    between atoms: O1_2  and  C2_3 
REMARK    2  A    between atoms: C3_6  and  N2_7 
REMARK    3  A    between atoms: C5_9  and  N3_10 
REMARK       I    between atoms: N3_10  and  C6_12 
REMARK    4  A    between atoms: C6_12  and  C7_14 
ROOT
HETATM    1  N2  UNL     1      97.955   9.179  16.840  1.00  0.00    -0.302 N 
HETATM    2  C4  UNL     1      98.951  10.117  16.353  1.00  0.00     0.155 C 
HETATM    3  C5  UNL     1     100.256   9.354  16.339  1.00  0.00     0.110 C 
HETATM    4  C8  UNL     1      99.965   7.937  16.685  1.00  0.00     0.131 C 
HETATM    5  C9  UNL     1      98.480   7.842  16.649  1.00  0.00     0.327 C 
HETATM    6  F1  UNL     1      98.083   7.287  15.459  1.00  0.00    -0.182 F 
HETATM    7  F2  UNL     1      98.068   6.990  17.680  1.00  0.00    -0.182 F 
ENDROOT
BRANCH   1   8
HETATM    8  C3  UNL     1      96.669   9.547  17.412  1.00  0.00     0.123 A 
HETATM    9  N1  UNL     1      96.516   9.718  18.688  1.00  0.00    -0.316 N 
HETATM   10  C2  UNL     1      95.333  10.054  19.179  1.00  0.00     0.188 A 
ATOM     11  H1  UNL     1      97.310   9.594  19.316  1.00  0.00     0.170 HD
HETATM   12  S1  UNL     1      94.369  10.135  17.775  1.00  0.00    -0.048 SA
HETATM   13  C10 UNL     1      95.561   9.727  16.614  1.00  0.00     0.027 A 
HETATM   14  C11 UNL     1      95.435   9.601  15.134  1.00  0.00     0.060 C 
BRANCH  10  15
HETATM   15  O1  UNL     1      94.951  10.284  20.505  1.00  0.00    -0.335 OA
HETATM   16  C1  UNL     1      93.695  10.929  20.755  1.00  0.00     0.212 C 
ENDBRANCH  10  15
ENDBRANCH   1   8
BRANCH   3  17
HETATM   17  N3  UNL     1     100.905   9.437  15.043  1.00  0.00    -0.352 N 
HETATM   18  C6  UNL     1     102.053  10.242  14.811  1.00  0.00     0.251 C 
HETATM   19  O2  UNL     1     102.514  10.902  15.774  1.00  0.00    -0.271 OA
ATOM     20  H3  UNL     1     100.521   8.897  14.268  1.00  0.00     0.163 HD
BRANCH  18  21
HETATM   21  C7  UNL     1     102.681  10.293  13.468  1.00  0.00     0.269 C 
HETATM   22 CL1  UNL     1     103.250   8.707  12.923  1.00  0.00    -0.098 Cl
HETATM   23 CL2  UNL     1     103.967  11.498  13.405  1.00  0.00    -0.098 Cl
ENDBRANCH  18  21
ENDBRANCH   3  17
TORSDOF 4
ENDMDL
MODEL 2
REMARK VINA RESULT: -8.145305573      1.152      1.390
REMARK  4 active torsions:
REMARK  status: ('A' for Active; 'I' for Inactive)
REMARK    1  A    between atoms: O1_2  and  C2_3 
REMARK    2  A    between atoms: C3_6  and  N2_7 
REMARK    3  A    between atoms: C5_9  and  N3_10 
REMARK       I    between atoms: N3_10  and  C6_12 
REMARK    4  A    between atoms: C6_12  and  C7_14 
ROOT
HETATM    1  N2  UNL     1      97.338   9.579  17.564  1.00  0.00    -0.302 N 
HETATM    2  C4  UNL     1      98.338  10.554  17.169  1.00  0.00     0.155 C 
HETATM    3  C5  UNL     1      99.650   9.803  17.135  1.00  0.00     0.110 C 
HETATM    4  C8  UNL     1      99.362   8.364  17.373  1.00  0.00     0.131 C 
HETATM    5  C9  UNL     1      97.880   8.262  17.293  1.00  0.00     0.327 C 
HETATM    6  F1  UNL     1      97.517   7.789  16.057  1.00  0.00    -0.182 F 
HETATM    7  F2  UNL     1      97.449   7.337  18.251  1.00  0.00    -0.182 F 
ENDROOT
BRANCH   1   8
HETATM    8  C3  UNL     1      96.036   9.897  18.128  1.00  0.00     0.123 A 
HETATM    9  N1  UNL     1      95.876  10.102  19.398  1.00  0.00    -0.316 N 
HETATM   10  C2  UNL     1      94.677  10.390  19.881  1.00  0.00     0.188 A 
ATOM     11  H1  UNL     1      96.677  10.040  20.027  1.00  0.00     0.170 HD
HETATM   12  S1  UNL     1      93.709  10.374  18.478  1.00  0.00    -0.048 SA
HETATM   13  C10 UNL     1      94.919   9.992  17.328  1.00  0.00     0.027 A 
HETATM   14  C11 UNL     1      94.798   9.810  15.853  1.00  0.00     0.060 C 
BRANCH  10  15
HETATM   15  O1  UNL     1      94.285  10.644  21.200  1.00  0.00    -0.335 OA
HETATM   16  C1  UNL     1      92.961  11.137  21.439  1.00  0.00     0.212 C 
ENDBRANCH  10  15
ENDBRANCH   1   8
BRANCH   3  17
HETATM   17  N3  UNL     1     100.330   9.982  15.865  1.00  0.00    -0.352 N 
HETATM   18  C6  UNL     1     101.619  10.572  15.762  1.00  0.00     0.251 C 
HETATM   19  O2  UNL     1     102.180  10.949  16.819  1.00  0.00    -0.271 OA
ATOM     20  H3  UNL     1      99.864   9.672  15.012  1.00  0.00     0.163 HD
BRANCH  18  21
HETATM   21  C7  UNL     1     102.273  10.732  14.440  1.00  0.00     0.269 C 
HETATM   22 CL1  UNL     1     101.317  11.721  13.325  1.00  0.00    -0.098 Cl
HETATM   23 CL2  UNL     1     102.680   9.169  13.731  1.00  0.00    -0.098 Cl
ENDBRANCH  18  21
ENDBRANCH   3  17
TORSDOF 4
ENDMDL
MODEL 3
REMARK VINA RESULT: -7.967732011      4.429      7.424
REMARK  4 active torsions:
REMARK  status: ('A' for Active; 'I' for Inactive)
REMARK    1  A    between atoms: O1_2  and  C2_3 
REMARK    2  A    between atoms: C3_6  and  N2_7 
REMARK    3  A    between atoms: C5_9  and  N3_10 
REMARK       I    between atoms: N3_10  and  C6_12 
REMARK    4  A    between atoms: C6_12  and  C7_14 
ROOT
HETATM    1  N2  UNL     1      99.565   9.670  16.137  1.00  0.00    -0.302 N 
HETATM    2  C4  UNL     1      98.209  10.188  16.096  1.00  0.00     0.155 C 
HETATM    3  C5  UNL     1      97.317   9.024  16.469  1.00  0.00     0.110 C 
HETATM    4  C8  UNL     1      98.187   7.884  16.860  1.00  0.00     0.131 C 
HETATM    5  C9  UNL     1      99.552   8.470  16.950  1.00  0.00     0.327 C 
HETATM    6  F1  UNL     1      99.858   8.724  18.264  1.00  0.00    -0.182 F 
HETATM    7  F2  UNL     1     100.470   7.530  16.469  1.00  0.00    -0.182 F 
ENDROOT
BRANCH   1   8
HETATM    8  C3  UNL     1     100.709  10.269  15.469  1.00  0.00     0.123 A 
HETATM    9  N1  UNL     1     100.920  10.104  14.201  1.00  0.00    -0.316 N 
HETATM   10  C2  UNL     1     101.972  10.664  13.621  1.00  0.00     0.188 A 
ATOM     11  H1  UNL     1     100.275   9.542  13.647  1.00  0.00     0.170 HD
HETATM   12  S1  UNL     1     102.716  11.471  14.926  1.00  0.00    -0.048 SA
HETATM   13  C10 UNL     1     101.615  11.038  16.165  1.00  0.00     0.027 A 
HETATM   14  C11 UNL     1     101.632  11.397  17.612  1.00  0.00     0.060 C 
BRANCH  10  15
HETATM   15  O1  UNL     1     102.384  10.615  12.285  1.00  0.00    -0.335 OA
HETATM   16  C1  UNL     1     103.783  10.479  12.004  1.00  0.00     0.212 C 
ENDBRANCH  10  15
ENDBRANCH   1   8
BRANCH   3  17
HETATM   17  N3  UNL     1      96.418   9.373  17.554  1.00  0.00    -0.352 N 
HETATM   18  C6  UNL     1      95.096   9.846  17.332  1.00  0.00     0.251 C 
HETATM   19  O2  UNL     1      94.704   9.963  16.146  1.00  0.00    -0.271 OA
ATOM     20  H3  UNL     1      96.748   9.274  18.514  1.00  0.00     0.163 HD
BRANCH  18  21
HETATM   21  C7  UNL     1      94.215  10.188  18.475  1.00  0.00     0.269 C 
HETATM   22 CL1  UNL     1      95.074  10.175  20.023  1.00  0.00    -0.098 Cl
HETATM   23 CL2  UNL     1      92.788   9.152  18.519  1.00  0.00    -0.098 Cl
ENDBRANCH  18  21
ENDBRANCH   3  17
TORSDOF 4
ENDMDL
MODEL 4
REMARK VINA RESULT: -7.954258853      5.177      7.795
REMARK  4 active torsions:
REMARK  status: ('A' for Active; 'I' for Inactive)
REMARK    1  A    between atoms: O1_2  and  C2_3 
REMARK    2  A    between atoms: C3_6  and  N2_7 
REMARK    3  A    between atoms: C5_9  and  N3_10 
REMARK       I    between atoms: N3_10  and  C6_12 
REMARK    4  A    between atoms: C6_12  and  C7_14 
ROOT
HETATM    1  N2  UNL     1      96.699  10.854  17.412  1.00  0.00    -0.302 N 
HETATM    2  C4  UNL     1      95.571  11.736  17.651  1.00  0.00     0.155 C 
HETATM    3  C5  UNL     1      94.391  10.826  17.915  1.00  0.00     0.110 C 
HETATM    4  C8  UNL     1      94.892   9.427  17.966  1.00  0.00     0.131 C 
HETATM    5  C9  UNL     1      96.374   9.561  17.981  1.00  0.00     0.327 C 
HETATM    6  F1  UNL     1      96.835   9.422  19.266  1.00  0.00    -0.182 F 
HETATM    7  F2  UNL     1      96.919   8.525  17.214  1.00  0.00    -0.182 F 
ENDROOT
BRANCH   1   8
HETATM    8  C3  UNL     1      97.923  11.230  16.722  1.00  0.00     0.123 A 
HETATM    9  N1  UNL     1      98.915  11.783  17.347  1.00  0.00    -0.316 N 
HETATM   10  C2  UNL     1     100.017  12.113  16.690  1.00  0.00     0.188 A 
ATOM     11  H1  UNL     1      98.847  11.964  18.349  1.00  0.00     0.170 HD
HETATM   12  S1  UNL     1      99.648  11.624  15.099  1.00  0.00    -0.048 SA
HETATM   13  C10 UNL     1      98.072  11.011  15.370  1.00  0.00     0.027 A 
HETATM   14  C11 UNL     1      97.115  10.402  14.403  1.00  0.00     0.060 C 
BRANCH  10  15
HETATM   15  O1  UNL     1     101.190  12.712  17.162  1.00  0.00    -0.335 OA
HETATM   16  C1  UNL     1     101.963  12.020  18.151  1.00  0.00     0.212 C 
ENDBRANCH  10  15
ENDBRANCH   1   8
BRANCH   3  17
HETATM   17  N3  UNL     1      93.723  11.172  19.156  1.00  0.00    -0.352 N 
HETATM   18  C6  UNL     1      92.415  10.718  19.474  1.00  0.00     0.251 C 
HETATM   19  O2  UNL     1      91.825   9.990  18.640  1.00  0.00    -0.271 OA
ATOM     20  H3  UNL     1      94.213  11.765  19.827  1.00  0.00     0.163 HD
BRANCH  18  21
HETATM   21  C7  UNL     1      91.775  11.098  20.758  1.00  0.00     0.269 C 
HETATM   22 CL1  UNL     1      92.956  11.531  22.004  1.00  0.00    -0.098 Cl
HETATM   23 CL2  UNL     1      90.670   9.844  21.322  1.00  0.00    -0.098 Cl
ENDBRANCH  18  21
ENDBRANCH   3  17
TORSDOF 4
ENDMDL
MODEL 5
REMARK VINA RESULT: -7.902362155      4.564      6.962
REMARK  4 active torsions:
REMARK  status: ('A' for Active; 'I' for Inactive)
REMARK    1  A    between atoms: O1_2  and  C2_3 
REMARK    2  A    between atoms: C3_6  and  N2_7 
REMARK    3  A    between atoms: C5_9  and  N3_10 
REMARK       I    between atoms: N3_10  and  C6_12 
REMARK    4  A    between atoms: C6_12  and  C7_14 
ROOT
HETATM    1  N2  UNL     1      98.903   9.611  16.136  1.00  0.00    -0.302 N 
HETATM    2  C4  UNL     1      97.638  10.254  16.442  1.00  0.00     0.155 C 
HETATM    3  C5  UNL     1      96.614   9.142  16.477  1.00  0.00     0.110 C 
HETATM    4  C8  UNL     1      97.333   7.849  16.331  1.00  0.00     0.131 C 
HETATM    5  C9  UNL     1      98.772   8.205  16.463  1.00  0.00     0.327 C 
HETATM    6  F1  UNL     1      99.201   7.921  17.735  1.00  0.00    -0.182 F 
HETATM    7  F2  UNL     1      99.507   7.413  15.574  1.00  0.00    -0.182 F 
ENDROOT
BRANCH   1   8
HETATM    8  C3  UNL     1     100.074  10.284  15.596  1.00  0.00     0.123 A 
HETATM    9  N1  UNL     1     100.903  10.926  16.359  1.00  0.00    -0.316 N 
HETATM   10  C2  UNL     1     101.961  11.528  15.837  1.00  0.00     0.188 A 
ATOM     11  H1  UNL     1     100.739  10.967  17.365  1.00  0.00     0.170 HD
HETATM   12  S1  UNL     1     101.791  11.180  14.177  1.00  0.00    -0.048 SA
HETATM   13  C10 UNL     1     100.346  10.263  14.246  1.00  0.00     0.027 A 
HETATM   14  C11 UNL     1      99.584   9.615  13.141  1.00  0.00     0.060 C 
BRANCH  10  15
HETATM   15  O1  UNL     1     102.968  12.266  16.469  1.00  0.00    -0.335 OA
HETATM   16  C1  UNL     1     102.697  12.832  17.758  1.00  0.00     0.212 C 
ENDBRANCH  10  15
ENDBRANCH   1   8
BRANCH   3  17
HETATM   17  N3  UNL     1      95.852   9.162  17.713  1.00  0.00    -0.352 N 
HETATM   18  C6  UNL     1      94.507   9.615  17.776  1.00  0.00     0.251 C 
HETATM   19  O2  UNL     1      93.968  10.010  16.714  1.00  0.00    -0.271 OA
ATOM     20  H3  UNL     1      96.301   8.840  18.570  1.00  0.00     0.163 HD
BRANCH  18  21
HETATM   21  C7  UNL     1      93.770   9.616  19.064  1.00  0.00     0.269 C 
HETATM   22 CL1  UNL     1      92.030   9.864  18.851  1.00  0.00    -0.098 Cl
HETATM   23 CL2  UNL     1      94.455  10.781  20.196  1.00  0.00    -0.098 Cl
ENDBRANCH  18  21
ENDBRANCH   3  17
TORSDOF 4
ENDMDL
