MODEL 1
REMARK VINA RESULT: -8.002906266      0.000      0.000
REMARK  7 active torsions:
REMARK  status: ('A' for Active; 'I' for Inactive)
REMARK    1  A    between atoms: C7_11  and  O2_12 
REMARK    2  A    between atoms: O2_12  and  C8_13 
REMARK    3  A    between atoms: C8_13  and  C9_15 
REMARK    4  A    between atoms: C9_15  and  O4_16 
REMARK    5  A    between atoms: O4_16  and  C10_17 
REMARK    6  A    between atoms: C10_17  and  C11_19 
REMARK    7  A    between atoms: C11_19  and  C12_22 
ROOT
HETATM    1  O2  UNL     1     100.515  11.340  13.976  1.00  0.00    -0.314 OA
ENDROOT
BRANCH   1   2
HETATM    2  C7  UNL     1     101.313  10.244  14.443  1.00  0.00     0.142 C 
HETATM    3  C2  UNL     1     102.604  10.799  14.962  1.00  0.00     0.064 C 
HETATM    4  C1  UNL     1     102.407  11.834  16.009  1.00  0.00     0.019 C 
HETATM    5  C3  UNL     1     103.367  11.323  13.800  1.00  0.00     0.055 C 
HETATM    6  N1  UNL     1     103.871  12.510  13.786  1.00  0.00    -0.399 N 
HETATM    7  C4  UNL     1     103.501  10.393  12.681  1.00  0.00     0.171 C 
ATOM      8  H12 UNL     1     103.777  13.159  14.567  1.00  0.00     0.156 HD
ATOM      9  H11 UNL     1     104.395  12.869  12.987  1.00  0.00     0.156 HD
HETATM   10  O1  UNL     1     104.080  10.738  11.626  1.00  0.00    -0.291 OA
HETATM   11  C5  UNL     1     102.909   9.039  12.897  1.00  0.00     0.087 C 
HETATM   12  C6  UNL     1     101.490   9.244  13.359  1.00  0.00     0.041 C 
ENDBRANCH   1   2
BRANCH   1  13
HETATM   13  C8  UNL     1      99.166  11.381  14.336  1.00  0.00     0.283 C 
HETATM   14  O3  UNL     1      98.294  11.062  13.488  1.00  0.00    -0.263 OA
BRANCH  13  15
HETATM   15  C9  UNL     1      98.725  11.789  15.686  1.00  0.00     0.289 C 
BRANCH  15  16
HETATM   16  O4  UNL     1      98.213  10.716  16.422  1.00  0.00    -0.309 OA
BRANCH  16  17
HETATM   17  C10 UNL     1      98.937   9.657  16.932  1.00  0.00     0.299 C 
HETATM   18  O5  UNL     1      99.980   9.883  17.571  1.00  0.00    -0.262 OA
BRANCH  17  19
HETATM   19  C11 UNL     1      98.417   8.290  16.685  1.00  0.00     0.212 C 
HETATM   20 CL1  UNL     1      99.824   7.219  16.363  1.00  0.00    -0.089 Cl
HETATM   21 CL2  UNL     1      97.358   8.262  15.278  1.00  0.00    -0.089 Cl
BRANCH  19  22
HETATM   22  C12 UNL     1      97.709   7.722  17.884  1.00  0.00     0.167 C 
HETATM   23 CL3  UNL     1      96.394   8.752  18.453  1.00  0.00    -0.127 Cl
ENDBRANCH  19  22
ENDBRANCH  17  19
ENDBRANCH  16  17
ENDBRANCH  15  16
ENDBRANCH  13  15
ENDBRANCH   1  13
TORSDOF 7
ENDMDL
MODEL 2
REMARK VINA RESULT: -7.939311857      0.391      1.405
REMARK  7 active torsions:
REMARK  status: ('A' for Active; 'I' for Inactive)
REMARK    1  A    between atoms: C7_11  and  O2_12 
REMARK    2  A    between atoms: O2_12  and  C8_13 
REMARK    3  A    between atoms: C8_13  and  C9_15 
REMARK    4  A    between atoms: C9_15  and  O4_16 
REMARK    5  A    between atoms: O4_16  and  C10_17 
REMARK    6  A    between atoms: C10_17  and  C11_19 
REMARK    7  A    between atoms: C11_19  and  C12_22 
ROOT
HETATM    1  O2  UNL     1     100.478  11.366  13.993  1.00  0.00    -0.314 OA
ENDROOT
BRANCH   1   2
HETATM    2  C7  UNL     1     101.256  10.259  14.467  1.00  0.00     0.142 C 
HETATM    3  C2  UNL     1     102.547  10.796  15.006  1.00  0.00     0.064 C 
HETATM    4  C1  UNL     1     102.347  11.830  16.054  1.00  0.00     0.019 C 
HETATM    5  C3  UNL     1     103.332  11.315  13.857  1.00  0.00     0.055 C 
HETATM    6  N1  UNL     1     103.850  12.496  13.854  1.00  0.00    -0.399 N 
HETATM    7  C4  UNL     1     103.471  10.389  12.736  1.00  0.00     0.171 C 
ATOM      8  H12 UNL     1     103.753  13.143  14.637  1.00  0.00     0.156 HD
ATOM      9  H11 UNL     1     104.389  12.852  13.065  1.00  0.00     0.156 HD
HETATM   10  O1  UNL     1     104.068  10.731  11.691  1.00  0.00    -0.291 OA
HETATM   11  C5  UNL     1     102.859   9.040  12.938  1.00  0.00     0.087 C 
HETATM   12  C6  UNL     1     101.437   9.261  13.381  1.00  0.00     0.041 C 
ENDBRANCH   1   2
BRANCH   1  13
HETATM   13  C8  UNL     1      99.128  11.430  14.348  1.00  0.00     0.283 C 
HETATM   14  O3  UNL     1      98.260  11.030  13.531  1.00  0.00    -0.263 OA
BRANCH  13  15
HETATM   15  C9  UNL     1      98.683  11.953  15.655  1.00  0.00     0.289 C 
BRANCH  15  16
HETATM   16  O4  UNL     1      97.925  11.020  16.369  1.00  0.00    -0.309 OA
BRANCH  16  17
HETATM   17  C10 UNL     1      98.408   9.899  17.016  1.00  0.00     0.299 C 
HETATM   18  O5  UNL     1      99.539   9.935  17.533  1.00  0.00    -0.262 OA
BRANCH  17  19
HETATM   19  C11 UNL     1      97.534   8.702  17.057  1.00  0.00     0.212 C 
HETATM   20 CL1  UNL     1      96.881   8.444  15.403  1.00  0.00    -0.089 Cl
HETATM   21 CL2  UNL     1      96.184   8.944  18.161  1.00  0.00    -0.089 Cl
BRANCH  19  22
HETATM   22  C12 UNL     1      98.290   7.455  17.420  1.00  0.00     0.167 C 
HETATM   23 CL3  UNL     1      99.433   6.958  16.170  1.00  0.00    -0.127 Cl
ENDBRANCH  19  22
ENDBRANCH  17  19
ENDBRANCH  16  17
ENDBRANCH  15  16
ENDBRANCH  13  15
ENDBRANCH   1  13
TORSDOF 7
ENDMDL
MODEL 3
REMARK VINA RESULT: -7.909794198      0.842      1.628
REMARK  7 active torsions:
REMARK  status: ('A' for Active; 'I' for Inactive)
REMARK    1  A    between atoms: C7_11  and  O2_12 
REMARK    2  A    between atoms: O2_12  and  C8_13 
REMARK    3  A    between atoms: C8_13  and  C9_15 
REMARK    4  A    between atoms: C9_15  and  O4_16 
REMARK    5  A    between atoms: O4_16  and  C10_17 
REMARK    6  A    between atoms: C10_17  and  C11_19 
REMARK    7  A    between atoms: C11_19  and  C12_22 
ROOT
HETATM    1  O2  UNL     1     100.493  11.412  14.045  1.00  0.00    -0.314 OA
ENDROOT
BRANCH   1   2
HETATM    2  C7  UNL     1     101.271  10.297  14.501  1.00  0.00     0.142 C 
HETATM    3  C2  UNL     1     102.580  10.821  15.009  1.00  0.00     0.064 C 
HETATM    4  C1  UNL     1     102.415  11.857  16.061  1.00  0.00     0.019 C 
HETATM    5  C3  UNL     1     103.342  11.332  13.841  1.00  0.00     0.055 C 
HETATM    6  N1  UNL     1     103.873  12.507  13.826  1.00  0.00    -0.399 N 
HETATM    7  C4  UNL     1     103.445  10.403  12.718  1.00  0.00     0.171 C 
ATOM      8  H12 UNL     1     103.800  13.155  14.610  1.00  0.00     0.156 HD
ATOM      9  H11 UNL     1     104.396  12.857  13.024  1.00  0.00     0.156 HD
HETATM   10  O1  UNL     1     104.021  10.739  11.659  1.00  0.00    -0.291 OA
HETATM   11  C5  UNL     1     102.825   9.061  12.935  1.00  0.00     0.087 C 
HETATM   12  C6  UNL     1     101.416   9.297  13.411  1.00  0.00     0.041 C 
ENDBRANCH   1   2
BRANCH   1  13
HETATM   13  C8  UNL     1      99.182  11.541  14.509  1.00  0.00     0.283 C 
HETATM   14  O3  UNL     1      98.235  11.121  13.797  1.00  0.00    -0.263 OA
BRANCH  13  15
HETATM   15  C9  UNL     1      98.868  12.159  15.814  1.00  0.00     0.289 C 
BRANCH  15  16
HETATM   16  O4  UNL     1      98.033  11.353  16.594  1.00  0.00    -0.309 OA
BRANCH  16  17
HETATM   17  C10 UNL     1      98.378  10.156  17.189  1.00  0.00     0.299 C 
HETATM   18  O5  UNL     1      99.561   9.958  17.518  1.00  0.00    -0.262 OA
BRANCH  17  19
HETATM   19  C11 UNL     1      97.298   9.162  17.404  1.00  0.00     0.212 C 
HETATM   20 CL1  UNL     1      96.328   9.705  18.817  1.00  0.00    -0.089 Cl
HETATM   21 CL2  UNL     1      97.966   7.572  17.761  1.00  0.00    -0.089 Cl
BRANCH  19  22
HETATM   22  C12 UNL     1      96.354   9.082  16.238  1.00  0.00     0.167 C 
HETATM   23 CL3  UNL     1      97.044   8.230  14.855  1.00  0.00    -0.127 Cl
ENDBRANCH  19  22
ENDBRANCH  17  19
ENDBRANCH  16  17
ENDBRANCH  15  16
ENDBRANCH  13  15
ENDBRANCH   1  13
TORSDOF 7
ENDMDL
MODEL 4
REMARK VINA RESULT: -7.733669919      1.407      1.818
REMARK  7 active torsions:
REMARK  status: ('A' for Active; 'I' for Inactive)
REMARK    1  A    between atoms: C7_11  and  O2_12 
REMARK    2  A    between atoms: O2_12  and  C8_13 
REMARK    3  A    between atoms: C8_13  and  C9_15 
REMARK    4  A    between atoms: C9_15  and  O4_16 
REMARK    5  A    between atoms: O4_16  and  C10_17 
REMARK    6  A    between atoms: C10_17  and  C11_19 
REMARK    7  A    between atoms: C11_19  and  C12_22 
ROOT
HETATM    1  O2  UNL     1     100.463  11.358  14.083  1.00  0.00    -0.314 OA
ENDROOT
BRANCH   1   2
HETATM    2  C7  UNL     1     101.267  10.261  14.540  1.00  0.00     0.142 C 
HETATM    3  C2  UNL     1     102.567  10.816  15.040  1.00  0.00     0.064 C 
HETATM    4  C1  UNL     1     102.385  11.852  16.089  1.00  0.00     0.019 C 
HETATM    5  C3  UNL     1     103.313  11.339  13.867  1.00  0.00     0.055 C 
HETATM    6  N1  UNL     1     103.817  12.525  13.844  1.00  0.00    -0.399 N 
HETATM    7  C4  UNL     1     103.430  10.408  12.747  1.00  0.00     0.171 C 
ATOM      8  H12 UNL     1     103.734  13.175  14.626  1.00  0.00     0.156 HD
ATOM      9  H11 UNL     1     104.329  12.883  13.038  1.00  0.00     0.156 HD
HETATM   10  O1  UNL     1     103.994  10.751  11.683  1.00  0.00    -0.291 OA
HETATM   11  C5  UNL     1     102.840   9.054  12.972  1.00  0.00     0.087 C 
HETATM   12  C6  UNL     1     101.429   9.260  13.454  1.00  0.00     0.041 C 
ENDBRANCH   1   2
BRANCH   1  13
HETATM   13  C8  UNL     1      99.126  11.413  14.485  1.00  0.00     0.283 C 
HETATM   14  O3  UNL     1      98.232  11.010  13.699  1.00  0.00    -0.263 OA
BRANCH  13  15
HETATM   15  C9  UNL     1      98.725  11.932  15.809  1.00  0.00     0.289 C 
BRANCH  15  16
HETATM   16  O4  UNL     1      98.039  10.978  16.566  1.00  0.00    -0.309 OA
BRANCH  16  17
HETATM   17  C10 UNL     1      96.698  11.006  16.894  1.00  0.00     0.299 C 
HETATM   18  O5  UNL     1      96.145  12.101  17.102  1.00  0.00    -0.262 OA
BRANCH  17  19
HETATM   19  C11 UNL     1      95.985   9.708  16.978  1.00  0.00     0.212 C 
HETATM   20 CL1  UNL     1      96.648   8.636  15.697  1.00  0.00    -0.089 Cl
HETATM   21 CL2  UNL     1      94.259   9.916  16.697  1.00  0.00    -0.089 Cl
BRANCH  19  22
HETATM   22  C12 UNL     1      96.221   9.011  18.288  1.00  0.00     0.167 C 
HETATM   23 CL3  UNL     1      95.471   9.843  19.652  1.00  0.00    -0.127 Cl
ENDBRANCH  19  22
ENDBRANCH  17  19
ENDBRANCH  16  17
ENDBRANCH  15  16
ENDBRANCH  13  15
ENDBRANCH   1  13
TORSDOF 7
ENDMDL
MODEL 5
REMARK VINA RESULT: -7.694487745      3.001      5.684
REMARK  7 active torsions:
REMARK  status: ('A' for Active; 'I' for Inactive)
REMARK    1  A    between atoms: C7_11  and  O2_12 
REMARK    2  A    between atoms: O2_12  and  C8_13 
REMARK    3  A    between atoms: C8_13  and  C9_15 
REMARK    4  A    between atoms: C9_15  and  O4_16 
REMARK    5  A    between atoms: O4_16  and  C10_17 
REMARK    6  A    between atoms: C10_17  and  C11_19 
REMARK    7  A    between atoms: C11_19  and  C12_22 
ROOT
HETATM    1  O2  UNL     1      97.914  10.993  17.194  1.00  0.00    -0.314 OA
ENDROOT
BRANCH   1   2
HETATM    2  C7  UNL     1      96.766  10.382  16.588  1.00  0.00     0.142 C 
HETATM    3  C2  UNL     1      96.340   9.235  17.453  1.00  0.00     0.064 C 
HETATM    4  C1  UNL     1      96.083   9.639  18.859  1.00  0.00     0.019 C 
HETATM    5  C3  UNL     1      97.390   8.188  17.359  1.00  0.00     0.055 C 
HETATM    6  N1  UNL     1      97.917   7.646  18.404  1.00  0.00    -0.399 N 
HETATM    7  C4  UNL     1      97.777   7.823  15.999  1.00  0.00     0.171 C 
ATOM      8  H12 UNL     1      97.647   7.901  19.354  1.00  0.00     0.156 HD
ATOM      9  H11 UNL     1      98.638   6.927  18.339  1.00  0.00     0.156 HD
HETATM   10  O1  UNL     1      98.687   6.989  15.792  1.00  0.00    -0.291 OA
HETATM   11  C5  UNL     1      97.018   8.509  14.909  1.00  0.00     0.087 C 
HETATM   12  C6  UNL     1      97.078   9.987  15.190  1.00  0.00     0.041 C 
ENDBRANCH   1   2
BRANCH   1  13
HETATM   13  C8  UNL     1      98.106  12.365  17.017  1.00  0.00     0.283 C 
HETATM   14  O3  UNL     1      97.172  13.157  17.299  1.00  0.00    -0.263 OA
BRANCH  13  15
HETATM   15  C9  UNL     1      99.377  12.921  16.509  1.00  0.00     0.289 C 
BRANCH  15  16
HETATM   16  O4  UNL     1     100.290  11.922  16.158  1.00  0.00    -0.309 OA
BRANCH  16  17
HETATM   17  C10 UNL     1     100.465  11.382  14.900  1.00  0.00     0.299 C 
HETATM   18  O5  UNL     1     100.029  11.994  13.909  1.00  0.00    -0.262 OA
BRANCH  17  19
HETATM   19  C11 UNL     1     101.178  10.085  14.804  1.00  0.00     0.212 C 
HETATM   20 CL1  UNL     1     100.324   9.080  13.582  1.00  0.00    -0.089 Cl
HETATM   21 CL2  UNL     1     101.151   9.234  16.346  1.00  0.00    -0.089 Cl
BRANCH  19  22
HETATM   22  C12 UNL     1     102.591  10.243  14.319  1.00  0.00     0.167 C 
HETATM   23 CL3  UNL     1     103.033   9.053  13.093  1.00  0.00    -0.127 Cl
ENDBRANCH  19  22
ENDBRANCH  17  19
ENDBRANCH  16  17
ENDBRANCH  15  16
ENDBRANCH  13  15
ENDBRANCH   1  13
TORSDOF 7
ENDMDL
