MODEL 1
REMARK VINA RESULT: -8.185145028      0.000      0.000
REMARK  9 active torsions:
REMARK  status: ('A' for Active; 'I' for Inactive)
REMARK    1  A    between atoms: C2_2  and  O1_3 
REMARK    2  A    between atoms: O1_3  and  C3_4 
REMARK    3  A    between atoms: C3_4  and  C4_6 
REMARK    4  A    between atoms: C4_6  and  N1_7 
REMARK    5  A    between atoms: N1_7  and  C5_8 
REMARK    6  A    between atoms: N1_7  and  C9_20 
REMARK    7  A    between atoms: C5_8  and  C6_10 
REMARK    8  A    between atoms: C6_10  and  C7_14 
REMARK    9  A    between atoms: C7_14  and  C8_16 
ROOT
HETATM    1  N1  UNL     1      99.727   9.972  16.111  1.00  0.00    -0.335 N 
ENDROOT
BRANCH   1   2
HETATM    2  C4  UNL     1     100.715   9.936  17.173  1.00  0.00     0.174 C 
BRANCH   2   3
HETATM    3  C3  UNL     1     101.292  11.148  17.688  1.00  0.00     0.298 C 
HETATM    4  O2  UNL     1     102.465  11.452  17.791  1.00  0.00    -0.259 OA
BRANCH   3   5
HETATM    5  O1  UNL     1     100.383  12.146  18.149  1.00  0.00    -0.317 OA
BRANCH   5   6
HETATM    6  C2  UNL     1     100.117  13.268  17.369  1.00  0.00     0.174 C 
HETATM    7  C1  UNL     1      98.609  13.365  17.206  1.00  0.00     0.034 C 
ENDBRANCH   5   6
ENDBRANCH   3   5
ENDBRANCH   2   3
ENDBRANCH   1   2
BRANCH   1   8
HETATM    8  C5  UNL     1     100.213  10.319  14.834  1.00  0.00     0.133 C 
HETATM    9  S1  UNL     1      99.547  11.573  14.004  1.00  0.00    -0.058 SA
BRANCH   8  10
HETATM   10  C6  UNL     1     101.265   9.599  14.102  1.00  0.00     0.120 C 
HETATM   11  N2  UNL     1     101.206   8.396  13.709  1.00  0.00    -0.393 N 
ATOM     12  H22 UNL     1     100.337   7.915  13.942  1.00  0.00     0.156 HD
ATOM     13  H21 UNL     1     101.936   7.897  13.201  1.00  0.00     0.156 HD
BRANCH  10  14
HETATM   14  C7  UNL     1     102.527  10.298  13.763  1.00  0.00     0.284 C 
HETATM   15  O3  UNL     1     103.040  11.093  14.611  1.00  0.00    -0.281 OA
BRANCH  14  16
HETATM   16  C8  UNL     1     103.189  10.083  12.469  1.00  0.00     0.457 C 
HETATM   17  F1  UNL     1     104.269  10.991  12.409  1.00  0.00    -0.163 F 
HETATM   18  F2  UNL     1     102.321  10.393  11.446  1.00  0.00    -0.163 F 
HETATM   19  F3  UNL     1     103.749   8.853  12.335  1.00  0.00    -0.163 F 
ENDBRANCH  14  16
ENDBRANCH  10  14
ENDBRANCH   8  10
ENDBRANCH   1   8
BRANCH   1  20
HETATM   20  C9  UNL     1      98.357   9.678  16.309  1.00  0.00     0.090 C 
HETATM   21  C10 UNL     1      97.829   8.516  15.512  1.00  0.00     0.026 C 
HETATM   22  C11 UNL     1      96.342   8.912  15.225  1.00  0.00     0.002 C 
HETATM   23  C12 UNL     1      95.772   9.476  16.485  1.00  0.00     0.000 C 
HETATM   24  C13 UNL     1      96.447   9.009  17.752  1.00  0.00     0.002 C 
HETATM   25  C14 UNL     1      97.951   9.345  17.739  1.00  0.00     0.026 C 
ENDBRANCH   1  20
TORSDOF 9
ENDMDL
MODEL 2
REMARK VINA RESULT: -7.729194091      1.115      1.417
REMARK  9 active torsions:
REMARK  status: ('A' for Active; 'I' for Inactive)
REMARK    1  A    between atoms: C2_2  and  O1_3 
REMARK    2  A    between atoms: O1_3  and  C3_4 
REMARK    3  A    between atoms: C3_4  and  C4_6 
REMARK    4  A    between atoms: C4_6  and  N1_7 
REMARK    5  A    between atoms: N1_7  and  C5_8 
REMARK    6  A    between atoms: N1_7  and  C9_20 
REMARK    7  A    between atoms: C5_8  and  C6_10 
REMARK    8  A    between atoms: C6_10  and  C7_14 
REMARK    9  A    between atoms: C7_14  and  C8_16 
ROOT
HETATM    1  N1  UNL     1     100.145  10.248  16.136  1.00  0.00    -0.335 N 
ENDROOT
BRANCH   1   2
HETATM    2  C4  UNL     1     101.066  10.243  17.256  1.00  0.00     0.174 C 
BRANCH   2   3
HETATM    3  C3  UNL     1     101.516  11.473  17.850  1.00  0.00     0.298 C 
HETATM    4  O2  UNL     1     102.652  11.872  18.011  1.00  0.00    -0.259 OA
BRANCH   3   5
HETATM    5  O1  UNL     1     100.507  12.363  18.324  1.00  0.00    -0.317 OA
BRANCH   5   6
HETATM    6  C2  UNL     1     100.098  13.441  17.543  1.00  0.00     0.174 C 
HETATM    7  C1  UNL     1      98.612  13.273  17.273  1.00  0.00     0.034 C 
ENDBRANCH   5   6
ENDBRANCH   3   5
ENDBRANCH   2   3
ENDBRANCH   1   2
BRANCH   1   8
HETATM    8  C5  UNL     1     100.612  10.873  14.962  1.00  0.00     0.133 C 
HETATM    9  S1  UNL     1      99.560  11.622  13.944  1.00  0.00    -0.058 SA
BRANCH   8  10
HETATM   10  C6  UNL     1     102.006  10.871  14.496  1.00  0.00     0.120 C 
HETATM   11  N2  UNL     1     102.888  11.733  14.786  1.00  0.00    -0.393 N 
ATOM     12  H22 UNL     1     102.563  12.483  15.397  1.00  0.00     0.156 HD
ATOM     13  H21 UNL     1     103.855  11.731  14.462  1.00  0.00     0.156 HD
BRANCH  10  14
HETATM   14  C7  UNL     1     102.477   9.782  13.608  1.00  0.00     0.284 C 
HETATM   15  O3  UNL     1     102.148   8.583  13.871  1.00  0.00    -0.281 OA
BRANCH  14  16
HETATM   16  C8  UNL     1     103.312  10.069  12.433  1.00  0.00     0.457 C 
HETATM   17  F1  UNL     1     102.440  10.495  11.407  1.00  0.00    -0.163 F 
HETATM   18  F2  UNL     1     103.930   8.914  12.008  1.00  0.00    -0.163 F 
HETATM   19  F3  UNL     1     104.180  11.098  12.613  1.00  0.00    -0.163 F 
ENDBRANCH  14  16
ENDBRANCH  10  14
ENDBRANCH   8  10
ENDBRANCH   1   8
BRANCH   1  20
HETATM   20  C9  UNL     1      98.855   9.667  16.182  1.00  0.00     0.090 C 
HETATM   21  C10 UNL     1      98.767   8.262  15.650  1.00  0.00     0.026 C 
HETATM   22  C11 UNL     1      97.330   8.193  15.032  1.00  0.00     0.002 C 
HETATM   23  C12 UNL     1      96.393   8.858  15.986  1.00  0.00     0.000 C 
HETATM   24  C13 UNL     1      96.855   8.871  17.424  1.00  0.00     0.002 C 
HETATM   25  C14 UNL     1      98.223   9.566  17.563  1.00  0.00     0.026 C 
ENDBRANCH   1  20
TORSDOF 9
ENDMDL
MODEL 3
REMARK VINA RESULT: -7.712945986      1.245      1.577
REMARK  9 active torsions:
REMARK  status: ('A' for Active; 'I' for Inactive)
REMARK    1  A    between atoms: C2_2  and  O1_3 
REMARK    2  A    between atoms: O1_3  and  C3_4 
REMARK    3  A    between atoms: C3_4  and  C4_6 
REMARK    4  A    between atoms: C4_6  and  N1_7 
REMARK    5  A    between atoms: N1_7  and  C5_8 
REMARK    6  A    between atoms: N1_7  and  C9_20 
REMARK    7  A    between atoms: C5_8  and  C6_10 
REMARK    8  A    between atoms: C6_10  and  C7_14 
REMARK    9  A    between atoms: C7_14  and  C8_16 
ROOT
HETATM    1  N1  UNL     1     100.052   9.914  15.927  1.00  0.00    -0.335 N 
ENDROOT
BRANCH   1   2
HETATM    2  C4  UNL     1     101.004  10.122  17.002  1.00  0.00     0.174 C 
BRANCH   2   3
HETATM    3  C3  UNL     1     101.561  11.423  17.255  1.00  0.00     0.298 C 
HETATM    4  O2  UNL     1     102.630  11.712  17.756  1.00  0.00    -0.259 OA
BRANCH   3   5
HETATM    5  O1  UNL     1     100.767  12.546  16.874  1.00  0.00    -0.317 OA
BRANCH   5   6
HETATM    6  C2  UNL     1      99.821  13.068  17.751  1.00  0.00     0.174 C 
HETATM    7  C1  UNL     1      99.008  14.100  16.988  1.00  0.00     0.034 C 
ENDBRANCH   5   6
ENDBRANCH   3   5
ENDBRANCH   2   3
ENDBRANCH   1   2
BRANCH   1   8
HETATM    8  C5  UNL     1     100.598   9.858  14.629  1.00  0.00     0.133 C 
HETATM    9  S1  UNL     1     100.703   8.422  13.833  1.00  0.00    -0.058 SA
BRANCH   8  10
HETATM   10  C6  UNL     1     101.171  10.997  13.898  1.00  0.00     0.120 C 
HETATM   11  N2  UNL     1     100.534  12.012  13.487  1.00  0.00    -0.393 N 
ATOM     12  H22 UNL     1      99.535  12.000  13.697  1.00  0.00     0.156 HD
ATOM     13  H21 UNL     1     100.932  12.803  12.980  1.00  0.00     0.156 HD
BRANCH  10  14
HETATM   14  C7  UNL     1     102.621  11.014  13.593  1.00  0.00     0.284 C 
HETATM   15  O3  UNL     1     103.411  11.630  14.374  1.00  0.00    -0.281 OA
BRANCH  14  16
HETATM   16  C8  UNL     1     103.154  10.329  12.407  1.00  0.00     0.457 C 
HETATM   17  F1  UNL     1     104.365  10.975  12.074  1.00  0.00    -0.163 F 
HETATM   18  F2  UNL     1     102.287  10.489  11.349  1.00  0.00    -0.163 F 
HETATM   19  F3  UNL     1     103.490   9.031  12.625  1.00  0.00    -0.163 F 
ENDBRANCH  14  16
ENDBRANCH  10  14
ENDBRANCH   8  10
ENDBRANCH   1   8
BRANCH   1  20
HETATM   20  C9  UNL     1      98.660   9.766  16.134  1.00  0.00     0.090 C 
HETATM   21  C10 UNL     1      98.232   9.681  17.574  1.00  0.00     0.026 C 
HETATM   22  C11 UNL     1      96.987   8.732  17.532  1.00  0.00     0.002 C 
HETATM   23  C12 UNL     1      96.149   9.134  16.364  1.00  0.00     0.000 C 
HETATM   24  C13 UNL     1      96.317  10.569  15.925  1.00  0.00     0.002 C 
HETATM   25  C14 UNL     1      97.784  10.874  15.566  1.00  0.00     0.026 C 
ENDBRANCH   1  20
TORSDOF 9
ENDMDL
MODEL 4
REMARK VINA RESULT: -7.695194003      3.075      5.573
REMARK  9 active torsions:
REMARK  status: ('A' for Active; 'I' for Inactive)
REMARK    1  A    between atoms: C2_2  and  O1_3 
REMARK    2  A    between atoms: O1_3  and  C3_4 
REMARK    3  A    between atoms: C3_4  and  C4_6 
REMARK    4  A    between atoms: C4_6  and  N1_7 
REMARK    5  A    between atoms: N1_7  and  C5_8 
REMARK    6  A    between atoms: N1_7  and  C9_20 
REMARK    7  A    between atoms: C5_8  and  C6_10 
REMARK    8  A    between atoms: C6_10  and  C7_14 
REMARK    9  A    between atoms: C7_14  and  C8_16 
ROOT
HETATM    1  N1  UNL     1     100.380  10.035  14.921  1.00  0.00    -0.335 N 
ENDROOT
BRANCH   1   2
HETATM    2  C4  UNL     1      99.806   8.822  15.470  1.00  0.00     0.174 C 
BRANCH   2   3
HETATM    3  C3  UNL     1      98.440   8.461  15.201  1.00  0.00     0.298 C 
HETATM    4  O2  UNL     1      97.730   8.797  14.274  1.00  0.00    -0.259 OA
BRANCH   3   5
HETATM    5  O1  UNL     1      97.811   7.589  16.138  1.00  0.00    -0.317 OA
BRANCH   5   6
HETATM    6  C2  UNL     1      98.069   7.716  17.500  1.00  0.00     0.174 C 
HETATM    7  C1  UNL     1      96.912   8.485  18.117  1.00  0.00     0.034 C 
ENDBRANCH   5   6
ENDBRANCH   3   5
ENDBRANCH   2   3
ENDBRANCH   1   2
BRANCH   1   8
HETATM    8  C5  UNL     1      99.732  11.235  15.279  1.00  0.00     0.133 C 
HETATM    9  S1  UNL     1      99.351  12.348  14.129  1.00  0.00    -0.058 SA
BRANCH   8  10
HETATM   10  C6  UNL     1      99.401  11.645  16.651  1.00  0.00     0.120 C 
HETATM   11  N2  UNL     1      98.324  11.384  17.265  1.00  0.00    -0.393 N 
ATOM     12  H22 UNL     1      97.649  10.841  16.726  1.00  0.00     0.156 HD
ATOM     13  H21 UNL     1      98.095  11.669  18.217  1.00  0.00     0.156 HD
BRANCH  10  14
HETATM   14  C7  UNL     1     100.381  12.434  17.433  1.00  0.00     0.284 C 
HETATM   15  O3  UNL     1     100.205  13.686  17.564  1.00  0.00    -0.281 OA
BRANCH  14  16
HETATM   16  C8  UNL     1     101.547  11.792  18.057  1.00  0.00     0.457 C 
HETATM   17  F1  UNL     1     102.691  12.310  17.412  1.00  0.00    -0.163 F 
HETATM   18  F2  UNL     1     101.510  10.435  17.825  1.00  0.00    -0.163 F 
HETATM   19  F3  UNL     1     101.707  12.101  19.370  1.00  0.00    -0.163 F 
ENDBRANCH  14  16
ENDBRANCH  10  14
ENDBRANCH   8  10
ENDBRANCH   1   8
BRANCH   1  20
HETATM   20  C9  UNL     1     101.519  10.050  14.082  1.00  0.00     0.090 C 
HETATM   21  C10 UNL     1     102.755  10.658  14.690  1.00  0.00     0.026 C 
HETATM   22  C11 UNL     1     103.482  11.312  13.468  1.00  0.00     0.002 C 
HETATM   23  C12 UNL     1     103.417  10.346  12.332  1.00  0.00     0.000 C 
HETATM   24  C13 UNL     1     103.263   8.899  12.736  1.00  0.00     0.002 C 
HETATM   25  C14 UNL     1     101.996   8.691  13.589  1.00  0.00     0.026 C 
ENDBRANCH   1  20
TORSDOF 9
ENDMDL
MODEL 5
REMARK VINA RESULT: -7.688612177      3.077      5.251
REMARK  9 active torsions:
REMARK  status: ('A' for Active; 'I' for Inactive)
REMARK    1  A    between atoms: C2_2  and  O1_3 
REMARK    2  A    between atoms: O1_3  and  C3_4 
REMARK    3  A    between atoms: C3_4  and  C4_6 
REMARK    4  A    between atoms: C4_6  and  N1_7 
REMARK    5  A    between atoms: N1_7  and  C5_8 
REMARK    6  A    between atoms: N1_7  and  C9_20 
REMARK    7  A    between atoms: C5_8  and  C6_10 
REMARK    8  A    between atoms: C6_10  and  C7_14 
REMARK    9  A    between atoms: C7_14  and  C8_16 
ROOT
HETATM    1  N1  UNL     1     100.764  10.304  15.538  1.00  0.00    -0.335 N 
ENDROOT
BRANCH   1   2
HETATM    2  C4  UNL     1     101.187  10.264  16.925  1.00  0.00     0.174 C 
BRANCH   2   3
HETATM    3  C3  UNL     1     101.403  11.476  17.668  1.00  0.00     0.298 C 
HETATM    4  O2  UNL     1     102.445  11.936  18.092  1.00  0.00    -0.259 OA
BRANCH   3   5
HETATM    5  O1  UNL     1     100.250  12.264  17.960  1.00  0.00    -0.317 OA
BRANCH   5   6
HETATM    6  C2  UNL     1     100.047  13.479  17.314  1.00  0.00     0.174 C 
HETATM    7  C1  UNL     1      98.551  13.742  17.291  1.00  0.00     0.034 C 
ENDBRANCH   5   6
ENDBRANCH   3   5
ENDBRANCH   2   3
ENDBRANCH   1   2
BRANCH   1   8
HETATM    8  C5  UNL     1      99.373  10.372  15.324  1.00  0.00     0.133 C 
HETATM    9  S1  UNL     1      98.770  11.193  14.033  1.00  0.00    -0.058 SA
BRANCH   8  10
HETATM   10  C6  UNL     1      98.348   9.809  16.216  1.00  0.00     0.120 C 
HETATM   11  N2  UNL     1      97.730  10.437  17.126  1.00  0.00    -0.393 N 
ATOM     12  H22 UNL     1      97.995  11.418  17.220  1.00  0.00     0.156 HD
ATOM     13  H21 UNL     1      97.019  10.047  17.744  1.00  0.00     0.156 HD
BRANCH  10  14
HETATM   14  C7  UNL     1      97.963   8.385  16.079  1.00  0.00     0.284 C 
HETATM   15  O3  UNL     1      97.096   8.059  15.209  1.00  0.00    -0.281 OA
BRANCH  14  16
HETATM   16  C8  UNL     1      98.569   7.350  16.928  1.00  0.00     0.457 C 
HETATM   17  F1  UNL     1      98.561   6.152  16.180  1.00  0.00    -0.163 F 
HETATM   18  F2  UNL     1      97.792   7.154  18.048  1.00  0.00    -0.163 F 
HETATM   19  F3  UNL     1      99.876   7.577  17.223  1.00  0.00    -0.163 F 
ENDBRANCH  14  16
ENDBRANCH  10  14
ENDBRANCH   8  10
ENDBRANCH   1   8
BRANCH   1  20
HETATM   20  C9  UNL     1     101.664  10.284  14.446  1.00  0.00     0.090 C 
HETATM   21  C10 UNL     1     102.982  10.969  14.689  1.00  0.00     0.026 C 
HETATM   22  C11 UNL     1     103.361  11.545  13.284  1.00  0.00     0.002 C 
HETATM   23  C12 UNL     1     103.065  10.493  12.267  1.00  0.00     0.000 C 
HETATM   24  C13 UNL     1     103.077   9.078  12.795  1.00  0.00     0.002 C 
HETATM   25  C14 UNL     1     102.067   8.903  13.945  1.00  0.00     0.026 C 
ENDBRANCH   1  20
TORSDOF 9
ENDMDL
