MODEL 1
REMARK VINA RESULT: -8.130529526      0.000      0.000
REMARK  7 active torsions:
REMARK  status: ('A' for Active; 'I' for Inactive)
REMARK    1  A    between atoms: O1_2  and  C2_3 
REMARK       I    between atoms: C2_3  and  N1_5 
REMARK    2  A    between atoms: N1_5  and  C3_7 
REMARK    3  A    between atoms: C4_8  and  C5_9 
REMARK    4  A    between atoms: N3_17  and  C8_18 
REMARK    5  A    between atoms: C8_18  and  C9_19 
REMARK    6  A    between atoms: C9_19  and  O4_20 
REMARK    7  A    between atoms: O4_20  and  C10_21 
ROOT
HETATM    1  C3  UNL     1      98.846  10.574  16.859  1.00  0.00     0.148 A 
HETATM    2  C4  UNL     1      98.019  11.651  16.986  1.00  0.00     0.167 A 
HETATM    3  N2  UNL     1      98.759  12.802  17.225  1.00  0.00    -0.296 N 
HETATM    4  C6  UNL     1      98.264  14.146  17.433  1.00  0.00     0.161 C 
HETATM    5  C7  UNL     1     100.044  12.416  17.241  1.00  0.00     0.330 A 
HETATM    6  O3  UNL     1     101.000  13.212  17.433  1.00  0.00    -0.246 OA
HETATM    7  N3  UNL     1     100.107  11.106  17.027  1.00  0.00    -0.281 N 
ENDROOT
BRANCH   7   8
HETATM    8  C8  UNL     1     101.351  10.362  16.992  1.00  0.00     0.162 C 
BRANCH   8   9
HETATM    9  C9  UNL     1     102.050  10.740  15.710  1.00  0.00     0.189 C 
BRANCH   9  10
HETATM   10  O4  UNL     1     102.427   9.780  14.882  1.00  0.00    -0.379 OA
BRANCH  10  11
HETATM   11  C10 UNL     1     101.995   9.517  13.665  1.00  0.00     0.057 C 
HETATM   12  C11 UNL     1     100.731   8.709  13.568  1.00  0.00     0.046 C 
HETATM   13  C12 UNL     1     101.976  10.598  12.618  1.00  0.00     0.038 C 
HETATM   14  C13 UNL     1     103.453  10.347  12.409  1.00  0.00     0.006 C 
HETATM   15  C14 UNL     1     103.154   8.904  12.839  1.00  0.00     0.038 C 
ENDBRANCH  10  11
ENDBRANCH   9  10
ENDBRANCH   8   9
ENDBRANCH   7   8
BRANCH   1  16
HETATM   16  N1  UNL     1      98.679   9.198  16.694  1.00  0.00    -0.286 N 
HETATM   17  C2  UNL     1      97.951   8.343  15.918  1.00  0.00     0.365 C 
HETATM   18  O2  UNL     1      97.081   8.587  15.099  1.00  0.00    -0.238 OA
ATOM     19  H1  UNL     1      99.274   8.681  17.341  1.00  0.00     0.172 HD
BRANCH  17  20
HETATM   20  O1  UNL     1      98.200   6.937  16.038  1.00  0.00    -0.309 OA
HETATM   21  C1  UNL     1      99.488   6.468  16.409  1.00  0.00     0.215 C 
ENDBRANCH  17  20
ENDBRANCH   1  16
BRANCH   2  22
HETATM   22  C5  UNL     1      96.558  11.663  16.859  1.00  0.00     0.436 C 
HETATM   23  F1  UNL     1      95.943  12.711  17.561  1.00  0.00    -0.165 F 
HETATM   24  F2  UNL     1      96.066  10.563  17.669  1.00  0.00    -0.165 F 
HETATM   25  F3  UNL     1      96.030  11.358  15.656  1.00  0.00    -0.165 F 
ENDBRANCH   2  22
TORSDOF 7
ENDMDL
MODEL 2
REMARK VINA RESULT: -7.963467348      3.096      5.243
REMARK  7 active torsions:
REMARK  status: ('A' for Active; 'I' for Inactive)
REMARK    1  A    between atoms: O1_2  and  C2_3 
REMARK       I    between atoms: C2_3  and  N1_5 
REMARK    2  A    between atoms: N1_5  and  C3_7 
REMARK    3  A    between atoms: C4_8  and  C5_9 
REMARK    4  A    between atoms: N3_17  and  C8_18 
REMARK    5  A    between atoms: C8_18  and  C9_19 
REMARK    6  A    between atoms: C9_19  and  O4_20 
REMARK    7  A    between atoms: O4_20  and  C10_21 
ROOT
HETATM    1  C3  UNL     1     101.362   9.565  15.685  1.00  0.00     0.148 A 
HETATM    2  C4  UNL     1     102.051   9.755  14.523  1.00  0.00     0.167 A 
HETATM    3  N2  UNL     1     102.794  10.927  14.589  1.00  0.00    -0.296 N 
HETATM    4  C6  UNL     1     103.646  11.496  13.566  1.00  0.00     0.161 C 
HETATM    5  C7  UNL     1     102.552  11.447  15.803  1.00  0.00     0.330 A 
HETATM    6  O3  UNL     1     103.069  12.521  16.207  1.00  0.00    -0.246 OA
HETATM    7  N3  UNL     1     101.711  10.653  16.456  1.00  0.00    -0.281 N 
ENDROOT
BRANCH   7   8
HETATM    8  C8  UNL     1     101.231  10.929  17.796  1.00  0.00     0.162 C 
BRANCH   8   9
HETATM    9  C9  UNL     1     100.000  11.788  17.650  1.00  0.00     0.189 C 
BRANCH   9  10
HETATM   10  O4  UNL     1      98.845  11.206  17.375  1.00  0.00    -0.379 OA
BRANCH  10  11
HETATM   11  C10 UNL     1      97.965  11.508  16.441  1.00  0.00     0.057 C 
HETATM   12  C11 UNL     1      98.512  11.740  15.060  1.00  0.00     0.046 C 
HETATM   13  C12 UNL     1      96.673  10.741  16.342  1.00  0.00     0.038 C 
HETATM   14  C13 UNL     1      96.137  11.602  17.464  1.00  0.00     0.006 C 
HETATM   15  C14 UNL     1      97.087  12.686  16.936  1.00  0.00     0.038 C 
ENDBRANCH  10  11
ENDBRANCH   9  10
ENDBRANCH   8   9
ENDBRANCH   7   8
BRANCH   1  16
HETATM   16  N1  UNL     1     100.427   8.641  16.153  1.00  0.00    -0.286 N 
HETATM   17  C2  UNL     1      99.255   8.074  15.742  1.00  0.00     0.365 C 
HETATM   18  O2  UNL     1      98.584   8.309  14.752  1.00  0.00    -0.238 OA
ATOM     19  H1  UNL     1     100.699   8.284  17.070  1.00  0.00     0.172 HD
BRANCH  17  20
HETATM   20  O1  UNL     1      98.678   7.043  16.553  1.00  0.00    -0.309 OA
HETATM   21  C1  UNL     1      97.990   7.373  17.750  1.00  0.00     0.215 C 
ENDBRANCH  17  20
ENDBRANCH   1  16
BRANCH   2  22
HETATM   22  C5  UNL     1     102.075   8.869  13.354  1.00  0.00     0.436 C 
HETATM   23  F1  UNL     1     103.361   8.673  12.827  1.00  0.00    -0.165 F 
HETATM   24  F2  UNL     1     101.519   9.630  12.250  1.00  0.00    -0.165 F 
HETATM   25  F3  UNL     1     101.262   7.793  13.366  1.00  0.00    -0.165 F 
ENDBRANCH   2  22
TORSDOF 7
ENDMDL
MODEL 3
REMARK VINA RESULT: -7.915963444      3.082      5.404
REMARK  7 active torsions:
REMARK  status: ('A' for Active; 'I' for Inactive)
REMARK    1  A    between atoms: O1_2  and  C2_3 
REMARK       I    between atoms: C2_3  and  N1_5 
REMARK    2  A    between atoms: N1_5  and  C3_7 
REMARK    3  A    between atoms: C4_8  and  C5_9 
REMARK    4  A    between atoms: N3_17  and  C8_18 
REMARK    5  A    between atoms: C8_18  and  C9_19 
REMARK    6  A    between atoms: C9_19  and  O4_20 
REMARK    7  A    between atoms: O4_20  and  C10_21 
ROOT
HETATM    1  C3  UNL     1     101.188   9.766  15.429  1.00  0.00     0.148 A 
HETATM    2  C4  UNL     1     102.055  10.056  14.417  1.00  0.00     0.167 A 
HETATM    3  N2  UNL     1     102.791  11.194  14.724  1.00  0.00    -0.296 N 
HETATM    4  C6  UNL     1     103.800  11.842  13.914  1.00  0.00     0.161 C 
HETATM    5  C7  UNL     1     102.365  11.591  15.933  1.00  0.00     0.330 A 
HETATM    6  O3  UNL     1     102.822  12.604  16.526  1.00  0.00    -0.246 OA
HETATM    7  N3  UNL     1     101.421  10.758  16.357  1.00  0.00    -0.281 N 
ENDROOT
BRANCH   7   8
HETATM    8  C8  UNL     1     100.738  10.906  17.627  1.00  0.00     0.162 C 
BRANCH   8   9
HETATM    9  C9  UNL     1      99.421  11.581  17.337  1.00  0.00     0.189 C 
BRANCH   9  10
HETATM   10  O4  UNL     1      98.331  10.838  17.239  1.00  0.00    -0.379 OA
BRANCH  10  11
HETATM   11  C10 UNL     1      97.068  11.215  17.227  1.00  0.00     0.057 C 
HETATM   12  C11 UNL     1      96.813  12.691  17.356  1.00  0.00     0.046 C 
HETATM   13  C12 UNL     1      96.113  10.631  16.221  1.00  0.00     0.038 C 
HETATM   14  C13 UNL     1      95.993   9.419  17.117  1.00  0.00     0.006 C 
HETATM   15  C14 UNL     1      96.283  10.385  18.274  1.00  0.00     0.038 C 
ENDBRANCH  10  11
ENDBRANCH   9  10
ENDBRANCH   8   9
ENDBRANCH   7   8
BRANCH   1  16
HETATM   16  N1  UNL     1     100.181   8.823  15.644  1.00  0.00    -0.286 N 
HETATM   17  C2  UNL     1      98.981   8.468  15.099  1.00  0.00     0.365 C 
HETATM   18  O2  UNL     1      98.348   8.996  14.201  1.00  0.00    -0.238 OA
ATOM     19  H1  UNL     1     100.408   8.227  16.440  1.00  0.00     0.172 HD
BRANCH  17  20
HETATM   20  O1  UNL     1      98.316   7.309  15.618  1.00  0.00    -0.309 OA
HETATM   21  C1  UNL     1      98.952   6.494  16.591  1.00  0.00     0.215 C 
ENDBRANCH  17  20
ENDBRANCH   1  16
BRANCH   2  22
HETATM   22  C5  UNL     1     102.255   9.296  13.179  1.00  0.00     0.436 C 
HETATM   23  F1  UNL     1     101.600   9.851  12.068  1.00  0.00    -0.165 F 
HETATM   24  F2  UNL     1     101.454   8.091  13.302  1.00  0.00    -0.165 F 
HETATM   25  F3  UNL     1     103.478   8.775  12.953  1.00  0.00    -0.165 F 
ENDBRANCH   2  22
TORSDOF 7
ENDMDL
MODEL 4
REMARK VINA RESULT: -7.875364160      1.138      1.174
REMARK  7 active torsions:
REMARK  status: ('A' for Active; 'I' for Inactive)
REMARK    1  A    between atoms: O1_2  and  C2_3 
REMARK       I    between atoms: C2_3  and  N1_5 
REMARK    2  A    between atoms: N1_5  and  C3_7 
REMARK    3  A    between atoms: C4_8  and  C5_9 
REMARK    4  A    between atoms: N3_17  and  C8_18 
REMARK    5  A    between atoms: C8_18  and  C9_19 
REMARK    6  A    between atoms: C9_19  and  O4_20 
REMARK    7  A    between atoms: O4_20  and  C10_21 
ROOT
HETATM    1  C3  UNL     1      98.021  10.613  16.844  1.00  0.00     0.148 A 
HETATM    2  C4  UNL     1      96.920  11.363  17.135  1.00  0.00     0.167 A 
HETATM    3  N2  UNL     1      97.265  12.704  17.247  1.00  0.00    -0.296 N 
HETATM    4  C6  UNL     1      96.398  13.820  17.560  1.00  0.00     0.161 C 
HETATM    5  C7  UNL     1      98.586  12.762  17.018  1.00  0.00     0.330 A 
HETATM    6  O3  UNL     1      99.242  13.837  17.038  1.00  0.00    -0.246 OA
HETATM    7  N3  UNL     1      99.041  11.537  16.780  1.00  0.00    -0.281 N 
ENDROOT
BRANCH   7   8
HETATM    8  C8  UNL     1     100.434  11.242  16.505  1.00  0.00     0.162 C 
BRANCH   8   9
HETATM    9  C9  UNL     1     100.632  11.420  15.020  1.00  0.00     0.189 C 
BRANCH   9  10
HETATM   10  O4  UNL     1     101.607  10.754  14.423  1.00  0.00    -0.379 OA
BRANCH  10  11
HETATM   11  C10 UNL     1     101.559  10.013  13.334  1.00  0.00     0.057 C 
HETATM   12  C11 UNL     1     100.286   9.246  13.106  1.00  0.00     0.046 C 
HETATM   13  C12 UNL     1     102.051  10.563  12.022  1.00  0.00     0.038 C 
HETATM   14  C13 UNL     1     103.457  10.237  12.473  1.00  0.00     0.006 C 
HETATM   15  C14 UNL     1     102.814   9.104  13.286  1.00  0.00     0.038 C 
ENDBRANCH  10  11
ENDBRANCH   9  10
ENDBRANCH   8   9
ENDBRANCH   7   8
BRANCH   1  16
HETATM   16  N1  UNL     1      98.293   9.252  16.695  1.00  0.00    -0.286 N 
HETATM   17  C2  UNL     1      97.865   8.201  15.936  1.00  0.00     0.365 C 
HETATM   18  O2  UNL     1      96.957   8.147  15.125  1.00  0.00    -0.238 OA
ATOM     19  H1  UNL     1      99.025   8.957  17.342  1.00  0.00     0.172 HD
BRANCH  17  20
HETATM   20  O1  UNL     1      98.545   6.946  16.070  1.00  0.00    -0.309 OA
HETATM   21  C1  UNL     1      99.938   6.911  16.339  1.00  0.00     0.215 C 
ENDBRANCH  17  20
ENDBRANCH   1  16
BRANCH   2  22
HETATM   22  C5  UNL     1      95.540  10.888  17.284  1.00  0.00     0.436 C 
HETATM   23  F1  UNL     1      94.830  11.539  18.304  1.00  0.00    -0.165 F 
HETATM   24  F2  UNL     1      95.621   9.576  17.902  1.00  0.00    -0.165 F 
HETATM   25  F3  UNL     1      94.850  10.605  16.161  1.00  0.00    -0.165 F 
ENDBRANCH   2  22
TORSDOF 7
ENDMDL
MODEL 5
REMARK VINA RESULT: -7.779613617      2.763      4.394
REMARK  7 active torsions:
REMARK  status: ('A' for Active; 'I' for Inactive)
REMARK    1  A    between atoms: O1_2  and  C2_3 
REMARK       I    between atoms: C2_3  and  N1_5 
REMARK    2  A    between atoms: N1_5  and  C3_7 
REMARK    3  A    between atoms: C4_8  and  C5_9 
REMARK    4  A    between atoms: N3_17  and  C8_18 
REMARK    5  A    between atoms: C8_18  and  C9_19 
REMARK    6  A    between atoms: C9_19  and  O4_20 
REMARK    7  A    between atoms: O4_20  and  C10_21 
ROOT
HETATM    1  C3  UNL     1      97.767  10.363  16.619  1.00  0.00     0.148 A 
HETATM    2  C4  UNL     1      98.090   9.448  15.661  1.00  0.00     0.167 A 
HETATM    3  N2  UNL     1      98.714  10.072  14.588  1.00  0.00    -0.296 N 
HETATM    4  C6  UNL     1      99.196   9.463  13.367  1.00  0.00     0.161 C 
HETATM    5  C7  UNL     1      98.768  11.375  14.903  1.00  0.00     0.330 A 
HETATM    6  O3  UNL     1      99.277  12.245  14.148  1.00  0.00    -0.246 OA
HETATM    7  N3  UNL     1      98.214  11.558  16.096  1.00  0.00    -0.281 N 
ENDROOT
BRANCH   7   8
HETATM    8  C8  UNL     1      98.097  12.856  16.732  1.00  0.00     0.162 C 
BRANCH   8   9
HETATM    9  C9  UNL     1      99.373  13.079  17.504  1.00  0.00     0.189 C 
BRANCH   9  10
HETATM   10  O4  UNL     1     100.525  12.757  16.939  1.00  0.00    -0.379 OA
BRANCH  10  11
HETATM   11  C10 UNL     1     101.493  11.993  17.405  1.00  0.00     0.057 C 
HETATM   12  C11 UNL     1     101.880  12.212  18.841  1.00  0.00     0.046 C 
HETATM   13  C12 UNL     1     101.505  10.518  17.105  1.00  0.00     0.038 C 
HETATM   14  C13 UNL     1     102.093  10.852  15.752  1.00  0.00     0.006 C 
HETATM   15  C14 UNL     1     102.708  12.076  16.445  1.00  0.00     0.038 C 
ENDBRANCH  10  11
ENDBRANCH   9  10
ENDBRANCH   8   9
ENDBRANCH   7   8
BRANCH   1  16
HETATM   16  N1  UNL     1      97.085  10.339  17.836  1.00  0.00    -0.286 N 
HETATM   17  C2  UNL     1      95.865   9.956  18.318  1.00  0.00     0.365 C 
HETATM   18  O2  UNL     1      94.888   9.543  17.717  1.00  0.00    -0.238 OA
ATOM     19  H1  UNL     1      97.666  10.717  18.584  1.00  0.00     0.172 HD
BRANCH  17  20
HETATM   20  O1  UNL     1      95.640  10.028  19.731  1.00  0.00    -0.309 OA
HETATM   21  C1  UNL     1      94.501  10.705  20.241  1.00  0.00     0.215 C 
ENDBRANCH  17  20
ENDBRANCH   1  16
BRANCH   2  22
HETATM   22  C5  UNL     1      97.873   7.998  15.715  1.00  0.00     0.436 C 
HETATM   23  F1  UNL     1      97.605   7.519  17.007  1.00  0.00    -0.165 F 
HETATM   24  F2  UNL     1      99.175   7.381  15.537  1.00  0.00    -0.165 F 
HETATM   25  F3  UNL     1      97.175   7.431  14.710  1.00  0.00    -0.165 F 
ENDBRANCH   2  22
TORSDOF 7
ENDMDL
