MODEL 1
REMARK VINA RESULT: -9.160115690      0.000      0.000
REMARK  8 active torsions:
REMARK  status: ('A' for Active; 'I' for Inactive)
REMARK    1  A    between atoms: C2_2  and  C3_3 
REMARK    2  A    between atoms: C3_3  and  C4_4 
REMARK    3  A    between atoms: C4_4  and  C6_6 
REMARK    4  A    between atoms: C6_6  and  O2_8 
REMARK    5  A    between atoms: O2_8  and  C7_9 
REMARK    6  A    between atoms: C11_16  and  N1_17 
REMARK    7  A    between atoms: N1_17  and  C12_19 
REMARK    8  A    between atoms: C12_19  and  C14_21 
ROOT
HETATM    1  C7  UNL     1     100.811  10.033  16.924  1.00  0.00     0.324 C 
HETATM    2  O3  UNL     1      99.764  10.615  16.150  1.00  0.00    -0.317 OA
HETATM    3  C8  UNL     1     100.367  11.871  16.006  1.00  0.00     0.218 C 
HETATM    4  C9  UNL     1     100.438  12.255  17.496  1.00  0.00     0.083 C 
HETATM    5  C10 UNL     1     101.231  11.008  17.946  1.00  0.00     0.257 C 
HETATM    6  O4  UNL     1     102.571  11.360  17.677  1.00  0.00    -0.222 OA
HETATM    7  O5  UNL     1     102.622  12.020  16.513  1.00  0.00    -0.174 OA
HETATM    8  C11 UNL     1     101.743  11.474  15.603  1.00  0.00     0.306 C 
HETATM    9  O6  UNL     1     101.803  10.073  15.916  1.00  0.00    -0.270 OA
ENDROOT
BRANCH   1  10
HETATM   10  O2  UNL     1     100.502   8.737  17.287  1.00  0.00    -0.255 OA
BRANCH  10  11
HETATM   11  C6  UNL     1      99.749   7.930  16.472  1.00  0.00     0.267 C 
HETATM   12  O1  UNL     1     100.258   7.529  15.399  1.00  0.00    -0.265 OA
BRANCH  11  13
HETATM   13  C4  UNL     1      98.369   7.496  16.787  1.00  0.00     0.085 C 
HETATM   14  C5  UNL     1      97.534   7.985  15.593  1.00  0.00     0.020 C 
BRANCH  13  15
HETATM   15  C3  UNL     1      97.901   8.132  18.052  1.00  0.00     0.040 C 
BRANCH  15  16
HETATM   16  C2  UNL     1      96.755   9.043  17.755  1.00  0.00    -0.036 C 
HETATM   17  C1  UNL     1      95.936   9.335  18.749  1.00  0.00     0.007 C 
ENDBRANCH  15  16
ENDBRANCH  13  15
ENDBRANCH  11  13
ENDBRANCH  10  11
ENDBRANCH   1  10
BRANCH   8  18
HETATM   18  N1  UNL     1     102.027  11.570  14.230  1.00  0.00    -0.352 N 
ATOM     19  H1  UNL     1     101.504  12.218  13.640  1.00  0.00     0.159 HD
BRANCH  18  20
HETATM   20  C12 UNL     1     103.030  10.770  13.680  1.00  0.00     0.185 C 
HETATM   21  C13 UNL     1     104.219  11.552  13.219  1.00  0.00     0.041 C 
BRANCH  20  22
HETATM   22  C14 UNL     1     102.410   9.883  12.582  1.00  0.00     0.406 C 
HETATM   23  F1  UNL     1     103.251   8.772  12.380  1.00  0.00    -0.169 F 
HETATM   24  F2  UNL     1     101.146   9.478  12.907  1.00  0.00    -0.169 F 
HETATM   25  F3  UNL     1     102.427  10.603  11.391  1.00  0.00    -0.169 F 
ENDBRANCH  20  22
ENDBRANCH  18  20
ENDBRANCH   8  18
TORSDOF 8
ENDMDL
MODEL 2
REMARK VINA RESULT: -9.005030038      1.133      1.588
REMARK  8 active torsions:
REMARK  status: ('A' for Active; 'I' for Inactive)
REMARK    1  A    between atoms: C2_2  and  C3_3 
REMARK    2  A    between atoms: C3_3  and  C4_4 
REMARK    3  A    between atoms: C4_4  and  C6_6 
REMARK    4  A    between atoms: C6_6  and  O2_8 
REMARK    5  A    between atoms: O2_8  and  C7_9 
REMARK    6  A    between atoms: C11_16  and  N1_17 
REMARK    7  A    between atoms: N1_17  and  C12_19 
REMARK    8  A    between atoms: C12_19  and  C14_21 
ROOT
HETATM    1  C7  UNL     1     100.616  10.350  17.233  1.00  0.00     0.324 C 
HETATM    2  O3  UNL     1      99.624  11.000  16.441  1.00  0.00    -0.317 OA
HETATM    3  C8  UNL     1     100.405  12.115  16.111  1.00  0.00     0.218 C 
HETATM    4  C9  UNL     1     100.634  12.655  17.535  1.00  0.00     0.083 C 
HETATM    5  C10 UNL     1     101.250  11.356  18.103  1.00  0.00     0.257 C 
HETATM    6  O4  UNL     1     102.608  11.451  17.730  1.00  0.00    -0.222 OA
HETATM    7  O5  UNL     1     102.684  11.951  16.490  1.00  0.00    -0.174 OA
HETATM    8  C11 UNL     1     101.673  11.453  15.698  1.00  0.00     0.306 C 
HETATM    9  O6  UNL     1     101.533  10.108  16.183  1.00  0.00    -0.270 OA
ENDROOT
BRANCH   1  10
HETATM   10  O2  UNL     1     100.133   9.173  17.771  1.00  0.00    -0.255 OA
BRANCH  10  11
HETATM   11  C6  UNL     1      98.862   8.734  17.497  1.00  0.00     0.267 C 
HETATM   12  O1  UNL     1      97.915   9.200  18.173  1.00  0.00    -0.265 OA
BRANCH  11  13
HETATM   13  C4  UNL     1      98.538   7.747  16.443  1.00  0.00     0.085 C 
HETATM   14  C5  UNL     1      99.784   6.851  16.363  1.00  0.00     0.020 C 
BRANCH  13  15
HETATM   15  C3  UNL     1      98.303   8.437  15.141  1.00  0.00     0.040 C 
BRANCH  15  16
HETATM   16  C2  UNL     1      96.840   8.447  14.842  1.00  0.00    -0.036 C 
HETATM   17  C1  UNL     1      96.187   9.579  15.033  1.00  0.00     0.007 C 
ENDBRANCH  15  16
ENDBRANCH  13  15
ENDBRANCH  11  13
ENDBRANCH  10  11
ENDBRANCH   1  10
BRANCH   8  18
HETATM   18  N1  UNL     1     101.877  11.340  14.313  1.00  0.00    -0.352 N 
ATOM     19  H1  UNL     1     101.233  11.786  13.659  1.00  0.00     0.159 HD
BRANCH  18  20
HETATM   20  C12 UNL     1     102.969  10.610  13.839  1.00  0.00     0.185 C 
HETATM   21  C13 UNL     1     104.044  11.472  13.255  1.00  0.00     0.041 C 
BRANCH  20  22
HETATM   22  C14 UNL     1     102.457   9.523  12.874  1.00  0.00     0.406 C 
HETATM   23  F1  UNL     1     103.536   8.682  12.538  1.00  0.00    -0.169 F 
HETATM   24  F2  UNL     1     101.434   8.799  13.418  1.00  0.00    -0.169 F 
HETATM   25  F3  UNL     1     102.070  10.148  11.692  1.00  0.00    -0.169 F 
ENDBRANCH  20  22
ENDBRANCH  18  20
ENDBRANCH   8  18
TORSDOF 8
ENDMDL
MODEL 3
REMARK VINA RESULT: -8.720376935      1.216      2.304
REMARK  8 active torsions:
REMARK  status: ('A' for Active; 'I' for Inactive)
REMARK    1  A    between atoms: C2_2  and  C3_3 
REMARK    2  A    between atoms: C3_3  and  C4_4 
REMARK    3  A    between atoms: C4_4  and  C6_6 
REMARK    4  A    between atoms: C6_6  and  O2_8 
REMARK    5  A    between atoms: O2_8  and  C7_9 
REMARK    6  A    between atoms: C11_16  and  N1_17 
REMARK    7  A    between atoms: N1_17  and  C12_19 
REMARK    8  A    between atoms: C12_19  and  C14_21 
ROOT
HETATM    1  C7  UNL     1      99.598  10.993  16.715  1.00  0.00     0.324 C 
HETATM    2  O3  UNL     1     100.063  12.325  16.506  1.00  0.00    -0.317 OA
HETATM    3  C8  UNL     1     101.424  12.000  16.450  1.00  0.00     0.218 C 
HETATM    4  C9  UNL     1     101.571  11.418  17.869  1.00  0.00     0.083 C 
HETATM    5  C10 UNL     1     100.462  10.352  17.721  1.00  0.00     0.257 C 
HETATM    6  O4  UNL     1     101.127   9.277  17.091  1.00  0.00    -0.222 OA
HETATM    7  O5  UNL     1     101.960   9.765  16.164  1.00  0.00    -0.174 OA
HETATM    8  C11 UNL     1     101.395  10.842  15.516  1.00  0.00     0.306 C 
HETATM    9  O6  UNL     1     100.006  10.478  15.463  1.00  0.00    -0.270 OA
ENDROOT
BRANCH   1  10
HETATM   10  O2  UNL     1      98.225  10.961  16.858  1.00  0.00    -0.255 OA
BRANCH  10  11
HETATM   11  C6  UNL     1      97.428  10.318  15.944  1.00  0.00     0.267 C 
HETATM   12  O1  UNL     1      97.248  10.863  14.829  1.00  0.00    -0.265 OA
BRANCH  11  13
HETATM   13  C4  UNL     1      96.774   9.014  16.190  1.00  0.00     0.085 C 
HETATM   14  C5  UNL     1      96.714   8.900  17.721  1.00  0.00     0.020 C 
BRANCH  13  15
HETATM   15  C3  UNL     1      97.591   7.907  15.612  1.00  0.00     0.040 C 
BRANCH  15  16
HETATM   16  C2  UNL     1      98.377   7.251  16.699  1.00  0.00    -0.036 C 
HETATM   17  C1  UNL     1      99.456   6.575  16.348  1.00  0.00     0.007 C 
ENDBRANCH  15  16
ENDBRANCH  13  15
ENDBRANCH  11  13
ENDBRANCH  10  11
ENDBRANCH   1  10
BRANCH   8  18
HETATM   18  N1  UNL     1     101.768  11.120  14.190  1.00  0.00    -0.352 N 
ATOM     19  H1  UNL     1     101.075  11.455  13.520  1.00  0.00     0.159 HD
BRANCH  18  20
HETATM   20  C12 UNL     1     103.095  10.934  13.799  1.00  0.00     0.185 C 
HETATM   21  C13 UNL     1     103.903  12.193  13.840  1.00  0.00     0.041 C 
BRANCH  20  22
HETATM   22  C14 UNL     1     103.113  10.233  12.426  1.00  0.00     0.406 C 
HETATM   23  F1  UNL     1     103.280   8.850  12.635  1.00  0.00    -0.169 F 
HETATM   24  F2  UNL     1     101.973  10.478  11.714  1.00  0.00    -0.169 F 
HETATM   25  F3  UNL     1     104.247  10.662  11.742  1.00  0.00    -0.169 F 
ENDBRANCH  20  22
ENDBRANCH  18  20
ENDBRANCH   8  18
TORSDOF 8
ENDMDL
MODEL 4
REMARK VINA RESULT: -8.618184279      1.341      2.153
REMARK  8 active torsions:
REMARK  status: ('A' for Active; 'I' for Inactive)
REMARK    1  A    between atoms: C2_2  and  C3_3 
REMARK    2  A    between atoms: C3_3  and  C4_4 
REMARK    3  A    between atoms: C4_4  and  C6_6 
REMARK    4  A    between atoms: C6_6  and  O2_8 
REMARK    5  A    between atoms: O2_8  and  C7_9 
REMARK    6  A    between atoms: C11_16  and  N1_17 
REMARK    7  A    between atoms: N1_17  and  C12_19 
REMARK    8  A    between atoms: C12_19  and  C14_21 
ROOT
HETATM    1  C7  UNL     1     100.241  10.212  17.094  1.00  0.00     0.324 C 
HETATM    2  O3  UNL     1      99.725  10.508  15.797  1.00  0.00    -0.317 OA
HETATM    3  C8  UNL     1     100.637  11.530  15.505  1.00  0.00     0.218 C 
HETATM    4  C9  UNL     1     100.262  12.494  16.647  1.00  0.00     0.083 C 
HETATM    5  C10 UNL     1     100.497  11.484  17.792  1.00  0.00     0.257 C 
HETATM    6  O4  UNL     1     101.887  11.573  18.024  1.00  0.00    -0.222 OA
HETATM    7  O5  UNL     1     102.518  11.679  16.848  1.00  0.00    -0.174 OA
HETATM    8  C11 UNL     1     101.917  10.882  15.898  1.00  0.00     0.306 C 
HETATM    9  O6  UNL     1     101.504   9.740  16.666  1.00  0.00    -0.270 OA
ENDROOT
BRANCH   1  10
HETATM   10  O2  UNL     1      99.505   9.219  17.709  1.00  0.00    -0.255 OA
BRANCH  10  11
HETATM   11  C6  UNL     1      98.177   9.032  17.418  1.00  0.00     0.267 C 
HETATM   12  O1  UNL     1      97.344   9.826  17.915  1.00  0.00    -0.265 OA
BRANCH  11  13
HETATM   13  C4  UNL     1      97.666   7.953  16.543  1.00  0.00     0.085 C 
HETATM   14  C5  UNL     1      98.739   6.856  16.624  1.00  0.00     0.020 C 
BRANCH  13  15
HETATM   15  C3  UNL     1      97.524   8.445  15.142  1.00  0.00     0.040 C 
BRANCH  15  16
HETATM   16  C2  UNL     1      96.181   9.076  14.972  1.00  0.00    -0.036 C 
HETATM   17  C1  UNL     1      96.145  10.362  14.672  1.00  0.00     0.007 C 
ENDBRANCH  15  16
ENDBRANCH  13  15
ENDBRANCH  11  13
ENDBRANCH  10  11
ENDBRANCH   1  10
BRANCH   8  18
HETATM   18  N1  UNL     1     102.690  10.371  14.841  1.00  0.00    -0.352 N 
ATOM     19  H1  UNL     1     103.689  10.208  14.966  1.00  0.00     0.159 HD
BRANCH  18  20
HETATM   20  C12 UNL     1     102.076  10.089  13.619  1.00  0.00     0.185 C 
HETATM   21  C13 UNL     1     101.479   8.719  13.562  1.00  0.00     0.041 C 
BRANCH  20  22
HETATM   22  C14 UNL     1     103.081  10.373  12.484  1.00  0.00     0.406 C 
HETATM   23  F1  UNL     1     102.358  10.690  11.318  1.00  0.00    -0.169 F 
HETATM   24  F2  UNL     1     103.942  11.384  12.807  1.00  0.00    -0.169 F 
HETATM   25  F3  UNL     1     103.760   9.189  12.209  1.00  0.00    -0.169 F 
ENDBRANCH  20  22
ENDBRANCH  18  20
ENDBRANCH   8  18
TORSDOF 8
ENDMDL
MODEL 5
REMARK VINA RESULT: -8.576532109      1.140      1.503
REMARK  8 active torsions:
REMARK  status: ('A' for Active; 'I' for Inactive)
REMARK    1  A    between atoms: C2_2  and  C3_3 
REMARK    2  A    between atoms: C3_3  and  C4_4 
REMARK    3  A    between atoms: C4_4  and  C6_6 
REMARK    4  A    between atoms: C6_6  and  O2_8 
REMARK    5  A    between atoms: O2_8  and  C7_9 
REMARK    6  A    between atoms: C11_16  and  N1_17 
REMARK    7  A    between atoms: N1_17  and  C12_19 
REMARK    8  A    between atoms: C12_19  and  C14_21 
ROOT
HETATM    1  C7  UNL     1     100.261  10.161  17.095  1.00  0.00     0.324 C 
HETATM    2  O3  UNL     1      99.713  10.423  15.805  1.00  0.00    -0.317 OA
HETATM    3  C8  UNL     1     100.603  11.453  15.473  1.00  0.00     0.218 C 
HETATM    4  C9  UNL     1     100.239  12.433  16.604  1.00  0.00     0.083 C 
HETATM    5  C10 UNL     1     100.513  11.450  17.763  1.00  0.00     0.257 C 
HETATM    6  O4  UNL     1     101.906  11.564  17.963  1.00  0.00    -0.222 OA
HETATM    7  O5  UNL     1     102.510  11.655  16.772  1.00  0.00    -0.174 OA
HETATM    8  C11 UNL     1     101.901  10.831  15.850  1.00  0.00     0.306 C 
HETATM    9  O6  UNL     1     101.522   9.699  16.649  1.00  0.00    -0.270 OA
ENDROOT
BRANCH   1  10
HETATM   10  O2  UNL     1      99.554   9.169  17.746  1.00  0.00    -0.255 OA
BRANCH  10  11
HETATM   11  C6  UNL     1      98.925   8.169  17.048  1.00  0.00     0.267 C 
HETATM   12  O1  UNL     1      99.633   7.290  16.503  1.00  0.00    -0.265 OA
BRANCH  11  13
HETATM   13  C4  UNL     1      97.456   8.059  16.904  1.00  0.00     0.085 C 
HETATM   14  C5  UNL     1      97.204   8.246  15.400  1.00  0.00     0.020 C 
BRANCH  13  15
HETATM   15  C3  UNL     1      96.777   9.132  17.688  1.00  0.00     0.040 C 
BRANCH  15  16
HETATM   16  C2  UNL     1      96.343  10.222  16.764  1.00  0.00    -0.036 C 
HETATM   17  C1  UNL     1      96.611  11.466  17.121  1.00  0.00     0.007 C 
ENDBRANCH  15  16
ENDBRANCH  13  15
ENDBRANCH  11  13
ENDBRANCH  10  11
ENDBRANCH   1  10
BRANCH   8  18
HETATM   18  N1  UNL     1     102.658  10.311  14.787  1.00  0.00    -0.352 N 
ATOM     19  H1  UNL     1     103.658  10.141  14.901  1.00  0.00     0.159 HD
BRANCH  18  20
HETATM   20  C12 UNL     1     102.029  10.030  13.572  1.00  0.00     0.185 C 
HETATM   21  C13 UNL     1     101.446   8.654  13.517  1.00  0.00     0.041 C 
BRANCH  20  22
HETATM   22  C14 UNL     1     103.014  10.331  12.424  1.00  0.00     0.406 C 
HETATM   23  F1  UNL     1     103.802   9.185  12.202  1.00  0.00    -0.169 F 
HETATM   24  F2  UNL     1     102.364  10.699  11.280  1.00  0.00    -0.169 F 
HETATM   25  F3  UNL     1     103.887  11.324  12.860  1.00  0.00    -0.169 F 
ENDBRANCH  20  22
ENDBRANCH  18  20
ENDBRANCH   8  18
TORSDOF 8
ENDMDL
