MODEL 1
REMARK VINA RESULT: -7.707869567      0.000      0.000
REMARK  5 active torsions:
REMARK  status: ('A' for Active; 'I' for Inactive)
REMARK    1  A    between atoms: N1_1  and  C1_4 
REMARK    2  A    between atoms: C2_7  and  N3_8 
REMARK    3  A    between atoms: N3_8  and  N4_10 
REMARK    4  A    between atoms: N7_18  and  C4_19 
REMARK    5  A    between atoms: C4_19  and  C5_20 
ROOT
HETATM    1  C1  UNL     1     -13.183 -28.186  17.541  1.00  0.00     0.679 A 
HETATM    2  N2  UNL     1     -13.358 -28.924  16.427  1.00  0.00    -0.173 N 
ATOM      3  H2  UNL     1     -12.559 -29.360  15.966  1.00  0.00     0.186 HD
HETATM    4  C2  UNL     1     -14.580 -29.076  15.939  1.00  0.00     0.167 A 
HETATM    5  C3  UNL     1     -15.654 -28.473  16.587  1.00  0.00     0.141 A 
HETATM    6  N5  UNL     1     -16.961 -28.453  16.331  1.00  0.00    -0.279 N 
ATOM      7  H5  UNL     1     -17.421 -28.920  15.550  1.00  0.00     0.189 HD
HETATM    8  N6  UNL     1     -17.553 -27.737  17.247  1.00  0.00    -0.238 N 
ATOM      9  H6  UNL     1     -18.555 -27.555  17.293  1.00  0.00     0.208 HD
HETATM   10  N7  UNL     1     -16.668 -27.288  18.097  1.00  0.00    -0.251 N 
HETATM   11  C6  UNL     1     -15.476 -27.720  17.726  1.00  0.00     0.171 A 
HETATM   12  N9  UNL     1     -14.204 -27.595  18.184  1.00  0.00    -0.173 N 
ATOM     13  H9  UNL     1     -14.022 -27.046  19.024  1.00  0.00     0.186 HD
ENDROOT
BRANCH   4  14
HETATM   14  N3  UNL     1     -14.773 -29.778  14.875  1.00  0.00    -0.290 N 
ATOM     15  H3  UNL     1     -15.704 -30.157  14.703  1.00  0.00     0.188 HD
BRANCH  14  16
HETATM   16  N4  UNL     1     -13.763 -30.042  13.949  1.00  0.00    -0.344 N 
ATOM     17  H42 UNL     1     -13.782 -30.947  13.477  1.00  0.00     0.176 HD
ATOM     18  H41 UNL     1     -13.022 -29.376  13.732  1.00  0.00     0.176 HD
ENDBRANCH  14  16
ENDBRANCH   4  14
BRANCH   1  19
HETATM   19  N1  UNL     1     -11.984 -28.059  17.988  1.00  0.00    -0.234 N 
ATOM     20  H12 UNL     1     -11.679 -28.605  18.793  1.00  0.00     0.174 HD
ATOM     21  H11 UNL     1     -11.369 -27.400  17.508  1.00  0.00     0.174 HD
ENDBRANCH   1  19
BRANCH  10  22
HETATM   22  C4  UNL     1     -16.881 -26.446  19.285  1.00  0.00     0.251 C 
BRANCH  22  23
HETATM   23  C5  UNL     1     -17.069 -27.366  20.425  1.00  0.00     0.251 C 
HETATM   24  N8  UNL     1     -16.479 -27.084  21.676  1.00  0.00    -0.061 NA
HETATM   25  O1  UNL     1     -17.752 -28.394  20.274  1.00  0.00    -0.275 OA
ENDBRANCH  22  23
ENDBRANCH  10  22
TORSDOF 5
ENDMDL
MODEL 2
REMARK VINA RESULT: -7.432663259      2.023      3.326
REMARK  5 active torsions:
REMARK  status: ('A' for Active; 'I' for Inactive)
REMARK    1  A    between atoms: N1_1  and  C1_4 
REMARK    2  A    between atoms: C2_7  and  N3_8 
REMARK    3  A    between atoms: N3_8  and  N4_10 
REMARK    4  A    between atoms: N7_18  and  C4_19 
REMARK    5  A    between atoms: C4_19  and  C5_20 
ROOT
HETATM    1  C1  UNL     1     -16.602 -27.663  17.397  1.00  0.00     0.679 A 
HETATM    2  N2  UNL     1     -16.459 -28.646  16.486  1.00  0.00    -0.173 N 
ATOM      3  H2  UNL     1     -17.168 -28.790  15.767  1.00  0.00     0.186 HD
HETATM    4  C2  UNL     1     -15.386 -29.422  16.536  1.00  0.00     0.167 A 
HETATM    5  C3  UNL     1     -14.433 -29.204  17.525  1.00  0.00     0.141 A 
HETATM    6  N5  UNL     1     -13.282 -29.811  17.813  1.00  0.00    -0.279 N 
ATOM      7  H5  UNL     1     -12.884 -30.602  17.306  1.00  0.00     0.189 HD
HETATM    8  N6  UNL     1     -12.751 -29.225  18.850  1.00  0.00    -0.238 N 
ATOM      9  H6  UNL     1     -11.866 -29.489  19.284  1.00  0.00     0.208 HD
HETATM   10  N7  UNL     1     -13.522 -28.249  19.250  1.00  0.00    -0.251 N 
HETATM   11  C6  UNL     1     -14.578 -28.199  18.456  1.00  0.00     0.171 A 
HETATM   12  N9  UNL     1     -15.695 -27.435  18.361  1.00  0.00    -0.173 N 
ATOM     13  H9  UNL     1     -15.847 -26.678  19.029  1.00  0.00     0.186 HD
ENDROOT
BRANCH   4  14
HETATM   14  N3  UNL     1     -15.227 -30.367  15.675  1.00  0.00    -0.290 N 
ATOM     15  H3  UNL     1     -15.556 -31.303  15.911  1.00  0.00     0.188 HD
BRANCH  14  16
HETATM   16  N4  UNL     1     -14.624 -30.166  14.432  1.00  0.00    -0.344 N 
ATOM     17  H42 UNL     1     -14.834 -29.297  13.942  1.00  0.00     0.176 HD
ATOM     18  H41 UNL     1     -13.993 -30.845  14.006  1.00  0.00     0.176 HD
ENDBRANCH  14  16
ENDBRANCH   4  14
BRANCH   1  19
HETATM   19  N1  UNL     1     -17.656 -26.930  17.320  1.00  0.00    -0.234 N 
ATOM     20  H12 UNL     1     -17.574 -25.948  17.057  1.00  0.00     0.174 HD
ATOM     21  H11 UNL     1     -18.553 -27.368  17.531  1.00  0.00     0.174 HD
ENDBRANCH   1  19
BRANCH  10  22
HETATM   22  C4  UNL     1     -13.321 -27.321  20.374  1.00  0.00     0.251 C 
BRANCH  22  23
HETATM   23  C5  UNL     1     -13.885 -27.978  21.569  1.00  0.00     0.251 C 
HETATM   24  N8  UNL     1     -13.350 -29.199  22.033  1.00  0.00    -0.061 NA
HETATM   25  O1  UNL     1     -14.839 -27.447  22.166  1.00  0.00    -0.275 OA
ENDBRANCH  22  23
ENDBRANCH  10  22
TORSDOF 5
ENDMDL
MODEL 3
REMARK VINA RESULT: -7.171367684      1.654      3.107
REMARK  5 active torsions:
REMARK  status: ('A' for Active; 'I' for Inactive)
REMARK    1  A    between atoms: N1_1  and  C1_4 
REMARK    2  A    between atoms: C2_7  and  N3_8 
REMARK    3  A    between atoms: N3_8  and  N4_10 
REMARK    4  A    between atoms: N7_18  and  C4_19 
REMARK    5  A    between atoms: C4_19  and  C5_20 
ROOT
HETATM    1  C1  UNL     1     -16.629 -27.931  17.048  1.00  0.00     0.679 A 
HETATM    2  N2  UNL     1     -15.929 -28.564  16.086  1.00  0.00    -0.173 N 
ATOM      3  H2  UNL     1     -16.396 -28.900  15.244  1.00  0.00     0.186 HD
HETATM    4  C2  UNL     1     -14.626 -28.744  16.248  1.00  0.00     0.167 A 
HETATM    5  C3  UNL     1     -14.011 -28.275  17.404  1.00  0.00     0.141 A 
HETATM    6  N5  UNL     1     -12.749 -28.313  17.828  1.00  0.00    -0.279 N 
ATOM      7  H5  UNL     1     -11.964 -28.728  17.326  1.00  0.00     0.189 HD
HETATM    8  N6  UNL     1     -12.684 -27.730  18.993  1.00  0.00    -0.238 N 
ATOM      9  H6  UNL     1     -11.835 -27.618  19.548  1.00  0.00     0.208 HD
HETATM   10  N7  UNL     1     -13.871 -27.310  19.344  1.00  0.00    -0.251 N 
HETATM   11  C6  UNL     1     -14.725 -27.627  18.387  1.00  0.00     0.171 A 
HETATM   12  N9  UNL     1     -16.056 -27.470  18.173  1.00  0.00    -0.173 N 
ATOM     13  H9  UNL     1     -16.628 -26.996  18.873  1.00  0.00     0.186 HD
ENDROOT
BRANCH   4  14
HETATM   14  N3  UNL     1     -13.935 -29.345  15.341  1.00  0.00    -0.290 N 
ATOM     15  H3  UNL     1     -12.918 -29.293  15.388  1.00  0.00     0.188 HD
BRANCH  14  16
HETATM   16  N4  UNL     1     -14.518 -30.066  14.298  1.00  0.00    -0.344 N 
ATOM     17  H42 UNL     1     -14.985 -30.942  14.533  1.00  0.00     0.176 HD
ATOM     18  H41 UNL     1     -14.495 -29.753  13.327  1.00  0.00     0.176 HD
ENDBRANCH  14  16
ENDBRANCH   4  14
BRANCH   1  19
HETATM   19  N1  UNL     1     -17.891 -27.774  16.859  1.00  0.00    -0.234 N 
ATOM     20  H12 UNL     1     -18.519 -28.575  16.921  1.00  0.00     0.174 HD
ATOM     21  H11 UNL     1     -18.223 -26.832  16.651  1.00  0.00     0.174 HD
ENDBRANCH   1  19
BRANCH  10  22
HETATM   22  C4  UNL     1     -14.268 -26.598  20.570  1.00  0.00     0.251 C 
BRANCH  22  23
HETATM   23  C5  UNL     1     -14.676 -27.632  21.543  1.00  0.00     0.251 C 
HETATM   24  N8  UNL     1     -15.897 -27.515  22.240  1.00  0.00    -0.061 NA
HETATM   25  O1  UNL     1     -13.932 -28.608  21.744  1.00  0.00    -0.275 OA
ENDBRANCH  22  23
ENDBRANCH  10  22
TORSDOF 5
ENDMDL
MODEL 4
REMARK VINA RESULT: -7.047470588      2.387      3.462
REMARK  5 active torsions:
REMARK  status: ('A' for Active; 'I' for Inactive)
REMARK    1  A    between atoms: N1_1  and  C1_4 
REMARK    2  A    between atoms: C2_7  and  N3_8 
REMARK    3  A    between atoms: N3_8  and  N4_10 
REMARK    4  A    between atoms: N7_18  and  C4_19 
REMARK    5  A    between atoms: C4_19  and  C5_20 
ROOT
HETATM    1  C1  UNL     1     -13.855 -27.635  18.619  1.00  0.00     0.679 A 
HETATM    2  N2  UNL     1     -14.856 -28.070  17.829  1.00  0.00    -0.173 N 
ATOM      3  H2  UNL     1     -14.651 -28.516  16.935  1.00  0.00     0.186 HD
HETATM    4  C2  UNL     1     -16.110 -27.911  18.227  1.00  0.00     0.167 A 
HETATM    5  C3  UNL     1     -16.364 -27.301  19.452  1.00  0.00     0.141 A 
HETATM    6  N5  UNL     1     -17.495 -27.014  20.094  1.00  0.00    -0.279 N 
ATOM      7  H5  UNL     1     -18.437 -27.215  19.759  1.00  0.00     0.189 HD
HETATM    8  N6  UNL     1     -17.196 -26.431  21.222  1.00  0.00    -0.238 N 
ATOM      9  H6  UNL     1     -17.873 -26.105  21.912  1.00  0.00     0.208 HD
HETATM   10  N7  UNL     1     -15.898 -26.330  21.337  1.00  0.00    -0.251 N 
HETATM   11  C6  UNL     1     -15.342 -26.857  20.260  1.00  0.00     0.171 A 
HETATM   12  N9  UNL     1     -14.077 -27.042  19.805  1.00  0.00    -0.173 N 
ATOM     13  H9  UNL     1     -13.286 -26.729  20.368  1.00  0.00     0.186 HD
ENDROOT
BRANCH   4  14
HETATM   14  N3  UNL     1     -17.084 -28.320  17.489  1.00  0.00    -0.290 N 
ATOM     15  H3  UNL     1     -17.304 -29.316  17.479  1.00  0.00     0.188 HD
BRANCH  14  16
HETATM   16  N4  UNL     1     -17.851 -27.460  16.702  1.00  0.00    -0.344 N 
ATOM     17  H42 UNL     1     -18.545 -26.881  17.175  1.00  0.00     0.176 HD
ATOM     18  H41 UNL     1     -17.743 -27.392  15.690  1.00  0.00     0.176 HD
ENDBRANCH  14  16
ENDBRANCH   4  14
BRANCH   1  19
HETATM   19  N1  UNL     1     -12.651 -27.804  18.202  1.00  0.00    -0.234 N 
ATOM     20  H12 UNL     1     -12.277 -27.202  17.468  1.00  0.00     0.174 HD
ATOM     21  H11 UNL     1     -12.103 -28.552  18.630  1.00  0.00     0.174 HD
ENDBRANCH   1  19
BRANCH  10  22
HETATM   22  C4  UNL     1     -15.116 -25.748  22.440  1.00  0.00     0.251 C 
BRANCH  22  23
HETATM   23  C5  UNL     1     -15.787 -26.154  23.691  1.00  0.00     0.251 C 
HETATM   24  N8  UNL     1     -16.255 -27.476  23.855  1.00  0.00    -0.061 NA
HETATM   25  O1  UNL     1     -15.937 -25.321  24.603  1.00  0.00    -0.275 OA
ENDBRANCH  22  23
ENDBRANCH  10  22
TORSDOF 5
ENDMDL
MODEL 5
REMARK VINA RESULT: -7.040551236      1.718      2.042
REMARK  5 active torsions:
REMARK  status: ('A' for Active; 'I' for Inactive)
REMARK    1  A    between atoms: N1_1  and  C1_4 
REMARK    2  A    between atoms: C2_7  and  N3_8 
REMARK    3  A    between atoms: N3_8  and  N4_10 
REMARK    4  A    between atoms: N7_18  and  C4_19 
REMARK    5  A    between atoms: C4_19  and  C5_20 
ROOT
HETATM    1  C1  UNL     1     -12.963 -28.100  18.079  1.00  0.00     0.679 A 
HETATM    2  N2  UNL     1     -13.663 -28.942  17.293  1.00  0.00    -0.173 N 
ATOM      3  H2  UNL     1     -13.192 -29.481  16.566  1.00  0.00     0.186 HD
HETATM    4  C2  UNL     1     -14.969 -29.062  17.477  1.00  0.00     0.167 A 
HETATM    5  C3  UNL     1     -15.588 -28.318  18.476  1.00  0.00     0.141 A 
HETATM    6  N5  UNL     1     -16.855 -28.235  18.880  1.00  0.00    -0.279 N 
ATOM      7  H5  UNL     1     -17.641 -28.752  18.484  1.00  0.00     0.189 HD
HETATM    8  N6  UNL     1     -16.923 -27.383  19.865  1.00  0.00    -0.238 N 
ATOM      9  H6  UNL     1     -17.776 -27.128  20.363  1.00  0.00     0.208 HD
HETATM   10  N7  UNL     1     -15.733 -26.905  20.118  1.00  0.00    -0.251 N 
HETATM   11  C6  UNL     1     -14.874 -27.458  19.280  1.00  0.00     0.171 A 
HETATM   12  N9  UNL     1     -13.540 -27.371  19.049  1.00  0.00    -0.173 N 
ATOM     13  H9  UNL     1     -12.968 -26.747  19.619  1.00  0.00     0.186 HD
ENDROOT
BRANCH   4  14
HETATM   14  N3  UNL     1     -15.659 -29.862  16.738  1.00  0.00    -0.290 N 
ATOM     15  H3  UNL     1     -16.595 -30.126  17.047  1.00  0.00     0.188 HD
BRANCH  14  16
HETATM   16  N4  UNL     1     -15.183 -30.383  15.535  1.00  0.00    -0.344 N 
ATOM     17  H42 UNL     1     -14.195 -30.245  15.320  1.00  0.00     0.176 HD
ATOM     18  H41 UNL     1     -15.776 -30.887  14.876  1.00  0.00     0.176 HD
ENDBRANCH  14  16
ENDBRANCH   4  14
BRANCH   1  19
HETATM   19  N1  UNL     1     -11.697 -28.008  17.872  1.00  0.00    -0.234 N 
ATOM     20  H12 UNL     1     -11.123 -27.423  18.481  1.00  0.00     0.174 HD
ATOM     21  H11 UNL     1     -11.307 -28.534  17.090  1.00  0.00     0.174 HD
ENDBRANCH   1  19
BRANCH  10  22
HETATM   22  C4  UNL     1     -15.336 -25.924  21.141  1.00  0.00     0.251 C 
BRANCH  22  23
HETATM   23  C5  UNL     1     -15.747 -26.485  22.444  1.00  0.00     0.251 C 
HETATM   24  N8  UNL     1     -15.773 -25.671  23.596  1.00  0.00    -0.061 NA
HETATM   25  O1  UNL     1     -16.070 -27.684  22.519  1.00  0.00    -0.275 OA
ENDBRANCH  22  23
ENDBRANCH  10  22
TORSDOF 5
ENDMDL
