MODEL 1
REMARK VINA RESULT: -7.036630979      0.000      0.000
REMARK  4 active torsions:
REMARK  status: ('A' for Active; 'I' for Inactive)
REMARK       I    between atoms: N1_2  and  C2_3 
REMARK    1  A    between atoms: N1_2  and  C3_11 
REMARK       I    between atoms: C2_3  and  N3_5 
REMARK    2  A    between atoms: N3_5  and  N4_6 
REMARK    3  A    between atoms: N4_6  and  N5_8 
REMARK    4  A    between atoms: C5_15  and  C6_16 
ROOT
HETATM    1  C3  UNL     1     -14.769 -28.837  23.850  1.00  0.00     0.127 A 
HETATM    2  C4  UNL     1     -14.902 -29.825  24.805  1.00  0.00     0.137 A 
HETATM    3  N6  UNL     1     -14.082 -30.887  24.748  1.00  0.00    -0.355 N 
ATOM      4  H6  UNL     1     -14.185 -31.615  25.455  1.00  0.00     0.165 HD
HETATM    5  C5  UNL     1     -13.124 -31.044  23.801  1.00  0.00     0.139 A 
HETATM    6  C7  UNL     1     -13.009 -30.050  22.862  1.00  0.00     0.150 A 
HETATM    7  N8  UNL     1     -12.061 -30.076  21.795  1.00  0.00    -0.080 NA
HETATM    8  N9  UNL     1     -13.837 -28.965  22.909  1.00  0.00    -0.328 N 
ATOM      9  H9  UNL     1     -13.739 -28.234  22.205  1.00  0.00     0.168 HD
ENDROOT
BRANCH   1  10
HETATM   10  N1  UNL     1     -15.662 -27.743  23.944  1.00  0.00    -0.297 N 
HETATM   11  C1  UNL     1     -16.457 -27.504  25.132  1.00  0.00     0.161 C 
HETATM   12  C2  UNL     1     -15.770 -26.824  22.829  1.00  0.00     0.294 C 
HETATM   13  N2  UNL     1     -15.185 -25.543  23.109  1.00  0.00    -0.047 NA
HETATM   14  N3  UNL     1     -16.292 -27.107  21.798  1.00  0.00    -0.276 NA
BRANCH  14  15
HETATM   15  N4  UNL     1     -16.848 -27.377  20.668  1.00  0.00    -0.179 N 
ATOM     16  H4  UNL     1     -16.412 -28.101  20.098  1.00  0.00     0.223 HD
BRANCH  15  17
HETATM   17  N5  UNL     1     -18.010 -26.759  20.143  1.00  0.00    -0.320 N 
ATOM     18  H52 UNL     1     -18.874 -26.928  20.656  1.00  0.00     0.179 HD
ATOM     19  H51 UNL     1     -18.052 -26.171  19.310  1.00  0.00     0.179 HD
ENDBRANCH  15  17
ENDBRANCH  14  15
ENDBRANCH   1  10
BRANCH   5  20
HETATM   20  C6  UNL     1     -12.240 -32.195  23.773  1.00  0.00     0.284 C 
HETATM   21  N7  UNL     1     -12.626 -33.397  23.127  1.00  0.00    -0.056 NA
HETATM   22  O1  UNL     1     -11.122 -32.147  24.319  1.00  0.00    -0.269 OA
ENDBRANCH   5  20
TORSDOF 4
ENDMDL
MODEL 2
REMARK VINA RESULT: -6.914191405      4.884      6.153
REMARK  4 active torsions:
REMARK  status: ('A' for Active; 'I' for Inactive)
REMARK       I    between atoms: N1_2  and  C2_3 
REMARK    1  A    between atoms: N1_2  and  C3_11 
REMARK       I    between atoms: C2_3  and  N3_5 
REMARK    2  A    between atoms: N3_5  and  N4_6 
REMARK    3  A    between atoms: N4_6  and  N5_8 
REMARK    4  A    between atoms: C5_15  and  C6_16 
ROOT
HETATM    1  C3  UNL     1     -13.676 -28.048  19.254  1.00  0.00     0.127 A 
HETATM    2  C4  UNL     1     -13.111 -29.217  18.786  1.00  0.00     0.137 A 
HETATM    3  N6  UNL     1     -13.358 -29.586  17.518  1.00  0.00    -0.355 N 
ATOM      4  H6  UNL     1     -12.939 -30.451  17.177  1.00  0.00     0.165 HD
HETATM    5  C5  UNL     1     -14.135 -28.870  16.667  1.00  0.00     0.139 A 
HETATM    6  C7  UNL     1     -14.686 -27.712  17.154  1.00  0.00     0.150 A 
HETATM    7  N8  UNL     1     -15.536 -26.858  16.388  1.00  0.00    -0.080 NA
HETATM    8  N9  UNL     1     -14.442 -27.326  18.442  1.00  0.00    -0.328 N 
ATOM      9  H9  UNL     1     -14.858 -26.462  18.788  1.00  0.00     0.168 HD
ENDROOT
BRANCH   1  10
HETATM   10  N1  UNL     1     -13.395 -27.705  20.598  1.00  0.00    -0.297 N 
HETATM   11  C1  UNL     1     -12.625 -28.574  21.466  1.00  0.00     0.161 C 
HETATM   12  C2  UNL     1     -13.875 -26.441  21.118  1.00  0.00     0.294 C 
HETATM   13  N2  UNL     1     -12.817 -25.493  21.329  1.00  0.00    -0.047 NA
HETATM   14  N3  UNL     1     -15.021 -26.221  21.346  1.00  0.00    -0.276 NA
BRANCH  14  15
HETATM   15  N4  UNL     1     -16.253 -25.946  21.603  1.00  0.00    -0.179 N 
ATOM     16  H4  UNL     1     -16.446 -25.464  22.481  1.00  0.00     0.223 HD
BRANCH  15  17
HETATM   17  N5  UNL     1     -17.365 -26.252  20.780  1.00  0.00    -0.320 N 
ATOM     18  H52 UNL     1     -17.160 -26.788  19.937  1.00  0.00     0.179 HD
ATOM     19  H51 UNL     1     -18.334 -25.986  20.957  1.00  0.00     0.179 HD
ENDBRANCH  15  17
ENDBRANCH  14  15
ENDBRANCH   1  10
BRANCH   5  20
HETATM   20  C6  UNL     1     -14.372 -29.285  15.297  1.00  0.00     0.284 C 
HETATM   21  N7  UNL     1     -15.625 -29.820  14.902  1.00  0.00    -0.056 NA
HETATM   22  O1  UNL     1     -13.476 -29.178  14.440  1.00  0.00    -0.269 OA
ENDBRANCH   5  20
TORSDOF 4
ENDMDL
MODEL 3
REMARK VINA RESULT: -6.907093207      1.546      2.857
REMARK  4 active torsions:
REMARK  status: ('A' for Active; 'I' for Inactive)
REMARK       I    between atoms: N1_2  and  C2_3 
REMARK    1  A    between atoms: N1_2  and  C3_11 
REMARK       I    between atoms: C2_3  and  N3_5 
REMARK    2  A    between atoms: N3_5  and  N4_6 
REMARK    3  A    between atoms: N4_6  and  N5_8 
REMARK    4  A    between atoms: C5_15  and  C6_16 
ROOT
HETATM    1  C3  UNL     1     -13.989 -28.487  23.973  1.00  0.00     0.127 A 
HETATM    2  C4  UNL     1     -13.338 -28.874  22.819  1.00  0.00     0.137 A 
HETATM    3  N6  UNL     1     -12.730 -30.072  22.797  1.00  0.00    -0.355 N 
ATOM      4  H6  UNL     1     -12.249 -30.353  21.942  1.00  0.00     0.165 HD
HETATM    5  C5  UNL     1     -12.720 -30.927  23.849  1.00  0.00     0.139 A 
HETATM    6  C7  UNL     1     -13.374 -30.522  24.986  1.00  0.00     0.150 A 
HETATM    7  N8  UNL     1     -13.441 -31.301  26.180  1.00  0.00    -0.080 NA
HETATM    8  N9  UNL     1     -13.996 -29.306  25.021  1.00  0.00    -0.328 N 
ATOM      9  H9  UNL     1     -14.478 -29.020  25.873  1.00  0.00     0.168 HD
ENDROOT
BRANCH   1  10
HETATM   10  N1  UNL     1     -14.606 -27.213  23.953  1.00  0.00    -0.297 N 
HETATM   11  C1  UNL     1     -13.836 -25.987  24.007  1.00  0.00     0.161 C 
HETATM   12  C2  UNL     1     -16.050 -27.132  23.856  1.00  0.00     0.294 C 
HETATM   13  N2  UNL     1     -16.492 -26.656  22.575  1.00  0.00    -0.047 NA
HETATM   14  N3  UNL     1     -16.782 -27.426  24.746  1.00  0.00    -0.276 NA
BRANCH  14  15
HETATM   15  N4  UNL     1     -17.606 -27.737  25.686  1.00  0.00    -0.179 N 
ATOM     16  H4  UNL     1     -18.064 -26.967  26.173  1.00  0.00     0.223 HD
BRANCH  15  17
HETATM   17  N5  UNL     1     -17.934 -29.049  26.107  1.00  0.00    -0.320 N 
ATOM     18  H52 UNL     1     -18.920 -29.302  26.048  1.00  0.00     0.179 HD
ATOM     19  H51 UNL     1     -17.279 -29.748  26.457  1.00  0.00     0.179 HD
ENDBRANCH  15  17
ENDBRANCH  14  15
ENDBRANCH   1  10
BRANCH   5  20
HETATM   20  C6  UNL     1     -12.068 -32.222  23.792  1.00  0.00     0.284 C 
HETATM   21  N7  UNL     1     -12.718 -33.342  23.212  1.00  0.00    -0.056 NA
HETATM   22  O1  UNL     1     -10.922 -32.375  24.253  1.00  0.00    -0.269 OA
ENDBRANCH   5  20
TORSDOF 4
ENDMDL
MODEL 4
REMARK VINA RESULT: -6.899218693      3.857      5.191
REMARK  4 active torsions:
REMARK  status: ('A' for Active; 'I' for Inactive)
REMARK       I    between atoms: N1_2  and  C2_3 
REMARK    1  A    between atoms: N1_2  and  C3_11 
REMARK       I    between atoms: C2_3  and  N3_5 
REMARK    2  A    between atoms: N3_5  and  N4_6 
REMARK    3  A    between atoms: N4_6  and  N5_8 
REMARK    4  A    between atoms: C5_15  and  C6_16 
ROOT
HETATM    1  C3  UNL     1     -15.068 -27.075  22.431  1.00  0.00     0.127 A 
HETATM    2  C4  UNL     1     -13.887 -27.198  21.727  1.00  0.00     0.137 A 
HETATM    3  N6  UNL     1     -13.950 -27.453  20.410  1.00  0.00    -0.355 N 
ATOM      4  H6  UNL     1     -13.075 -27.544  19.893  1.00  0.00     0.165 HD
HETATM    5  C5  UNL     1     -15.114 -27.597  19.729  1.00  0.00     0.139 A 
HETATM    6  C7  UNL     1     -16.275 -27.470  20.449  1.00  0.00     0.150 A 
HETATM    7  N8  UNL     1     -17.577 -27.609  19.880  1.00  0.00    -0.080 NA
HETATM    8  N9  UNL     1     -16.225 -27.210  21.789  1.00  0.00    -0.328 N 
ATOM      9  H9  UNL     1     -17.096 -27.119  22.310  1.00  0.00     0.168 HD
ENDROOT
BRANCH   1  10
HETATM   10  N1  UNL     1     -14.952 -26.815  23.818  1.00  0.00    -0.297 N 
HETATM   11  C1  UNL     1     -13.682 -26.479  24.431  1.00  0.00     0.161 C 
HETATM   12  C2  UNL     1     -16.139 -26.869  24.646  1.00  0.00     0.294 C 
HETATM   13  N2  UNL     1     -16.562 -25.571  25.093  1.00  0.00    -0.047 NA
HETATM   14  N3  UNL     1     -16.695 -27.883  24.925  1.00  0.00    -0.276 NA
BRANCH  14  15
HETATM   15  N4  UNL     1     -17.325 -28.960  25.248  1.00  0.00    -0.179 N 
ATOM     16  H4  UNL     1     -17.216 -29.763  24.629  1.00  0.00     0.223 HD
BRANCH  15  17
HETATM   17  N5  UNL     1     -18.155 -29.131  26.383  1.00  0.00    -0.320 N 
ATOM     18  H52 UNL     1     -17.985 -28.492  27.159  1.00  0.00     0.179 HD
ATOM     19  H51 UNL     1     -18.894 -29.827  26.487  1.00  0.00     0.179 HD
ENDBRANCH  15  17
ENDBRANCH  14  15
ENDBRANCH   1  10
BRANCH   5  20
HETATM   20  C6  UNL     1     -15.153 -27.857  18.302  1.00  0.00     0.284 C 
HETATM   21  N7  UNL     1     -15.167 -29.184  17.800  1.00  0.00    -0.056 NA
HETATM   22  O1  UNL     1     -15.173 -26.915  17.487  1.00  0.00    -0.269 OA
ENDBRANCH   5  20
TORSDOF 4
ENDMDL
MODEL 5
REMARK VINA RESULT: -6.702208726      1.464      2.356
REMARK  4 active torsions:
REMARK  status: ('A' for Active; 'I' for Inactive)
REMARK       I    between atoms: N1_2  and  C2_3 
REMARK    1  A    between atoms: N1_2  and  C3_11 
REMARK       I    between atoms: C2_3  and  N3_5 
REMARK    2  A    between atoms: N3_5  and  N4_6 
REMARK    3  A    between atoms: N4_6  and  N5_8 
REMARK    4  A    between atoms: C5_15  and  C6_16 
ROOT
HETATM    1  C3  UNL     1     -13.930 -28.247  23.972  1.00  0.00     0.127 A 
HETATM    2  C4  UNL     1     -13.849 -28.952  25.156  1.00  0.00     0.137 A 
HETATM    3  N6  UNL     1     -13.265 -30.162  25.143  1.00  0.00    -0.355 N 
ATOM      4  H6  UNL     1     -13.208 -30.680  26.020  1.00  0.00     0.165 HD
HETATM    5  C5  UNL     1     -12.748 -30.732  24.026  1.00  0.00     0.139 A 
HETATM    6  C7  UNL     1     -12.840 -30.013  22.861  1.00  0.00     0.150 A 
HETATM    7  N8  UNL     1     -12.357 -30.482  21.602  1.00  0.00    -0.080 NA
HETATM    8  N9  UNL     1     -13.431 -28.782  22.862  1.00  0.00    -0.328 N 
ATOM      9  H9  UNL     1     -13.491 -28.260  21.988  1.00  0.00     0.168 HD
ENDROOT
BRANCH   1  10
HETATM   10  N1  UNL     1     -14.562 -26.982  24.034  1.00  0.00    -0.297 N 
HETATM   11  C1  UNL     1     -13.809 -25.757  24.211  1.00  0.00     0.161 C 
HETATM   12  C2  UNL     1     -16.003 -26.907  23.896  1.00  0.00     0.294 C 
HETATM   13  N2  UNL     1     -16.410 -26.333  22.644  1.00  0.00    -0.047 NA
HETATM   14  N3  UNL     1     -16.759 -27.279  24.736  1.00  0.00    -0.276 NA
BRANCH  14  15
HETATM   15  N4  UNL     1     -17.609 -27.671  25.621  1.00  0.00    -0.179 N 
ATOM     16  H4  UNL     1     -18.068 -26.949  26.175  1.00  0.00     0.223 HD
BRANCH  15  17
HETATM   17  N5  UNL     1     -17.964 -29.015  25.897  1.00  0.00    -0.320 N 
ATOM     18  H52 UNL     1     -18.963 -29.206  25.966  1.00  0.00     0.179 HD
ATOM     19  H51 UNL     1     -17.315 -29.791  26.029  1.00  0.00     0.179 HD
ENDBRANCH  15  17
ENDBRANCH  14  15
ENDBRANCH   1  10
BRANCH   5  20
HETATM   20  C6  UNL     1     -12.108 -32.035  24.044  1.00  0.00     0.284 C 
HETATM   21  N7  UNL     1     -12.835 -33.210  23.724  1.00  0.00    -0.056 NA
HETATM   22  O1  UNL     1     -10.904 -32.144  24.342  1.00  0.00    -0.269 OA
ENDBRANCH   5  20
TORSDOF 4
ENDMDL
