MODEL 1
REMARK VINA RESULT: -7.970695796      0.000      0.000
REMARK  6 active torsions:
REMARK  status: ('A' for Active; 'I' for Inactive)
REMARK    1  A    between atoms: C1_4  and  N2_5 
REMARK    2  A    between atoms: C1_4  and  C2_10 
REMARK    3  A    between atoms: N2_5  and  N3_7 
REMARK    4  A    between atoms: C3_11  and  C4_12 
REMARK    5  A    between atoms: C6_21  and  N7_22 
REMARK    6  A    between atoms: N8_24  and  N9_26 
ROOT
HETATM    1  C2  UNL     1     -15.330 -27.509  19.110  1.00  0.00     0.076 A 
HETATM    2  C3  UNL     1     -14.737 -26.939  20.189  1.00  0.00     0.129 A 
HETATM    3  N5  UNL     1     -13.340 -26.905  20.324  1.00  0.00    -0.292 N 
ATOM      4  H5  UNL     1     -12.941 -26.463  21.151  1.00  0.00     0.187 HD
HETATM    5  N6  UNL     1     -12.534 -27.413  19.439  1.00  0.00    -0.264 N 
ATOM      6  H6  UNL     1     -11.523 -27.373  19.563  1.00  0.00     0.190 HD
HETATM    7  C5  UNL     1     -13.081 -27.994  18.353  1.00  0.00     0.289 A 
HETATM    8  O2  UNL     1     -12.345 -28.515  17.449  1.00  0.00    -0.264 OA
HETATM    9  C6  UNL     1     -14.431 -28.060  18.159  1.00  0.00     0.135 A 
ENDROOT
BRANCH   1  10
HETATM   10  C1  UNL     1     -16.726 -27.448  18.805  1.00  0.00     0.128 C 
HETATM   11  N1  UNL     1     -17.484 -28.194  19.631  1.00  0.00    -0.384 N 
ATOM     12  H12 UNL     1     -18.480 -28.150  19.413  1.00  0.00     0.157 HD
ATOM     13  H11 UNL     1     -16.961 -28.642  20.382  1.00  0.00     0.157 HD
BRANCH  10  14
HETATM   14  N2  UNL     1     -17.444 -26.834  17.775  1.00  0.00    -0.292 N 
ATOM     15  H2  UNL     1     -17.554 -25.820  17.737  1.00  0.00     0.188 HD
BRANCH  14  16
HETATM   16  N3  UNL     1     -18.015 -27.680  16.780  1.00  0.00    -0.344 N 
ATOM     17  H32 UNL     1     -18.218 -28.657  16.989  1.00  0.00     0.176 HD
ATOM     18  H31 UNL     1     -18.207 -27.266  15.868  1.00  0.00     0.176 HD
ENDBRANCH  14  16
ENDBRANCH  10  14
ENDBRANCH   1  10
BRANCH   2  19
HETATM   19  C4  UNL     1     -15.463 -26.481  21.344  1.00  0.00     0.283 C 
HETATM   20  N4  UNL     1     -15.940 -27.487  22.264  1.00  0.00    -0.056 NA
HETATM   21  O1  UNL     1     -15.713 -25.326  21.620  1.00  0.00    -0.269 OA
ENDBRANCH   2  19
BRANCH   9  22
HETATM   22  N7  UNL     1     -14.957 -28.680  17.006  1.00  0.00    -0.281 N 
HETATM   23  N8  UNL     1     -14.815 -29.919  16.755  1.00  0.00    -0.249 N 
ATOM     24  H8  UNL     1     -14.296 -30.489  17.422  1.00  0.00     0.207 HD
ATOM     25  H7  UNL     1     -15.476 -28.107  16.341  1.00  0.00     0.188 HD
BRANCH  23  26
HETATM   26  N9  UNL     1     -15.323 -30.537  15.633  1.00  0.00    -0.331 N 
ATOM     27  H92 UNL     1     -15.726 -29.936  14.914  1.00  0.00     0.178 HD
ATOM     28  H91 UNL     1     -15.317 -31.547  15.489  1.00  0.00     0.178 HD
ENDBRANCH  23  26
ENDBRANCH   9  22
TORSDOF 6
ENDMDL
MODEL 2
REMARK VINA RESULT: -7.838183365      1.927      3.626
REMARK  6 active torsions:
REMARK  status: ('A' for Active; 'I' for Inactive)
REMARK    1  A    between atoms: C1_4  and  N2_5 
REMARK    2  A    between atoms: C1_4  and  C2_10 
REMARK    3  A    between atoms: N2_5  and  N3_7 
REMARK    4  A    between atoms: C3_11  and  C4_12 
REMARK    5  A    between atoms: C6_21  and  N7_22 
REMARK    6  A    between atoms: N8_24  and  N9_26 
ROOT
HETATM    1  C2  UNL     1     -14.680 -28.021  18.037  1.00  0.00     0.076 A 
HETATM    2  C3  UNL     1     -15.261 -27.602  19.189  1.00  0.00     0.129 A 
HETATM    3  N5  UNL     1     -16.640 -27.345  19.262  1.00  0.00    -0.292 N 
ATOM      4  H5  UNL     1     -17.032 -27.034  20.150  1.00  0.00     0.187 HD
HETATM    5  N6  UNL     1     -17.438 -27.485  18.244  1.00  0.00    -0.264 N 
ATOM      6  H6  UNL     1     -18.435 -27.292  18.326  1.00  0.00     0.190 HD
HETATM    7  C5  UNL     1     -16.900 -27.895  17.078  1.00  0.00     0.289 A 
HETATM    8  O2  UNL     1     -17.628 -28.048  16.040  1.00  0.00    -0.264 OA
HETATM    9  C6  UNL     1     -15.568 -28.164  16.940  1.00  0.00     0.135 A 
ENDROOT
BRANCH   1  10
HETATM   10  C1  UNL     1     -13.326 -28.462  17.908  1.00  0.00     0.128 C 
HETATM   11  N1  UNL     1     -13.172 -29.781  18.130  1.00  0.00    -0.384 N 
ATOM     12  H12 UNL     1     -12.206 -30.096  18.038  1.00  0.00     0.157 HD
ATOM     13  H11 UNL     1     -14.046 -30.278  18.299  1.00  0.00     0.157 HD
BRANCH  10  14
HETATM   14  N2  UNL     1     -12.127 -27.782  17.677  1.00  0.00    -0.292 N 
ATOM     15  H2  UNL     1     -11.846 -27.508  16.736  1.00  0.00     0.188 HD
BRANCH  14  16
HETATM   16  N3  UNL     1     -11.313 -27.487  18.810  1.00  0.00    -0.344 N 
ATOM     17  H32 UNL     1     -11.483 -27.951  19.702  1.00  0.00     0.176 HD
ATOM     18  H31 UNL     1     -10.568 -26.803  18.685  1.00  0.00     0.176 HD
ENDBRANCH  14  16
ENDBRANCH  10  14
ENDBRANCH   1  10
BRANCH   2  19
HETATM   19  C4  UNL     1     -14.519 -27.228  20.364  1.00  0.00     0.283 C 
HETATM   20  N4  UNL     1     -14.846 -27.909  21.595  1.00  0.00    -0.056 NA
HETATM   21  O1  UNL     1     -13.642 -26.392  20.419  1.00  0.00    -0.269 OA
ENDBRANCH   2  19
BRANCH   9  22
HETATM   22  N7  UNL     1     -15.052 -28.588  15.697  1.00  0.00    -0.281 N 
HETATM   23  N8  UNL     1     -15.134 -29.787  15.281  1.00  0.00    -0.249 N 
ATOM     24  H8  UNL     1     -15.596 -30.472  15.877  1.00  0.00     0.207 HD
ATOM     25  H7  UNL     1     -14.590 -27.899  15.103  1.00  0.00     0.188 HD
BRANCH  23  26
HETATM   26  N9  UNL     1     -14.634 -30.214  14.069  1.00  0.00    -0.331 N 
ATOM     27  H92 UNL     1     -14.966 -29.730  13.235  1.00  0.00     0.178 HD
ATOM     28  H91 UNL     1     -13.963 -30.975  13.968  1.00  0.00     0.178 HD
ENDBRANCH  23  26
ENDBRANCH   9  22
TORSDOF 6
ENDMDL
MODEL 3
REMARK VINA RESULT: -7.365151382      1.610      4.868
REMARK  6 active torsions:
REMARK  status: ('A' for Active; 'I' for Inactive)
REMARK    1  A    between atoms: C1_4  and  N2_5 
REMARK    2  A    between atoms: C1_4  and  C2_10 
REMARK    3  A    between atoms: N2_5  and  N3_7 
REMARK    4  A    between atoms: C3_11  and  C4_12 
REMARK    5  A    between atoms: C6_21  and  N7_22 
REMARK    6  A    between atoms: N8_24  and  N9_26 
ROOT
HETATM    1  C2  UNL     1     -15.422 -27.888  18.678  1.00  0.00     0.076 A 
HETATM    2  C3  UNL     1     -16.554 -27.541  18.015  1.00  0.00     0.129 A 
HETATM    3  N5  UNL     1     -17.602 -26.865  18.660  1.00  0.00    -0.292 N 
ATOM      4  H5  UNL     1     -18.432 -26.622  18.120  1.00  0.00     0.187 HD
HETATM    5  N6  UNL     1     -17.560 -26.535  19.917  1.00  0.00    -0.264 N 
ATOM      6  H6  UNL     1     -18.336 -26.043  20.360  1.00  0.00     0.190 HD
HETATM    7  C5  UNL     1     -16.456 -26.866  20.616  1.00  0.00     0.289 A 
HETATM    8  O2  UNL     1     -16.353 -26.575  21.855  1.00  0.00    -0.264 OA
HETATM    9  C6  UNL     1     -15.400 -27.522  20.049  1.00  0.00     0.135 A 
ENDROOT
BRANCH   1  10
HETATM   10  C1  UNL     1     -14.243 -28.427  18.075  1.00  0.00     0.128 C 
HETATM   11  N1  UNL     1     -13.355 -27.485  17.705  1.00  0.00    -0.384 N 
ATOM     12  H12 UNL     1     -12.514 -27.870  17.275  1.00  0.00     0.157 HD
ATOM     13  H11 UNL     1     -13.627 -26.537  17.962  1.00  0.00     0.157 HD
BRANCH  10  14
HETATM   14  N2  UNL     1     -13.870 -29.727  17.723  1.00  0.00    -0.292 N 
ATOM     15  H2  UNL     1     -12.937 -30.085  17.927  1.00  0.00     0.188 HD
BRANCH  14  16
HETATM   16  N3  UNL     1     -14.846 -30.534  17.068  1.00  0.00    -0.344 N 
ATOM     17  H32 UNL     1     -15.385 -30.160  16.286  1.00  0.00     0.176 HD
ATOM     18  H31 UNL     1     -14.977 -31.484  17.414  1.00  0.00     0.176 HD
ENDBRANCH  14  16
ENDBRANCH  10  14
ENDBRANCH   1  10
BRANCH   2  19
HETATM   19  C4  UNL     1     -16.852 -27.969  16.674  1.00  0.00     0.283 C 
HETATM   20  N4  UNL     1     -18.246 -28.077  16.311  1.00  0.00    -0.056 NA
HETATM   21  O1  UNL     1     -16.041 -28.249  15.816  1.00  0.00    -0.269 OA
ENDBRANCH   2  19
BRANCH   9  22
HETATM   22  N7  UNL     1     -14.266 -27.849  20.823  1.00  0.00    -0.281 N 
HETATM   23  N8  UNL     1     -13.469 -26.977  21.294  1.00  0.00    -0.249 N 
ATOM     24  H8  UNL     1     -13.662 -25.995  21.101  1.00  0.00     0.207 HD
ATOM     25  H7  UNL     1     -14.077 -28.833  21.013  1.00  0.00     0.188 HD
BRANCH  23  26
HETATM   26  N9  UNL     1     -12.358 -27.284  22.051  1.00  0.00    -0.331 N 
ATOM     27  H92 UNL     1     -11.776 -28.057  21.728  1.00  0.00     0.178 HD
ATOM     28  H91 UNL     1     -12.095 -26.785  22.901  1.00  0.00     0.178 HD
ENDBRANCH  23  26
ENDBRANCH   9  22
TORSDOF 6
ENDMDL
MODEL 4
REMARK VINA RESULT: -7.336849560      2.150      5.477
REMARK  6 active torsions:
REMARK  status: ('A' for Active; 'I' for Inactive)
REMARK    1  A    between atoms: C1_4  and  N2_5 
REMARK    2  A    between atoms: C1_4  and  C2_10 
REMARK    3  A    between atoms: N2_5  and  N3_7 
REMARK    4  A    between atoms: C3_11  and  C4_12 
REMARK    5  A    between atoms: C6_21  and  N7_22 
REMARK    6  A    between atoms: N8_24  and  N9_26 
ROOT
HETATM    1  C2  UNL     1     -14.877 -28.386  17.660  1.00  0.00     0.076 A 
HETATM    2  C3  UNL     1     -15.554 -28.492  16.489  1.00  0.00     0.129 A 
HETATM    3  N5  UNL     1     -16.806 -27.883  16.310  1.00  0.00    -0.292 N 
ATOM      4  H5  UNL     1     -17.277 -27.989  15.412  1.00  0.00     0.187 HD
HETATM    5  N6  UNL     1     -17.393 -27.191  17.242  1.00  0.00    -0.264 N 
ATOM      6  H6  UNL     1     -18.304 -26.760  17.084  1.00  0.00     0.190 HD
HETATM    7  C5  UNL     1     -16.758 -27.065  18.424  1.00  0.00     0.289 A 
HETATM    8  O2  UNL     1     -17.282 -26.401  19.381  1.00  0.00    -0.264 OA
HETATM    9  C6  UNL     1     -15.537 -27.629  18.663  1.00  0.00     0.135 A 
ENDROOT
BRANCH   1  10
HETATM   10  C1  UNL     1     -13.535 -28.827  17.882  1.00  0.00     0.128 C 
HETATM   11  N1  UNL     1     -12.608 -27.963  17.428  1.00  0.00    -0.384 N 
ATOM     12  H12 UNL     1     -11.651 -28.278  17.586  1.00  0.00     0.157 HD
ATOM     13  H11 UNL     1     -12.996 -27.100  17.048  1.00  0.00     0.157 HD
BRANCH  10  14
HETATM   14  N2  UNL     1     -13.001 -30.010  18.402  1.00  0.00    -0.292 N 
ATOM     15  H2  UNL     1     -13.301 -30.923  18.058  1.00  0.00     0.188 HD
BRANCH  14  16
HETATM   16  N3  UNL     1     -12.022 -29.889  19.431  1.00  0.00    -0.344 N 
ATOM     17  H32 UNL     1     -11.223 -29.267  19.313  1.00  0.00     0.176 HD
ATOM     18  H31 UNL     1     -12.159 -30.447  20.274  1.00  0.00     0.176 HD
ENDBRANCH  14  16
ENDBRANCH  10  14
ENDBRANCH   1  10
BRANCH   2  19
HETATM   19  C4  UNL     1     -15.146 -29.353  15.411  1.00  0.00     0.283 C 
HETATM   20  N4  UNL     1     -13.884 -29.059  14.773  1.00  0.00    -0.056 NA
HETATM   21  O1  UNL     1     -15.765 -30.307  14.985  1.00  0.00    -0.269 OA
ENDBRANCH   2  19
BRANCH   9  22
HETATM   22  N7  UNL     1     -14.912 -27.470  19.918  1.00  0.00    -0.281 N 
HETATM   23  N8  UNL     1     -14.196 -26.463  20.218  1.00  0.00    -0.249 N 
ATOM     24  H8  UNL     1     -14.070 -25.736  19.513  1.00  0.00     0.207 HD
ATOM     25  H7  UNL     1     -15.041 -28.199  20.620  1.00  0.00     0.188 HD
BRANCH  23  26
HETATM   26  N9  UNL     1     -13.580 -26.295  21.440  1.00  0.00    -0.331 N 
ATOM     27  H92 UNL     1     -12.570 -26.428  21.471  1.00  0.00     0.178 HD
ATOM     28  H91 UNL     1     -14.077 -26.050  22.296  1.00  0.00     0.178 HD
ENDBRANCH  23  26
ENDBRANCH   9  22
TORSDOF 6
ENDMDL
MODEL 5
REMARK VINA RESULT: -7.200039917      1.857      3.587
REMARK  6 active torsions:
REMARK  status: ('A' for Active; 'I' for Inactive)
REMARK    1  A    between atoms: C1_4  and  N2_5 
REMARK    2  A    between atoms: C1_4  and  C2_10 
REMARK    3  A    between atoms: N2_5  and  N3_7 
REMARK    4  A    between atoms: C3_11  and  C4_12 
REMARK    5  A    between atoms: C6_21  and  N7_22 
REMARK    6  A    between atoms: N8_24  and  N9_26 
ROOT
HETATM    1  C2  UNL     1     -15.052 -27.045  20.171  1.00  0.00     0.076 A 
HETATM    2  C3  UNL     1     -16.021 -26.714  21.062  1.00  0.00     0.129 A 
HETATM    3  N5  UNL     1     -17.379 -26.729  20.706  1.00  0.00    -0.292 N 
ATOM      4  H5  UNL     1     -18.071 -26.476  21.410  1.00  0.00     0.187 HD
HETATM    5  N6  UNL     1     -17.792 -27.053  19.515  1.00  0.00    -0.264 N 
ATOM      6  H6  UNL     1     -18.785 -27.056  19.285  1.00  0.00     0.190 HD
HETATM    7  C5  UNL     1     -16.862 -27.383  18.598  1.00  0.00     0.289 A 
HETATM    8  O2  UNL     1     -17.202 -27.707  17.410  1.00  0.00    -0.264 OA
HETATM    9  C6  UNL     1     -15.526 -27.391  18.878  1.00  0.00     0.135 A 
ENDROOT
BRANCH   1  10
HETATM   10  C1  UNL     1     -13.667 -27.217  20.482  1.00  0.00     0.128 C 
HETATM   11  N1  UNL     1     -13.407 -28.363  21.139  1.00  0.00    -0.384 N 
ATOM     12  H12 UNL     1     -12.419 -28.485  21.361  1.00  0.00     0.157 HD
ATOM     13  H11 UNL     1     -14.222 -28.962  21.266  1.00  0.00     0.157 HD
BRANCH  10  14
HETATM   14  N2  UNL     1     -12.550 -26.396  20.309  1.00  0.00    -0.292 N 
ATOM     15  H2  UNL     1     -11.780 -26.669  19.697  1.00  0.00     0.188 HD
BRANCH  14  16
HETATM   16  N3  UNL     1     -12.528 -25.161  21.020  1.00  0.00    -0.344 N 
ATOM     17  H32 UNL     1     -13.241 -24.956  21.721  1.00  0.00     0.176 HD
ATOM     18  H31 UNL     1     -11.780 -24.505  20.798  1.00  0.00     0.176 HD
ENDBRANCH  14  16
ENDBRANCH  10  14
ENDBRANCH   1  10
BRANCH   2  19
HETATM   19  C4  UNL     1     -15.749 -26.168  22.365  1.00  0.00     0.283 C 
HETATM   20  N4  UNL     1     -16.168 -26.947  23.507  1.00  0.00    -0.056 NA
HETATM   21  O1  UNL     1     -15.199 -25.112  22.597  1.00  0.00    -0.269 OA
ENDBRANCH   2  19
BRANCH   9  22
HETATM   22  N7  UNL     1     -14.591 -27.743  17.882  1.00  0.00    -0.281 N 
HETATM   23  N8  UNL     1     -14.438 -28.931  17.457  1.00  0.00    -0.249 N 
ATOM     24  H8  UNL     1     -15.022 -29.664  17.859  1.00  0.00     0.207 HD
ATOM     25  H7  UNL     1     -14.007 -27.006  17.483  1.00  0.00     0.188 HD
BRANCH  23  26
HETATM   26  N9  UNL     1     -13.528 -29.288  16.485  1.00  0.00    -0.331 N 
ATOM     27  H92 UNL     1     -13.880 -29.831  15.697  1.00  0.00     0.178 HD
ATOM     28  H91 UNL     1     -12.539 -29.040  16.515  1.00  0.00     0.178 HD
ENDBRANCH  23  26
ENDBRANCH   9  22
TORSDOF 6
ENDMDL
