MODEL 1
REMARK VINA RESULT: -7.445505050      0.000      0.000
REMARK  5 active torsions:
REMARK  status: ('A' for Active; 'I' for Inactive)
REMARK    1  A    between atoms: N1_1  and  C1_4 
REMARK    2  A    between atoms: C2_7  and  N3_8 
REMARK    3  A    between atoms: C3_11  and  C4_12 
REMARK       I    between atoms: C4_12  and  N5_14 
REMARK    4  A    between atoms: N5_14  and  N6_16 
REMARK    5  A    between atoms: C5_19  and  N7_20 
ROOT
HETATM    1  N3  UNL     1     -15.855 -27.244  19.367  1.00  0.00    -0.017 N 
HETATM    2  N4  UNL     1     -15.101 -27.838  18.463  1.00  0.00    -0.256 N 
ATOM      3  H4  UNL     1     -14.125 -28.095  18.611  1.00  0.00     0.190 HD
HETATM    4  C3  UNL     1     -15.777 -28.063  17.322  1.00  0.00     0.165 A 
HETATM    5  C5  UNL     1     -17.028 -27.570  17.549  1.00  0.00     0.150 A 
HETATM    6  N8  UNL     1     -17.034 -27.078  18.811  1.00  0.00    -0.247 N 
ATOM      7  H8  UNL     1     -17.837 -26.642  19.264  1.00  0.00     0.191 HD
ENDROOT
BRANCH   1   8
HETATM    8  C2  UNL     1     -15.466 -26.854  20.697  1.00  0.00     0.734 A 
HETATM    9  N2  UNL     1     -16.282 -27.032  21.753  1.00  0.00    -0.019 N 
HETATM   10  C1  UNL     1     -15.932 -26.671  23.000  1.00  0.00     0.691 A 
ATOM     11  H2  UNL     1     -17.198 -27.455  21.602  1.00  0.00     0.203 HD
HETATM   12  N10 UNL     1     -14.727 -26.109  23.224  1.00  0.00    -0.187 N 
HETATM   13  C6  UNL     1     -13.908 -25.928  22.177  1.00  0.00     0.215 A 
ATOM     14  H10 UNL     1     -14.446 -25.830  24.164  1.00  0.00     0.185 HD
HETATM   15  N9  UNL     1     -14.267 -26.291  20.937  1.00  0.00    -0.184 N 
ATOM     16  H9  UNL     1     -13.620 -26.139  20.164  1.00  0.00     0.185 HD
BRANCH  10  17
HETATM   17  N1  UNL     1     -16.726 -26.847  24.020  1.00  0.00    -0.234 N 
ATOM     18  H12 UNL     1     -17.431 -27.581  23.959  1.00  0.00     0.174 HD
ATOM     19  H11 UNL     1     -16.659 -26.276  24.863  1.00  0.00     0.174 HD
ENDBRANCH  10  17
ENDBRANCH   1   8
BRANCH   4  20
HETATM   20  C4  UNL     1     -15.186 -28.708  16.151  1.00  0.00     0.291 C 
HETATM   21  O1  UNL     1     -15.952 -29.101  15.219  1.00  0.00    -0.264 OA
HETATM   22  N5  UNL     1     -13.814 -28.939  15.962  1.00  0.00    -0.271 N 
ATOM     23  H5  UNL     1     -13.152 -28.645  16.680  1.00  0.00     0.189 HD
BRANCH  22  24
HETATM   24  N6  UNL     1     -13.343 -29.562  14.811  1.00  0.00    -0.342 N 
ATOM     25  H62 UNL     1     -13.628 -29.190  13.905  1.00  0.00     0.176 HD
ATOM     26  H61 UNL     1     -12.726 -30.372  14.865  1.00  0.00     0.176 HD
ENDBRANCH  22  24
ENDBRANCH   4  20
BRANCH   5  27
HETATM   27  N7  UNL     1     -18.016 -27.566  16.737  1.00  0.00    -0.382 N 
ATOM     28  H72 UNL     1     -18.399 -28.380  16.257  1.00  0.00     0.157 HD
ATOM     29  H71 UNL     1     -18.569 -26.760  16.445  1.00  0.00     0.157 HD
ENDBRANCH   5  27
TORSDOF 5
ENDMDL
MODEL 2
REMARK VINA RESULT: -7.393736806      0.939      1.023
REMARK  5 active torsions:
REMARK  status: ('A' for Active; 'I' for Inactive)
REMARK    1  A    between atoms: N1_1  and  C1_4 
REMARK    2  A    between atoms: C2_7  and  N3_8 
REMARK    3  A    between atoms: C3_11  and  C4_12 
REMARK       I    between atoms: C4_12  and  N5_14 
REMARK    4  A    between atoms: N5_14  and  N6_16 
REMARK    5  A    between atoms: C5_19  and  N7_20 
ROOT
HETATM    1  N3  UNL     1     -15.209 -27.225  18.939  1.00  0.00    -0.017 N 
HETATM    2  N4  UNL     1     -14.595 -27.847  17.952  1.00  0.00    -0.256 N 
ATOM      3  H4  UNL     1     -13.594 -28.039  17.931  1.00  0.00     0.190 HD
HETATM    4  C3  UNL     1     -15.452 -28.197  16.975  1.00  0.00     0.165 A 
HETATM    5  C5  UNL     1     -16.670 -27.754  17.400  1.00  0.00     0.150 A 
HETATM    6  N8  UNL     1     -16.478 -27.166  18.604  1.00  0.00    -0.247 N 
ATOM      7  H8  UNL     1     -17.212 -26.739  19.170  1.00  0.00     0.191 HD
ENDROOT
BRANCH   1   8
HETATM    8  C2  UNL     1     -14.610 -26.711  20.143  1.00  0.00     0.734 A 
HETATM    9  N2  UNL     1     -15.355 -26.349  21.205  1.00  0.00    -0.019 N 
HETATM   10  C1  UNL     1     -14.809 -25.867  22.335  1.00  0.00     0.691 A 
ATOM     11  H2  UNL     1     -16.369 -26.444  21.150  1.00  0.00     0.203 HD
HETATM   12  N10 UNL     1     -13.471 -25.731  22.429  1.00  0.00    -0.187 N 
HETATM   13  C6  UNL     1     -12.721 -26.089  21.376  1.00  0.00     0.215 A 
ATOM     14  H10 UNL     1     -13.041 -25.367  23.280  1.00  0.00     0.185 HD
HETATM   15  N9  UNL     1     -13.276 -26.569  20.254  1.00  0.00    -0.184 N 
ATOM     16  H9  UNL     1     -12.677 -26.831  19.472  1.00  0.00     0.185 HD
BRANCH  10  17
HETATM   17  N1  UNL     1     -15.536 -25.518  23.360  1.00  0.00    -0.234 N 
ATOM     18  H12 UNL     1     -15.176 -25.720  24.294  1.00  0.00     0.174 HD
ATOM     19  H11 UNL     1     -16.439 -25.057  23.253  1.00  0.00     0.174 HD
ENDBRANCH  10  17
ENDBRANCH   1   8
BRANCH   4  20
HETATM   20  C4  UNL     1     -15.044 -28.900  15.762  1.00  0.00     0.291 C 
HETATM   21  O1  UNL     1     -15.940 -29.301  14.958  1.00  0.00    -0.264 OA
HETATM   22  N5  UNL     1     -13.717 -29.180  15.396  1.00  0.00    -0.271 N 
ATOM     23  H5  UNL     1     -12.956 -28.881  16.006  1.00  0.00     0.189 HD
BRANCH  22  24
HETATM   24  N6  UNL     1     -13.424 -29.856  14.217  1.00  0.00    -0.342 N 
ATOM     25  H62 UNL     1     -13.879 -30.753  14.045  1.00  0.00     0.176 HD
ATOM     26  H61 UNL     1     -12.771 -29.469  13.536  1.00  0.00     0.176 HD
ENDBRANCH  22  24
ENDBRANCH   4  20
BRANCH   5  27
HETATM   27  N7  UNL     1     -17.789 -27.867  16.789  1.00  0.00    -0.382 N 
ATOM     28  H72 UNL     1     -18.253 -28.742  16.547  1.00  0.00     0.157 HD
ATOM     29  H71 UNL     1     -18.384 -27.111  16.451  1.00  0.00     0.157 HD
ENDBRANCH   5  27
TORSDOF 5
ENDMDL
MODEL 3
REMARK VINA RESULT: -7.375102947      3.164      6.753
REMARK  5 active torsions:
REMARK  status: ('A' for Active; 'I' for Inactive)
REMARK    1  A    between atoms: N1_1  and  C1_4 
REMARK    2  A    between atoms: C2_7  and  N3_8 
REMARK    3  A    between atoms: C3_11  and  C4_12 
REMARK       I    between atoms: C4_12  and  N5_14 
REMARK    4  A    between atoms: N5_14  and  N6_16 
REMARK    5  A    between atoms: C5_19  and  N7_20 
ROOT
HETATM    1  N3  UNL     1     -15.676 -26.749  21.579  1.00  0.00    -0.017 N 
HETATM    2  N4  UNL     1     -16.070 -27.565  22.536  1.00  0.00    -0.256 N 
ATOM      3  H4  UNL     1     -16.394 -28.519  22.378  1.00  0.00     0.190 HD
HETATM    4  C3  UNL     1     -15.993 -26.984  23.747  1.00  0.00     0.165 A 
HETATM    5  C5  UNL     1     -15.521 -25.728  23.507  1.00  0.00     0.150 A 
HETATM    6  N8  UNL     1     -15.339 -25.624  22.169  1.00  0.00    -0.247 N 
ATOM      7  H8  UNL     1     -14.992 -24.794  21.688  1.00  0.00     0.191 HD
ENDROOT
BRANCH   1   8
HETATM    8  C2  UNL     1     -15.624 -27.031  20.168  1.00  0.00     0.734 A 
HETATM    9  N2  UNL     1     -16.728 -26.988  19.397  1.00  0.00    -0.019 N 
HETATM   10  C1  UNL     1     -16.695 -27.250  18.079  1.00  0.00     0.691 A 
ATOM     11  H2  UNL     1     -17.620 -26.747  19.829  1.00  0.00     0.203 HD
HETATM   12  N10 UNL     1     -15.527 -27.571  17.487  1.00  0.00    -0.187 N 
HETATM   13  C6  UNL     1     -14.422 -27.617  18.248  1.00  0.00     0.215 A 
ATOM     14  H10 UNL     1     -15.484 -27.773  16.488  1.00  0.00     0.185 HD
HETATM   15  N9  UNL     1     -14.467 -27.353  19.561  1.00  0.00    -0.184 N 
ATOM     16  H9  UNL     1     -13.608 -27.398  20.110  1.00  0.00     0.185 HD
BRANCH  10  17
HETATM   17  N1  UNL     1     -17.767 -27.205  17.337  1.00  0.00    -0.234 N 
ATOM     18  H12 UNL     1     -18.504 -26.550  17.598  1.00  0.00     0.174 HD
ATOM     19  H11 UNL     1     -17.882 -27.800  16.517  1.00  0.00     0.174 HD
ENDBRANCH  10  17
ENDBRANCH   1   8
BRANCH   4  20
HETATM   20  C4  UNL     1     -16.367 -27.659  24.988  1.00  0.00     0.291 C 
HETATM   21  O1  UNL     1     -16.013 -27.146  26.093  1.00  0.00    -0.264 OA
HETATM   22  N5  UNL     1     -17.101 -28.854  25.069  1.00  0.00    -0.271 N 
ATOM     23  H5  UNL     1     -17.411 -29.310  24.212  1.00  0.00     0.189 HD
BRANCH  22  24
HETATM   24  N6  UNL     1     -17.412 -29.424  26.299  1.00  0.00    -0.342 N 
ATOM     25  H62 UNL     1     -17.097 -30.376  26.487  1.00  0.00     0.176 HD
ATOM     26  H61 UNL     1     -17.941 -28.907  27.000  1.00  0.00     0.176 HD
ENDBRANCH  22  24
ENDBRANCH   4  20
BRANCH   5  27
HETATM   27  N7  UNL     1     -15.287 -24.812  24.369  1.00  0.00    -0.382 N 
ATOM     28  H72 UNL     1     -14.820 -23.923  24.186  1.00  0.00     0.157 HD
ATOM     29  H71 UNL     1     -15.525 -24.825  25.360  1.00  0.00     0.157 HD
ENDBRANCH   5  27
TORSDOF 5
ENDMDL
MODEL 4
REMARK VINA RESULT: -7.331648770      2.230      3.630
REMARK  5 active torsions:
REMARK  status: ('A' for Active; 'I' for Inactive)
REMARK    1  A    between atoms: N1_1  and  C1_4 
REMARK    2  A    between atoms: C2_7  and  N3_8 
REMARK    3  A    between atoms: C3_11  and  C4_12 
REMARK       I    between atoms: C4_12  and  N5_14 
REMARK    4  A    between atoms: N5_14  and  N6_16 
REMARK    5  A    between atoms: C5_19  and  N7_20 
ROOT
HETATM    1  N3  UNL     1     -15.495 -27.187  22.027  1.00  0.00    -0.017 N 
HETATM    2  N4  UNL     1     -16.240 -27.366  20.955  1.00  0.00    -0.256 N 
ATOM      3  H4  UNL     1     -17.250 -27.504  20.976  1.00  0.00     0.190 HD
HETATM    4  C3  UNL     1     -15.504 -27.344  19.829  1.00  0.00     0.165 A 
HETATM    5  C5  UNL     1     -14.223 -27.139  20.249  1.00  0.00     0.150 A 
HETATM    6  N8  UNL     1     -14.260 -27.048  21.600  1.00  0.00    -0.247 N 
ATOM      7  H8  UNL     1     -13.448 -26.894  22.198  1.00  0.00     0.191 HD
ENDROOT
BRANCH   1   8
HETATM    8  C2  UNL     1     -15.942 -27.151  23.396  1.00  0.00     0.734 A 
HETATM    9  N2  UNL     1     -16.291 -28.273  24.055  1.00  0.00    -0.019 N 
HETATM   10  C1  UNL     1     -16.711 -28.254  25.332  1.00  0.00     0.691 A 
ATOM     11  H2  UNL     1     -16.235 -29.167  23.568  1.00  0.00     0.203 HD
HETATM   12  N10 UNL     1     -16.794 -27.082  25.995  1.00  0.00    -0.187 N 
HETATM   13  C6  UNL     1     -16.448 -25.961  25.345  1.00  0.00     0.215 A 
ATOM     14  H10 UNL     1     -17.111 -27.051  26.964  1.00  0.00     0.185 HD
HETATM   15  N9  UNL     1     -16.030 -25.991  24.072  1.00  0.00    -0.184 N 
ATOM     16  H9  UNL     1     -15.775 -25.119  23.608  1.00  0.00     0.185 HD
BRANCH  10  17
HETATM   17  N1  UNL     1     -17.048 -29.343  25.966  1.00  0.00    -0.234 N 
ATOM     18  H12 UNL     1     -17.862 -29.309  26.580  1.00  0.00     0.174 HD
ATOM     19  H11 UNL     1     -16.525 -30.213  25.863  1.00  0.00     0.174 HD
ENDBRANCH  10  17
ENDBRANCH   1   8
BRANCH   4  20
HETATM   20  C4  UNL     1     -16.071 -27.517  18.494  1.00  0.00     0.291 C 
HETATM   21  O1  UNL     1     -15.313 -27.903  17.553  1.00  0.00    -0.264 OA
HETATM   22  N5  UNL     1     -17.414 -27.287  18.150  1.00  0.00    -0.271 N 
ATOM     23  H5  UNL     1     -18.068 -26.974  18.866  1.00  0.00     0.189 HD
BRANCH  22  24
HETATM   24  N6  UNL     1     -17.864 -27.479  16.848  1.00  0.00    -0.342 N 
ATOM     25  H62 UNL     1     -17.207 -27.832  16.153  1.00  0.00     0.176 HD
ATOM     26  H61 UNL     1     -18.829 -27.275  16.589  1.00  0.00     0.176 HD
ENDBRANCH  22  24
ENDBRANCH   4  20
BRANCH   5  27
HETATM   27  N7  UNL     1     -13.176 -27.047  19.520  1.00  0.00    -0.382 N 
ATOM     28  H72 UNL     1     -12.646 -27.828  19.132  1.00  0.00     0.157 HD
ATOM     29  H71 UNL     1     -12.711 -26.192  19.216  1.00  0.00     0.157 HD
ENDBRANCH   5  27
TORSDOF 5
ENDMDL
MODEL 5
REMARK VINA RESULT: -7.278232919      3.552      5.491
REMARK  5 active torsions:
REMARK  status: ('A' for Active; 'I' for Inactive)
REMARK    1  A    between atoms: N1_1  and  C1_4 
REMARK    2  A    between atoms: C2_7  and  N3_8 
REMARK    3  A    between atoms: C3_11  and  C4_12 
REMARK       I    between atoms: C4_12  and  N5_14 
REMARK    4  A    between atoms: N5_14  and  N6_16 
REMARK    5  A    between atoms: C5_19  and  N7_20 
ROOT
HETATM    1  N3  UNL     1     -12.760 -27.876  18.302  1.00  0.00    -0.017 N 
HETATM    2  N4  UNL     1     -13.901 -27.348  18.698  1.00  0.00    -0.256 N 
ATOM      3  H4  UNL     1     -13.977 -26.479  19.228  1.00  0.00     0.190 HD
HETATM    4  C3  UNL     1     -14.953 -28.096  18.318  1.00  0.00     0.165 A 
HETATM    5  C5  UNL     1     -14.410 -29.152  17.647  1.00  0.00     0.150 A 
HETATM    6  N8  UNL     1     -13.067 -28.979  17.660  1.00  0.00    -0.247 N 
ATOM      7  H8  UNL     1     -12.392 -29.614  17.232  1.00  0.00     0.191 HD
ENDROOT
BRANCH   1   8
HETATM    8  C2  UNL     1     -11.439 -27.350  18.530  1.00  0.00     0.734 A 
HETATM    9  N2  UNL     1     -10.576 -27.144  17.516  1.00  0.00    -0.019 N 
HETATM   10  C1  UNL     1      -9.339 -26.654  17.714  1.00  0.00     0.691 A 
ATOM     11  H2  UNL     1     -10.870 -27.367  16.566  1.00  0.00     0.203 HD
HETATM   12  N10 UNL     1      -8.928 -26.353  18.962  1.00  0.00    -0.187 N 
HETATM   13  C6  UNL     1      -9.781 -26.556  19.978  1.00  0.00     0.215 A 
ATOM     14  H10 UNL     1      -7.993 -25.981  19.130  1.00  0.00     0.185 HD
HETATM   15  N9  UNL     1     -11.012 -27.044  19.769  1.00  0.00    -0.184 N 
ATOM     16  H9  UNL     1     -11.635 -27.186  20.564  1.00  0.00     0.185 HD
BRANCH  10  17
HETATM   17  N1  UNL     1      -8.508 -26.456  16.729  1.00  0.00    -0.234 N 
ATOM     18  H12 UNL     1      -8.373 -27.210  16.055  1.00  0.00     0.174 HD
ATOM     19  H11 UNL     1      -7.998 -25.579  16.619  1.00  0.00     0.174 HD
ENDBRANCH  10  17
ENDBRANCH   1   8
BRANCH   4  20
HETATM   20  C4  UNL     1     -16.339 -27.747  18.622  1.00  0.00     0.291 C 
HETATM   21  O1  UNL     1     -17.208 -27.841  17.702  1.00  0.00    -0.264 OA
HETATM   22  N5  UNL     1     -16.807 -27.307  19.871  1.00  0.00    -0.271 N 
ATOM     23  H5  UNL     1     -16.152 -27.212  20.646  1.00  0.00     0.189 HD
BRANCH  22  24
HETATM   24  N6  UNL     1     -18.149 -26.998  20.066  1.00  0.00    -0.342 N 
ATOM     25  H62 UNL     1     -18.744 -26.875  19.247  1.00  0.00     0.176 HD
ATOM     26  H61 UNL     1     -18.534 -26.896  21.005  1.00  0.00     0.176 HD
ENDBRANCH  22  24
ENDBRANCH   4  20
BRANCH   5  27
HETATM   27  N7  UNL     1     -15.037 -30.125  17.103  1.00  0.00    -0.382 N 
ATOM     28  H72 UNL     1     -15.390 -30.953  17.584  1.00  0.00     0.157 HD
ATOM     29  H71 UNL     1     -15.278 -30.228  16.118  1.00  0.00     0.157 HD
ENDBRANCH   5  27
TORSDOF 5
ENDMDL
