MODEL 1
REMARK VINA RESULT: -7.933141980      0.000      0.000
REMARK  5 active torsions:
REMARK  status: ('A' for Active; 'I' for Inactive)
REMARK    1  A    between atoms: N1_1  and  C1_4 
REMARK    2  A    between atoms: C3_7  and  N3_8 
REMARK    3  A    between atoms: N3_8  and  N4_10 
REMARK    4  A    between atoms: N8_21  and  C6_22 
REMARK    5  A    between atoms: C6_22  and  C7_23 
ROOT
HETATM    1  C1  UNL     1     -16.720 -27.751  17.554  1.00  0.00     0.086 A 
HETATM    2  C2  UNL     1     -15.490 -28.150  17.095  1.00  0.00     0.120 A 
HETATM    3  N2  UNL     1     -15.356 -28.640  15.773  1.00  0.00    -0.096 NA
HETATM    4  C3  UNL     1     -14.354 -28.087  17.901  1.00  0.00     0.148 A 
HETATM    5  N5  UNL     1     -14.434 -27.635  19.141  1.00  0.00    -0.323 N 
ATOM      6  H5  UNL     1     -13.604 -27.587  19.731  1.00  0.00     0.169 HD
HETATM    7  C4  UNL     1     -15.636 -27.237  19.611  1.00  0.00     0.156 A 
HETATM    8  C5  UNL     1     -16.786 -27.279  18.859  1.00  0.00     0.123 A 
HETATM    9  N6  UNL     1     -17.761 -26.813  19.647  1.00  0.00    -0.280 N 
ATOM     10  H6  UNL     1     -18.743 -26.715  19.387  1.00  0.00     0.188 HD
HETATM   11  N7  UNL     1     -17.235 -26.503  20.819  1.00  0.00    -0.238 N 
ATOM     12  H7  UNL     1     -17.760 -26.125  21.607  1.00  0.00     0.208 HD
HETATM   13  N8  UNL     1     -15.945 -26.749  20.831  1.00  0.00    -0.250 N 
ENDROOT
BRANCH   4  14
HETATM   14  N3  UNL     1     -13.111 -28.512  17.372  1.00  0.00    -0.290 N 
ATOM     15  H3  UNL     1     -13.092 -29.272  16.692  1.00  0.00     0.188 HD
BRANCH  14  16
HETATM   16  N4  UNL     1     -11.910 -27.915  17.762  1.00  0.00    -0.344 N 
ATOM     17  H42 UNL     1     -11.941 -27.196  18.485  1.00  0.00     0.176 HD
ATOM     18  H41 UNL     1     -11.021 -28.184  17.341  1.00  0.00     0.176 HD
ENDBRANCH  14  16
ENDBRANCH   4  14
BRANCH   1  19
HETATM   19  N1  UNL     1     -17.766 -27.799  16.841  1.00  0.00    -0.396 N 
ATOM     20  H12 UNL     1     -18.414 -28.581  16.933  1.00  0.00     0.156 HD
ATOM     21  H11 UNL     1     -18.003 -27.077  16.160  1.00  0.00     0.156 HD
ENDBRANCH   1  19
BRANCH  13  22
HETATM   22  C6  UNL     1     -14.998 -26.544  21.936  1.00  0.00     0.265 C 
BRANCH  22  23
HETATM   23  C7  UNL     1     -15.674 -26.093  23.155  1.00  0.00     0.193 C 
HETATM   24  O1  UNL     1     -15.409 -24.987  23.665  1.00  0.00    -0.647 OA
HETATM   25  O2  UNL     1     -16.620 -26.904  23.748  1.00  0.00    -0.647 OA
ENDBRANCH  22  23
ENDBRANCH  13  22
TORSDOF 5
ENDMDL
MODEL 2
REMARK VINA RESULT: -7.824207436      1.203      1.414
REMARK  5 active torsions:
REMARK  status: ('A' for Active; 'I' for Inactive)
REMARK    1  A    between atoms: N1_1  and  C1_4 
REMARK    2  A    between atoms: C3_7  and  N3_8 
REMARK    3  A    between atoms: N3_8  and  N4_10 
REMARK    4  A    between atoms: N8_21  and  C6_22 
REMARK    5  A    between atoms: C6_22  and  C7_23 
ROOT
HETATM    1  C1  UNL     1     -16.951 -27.709  17.438  1.00  0.00     0.086 A 
HETATM    2  C2  UNL     1     -15.922 -28.468  16.939  1.00  0.00     0.120 A 
HETATM    3  N2  UNL     1     -16.026 -29.031  15.644  1.00  0.00    -0.096 NA
HETATM    4  C3  UNL     1     -14.764 -28.705  17.679  1.00  0.00     0.148 A 
HETATM    5  N5  UNL     1     -14.626 -28.198  18.892  1.00  0.00    -0.323 N 
ATOM      6  H5  UNL     1     -13.780 -28.370  19.433  1.00  0.00     0.169 HD
HETATM    7  C4  UNL     1     -15.628 -27.448  19.401  1.00  0.00     0.156 A 
HETATM    8  C5  UNL     1     -16.789 -27.184  18.715  1.00  0.00     0.123 A 
HETATM    9  N6  UNL     1     -17.533 -26.423  19.524  1.00  0.00    -0.280 N 
ATOM     10  H6  UNL     1     -18.459 -26.053  19.311  1.00  0.00     0.188 HD
HETATM   11  N7  UNL     1     -16.861 -26.231  20.646  1.00  0.00    -0.238 N 
ATOM     12  H7  UNL     1     -17.200 -25.683  21.437  1.00  0.00     0.208 HD
HETATM   13  N8  UNL     1     -15.699 -26.841  20.604  1.00  0.00    -0.250 N 
ENDROOT
BRANCH   4  14
HETATM   14  N3  UNL     1     -13.736 -29.496  17.111  1.00  0.00    -0.290 N 
ATOM     15  H3  UNL     1     -13.422 -30.333  17.602  1.00  0.00     0.188 HD
BRANCH  14  16
HETATM   16  N4  UNL     1     -13.143 -29.155  15.894  1.00  0.00    -0.344 N 
ATOM     17  H42 UNL     1     -13.196 -28.185  15.585  1.00  0.00     0.176 HD
ATOM     18  H41 UNL     1     -12.666 -29.852  15.321  1.00  0.00     0.176 HD
ENDBRANCH  14  16
ENDBRANCH   4  14
BRANCH   1  19
HETATM   19  N1  UNL     1     -18.012 -27.479  16.786  1.00  0.00    -0.396 N 
ATOM     20  H12 UNL     1     -18.100 -27.798  15.821  1.00  0.00     0.156 HD
ATOM     21  H11 UNL     1     -18.807 -26.979  17.183  1.00  0.00     0.156 HD
ENDBRANCH   1  19
BRANCH  13  22
HETATM   22  C6  UNL     1     -14.660 -26.875  21.644  1.00  0.00     0.265 C 
BRANCH  22  23
HETATM   23  C7  UNL     1     -14.927 -27.910  22.645  1.00  0.00     0.193 C 
HETATM   24  O1  UNL     1     -14.147 -28.870  22.799  1.00  0.00    -0.647 OA
HETATM   25  O2  UNL     1     -16.059 -27.824  23.429  1.00  0.00    -0.647 OA
ENDBRANCH  22  23
ENDBRANCH  13  22
TORSDOF 5
ENDMDL
MODEL 3
REMARK VINA RESULT: -7.715691123      0.853      1.132
REMARK  5 active torsions:
REMARK  status: ('A' for Active; 'I' for Inactive)
REMARK    1  A    between atoms: N1_1  and  C1_4 
REMARK    2  A    between atoms: C3_7  and  N3_8 
REMARK    3  A    between atoms: N3_8  and  N4_10 
REMARK    4  A    between atoms: N8_21  and  C6_22 
REMARK    5  A    between atoms: C6_22  and  C7_23 
ROOT
HETATM    1  C1  UNL     1     -16.959 -27.732  17.469  1.00  0.00     0.086 A 
HETATM    2  C2  UNL     1     -15.904 -28.482  17.012  1.00  0.00     0.120 A 
HETATM    3  N2  UNL     1     -15.973 -29.089  15.734  1.00  0.00    -0.096 NA
HETATM    4  C3  UNL     1     -14.754 -28.668  17.778  1.00  0.00     0.148 A 
HETATM    5  N5  UNL     1     -14.649 -28.119  18.976  1.00  0.00    -0.323 N 
ATOM      6  H5  UNL     1     -13.808 -28.253  19.536  1.00  0.00     0.169 HD
HETATM    7  C4  UNL     1     -15.676 -27.377  19.443  1.00  0.00     0.156 A 
HETATM    8  C5  UNL     1     -16.831 -27.163  18.730  1.00  0.00     0.123 A 
HETATM    9  N6  UNL     1     -17.605 -26.393  19.501  1.00  0.00    -0.280 N 
ATOM     10  H6  UNL     1     -18.537 -26.052  19.262  1.00  0.00     0.188 HD
HETATM   11  N7  UNL     1     -16.958 -26.149  20.628  1.00  0.00    -0.238 N 
ATOM     12  H7  UNL     1     -17.323 -25.584  21.394  1.00  0.00     0.208 HD
HETATM   13  N8  UNL     1     -15.782 -26.733  20.625  1.00  0.00    -0.250 N 
ENDROOT
BRANCH   4  14
HETATM   14  N3  UNL     1     -13.698 -29.453  17.253  1.00  0.00    -0.290 N 
ATOM     15  H3  UNL     1     -13.374 -30.266  17.776  1.00  0.00     0.188 HD
BRANCH  14  16
HETATM   16  N4  UNL     1     -13.091 -29.136  16.036  1.00  0.00    -0.344 N 
ATOM     17  H42 UNL     1     -13.311 -29.711  15.222  1.00  0.00     0.176 HD
ATOM     18  H41 UNL     1     -12.444 -28.353  15.952  1.00  0.00     0.176 HD
ENDBRANCH  14  16
ENDBRANCH   4  14
BRANCH   1  19
HETATM   19  N1  UNL     1     -18.014 -27.549  16.792  1.00  0.00    -0.396 N 
ATOM     20  H12 UNL     1     -18.696 -28.300  16.694  1.00  0.00     0.156 HD
ATOM     21  H11 UNL     1     -18.224 -26.666  16.326  1.00  0.00     0.156 HD
ENDBRANCH   1  19
BRANCH  13  22
HETATM   22  C6  UNL     1     -14.760 -26.708  21.681  1.00  0.00     0.265 C 
BRANCH  22  23
HETATM   23  C7  UNL     1     -15.169 -25.873  22.813  1.00  0.00     0.193 C 
HETATM   24  O1  UNL     1     -15.773 -26.363  23.787  1.00  0.00    -0.647 OA
HETATM   25  O2  UNL     1     -14.883 -24.524  22.802  1.00  0.00    -0.647 OA
ENDBRANCH  22  23
ENDBRANCH  13  22
TORSDOF 5
ENDMDL
MODEL 4
REMARK VINA RESULT: -7.583888801      2.106      4.036
REMARK  5 active torsions:
REMARK  status: ('A' for Active; 'I' for Inactive)
REMARK    1  A    between atoms: N1_1  and  C1_4 
REMARK    2  A    between atoms: C3_7  and  N3_8 
REMARK    3  A    between atoms: N3_8  and  N4_10 
REMARK    4  A    between atoms: N8_21  and  C6_22 
REMARK    5  A    between atoms: C6_22  and  C7_23 
ROOT
HETATM    1  C1  UNL     1     -15.483 -28.589  16.499  1.00  0.00     0.086 A 
HETATM    2  C2  UNL     1     -16.589 -28.021  17.082  1.00  0.00     0.120 A 
HETATM    3  N2  UNL     1     -17.827 -28.023  16.395  1.00  0.00    -0.096 NA
HETATM    4  C3  UNL     1     -16.528 -27.435  18.346  1.00  0.00     0.148 A 
HETATM    5  N5  UNL     1     -15.392 -27.413  19.022  1.00  0.00    -0.323 N 
ATOM      6  H5  UNL     1     -15.346 -26.985  19.946  1.00  0.00     0.169 HD
HETATM    7  C4  UNL     1     -14.293 -27.966  18.465  1.00  0.00     0.156 A 
HETATM    8  C5  UNL     1     -14.298 -28.556  17.224  1.00  0.00     0.123 A 
HETATM    9  N6  UNL     1     -13.049 -28.985  17.012  1.00  0.00    -0.280 N 
ATOM     10  H6  UNL     1     -12.718 -29.469  16.177  1.00  0.00     0.188 HD
HETATM   11  N7  UNL     1     -12.319 -28.673  18.068  1.00  0.00    -0.238 N 
ATOM     12  H7  UNL     1     -11.327 -28.886  18.169  1.00  0.00     0.208 HD
HETATM   13  N8  UNL     1     -13.044 -28.053  18.970  1.00  0.00    -0.250 N 
ENDROOT
BRANCH   4  14
HETATM   14  N3  UNL     1     -17.701 -26.865  18.897  1.00  0.00    -0.290 N 
ATOM     15  H3  UNL     1     -18.398 -26.458  18.273  1.00  0.00     0.188 HD
BRANCH  14  16
HETATM   16  N4  UNL     1     -17.926 -26.850  20.275  1.00  0.00    -0.344 N 
ATOM     17  H42 UNL     1     -18.719 -26.315  20.629  1.00  0.00     0.176 HD
ATOM     18  H41 UNL     1     -17.318 -27.357  20.919  1.00  0.00     0.176 HD
ENDBRANCH  14  16
ENDBRANCH   4  14
BRANCH   1  19
HETATM   19  N1  UNL     1     -15.514 -29.127  15.353  1.00  0.00    -0.396 N 
ATOM     20  H12 UNL     1     -15.710 -30.124  15.260  1.00  0.00     0.156 HD
ATOM     21  H11 UNL     1     -15.349 -28.605  14.493  1.00  0.00     0.156 HD
ENDBRANCH   1  19
BRANCH  13  22
HETATM   22  C6  UNL     1     -12.612 -27.543  20.280  1.00  0.00     0.265 C 
BRANCH  22  23
HETATM   23  C7  UNL     1     -12.708 -28.569  21.320  1.00  0.00     0.193 C 
HETATM   24  O1  UNL     1     -12.679 -29.781  21.031  1.00  0.00    -0.647 OA
HETATM   25  O2  UNL     1     -12.831 -28.191  22.641  1.00  0.00    -0.647 OA
ENDBRANCH  22  23
ENDBRANCH  13  22
TORSDOF 5
ENDMDL
MODEL 5
REMARK VINA RESULT: -7.570583338      3.745      5.439
REMARK  5 active torsions:
REMARK  status: ('A' for Active; 'I' for Inactive)
REMARK    1  A    between atoms: N1_1  and  C1_4 
REMARK    2  A    between atoms: C3_7  and  N3_8 
REMARK    3  A    between atoms: N3_8  and  N4_10 
REMARK    4  A    between atoms: N8_21  and  C6_22 
REMARK    5  A    between atoms: C6_22  and  C7_23 
ROOT
HETATM    1  C1  UNL     1     -16.846 -26.938  19.643  1.00  0.00     0.086 A 
HETATM    2  C2  UNL     1     -15.704 -26.731  20.377  1.00  0.00     0.120 A 
HETATM    3  N2  UNL     1     -15.797 -26.227  21.697  1.00  0.00    -0.096 NA
HETATM    4  C3  UNL     1     -14.441 -27.004  19.854  1.00  0.00     0.148 A 
HETATM    5  N5  UNL     1     -14.309 -27.475  18.626  1.00  0.00    -0.323 N 
ATOM      6  H5  UNL     1     -13.386 -27.676  18.243  1.00  0.00     0.169 HD
HETATM    7  C4  UNL     1     -15.421 -27.686  17.888  1.00  0.00     0.156 A 
HETATM    8  C5  UNL     1     -16.689 -27.433  18.355  1.00  0.00     0.123 A 
HETATM    9  N6  UNL     1     -17.521 -27.758  17.360  1.00  0.00    -0.280 N 
ATOM     10  H6  UNL     1     -18.539 -27.687  17.385  1.00  0.00     0.188 HD
HETATM   11  N7  UNL     1     -16.800 -28.186  16.338  1.00  0.00    -0.238 N 
ATOM     12  H7  UNL     1     -17.186 -28.499  15.448  1.00  0.00     0.208 HD
HETATM   13  N8  UNL     1     -15.519 -28.155  16.626  1.00  0.00    -0.250 N 
ENDROOT
BRANCH   4  14
HETATM   14  N3  UNL     1     -13.299 -26.770  20.658  1.00  0.00    -0.290 N 
ATOM     15  H3  UNL     1     -12.837 -27.559  21.109  1.00  0.00     0.188 HD
BRANCH  14  16
HETATM   16  N4  UNL     1     -12.792 -25.483  20.848  1.00  0.00    -0.344 N 
ATOM     17  H42 UNL     1     -11.802 -25.321  20.663  1.00  0.00     0.176 HD
ATOM     18  H41 UNL     1     -13.389 -24.717  21.162  1.00  0.00     0.176 HD
ENDBRANCH  14  16
ENDBRANCH   4  14
BRANCH   1  19
HETATM   19  N1  UNL     1     -18.004 -26.698  20.096  1.00  0.00    -0.396 N 
ATOM     20  H12 UNL     1     -18.789 -26.575  19.457  1.00  0.00     0.156 HD
ATOM     21  H11 UNL     1     -18.201 -26.619  21.094  1.00  0.00     0.156 HD
ENDBRANCH   1  19
BRANCH  13  22
HETATM   22  C6  UNL     1     -14.392 -28.547  15.768  1.00  0.00     0.265 C 
BRANCH  22  23
HETATM   23  C7  UNL     1     -14.764 -29.615  14.837  1.00  0.00     0.193 C 
HETATM   24  O1  UNL     1     -15.722 -30.374  15.081  1.00  0.00    -0.647 OA
HETATM   25  O2  UNL     1     -14.043 -29.786  13.674  1.00  0.00    -0.647 OA
ENDBRANCH  22  23
ENDBRANCH  13  22
TORSDOF 5
ENDMDL
