MODEL 1
REMARK VINA RESULT: -8.237433584      0.000      0.000
REMARK  4 active torsions:
REMARK  status: ('A' for Active; 'I' for Inactive)
REMARK    1  A    between atoms: N1_1  and  C1_4 
REMARK    2  A    between atoms: C2_7  and  C3_8 
REMARK    3  A    between atoms: C3_8  and  C4_14 
REMARK    4  A    between atoms: N3_9  and  N4_11 
ROOT
HETATM    1  C3  UNL     1     -16.222 -27.786  18.002  1.00  0.00     0.106 C 
HETATM    2  N3  UNL     1     -17.431 -27.325  17.710  1.00  0.00    -0.303 N 
ATOM      3  H3  UNL     1     -17.825 -26.675  18.392  1.00  0.00     0.186 HD
ENDROOT
BRANCH   1   4
HETATM    4  C2  UNL     1     -15.675 -27.276  19.245  1.00  0.00     0.109 A 
HETATM    5  N2  UNL     1     -14.301 -27.113  19.281  1.00  0.00    -0.188 N 
HETATM    6  C1  UNL     1     -13.628 -26.765  20.379  1.00  0.00     0.679 A 
ATOM      7  H2  UNL     1     -13.774 -27.266  18.421  1.00  0.00     0.184 HD
HETATM    8  N9  UNL     1     -14.336 -26.567  21.502  1.00  0.00    -0.155 N 
HETATM    9  C7  UNL     1     -15.665 -26.707  21.538  1.00  0.00     0.286 A 
ATOM     10  H9  UNL     1     -13.844 -26.302  22.355  1.00  0.00     0.187 HD
HETATM   11  C6  UNL     1     -16.386 -27.071  20.382  1.00  0.00     0.144 A 
HETATM   12  O1  UNL     1     -16.315 -26.518  22.601  1.00  0.00    -0.266 OA
HETATM   13  N8  UNL     1     -17.805 -27.082  20.491  1.00  0.00    -0.094 NA
BRANCH   6  14
HETATM   14  N1  UNL     1     -12.329 -26.621  20.370  1.00  0.00    -0.234 N 
ATOM     15  H12 UNL     1     -11.779 -26.879  19.550  1.00  0.00     0.174 HD
ATOM     16  H11 UNL     1     -11.827 -26.248  21.176  1.00  0.00     0.174 HD
ENDBRANCH   6  14
ENDBRANCH   1   4
BRANCH   1  17
HETATM   17  C4  UNL     1     -15.612 -28.686  17.055  1.00  0.00     0.096 A 
HETATM   18  C5  UNL     1     -14.762 -28.387  16.015  1.00  0.00     0.142 A 
HETATM   19  N5  UNL     1     -14.280 -29.540  15.454  1.00  0.00    -0.295 N 
HETATM   20  N6  UNL     1     -14.829 -30.510  16.143  1.00  0.00    -0.243 N 
ATOM     21  H5  UNL     1     -13.635 -29.625  14.669  1.00  0.00     0.187 HD
HETATM   22  N7  UNL     1     -15.604 -30.051  17.074  1.00  0.00    -0.283 N 
ATOM     23  H6  UNL     1     -14.667 -31.502  15.967  1.00  0.00     0.208 HD
ATOM     24  H7  UNL     1     -16.132 -30.628  17.729  1.00  0.00     0.188 HD
ENDBRANCH   1  17
BRANCH   2  25
HETATM   25  N4  UNL     1     -18.209 -27.585  16.655  1.00  0.00    -0.345 N 
ATOM     26  H42 UNL     1     -18.993 -28.204  16.860  1.00  0.00     0.176 HD
ATOM     27  H41 UNL     1     -18.128 -27.258  15.693  1.00  0.00     0.176 HD
ENDBRANCH   2  25
TORSDOF 4
ENDMDL
MODEL 2
REMARK VINA RESULT: -7.792321303      1.464      2.478
REMARK  4 active torsions:
REMARK  status: ('A' for Active; 'I' for Inactive)
REMARK    1  A    between atoms: N1_1  and  C1_4 
REMARK    2  A    between atoms: C2_7  and  C3_8 
REMARK    3  A    between atoms: C3_8  and  C4_14 
REMARK    4  A    between atoms: N3_9  and  N4_11 
ROOT
HETATM    1  C3  UNL     1     -14.182 -27.872  18.219  1.00  0.00     0.106 C 
HETATM    2  N3  UNL     1     -12.883 -27.620  18.314  1.00  0.00    -0.303 N 
ATOM      3  H3  UNL     1     -12.614 -27.005  19.083  1.00  0.00     0.186 HD
ENDROOT
BRANCH   1   4
HETATM    4  C2  UNL     1     -14.989 -27.224  19.235  1.00  0.00     0.109 A 
HETATM    5  N2  UNL     1     -14.302 -26.717  20.324  1.00  0.00    -0.188 N 
HETATM    6  C1  UNL     1     -14.900 -26.196  21.397  1.00  0.00     0.679 A 
ATOM      7  H2  UNL     1     -13.282 -26.743  20.305  1.00  0.00     0.184 HD
HETATM    8  N9  UNL     1     -16.242 -26.169  21.405  1.00  0.00    -0.155 N 
HETATM    9  C7  UNL     1     -16.968 -26.641  20.387  1.00  0.00     0.286 A 
ATOM     10  H9  UNL     1     -16.723 -25.777  22.215  1.00  0.00     0.187 HD
HETATM   11  C6  UNL     1     -16.346 -27.191  19.247  1.00  0.00     0.144 A 
HETATM   12  O1  UNL     1     -18.228 -26.609  20.411  1.00  0.00    -0.266 OA
HETATM   13  N8  UNL     1     -17.198 -27.560  18.169  1.00  0.00    -0.094 NA
BRANCH   6  14
HETATM   14  N1  UNL     1     -14.213 -25.727  22.404  1.00  0.00    -0.234 N 
ATOM     15  H12 UNL     1     -13.825 -24.783  22.380  1.00  0.00     0.174 HD
ATOM     16  H11 UNL     1     -14.042 -26.285  23.240  1.00  0.00     0.174 HD
ENDBRANCH   6  14
ENDBRANCH   1   4
BRANCH   1  17
HETATM   17  C4  UNL     1     -14.607 -28.759  17.165  1.00  0.00     0.096 A 
HETATM   18  C5  UNL     1     -14.531 -28.570  15.804  1.00  0.00     0.142 A 
HETATM   19  N5  UNL     1     -14.895 -29.716  15.148  1.00  0.00    -0.295 N 
HETATM   20  N6  UNL     1     -15.184 -30.574  16.095  1.00  0.00    -0.243 N 
ATOM     21  H5  UNL     1     -14.934 -29.868  14.140  1.00  0.00     0.187 HD
HETATM   22  N7  UNL     1     -15.029 -30.053  17.271  1.00  0.00    -0.283 N 
ATOM     23  H6  UNL     1     -15.493 -31.532  15.927  1.00  0.00     0.208 HD
ATOM     24  H7  UNL     1     -15.198 -30.541  18.151  1.00  0.00     0.188 HD
ENDBRANCH   1  17
BRANCH   2  25
HETATM   25  N4  UNL     1     -11.874 -28.054  17.551  1.00  0.00    -0.345 N 
ATOM     26  H42 UNL     1     -11.917 -29.048  17.331  1.00  0.00     0.176 HD
ATOM     27  H41 UNL     1     -11.084 -27.537  17.167  1.00  0.00     0.176 HD
ENDBRANCH   2  25
TORSDOF 4
ENDMDL
MODEL 3
REMARK VINA RESULT: -7.726869709      2.114      5.249
REMARK  4 active torsions:
REMARK  status: ('A' for Active; 'I' for Inactive)
REMARK    1  A    between atoms: N1_1  and  C1_4 
REMARK    2  A    between atoms: C2_7  and  C3_8 
REMARK    3  A    between atoms: C3_8  and  C4_14 
REMARK    4  A    between atoms: N3_9  and  N4_11 
ROOT
HETATM    1  C3  UNL     1     -14.644 -27.141  19.879  1.00  0.00     0.106 C 
HETATM    2  N3  UNL     1     -13.442 -26.589  19.783  1.00  0.00    -0.303 N 
ATOM      3  H3  UNL     1     -13.010 -26.643  18.860  1.00  0.00     0.186 HD
ENDROOT
BRANCH   1   4
HETATM    4  C2  UNL     1     -15.131 -27.723  18.642  1.00  0.00     0.109 A 
HETATM    5  N2  UNL     1     -14.174 -28.296  17.823  1.00  0.00    -0.188 N 
HETATM    6  C1  UNL     1     -14.434 -28.770  16.603  1.00  0.00     0.679 A 
ATOM      7  H2  UNL     1     -13.217 -28.359  18.171  1.00  0.00     0.184 HD
HETATM    8  N9  UNL     1     -15.698 -28.679  16.161  1.00  0.00    -0.155 N 
HETATM    9  C7  UNL     1     -16.672 -28.139  16.900  1.00  0.00     0.286 A 
ATOM     10  H9  UNL     1     -15.922 -29.034  15.231  1.00  0.00     0.187 HD
HETATM   11  C6  UNL     1     -16.408 -27.638  18.191  1.00  0.00     0.144 A 
HETATM   12  O1  UNL     1     -17.854 -28.061  16.469  1.00  0.00    -0.266 OA
HETATM   13  N8  UNL     1     -17.529 -27.188  18.944  1.00  0.00    -0.094 NA
BRANCH   6  14
HETATM   14  N1  UNL     1     -13.500 -29.304  15.863  1.00  0.00    -0.234 N 
ATOM     15  H12 UNL     1     -12.772 -29.887  16.276  1.00  0.00     0.174 HD
ATOM     16  H11 UNL     1     -13.468 -29.156  14.854  1.00  0.00     0.174 HD
ENDBRANCH   6  14
ENDBRANCH   1   4
BRANCH   1  17
HETATM   17  C4  UNL     1     -15.307 -27.065  21.156  1.00  0.00     0.096 A 
HETATM   18  C5  UNL     1     -15.100 -27.839  22.275  1.00  0.00     0.142 A 
HETATM   19  N5  UNL     1     -15.819 -27.343  23.331  1.00  0.00    -0.295 N 
HETATM   20  N6  UNL     1     -16.443 -26.293  22.855  1.00  0.00    -0.243 N 
ATOM     21  H5  UNL     1     -15.859 -27.711  24.281  1.00  0.00     0.187 HD
HETATM   22  N7  UNL     1     -16.170 -26.106  21.603  1.00  0.00    -0.283 N 
ATOM     23  H6  UNL     1     -17.067 -25.699  23.403  1.00  0.00     0.208 HD
ATOM     24  H7  UNL     1     -16.546 -25.349  21.032  1.00  0.00     0.188 HD
ENDBRANCH   1  17
BRANCH   2  25
HETATM   25  N4  UNL     1     -12.713 -25.972  20.718  1.00  0.00    -0.345 N 
ATOM     26  H42 UNL     1     -11.921 -26.518  21.056  1.00  0.00     0.176 HD
ATOM     27  H41 UNL     1     -12.837 -25.049  21.133  1.00  0.00     0.176 HD
ENDBRANCH   2  25
TORSDOF 4
ENDMDL
MODEL 4
REMARK VINA RESULT: -7.708290738      2.656      4.846
REMARK  4 active torsions:
REMARK  status: ('A' for Active; 'I' for Inactive)
REMARK    1  A    between atoms: N1_1  and  C1_4 
REMARK    2  A    between atoms: C2_7  and  C3_8 
REMARK    3  A    between atoms: C3_8  and  C4_14 
REMARK    4  A    between atoms: N3_9  and  N4_11 
ROOT
HETATM    1  C3  UNL     1     -13.353 -28.100  18.695  1.00  0.00     0.106 C 
HETATM    2  N3  UNL     1     -12.518 -27.603  17.793  1.00  0.00    -0.303 N 
ATOM      3  H3  UNL     1     -12.958 -27.098  17.023  1.00  0.00     0.186 HD
ENDROOT
BRANCH   1   4
HETATM    4  C2  UNL     1     -14.752 -27.832  18.421  1.00  0.00     0.109 A 
HETATM    5  N2  UNL     1     -15.500 -27.363  19.487  1.00  0.00    -0.188 N 
HETATM    6  C1  UNL     1     -16.821 -27.177  19.437  1.00  0.00     0.679 A 
ATOM      7  H2  UNL     1     -15.016 -27.147  20.358  1.00  0.00     0.184 HD
HETATM    8  N9  UNL     1     -17.442 -27.465  18.283  1.00  0.00    -0.155 N 
HETATM    9  C7  UNL     1     -16.781 -27.921  17.214  1.00  0.00     0.286 A 
ATOM     10  H9  UNL     1     -18.452 -27.332  18.220  1.00  0.00     0.187 HD
HETATM   11  C6  UNL     1     -15.386 -28.118  17.256  1.00  0.00     0.144 A 
HETATM   12  O1  UNL     1     -17.381 -28.187  16.137  1.00  0.00    -0.266 OA
HETATM   13  N8  UNL     1     -14.757 -28.495  16.036  1.00  0.00    -0.094 NA
BRANCH   6  14
HETATM   14  N1  UNL     1     -17.489 -26.731  20.467  1.00  0.00    -0.234 N 
ATOM     15  H12 UNL     1     -17.374 -25.771  20.791  1.00  0.00     0.174 HD
ATOM     16  H11 UNL     1     -18.143 -27.325  20.977  1.00  0.00     0.174 HD
ENDBRANCH   6  14
ENDBRANCH   1   4
BRANCH   1  17
HETATM   17  C4  UNL     1     -12.776 -28.798  19.817  1.00  0.00     0.096 A 
HETATM   18  C5  UNL     1     -12.875 -28.496  21.156  1.00  0.00     0.142 A 
HETATM   19  N5  UNL     1     -12.317 -29.496  21.907  1.00  0.00    -0.295 N 
HETATM   20  N6  UNL     1     -11.892 -30.380  21.037  1.00  0.00    -0.243 N 
ATOM     21  H5  UNL     1     -12.247 -29.543  22.923  1.00  0.00     0.187 HD
HETATM   22  N7  UNL     1     -12.141 -30.007  19.822  1.00  0.00    -0.283 N 
ATOM     23  H6  UNL     1     -11.424 -31.251  21.286  1.00  0.00     0.208 HD
ATOM     24  H7  UNL     1     -11.897 -30.540  18.987  1.00  0.00     0.188 HD
ENDBRANCH   1  17
BRANCH   2  25
HETATM   25  N4  UNL     1     -11.183 -27.664  17.746  1.00  0.00    -0.345 N 
ATOM     26  H42 UNL     1     -10.819 -28.177  16.943  1.00  0.00     0.176 HD
ATOM     27  H41 UNL     1     -10.492 -27.277  18.388  1.00  0.00     0.176 HD
ENDBRANCH   2  25
TORSDOF 4
ENDMDL
MODEL 5
REMARK VINA RESULT: -7.693336796      2.400      3.755
REMARK  4 active torsions:
REMARK  status: ('A' for Active; 'I' for Inactive)
REMARK    1  A    between atoms: N1_1  and  C1_4 
REMARK    2  A    between atoms: C2_7  and  C3_8 
REMARK    3  A    between atoms: C3_8  and  C4_14 
REMARK    4  A    between atoms: N3_9  and  N4_11 
ROOT
HETATM    1  C3  UNL     1     -14.235 -28.631  18.006  1.00  0.00     0.106 C 
HETATM    2  N3  UNL     1     -14.094 -29.803  17.403  1.00  0.00    -0.303 N 
ATOM      3  H3  UNL     1     -13.162 -30.216  17.465  1.00  0.00     0.186 HD
ENDROOT
BRANCH   1   4
HETATM    4  C2  UNL     1     -13.031 -28.146  18.653  1.00  0.00     0.109 A 
HETATM    5  N2  UNL     1     -12.036 -27.680  17.812  1.00  0.00    -0.188 N 
HETATM    6  C1  UNL     1     -10.826 -27.308  18.235  1.00  0.00     0.679 A 
ATOM      7  H2  UNL     1     -12.238 -27.616  16.814  1.00  0.00     0.184 HD
HETATM    8  N9  UNL     1     -10.576 -27.398  19.550  1.00  0.00    -0.155 N 
HETATM    9  C7  UNL     1     -11.491 -27.838  20.419  1.00  0.00     0.286 A 
ATOM     10  H9  UNL     1      -9.658 -27.120  19.898  1.00  0.00     0.187 HD
HETATM   11  C6  UNL     1     -12.773 -28.230  19.983  1.00  0.00     0.144 A 
HETATM   12  O1  UNL     1     -11.240 -27.916  21.652  1.00  0.00    -0.266 OA
HETATM   13  N8  UNL     1     -13.715 -28.575  20.993  1.00  0.00    -0.094 NA
BRANCH   6  14
HETATM   14  N1  UNL     1      -9.915 -26.873  17.406  1.00  0.00    -0.234 N 
ATOM     15  H12 UNL     1      -9.222 -26.185  17.703  1.00  0.00     0.174 HD
ATOM     16  H11 UNL     1      -9.867 -27.203  16.442  1.00  0.00     0.174 HD
ENDBRANCH   6  14
ENDBRANCH   1   4
BRANCH   1  17
HETATM   17  C4  UNL     1     -15.541 -28.021  17.968  1.00  0.00     0.096 A 
HETATM   18  C5  UNL     1     -16.174 -27.419  16.906  1.00  0.00     0.142 A 
HETATM   19  N5  UNL     1     -17.466 -27.110  17.241  1.00  0.00    -0.295 N 
HETATM   20  N6  UNL     1     -17.605 -27.518  18.478  1.00  0.00    -0.243 N 
ATOM     21  H5  UNL     1     -18.167 -26.658  16.654  1.00  0.00     0.187 HD
HETATM   22  N7  UNL     1     -16.512 -28.049  18.928  1.00  0.00    -0.283 N 
ATOM     23  H6  UNL     1     -18.466 -27.429  19.019  1.00  0.00     0.208 HD
ATOM     24  H7  UNL     1     -16.394 -28.432  19.866  1.00  0.00     0.188 HD
ENDBRANCH   1  17
BRANCH   2  25
HETATM   25  N4  UNL     1     -14.992 -30.524  16.724  1.00  0.00    -0.345 N 
ATOM     26  H42 UNL     1     -15.683 -29.965  16.224  1.00  0.00     0.176 HD
ATOM     27  H41 UNL     1     -15.081 -31.536  16.639  1.00  0.00     0.176 HD
ENDBRANCH   2  25
TORSDOF 4
ENDMDL
