MODEL 1
REMARK VINA RESULT: -7.820593010      0.000      0.000
REMARK  5 active torsions:
REMARK  status: ('A' for Active; 'I' for Inactive)
REMARK    1  A    between atoms: C3_6  and  N2_7 
REMARK    2  A    between atoms: C5_11  and  C6_12 
REMARK       I    between atoms: C6_12  and  N4_14 
REMARK    3  A    between atoms: N4_14  and  C7_16 
REMARK    4  A    between atoms: C7_16  and  C8_17 
REMARK    5  A    between atoms: C8_17  and  O2_18 
ROOT
HETATM    1  N2  UNL     1     -14.530 -26.722  19.625  1.00  0.00    -0.225 N 
HETATM    2  N3  UNL     1     -13.373 -26.254  20.059  1.00  0.00    -0.301 N 
ATOM      3  H3  UNL     1     -12.523 -26.222  19.496  1.00  0.00     0.186 HD
HETATM    4  C4  UNL     1     -13.447 -25.826  21.328  1.00  0.00     0.128 A 
HETATM    5  C5  UNL     1     -14.739 -26.031  21.741  1.00  0.00     0.091 A 
HETATM    6  C9  UNL     1     -15.387 -26.588  20.661  1.00  0.00     0.157 A 
HETATM    7  N5  UNL     1     -16.742 -26.976  20.608  1.00  0.00    -0.080 NA
ENDROOT
BRANCH   1   8
HETATM    8  C3  UNL     1     -14.828 -27.259  18.332  1.00  0.00     0.133 A 
HETATM    9  C2  UNL     1     -13.846 -27.868  17.560  1.00  0.00     0.098 A 
HETATM   10  C1  UNL     1     -14.159 -28.377  16.318  1.00  0.00     0.103 A 
HETATM   11  N1  UNL     1     -13.274 -28.948  15.578  1.00  0.00    -0.385 N 
HETATM   12  N7  UNL     1     -15.405 -28.305  15.815  1.00  0.00    -0.339 N 
ATOM     13  H12 UNL     1     -12.329 -29.003  15.960  1.00  0.00     0.157 HD
ATOM     14  H11 UNL     1     -13.504 -29.325  14.659  1.00  0.00     0.157 HD
HETATM   15  C10 UNL     1     -16.349 -27.713  16.570  1.00  0.00     0.183 A 
ATOM     16  H7  UNL     1     -15.627 -28.685  14.895  1.00  0.00     0.168 HD
HETATM   17  N6  UNL     1     -16.057 -27.210  17.788  1.00  0.00    -0.337 N 
ATOM     18  H6  UNL     1     -16.805 -26.770  18.322  1.00  0.00     0.168 HD
ENDBRANCH   1   8
BRANCH   5  19
HETATM   19  C6  UNL     1     -15.331 -25.727  23.060  1.00  0.00     0.256 C 
HETATM   20  O1  UNL     1     -15.229 -24.573  23.518  1.00  0.00    -0.267 OA
HETATM   21  N4  UNL     1     -15.995 -26.728  23.773  1.00  0.00    -0.355 N 
ATOM     22  H4  UNL     1     -16.059 -27.656  23.357  1.00  0.00     0.162 HD
BRANCH  21  23
HETATM   23  C7  UNL     1     -16.592 -26.517  25.062  1.00  0.00     0.148 C 
BRANCH  23  24
HETATM   24  C8  UNL     1     -17.010 -27.804  25.714  1.00  0.00     0.183 C 
BRANCH  24  25
HETATM   25  O2  UNL     1     -16.907 -28.879  24.829  1.00  0.00    -0.399 OA
ATOM     26  H2  UNL     1     -17.092 -29.704  25.263  1.00  0.00     0.209 HD
ENDBRANCH  24  25
ENDBRANCH  23  24
ENDBRANCH  21  23
ENDBRANCH   5  19
TORSDOF 5
ENDMDL
MODEL 2
REMARK VINA RESULT: -7.623292950      1.836      3.094
REMARK  5 active torsions:
REMARK  status: ('A' for Active; 'I' for Inactive)
REMARK    1  A    between atoms: C3_6  and  N2_7 
REMARK    2  A    between atoms: C5_11  and  C6_12 
REMARK       I    between atoms: C6_12  and  N4_14 
REMARK    3  A    between atoms: N4_14  and  C7_16 
REMARK    4  A    between atoms: C7_16  and  C8_17 
REMARK    5  A    between atoms: C8_17  and  O2_18 
ROOT
HETATM    1  N2  UNL     1     -15.483 -27.098  19.116  1.00  0.00    -0.225 N 
HETATM    2  N3  UNL     1     -16.754 -26.738  19.150  1.00  0.00    -0.301 N 
ATOM      3  H3  UNL     1     -17.396 -26.837  18.362  1.00  0.00     0.186 HD
HETATM    4  C4  UNL     1     -17.101 -26.227  20.340  1.00  0.00     0.128 A 
HETATM    5  C5  UNL     1     -15.979 -26.260  21.128  1.00  0.00     0.091 A 
HETATM    6  C9  UNL     1     -14.991 -26.806  20.340  1.00  0.00     0.157 A 
HETATM    7  N5  UNL     1     -13.652 -27.040  20.719  1.00  0.00    -0.080 NA
ENDROOT
BRANCH   1   8
HETATM    8  C3  UNL     1     -14.766 -27.677  18.021  1.00  0.00     0.133 A 
HETATM    9  C2  UNL     1     -15.341 -28.654  17.217  1.00  0.00     0.098 A 
HETATM   10  C1  UNL     1     -14.629 -29.195  16.168  1.00  0.00     0.103 A 
HETATM   11  N1  UNL     1     -15.133 -30.100  15.404  1.00  0.00    -0.385 N 
HETATM   12  N7  UNL     1     -13.371 -28.805  15.889  1.00  0.00    -0.339 N 
ATOM     13  H12 UNL     1     -16.085 -30.395  15.616  1.00  0.00     0.157 HD
ATOM     14  H11 UNL     1     -14.606 -30.501  14.628  1.00  0.00     0.157 HD
HETATM   15  C10 UNL     1     -12.823 -27.859  16.673  1.00  0.00     0.183 A 
ATOM     16  H7  UNL     1     -12.852 -29.212  15.111  1.00  0.00     0.168 HD
HETATM   17  N6  UNL     1     -13.509 -27.321  17.703  1.00  0.00    -0.337 N 
ATOM     18  H6  UNL     1     -13.050 -26.607  18.270  1.00  0.00     0.168 HD
ENDBRANCH   1   8
BRANCH   5  19
HETATM   19  C6  UNL     1     -15.839 -25.809  22.528  1.00  0.00     0.256 C 
HETATM   20  O1  UNL     1     -16.493 -26.385  23.419  1.00  0.00    -0.267 OA
HETATM   21  N4  UNL     1     -14.980 -24.752  22.837  1.00  0.00    -0.355 N 
ATOM     22  H4  UNL     1     -14.460 -24.314  22.076  1.00  0.00     0.162 HD
BRANCH  21  23
HETATM   23  C7  UNL     1     -14.791 -24.249  24.168  1.00  0.00     0.148 C 
BRANCH  23  24
HETATM   24  C8  UNL     1     -14.134 -22.899  24.179  1.00  0.00     0.183 C 
BRANCH  24  25
HETATM   25  O2  UNL     1     -14.462 -22.163  23.039  1.00  0.00    -0.399 OA
ATOM     26  H2  UNL     1     -15.395 -21.991  22.994  1.00  0.00     0.209 HD
ENDBRANCH  24  25
ENDBRANCH  23  24
ENDBRANCH  21  23
ENDBRANCH   5  19
TORSDOF 5
ENDMDL
MODEL 3
REMARK VINA RESULT: -7.607431173      1.220      2.032
REMARK  5 active torsions:
REMARK  status: ('A' for Active; 'I' for Inactive)
REMARK    1  A    between atoms: C3_6  and  N2_7 
REMARK    2  A    between atoms: C5_11  and  C6_12 
REMARK       I    between atoms: C6_12  and  N4_14 
REMARK    3  A    between atoms: N4_14  and  C7_16 
REMARK    4  A    between atoms: C7_16  and  C8_17 
REMARK    5  A    between atoms: C8_17  and  O2_18 
ROOT
HETATM    1  N2  UNL     1     -15.443 -27.088  19.062  1.00  0.00    -0.225 N 
HETATM    2  N3  UNL     1     -16.712 -26.721  19.104  1.00  0.00    -0.301 N 
ATOM      3  H3  UNL     1     -17.362 -26.824  18.324  1.00  0.00     0.186 HD
HETATM    4  C4  UNL     1     -17.044 -26.198  20.293  1.00  0.00     0.128 A 
HETATM    5  C5  UNL     1     -15.915 -26.229  21.071  1.00  0.00     0.091 A 
HETATM    6  C9  UNL     1     -14.937 -26.788  20.278  1.00  0.00     0.157 A 
HETATM    7  N5  UNL     1     -13.596 -27.026  20.646  1.00  0.00    -0.080 NA
ENDROOT
BRANCH   1   8
HETATM    8  C3  UNL     1     -14.740 -27.681  17.965  1.00  0.00     0.133 A 
HETATM    9  C2  UNL     1     -15.328 -28.661  17.174  1.00  0.00     0.098 A 
HETATM   10  C1  UNL     1     -14.629 -29.216  16.124  1.00  0.00     0.103 A 
HETATM   11  N1  UNL     1     -15.145 -30.124  15.372  1.00  0.00    -0.385 N 
HETATM   12  N7  UNL     1     -13.372 -28.836  15.829  1.00  0.00    -0.339 N 
ATOM     13  H12 UNL     1     -16.098 -30.411  15.596  1.00  0.00     0.157 HD
ATOM     14  H11 UNL     1     -14.628 -30.535  14.595  1.00  0.00     0.157 HD
HETATM   15  C10 UNL     1     -12.811 -27.886  16.600  1.00  0.00     0.183 A 
ATOM     16  H7  UNL     1     -12.863 -29.252  15.050  1.00  0.00     0.168 HD
HETATM   17  N6  UNL     1     -13.483 -27.335  17.632  1.00  0.00    -0.337 N 
ATOM     18  H6  UNL     1     -13.015 -26.619  18.188  1.00  0.00     0.168 HD
ENDBRANCH   1   8
BRANCH   5  19
HETATM   19  C6  UNL     1     -15.758 -25.767  22.465  1.00  0.00     0.256 C 
HETATM   20  O1  UNL     1     -15.142 -24.708  22.687  1.00  0.00    -0.267 OA
HETATM   21  N4  UNL     1     -16.301 -26.517  23.512  1.00  0.00    -0.355 N 
ATOM     22  H4  UNL     1     -16.802 -27.375  23.283  1.00  0.00     0.162 HD
BRANCH  21  23
HETATM   23  C7  UNL     1     -16.188 -26.142  24.893  1.00  0.00     0.148 C 
BRANCH  23  24
HETATM   24  C8  UNL     1     -17.392 -26.551  25.694  1.00  0.00     0.183 C 
BRANCH  24  25
HETATM   25  O2  UNL     1     -17.428 -27.933  25.889  1.00  0.00    -0.399 OA
ATOM     26  H2  UNL     1     -17.301 -28.158  26.803  1.00  0.00     0.209 HD
ENDBRANCH  24  25
ENDBRANCH  23  24
ENDBRANCH  21  23
ENDBRANCH   5  19
TORSDOF 5
ENDMDL
MODEL 4
REMARK VINA RESULT: -7.237756101      2.836      6.737
REMARK  5 active torsions:
REMARK  status: ('A' for Active; 'I' for Inactive)
REMARK    1  A    between atoms: C3_6  and  N2_7 
REMARK    2  A    between atoms: C5_11  and  C6_12 
REMARK       I    between atoms: C6_12  and  N4_14 
REMARK    3  A    between atoms: N4_14  and  C7_16 
REMARK    4  A    between atoms: C7_16  and  C8_17 
REMARK    5  A    between atoms: C8_17  and  O2_18 
ROOT
HETATM    1  N2  UNL     1     -14.617 -27.179  22.391  1.00  0.00    -0.225 N 
HETATM    2  N3  UNL     1     -13.302 -27.138  22.269  1.00  0.00    -0.301 N 
ATOM      3  H3  UNL     1     -12.656 -27.115  23.058  1.00  0.00     0.186 HD
HETATM    4  C4  UNL     1     -12.916 -27.130  20.985  1.00  0.00     0.128 A 
HETATM    5  C5  UNL     1     -14.059 -27.169  20.227  1.00  0.00     0.091 A 
HETATM    6  C9  UNL     1     -15.099 -27.199  21.129  1.00  0.00     0.157 A 
HETATM    7  N5  UNL     1     -16.475 -27.243  20.819  1.00  0.00    -0.080 NA
ENDROOT
BRANCH   1   8
HETATM    8  C3  UNL     1     -15.384 -27.200  23.600  1.00  0.00     0.133 A 
HETATM    9  C2  UNL     1     -15.368 -28.301  24.447  1.00  0.00     0.098 A 
HETATM   10  C1  UNL     1     -16.115 -28.295  25.605  1.00  0.00     0.103 A 
HETATM   11  N1  UNL     1     -16.121 -29.298  26.411  1.00  0.00    -0.385 N 
HETATM   12  N7  UNL     1     -16.874 -27.240  25.954  1.00  0.00    -0.339 N 
ATOM     13  H12 UNL     1     -15.546 -30.097  26.147  1.00  0.00     0.157 HD
ATOM     14  H11 UNL     1     -16.674 -29.295  27.269  1.00  0.00     0.157 HD
HETATM   15  C10 UNL     1     -16.883 -26.178  25.128  1.00  0.00     0.183 A 
ATOM     16  H7  UNL     1     -17.423 -27.245  26.813  1.00  0.00     0.168 HD
HETATM   17  N6  UNL     1     -16.157 -26.170  23.990  1.00  0.00    -0.337 N 
ATOM     18  H6  UNL     1     -16.197 -25.343  23.396  1.00  0.00     0.168 HD
ENDBRANCH   1   8
BRANCH   5  19
HETATM   19  C6  UNL     1     -14.173 -27.178  18.754  1.00  0.00     0.256 C 
HETATM   20  O1  UNL     1     -13.188 -27.520  18.072  1.00  0.00    -0.267 OA
HETATM   21  N4  UNL     1     -15.375 -26.806  18.146  1.00  0.00    -0.355 N 
ATOM     22  H4  UNL     1     -16.157 -26.539  18.744  1.00  0.00     0.162 HD
BRANCH  21  23
HETATM   23  C7  UNL     1     -15.567 -26.782  16.723  1.00  0.00     0.148 C 
BRANCH  23  24
HETATM   24  C8  UNL     1     -16.529 -27.839  16.260  1.00  0.00     0.183 C 
BRANCH  24  25
HETATM   25  O2  UNL     1     -17.838 -27.538  16.642  1.00  0.00    -0.399 OA
ATOM     26  H2  UNL     1     -18.380 -28.318  16.663  1.00  0.00     0.209 HD
ENDBRANCH  24  25
ENDBRANCH  23  24
ENDBRANCH  21  23
ENDBRANCH   5  19
TORSDOF 5
ENDMDL
MODEL 5
REMARK VINA RESULT: -7.169713887      2.075      2.904
REMARK  5 active torsions:
REMARK  status: ('A' for Active; 'I' for Inactive)
REMARK    1  A    between atoms: C3_6  and  N2_7 
REMARK    2  A    between atoms: C5_11  and  C6_12 
REMARK       I    between atoms: C6_12  and  N4_14 
REMARK    3  A    between atoms: N4_14  and  C7_16 
REMARK    4  A    between atoms: C7_16  and  C8_17 
REMARK    5  A    between atoms: C8_17  and  O2_18 
ROOT
HETATM    1  N2  UNL     1     -15.228 -26.494  21.321  1.00  0.00    -0.225 N 
HETATM    2  N3  UNL     1     -15.894 -25.557  21.972  1.00  0.00    -0.301 N 
ATOM      3  H3  UNL     1     -16.515 -24.883  21.523  1.00  0.00     0.186 HD
HETATM    4  C4  UNL     1     -15.658 -25.595  23.291  1.00  0.00     0.128 A 
HETATM    5  C5  UNL     1     -14.781 -26.628  23.507  1.00  0.00     0.091 A 
HETATM    6  C9  UNL     1     -14.533 -27.166  22.265  1.00  0.00     0.157 A 
HETATM    7  N5  UNL     1     -13.683 -28.256  21.980  1.00  0.00    -0.080 NA
ENDROOT
BRANCH   1   8
HETATM    8  C3  UNL     1     -15.232 -26.755  19.914  1.00  0.00     0.133 A 
HETATM    9  C2  UNL     1     -16.422 -26.891  19.208  1.00  0.00     0.098 A 
HETATM   10  C1  UNL     1     -16.399 -27.141  17.853  1.00  0.00     0.103 A 
HETATM   11  N1  UNL     1     -17.482 -27.272  17.171  1.00  0.00    -0.385 N 
HETATM   12  N7  UNL     1     -15.243 -27.261  17.174  1.00  0.00    -0.339 N 
ATOM     13  H12 UNL     1     -18.357 -27.182  17.686  1.00  0.00     0.157 HD
ATOM     14  H11 UNL     1     -17.466 -27.458  16.168  1.00  0.00     0.157 HD
HETATM   15  C10 UNL     1     -14.097 -27.127  17.865  1.00  0.00     0.183 A 
ATOM     16  H7  UNL     1     -15.236 -27.446  16.171  1.00  0.00     0.168 HD
HETATM   17  N6  UNL     1     -14.104 -26.882  19.192  1.00  0.00    -0.337 N 
ATOM     18  H6  UNL     1     -13.210 -26.789  19.673  1.00  0.00     0.168 HD
ENDBRANCH   1   8
BRANCH   5  19
HETATM   19  C6  UNL     1     -14.211 -27.082  24.792  1.00  0.00     0.256 C 
HETATM   20  O1  UNL     1     -13.586 -26.268  25.500  1.00  0.00    -0.267 OA
HETATM   21  N4  UNL     1     -14.378 -28.408  25.198  1.00  0.00    -0.355 N 
ATOM     22  H4  UNL     1     -14.901 -29.037  24.590  1.00  0.00     0.162 HD
BRANCH  21  23
HETATM   23  C7  UNL     1     -13.851 -28.931  26.428  1.00  0.00     0.148 C 
BRANCH  23  24
HETATM   24  C8  UNL     1     -14.680 -30.062  26.966  1.00  0.00     0.183 C 
BRANCH  24  25
HETATM   25  O2  UNL     1     -16.041 -29.749  26.949  1.00  0.00    -0.399 OA
ATOM     26  H2  UNL     1     -16.521 -30.258  27.590  1.00  0.00     0.209 HD
ENDBRANCH  24  25
ENDBRANCH  23  24
ENDBRANCH  21  23
ENDBRANCH   5  19
TORSDOF 5
ENDMDL
