MODEL 1
REMARK VINA RESULT: -8.169614822      0.000      0.000
REMARK  6 active torsions:
REMARK  status: ('A' for Active; 'I' for Inactive)
REMARK    1  A    between atoms: N2_3  and  C2_4 
REMARK    2  A    between atoms: N2_3  and  C5_17 
REMARK    3  A    between atoms: C2_4  and  S1_5 
REMARK    4  A    between atoms: S1_5  and  C3_6 
REMARK    5  A    between atoms: C4_9  and  N4_10 
REMARK    6  A    between atoms: C6_20  and  N8_21 
ROOT
HETATM    1  N1  UNL     1     -17.782 -26.798  20.199  1.00  0.00    -0.171 NA
HETATM    2  C1  UNL     1     -16.608 -26.735  20.277  1.00  0.00     0.204 C 
HETATM    3  N2  UNL     1     -15.196 -26.688  20.330  1.00  0.00    -0.084 N 
ENDROOT
BRANCH   3   4
HETATM    4  C2  UNL     1     -14.516 -26.024  21.375  1.00  0.00     0.180 C 
BRANCH   4   5
HETATM    5  S1  UNL     1     -14.150 -26.967  22.846  1.00  0.00    -0.045 SA
BRANCH   5   6
HETATM    6  C3  UNL     1     -15.490 -27.065  24.007  1.00  0.00     0.179 A 
HETATM    7  N3  UNL     1     -15.832 -28.173  24.738  1.00  0.00    -0.168 N 
HETATM    8  C4  UNL     1     -16.894 -27.906  25.507  1.00  0.00     0.692 A 
ATOM      9  H3  UNL     1     -15.348 -29.070  24.702  1.00  0.00     0.186 HD
HETATM   10  N5  UNL     1     -17.203 -26.627  25.244  1.00  0.00    -0.130 N 
HETATM   11  N6  UNL     1     -16.373 -26.118  24.351  1.00  0.00    -0.265 N 
ATOM     12  H5  UNL     1     -17.973 -26.117  25.675  1.00  0.00     0.205 HD
ATOM     13  H6  UNL     1     -16.400 -25.166  23.985  1.00  0.00     0.189 HD
BRANCH   8  14
HETATM   14  N4  UNL     1     -17.518 -28.673  26.333  1.00  0.00    -0.233 N 
ATOM     15  H42 UNL     1     -17.110 -29.462  26.834  1.00  0.00     0.174 HD
ATOM     16  H41 UNL     1     -18.492 -28.643  26.633  1.00  0.00     0.174 HD
ENDBRANCH   8  14
ENDBRANCH   5   6
ENDBRANCH   4   5
ENDBRANCH   3   4
BRANCH   3  17
HETATM   17  C5  UNL     1     -14.488 -27.348  19.270  1.00  0.00     0.716 A 
HETATM   18  N7  UNL     1     -15.153 -28.277  18.522  1.00  0.00    -0.021 N 
HETATM   19  C6  UNL     1     -14.566 -28.929  17.508  1.00  0.00     0.694 A 
ATOM     20  H7  UNL     1     -16.127 -28.483  18.742  1.00  0.00     0.203 HD
HETATM   21  N9  UNL     1     -13.278 -28.687  17.183  1.00  0.00    -0.141 N 
HETATM   22  C7  UNL     1     -12.616 -27.781  17.907  1.00  0.00     0.352 A 
ATOM     23  H9  UNL     1     -12.826 -29.179  16.412  1.00  0.00     0.189 HD
HETATM   24  O1  UNL     1     -11.410 -27.534  17.626  1.00  0.00    -0.246 OA
HETATM   25  N10 UNL     1     -13.227 -27.118  18.945  1.00  0.00    -0.139 N 
ATOM     26  H10 UNL     1     -12.694 -26.431  19.479  1.00  0.00     0.189 HD
BRANCH  19  27
HETATM   27  N8  UNL     1     -15.199 -29.807  16.806  1.00  0.00    -0.234 N 
ATOM     28  H82 UNL     1     -16.182 -29.963  17.028  1.00  0.00     0.174 HD
ATOM     29  H81 UNL     1     -14.742 -30.327  16.058  1.00  0.00     0.174 HD
ENDBRANCH  19  27
ENDBRANCH   3  17
TORSDOF 6
ENDMDL
MODEL 2
REMARK VINA RESULT: -8.163910829      3.178      7.077
REMARK  6 active torsions:
REMARK  status: ('A' for Active; 'I' for Inactive)
REMARK    1  A    between atoms: N2_3  and  C2_4 
REMARK    2  A    between atoms: N2_3  and  C5_17 
REMARK    3  A    between atoms: C2_4  and  S1_5 
REMARK    4  A    between atoms: S1_5  and  C3_6 
REMARK    5  A    between atoms: C4_9  and  N4_10 
REMARK    6  A    between atoms: C6_20  and  N8_21 
ROOT
HETATM    1  N1  UNL     1     -14.346 -23.629  23.556  1.00  0.00    -0.171 NA
HETATM    2  C1  UNL     1     -14.798 -24.663  23.221  1.00  0.00     0.204 C 
HETATM    3  N2  UNL     1     -15.353 -25.915  22.866  1.00  0.00    -0.084 N 
ENDROOT
BRANCH   3   4
HETATM    4  C2  UNL     1     -15.299 -26.399  21.540  1.00  0.00     0.180 C 
BRANCH   4   5
HETATM    5  S1  UNL     1     -16.672 -26.010  20.468  1.00  0.00    -0.045 SA
BRANCH   5   6
HETATM    6  C3  UNL     1     -16.659 -26.870  18.915  1.00  0.00     0.179 A 
HETATM    7  N3  UNL     1     -15.813 -27.896  18.580  1.00  0.00    -0.168 N 
HETATM    8  C4  UNL     1     -16.066 -28.309  17.333  1.00  0.00     0.692 A 
ATOM      9  H3  UNL     1     -15.097 -28.287  19.191  1.00  0.00     0.186 HD
HETATM   10  N5  UNL     1     -17.072 -27.531  16.903  1.00  0.00    -0.130 N 
HETATM   11  N6  UNL     1     -17.430 -26.670  17.839  1.00  0.00    -0.265 N 
ATOM     12  H5  UNL     1     -17.501 -27.596  15.981  1.00  0.00     0.205 HD
ATOM     13  H6  UNL     1     -18.170 -25.972  17.755  1.00  0.00     0.189 HD
BRANCH   8  14
HETATM   14  N4  UNL     1     -15.498 -29.243  16.650  1.00  0.00    -0.233 N 
ATOM     15  H42 UNL     1     -15.936 -29.779  15.900  1.00  0.00     0.174 HD
ATOM     16  H41 UNL     1     -14.550 -29.611  16.721  1.00  0.00     0.174 HD
ENDBRANCH   8  14
ENDBRANCH   5   6
ENDBRANCH   4   5
ENDBRANCH   3   4
BRANCH   3  17
HETATM   17  C5  UNL     1     -15.973 -26.668  23.919  1.00  0.00     0.716 A 
HETATM   18  N7  UNL     1     -15.648 -27.988  24.055  1.00  0.00    -0.021 N 
HETATM   19  C6  UNL     1     -16.174 -28.756  25.019  1.00  0.00     0.694 A 
ATOM     20  H7  UNL     1     -14.983 -28.402  23.402  1.00  0.00     0.203 HD
HETATM   21  N9  UNL     1     -17.059 -28.248  25.904  1.00  0.00    -0.141 N 
HETATM   22  C7  UNL     1     -17.386 -26.959  25.781  1.00  0.00     0.352 A 
ATOM     23  H9  UNL     1     -17.462 -28.827  26.640  1.00  0.00     0.189 HD
HETATM   24  O1  UNL     1     -18.211 -26.456  26.595  1.00  0.00    -0.246 OA
HETATM   25  N10 UNL     1     -16.839 -26.179  24.789  1.00  0.00    -0.139 N 
ATOM     26  H10 UNL     1     -17.110 -25.197  24.723  1.00  0.00     0.189 HD
BRANCH  19  27
HETATM   27  N8  UNL     1     -15.865 -30.002  25.141  1.00  0.00    -0.234 N 
ATOM     28  H82 UNL     1     -15.258 -30.259  25.920  1.00  0.00     0.174 HD
ATOM     29  H81 UNL     1     -16.209 -30.708  24.492  1.00  0.00     0.174 HD
ENDBRANCH  19  27
ENDBRANCH   3  17
TORSDOF 6
ENDMDL
MODEL 3
REMARK VINA RESULT: -7.956912240      2.762      7.025
REMARK  6 active torsions:
REMARK  status: ('A' for Active; 'I' for Inactive)
REMARK    1  A    between atoms: N2_3  and  C2_4 
REMARK    2  A    between atoms: N2_3  and  C5_17 
REMARK    3  A    between atoms: C2_4  and  S1_5 
REMARK    4  A    between atoms: S1_5  and  C3_6 
REMARK    5  A    between atoms: C4_9  and  N4_10 
REMARK    6  A    between atoms: C6_20  and  N8_21 
ROOT
HETATM    1  N1  UNL     1     -14.444 -23.551  23.563  1.00  0.00    -0.171 NA
HETATM    2  C1  UNL     1     -14.816 -24.601  23.183  1.00  0.00     0.204 C 
HETATM    3  N2  UNL     1     -15.274 -25.876  22.773  1.00  0.00    -0.084 N 
ENDROOT
BRANCH   3   4
HETATM    4  C2  UNL     1     -15.218 -26.283  21.422  1.00  0.00     0.180 C 
BRANCH   4   5
HETATM    5  S1  UNL     1     -16.677 -26.026  20.426  1.00  0.00    -0.045 SA
BRANCH   5   6
HETATM    6  C3  UNL     1     -16.668 -26.887  18.873  1.00  0.00     0.179 A 
HETATM    7  N3  UNL     1     -15.814 -27.904  18.531  1.00  0.00    -0.168 N 
HETATM    8  C4  UNL     1     -16.073 -28.320  17.286  1.00  0.00     0.692 A 
ATOM      9  H3  UNL     1     -15.087 -28.286  19.135  1.00  0.00     0.186 HD
HETATM   10  N5  UNL     1     -17.091 -27.554  16.866  1.00  0.00    -0.130 N 
HETATM   11  N6  UNL     1     -17.451 -26.697  17.804  1.00  0.00    -0.265 N 
ATOM     12  H5  UNL     1     -17.528 -27.625  15.947  1.00  0.00     0.205 HD
ATOM     13  H6  UNL     1     -18.199 -26.007  17.727  1.00  0.00     0.189 HD
BRANCH   8  14
HETATM   14  N4  UNL     1     -15.501 -29.248  16.599  1.00  0.00    -0.233 N 
ATOM     15  H42 UNL     1     -15.605 -29.391  15.594  1.00  0.00     0.174 HD
ATOM     16  H41 UNL     1     -14.866 -29.984  16.908  1.00  0.00     0.174 HD
ENDBRANCH   8  14
ENDBRANCH   5   6
ENDBRANCH   4   5
ENDBRANCH   3   4
BRANCH   3  17
HETATM   17  C5  UNL     1     -15.798 -26.733  23.798  1.00  0.00     0.716 A 
HETATM   18  N7  UNL     1     -16.709 -26.218  24.676  1.00  0.00    -0.021 N 
HETATM   19  C6  UNL     1     -17.254 -26.956  25.653  1.00  0.00     0.694 A 
ATOM     20  H7  UNL     1     -16.983 -25.240  24.586  1.00  0.00     0.203 HD
HETATM   21  N9  UNL     1     -16.918 -28.255  25.809  1.00  0.00    -0.141 N 
HETATM   22  C7  UNL     1     -16.029 -28.771  24.957  1.00  0.00     0.352 A 
ATOM     23  H9  UNL     1     -17.330 -28.822  26.550  1.00  0.00     0.189 HD
HETATM   24  O1  UNL     1     -15.696 -29.983  25.078  1.00  0.00    -0.246 OA
HETATM   25  N10 UNL     1     -15.476 -28.005  23.957  1.00  0.00    -0.139 N 
ATOM     26  H10 UNL     1     -14.799 -28.430  23.322  1.00  0.00     0.189 HD
BRANCH  19  27
HETATM   27  N8  UNL     1     -18.111 -26.463  26.481  1.00  0.00    -0.234 N 
ATOM     28  H82 UNL     1     -17.805 -25.684  27.064  1.00  0.00     0.174 HD
ATOM     29  H81 UNL     1     -19.060 -26.831  26.555  1.00  0.00     0.174 HD
ENDBRANCH  19  27
ENDBRANCH   3  17
TORSDOF 6
ENDMDL
MODEL 4
REMARK VINA RESULT: -7.894361275      1.156      1.805
REMARK  6 active torsions:
REMARK  status: ('A' for Active; 'I' for Inactive)
REMARK    1  A    between atoms: N2_3  and  C2_4 
REMARK    2  A    between atoms: N2_3  and  C5_17 
REMARK    3  A    between atoms: C2_4  and  S1_5 
REMARK    4  A    between atoms: S1_5  and  C3_6 
REMARK    5  A    between atoms: C4_9  and  N4_10 
REMARK    6  A    between atoms: C6_20  and  N8_21 
ROOT
HETATM    1  N1  UNL     1     -17.830 -26.658  20.259  1.00  0.00    -0.171 NA
HETATM    2  C1  UNL     1     -16.653 -26.676  20.283  1.00  0.00     0.204 C 
HETATM    3  N2  UNL     1     -15.239 -26.724  20.269  1.00  0.00    -0.084 N 
ENDROOT
BRANCH   3   4
HETATM    4  C2  UNL     1     -14.470 -26.179  21.321  1.00  0.00     0.180 C 
BRANCH   4   5
HETATM    5  S1  UNL     1     -14.188 -27.211  22.751  1.00  0.00    -0.045 SA
BRANCH   5   6
HETATM    6  C3  UNL     1     -15.506 -27.193  23.940  1.00  0.00     0.179 A 
HETATM    7  N3  UNL     1     -15.878 -28.249  24.733  1.00  0.00    -0.168 N 
HETATM    8  C4  UNL     1     -16.912 -27.898  25.506  1.00  0.00     0.692 A 
ATOM      9  H3  UNL     1     -15.433 -29.166  24.732  1.00  0.00     0.186 HD
HETATM   10  N5  UNL     1     -17.173 -26.622  25.185  1.00  0.00    -0.130 N 
HETATM   11  N6  UNL     1     -16.341 -26.194  24.252  1.00  0.00    -0.265 N 
ATOM     12  H5  UNL     1     -17.912 -26.059  25.605  1.00  0.00     0.205 HD
ATOM     13  H6  UNL     1     -16.336 -25.261  23.840  1.00  0.00     0.189 HD
BRANCH   8  14
HETATM   14  N4  UNL     1     -17.551 -28.596  26.382  1.00  0.00    -0.233 N 
ATOM     15  H42 UNL     1     -18.233 -29.325  26.176  1.00  0.00     0.174 HD
ATOM     16  H41 UNL     1     -17.503 -28.557  27.400  1.00  0.00     0.174 HD
ENDBRANCH   8  14
ENDBRANCH   5   6
ENDBRANCH   4   5
ENDBRANCH   3   4
BRANCH   3  17
HETATM   17  C5  UNL     1     -14.625 -27.351  19.134  1.00  0.00     0.716 A 
HETATM   18  N7  UNL     1     -13.303 -27.108  18.891  1.00  0.00    -0.021 N 
HETATM   19  C6  UNL     1     -12.654 -27.664  17.858  1.00  0.00     0.694 A 
ATOM     20  H7  UNL     1     -12.793 -26.483  19.515  1.00  0.00     0.203 HD
HETATM   21  N9  UNL     1     -13.291 -28.497  17.007  1.00  0.00    -0.141 N 
HETATM   22  C7  UNL     1     -14.584 -28.742  17.233  1.00  0.00     0.352 A 
ATOM     23  H9  UNL     1     -12.803 -28.923  16.220  1.00  0.00     0.189 HD
HETATM   24  O1  UNL     1     -15.207 -29.517  16.454  1.00  0.00    -0.246 OA
HETATM   25  N10 UNL     1     -15.241 -28.167  18.296  1.00  0.00    -0.139 N 
ATOM     26  H10 UNL     1     -16.230 -28.375  18.441  1.00  0.00     0.189 HD
BRANCH  19  27
HETATM   27  N8  UNL     1     -11.406 -27.430  17.632  1.00  0.00    -0.234 N 
ATOM     28  H82 UNL     1     -10.804 -28.234  17.454  1.00  0.00     0.174 HD
ATOM     29  H81 UNL     1     -11.029 -26.482  17.629  1.00  0.00     0.174 HD
ENDBRANCH  19  27
ENDBRANCH   3  17
TORSDOF 6
ENDMDL
MODEL 5
REMARK VINA RESULT: -7.834042769      1.965      2.648
REMARK  6 active torsions:
REMARK  status: ('A' for Active; 'I' for Inactive)
REMARK    1  A    between atoms: N2_3  and  C2_4 
REMARK    2  A    between atoms: N2_3  and  C5_17 
REMARK    3  A    between atoms: C2_4  and  S1_5 
REMARK    4  A    between atoms: S1_5  and  C3_6 
REMARK    5  A    between atoms: C4_9  and  N4_10 
REMARK    6  A    between atoms: C6_20  and  N8_21 
ROOT
HETATM    1  N1  UNL     1     -12.329 -26.738  20.738  1.00  0.00    -0.171 NA
HETATM    2  C1  UNL     1     -13.481 -26.743  20.495  1.00  0.00     0.204 C 
HETATM    3  N2  UNL     1     -14.854 -26.764  20.156  1.00  0.00    -0.084 N 
ENDROOT
BRANCH   3   4
HETATM    4  C2  UNL     1     -15.847 -26.341  21.067  1.00  0.00     0.180 C 
BRANCH   4   5
HETATM    5  S1  UNL     1     -15.303 -25.763  22.665  1.00  0.00    -0.045 SA
BRANCH   5   6
HETATM    6  C3  UNL     1     -15.978 -26.661  24.040  1.00  0.00     0.179 A 
HETATM    7  N3  UNL     1     -15.547 -27.885  24.481  1.00  0.00    -0.168 N 
HETATM    8  C4  UNL     1     -16.279 -28.278  25.530  1.00  0.00     0.692 A 
ATOM      9  H3  UNL     1     -14.782 -28.420  24.070  1.00  0.00     0.186 HD
HETATM   10  N5  UNL     1     -17.162 -27.288  25.731  1.00  0.00    -0.130 N 
HETATM   11  N6  UNL     1     -16.991 -26.321  24.848  1.00  0.00    -0.265 N 
ATOM     12  H5  UNL     1     -17.868 -27.282  26.466  1.00  0.00     0.205 HD
ATOM     13  H6  UNL     1     -17.537 -25.461  24.791  1.00  0.00     0.189 HD
BRANCH   8  14
HETATM   14  N4  UNL     1     -16.194 -29.359  26.227  1.00  0.00    -0.233 N 
ATOM     15  H42 UNL     1     -15.977 -30.285  25.860  1.00  0.00     0.174 HD
ATOM     16  H41 UNL     1     -16.322 -29.494  27.230  1.00  0.00     0.174 HD
ENDBRANCH   8  14
ENDBRANCH   5   6
ENDBRANCH   4   5
ENDBRANCH   3   4
BRANCH   3  17
HETATM   17  C5  UNL     1     -15.188 -27.237  18.843  1.00  0.00     0.716 A 
HETATM   18  N7  UNL     1     -14.198 -27.781  18.075  1.00  0.00    -0.021 N 
HETATM   19  C6  UNL     1     -14.431 -28.255  16.843  1.00  0.00     0.694 A 
ATOM     20  H7  UNL     1     -13.251 -27.827  18.450  1.00  0.00     0.203 HD
HETATM   21  N9  UNL     1     -15.669 -28.213  16.307  1.00  0.00    -0.141 N 
HETATM   22  C7  UNL     1     -16.646 -27.683  17.047  1.00  0.00     0.352 A 
ATOM     23  H9  UNL     1     -15.853 -28.572  15.370  1.00  0.00     0.189 HD
HETATM   24  O1  UNL     1     -17.816 -27.629  16.573  1.00  0.00    -0.246 OA
HETATM   25  N10 UNL     1     -16.397 -27.199  18.311  1.00  0.00    -0.139 N 
ATOM     26  H10 UNL     1     -17.166 -26.801  18.851  1.00  0.00     0.189 HD
BRANCH  19  27
HETATM   27  N8  UNL     1     -13.492 -28.766  16.121  1.00  0.00    -0.234 N 
ATOM     28  H82 UNL     1     -12.755 -28.138  15.800  1.00  0.00     0.174 HD
ATOM     29  H81 UNL     1     -13.478 -29.757  15.879  1.00  0.00     0.174 HD
ENDBRANCH  19  27
ENDBRANCH   3  17
TORSDOF 6
ENDMDL
