MODEL 1
REMARK VINA RESULT: -7.882382880      0.000      0.000
REMARK  7 active torsions:
REMARK  status: ('A' for Active; 'I' for Inactive)
REMARK    1  A    between atoms: C1_4  and  N2_5 
REMARK    2  A    between atoms: C1_4  and  S1_10 
REMARK    3  A    between atoms: N2_5  and  N3_7 
REMARK    4  A    between atoms: S1_10  and  C2_11 
REMARK    5  A    between atoms: C2_11  and  C3_12 
REMARK    6  A    between atoms: C3_12  and  N4_13 
REMARK    7  A    between atoms: C6_23  and  N8_24 
ROOT
HETATM    1  N4  UNL     1     -15.851 -26.143  20.692  1.00  0.00    -0.259 N 
HETATM    2  N5  UNL     1     -17.151 -26.088  20.536  1.00  0.00    -0.238 N 
ATOM      3  H5  UNL     1     -17.801 -25.740  21.240  1.00  0.00     0.208 HD
HETATM    4  N6  UNL     1     -17.511 -26.544  19.342  1.00  0.00    -0.278 N 
ATOM      5  H6  UNL     1     -18.466 -26.602  18.986  1.00  0.00     0.189 HD
HETATM    6  C4  UNL     1     -16.401 -26.914  18.683  1.00  0.00     0.164 A 
HETATM    7  C5  UNL     1     -16.192 -27.448  17.428  1.00  0.00     0.291 A 
HETATM    8  O1  UNL     1     -17.105 -27.700  16.609  1.00  0.00    -0.265 OA
HETATM    9  N7  UNL     1     -14.919 -27.700  17.096  1.00  0.00    -0.154 N 
ATOM     10  H7  UNL     1     -14.721 -28.094  16.177  1.00  0.00     0.187 HD
HETATM   11  C6  UNL     1     -13.895 -27.453  17.927  1.00  0.00     0.680 A 
HETATM   12  N9  UNL     1     -14.094 -26.928  19.163  1.00  0.00    -0.173 N 
ATOM     13  H9  UNL     1     -13.305 -26.745  19.783  1.00  0.00     0.186 HD
HETATM   14  C7  UNL     1     -15.352 -26.654  19.553  1.00  0.00     0.172 A 
ENDROOT
BRANCH   1  15
HETATM   15  C3  UNL     1     -15.067 -25.730  21.869  1.00  0.00     0.163 C 
BRANCH  15  16
HETATM   16  C2  UNL     1     -15.128 -26.890  22.822  1.00  0.00     0.104 C 
BRANCH  16  17
HETATM   17  S1  UNL     1     -15.870 -26.381  24.382  1.00  0.00    -0.091 SA
BRANCH  17  18
HETATM   18  C1  UNL     1     -15.958 -27.743  25.503  1.00  0.00     0.152 C 
HETATM   19  N1  UNL     1     -14.991 -28.048  26.272  1.00  0.00    -0.379 N 
ATOM     20  H12 UNL     1     -15.042 -28.834  26.919  1.00  0.00     0.158 HD
ATOM     21  H11 UNL     1     -14.143 -27.482  26.254  1.00  0.00     0.158 HD
BRANCH  18  22
HETATM   22  N2  UNL     1     -17.140 -28.531  25.527  1.00  0.00    -0.287 N 
ATOM     23  H2  UNL     1     -17.405 -29.056  24.694  1.00  0.00     0.188 HD
BRANCH  22  24
HETATM   24  N3  UNL     1     -17.939 -28.603  26.654  1.00  0.00    -0.343 N 
ATOM     25  H32 UNL     1     -18.366 -27.744  26.998  1.00  0.00     0.176 HD
ATOM     26  H31 UNL     1     -18.103 -29.487  27.136  1.00  0.00     0.176 HD
ENDBRANCH  22  24
ENDBRANCH  18  22
ENDBRANCH  17  18
ENDBRANCH  16  17
ENDBRANCH  15  16
ENDBRANCH   1  15
BRANCH  11  27
HETATM   27  N8  UNL     1     -12.661 -27.697  17.604  1.00  0.00    -0.234 N 
ATOM     28  H82 UNL     1     -12.517 -28.428  16.906  1.00  0.00     0.174 HD
ATOM     29  H81 UNL     1     -11.876 -27.194  18.018  1.00  0.00     0.174 HD
ENDBRANCH  11  27
TORSDOF 7
ENDMDL
MODEL 2
REMARK VINA RESULT: -7.712938935      1.682      2.073
REMARK  7 active torsions:
REMARK  status: ('A' for Active; 'I' for Inactive)
REMARK    1  A    between atoms: C1_4  and  N2_5 
REMARK    2  A    between atoms: C1_4  and  S1_10 
REMARK    3  A    between atoms: N2_5  and  N3_7 
REMARK    4  A    between atoms: S1_10  and  C2_11 
REMARK    5  A    between atoms: C2_11  and  C3_12 
REMARK    6  A    between atoms: C3_12  and  N4_13 
REMARK    7  A    between atoms: C6_23  and  N8_24 
ROOT
HETATM    1  N4  UNL     1     -16.425 -26.691  18.664  1.00  0.00    -0.259 N 
HETATM    2  N5  UNL     1     -17.465 -27.000  17.930  1.00  0.00    -0.238 N 
ATOM      3  H5  UNL     1     -18.425 -26.736  18.150  1.00  0.00     0.208 HD
HETATM    4  N6  UNL     1     -17.106 -27.702  16.861  1.00  0.00    -0.278 N 
ATOM      5  H6  UNL     1     -17.735 -28.058  16.140  1.00  0.00     0.189 HD
HETATM    6  C4  UNL     1     -15.773 -27.862  16.893  1.00  0.00     0.164 A 
HETATM    7  C5  UNL     1     -14.886 -28.498  16.050  1.00  0.00     0.291 A 
HETATM    8  O1  UNL     1     -15.218 -29.097  15.001  1.00  0.00    -0.265 OA
HETATM    9  N7  UNL     1     -13.595 -28.455  16.405  1.00  0.00    -0.154 N 
ATOM     10  H7  UNL     1     -12.907 -28.913  15.808  1.00  0.00     0.187 HD
HETATM   11  C6  UNL     1     -13.174 -27.832  17.516  1.00  0.00     0.680 A 
HETATM   12  N9  UNL     1     -14.042 -27.204  18.350  1.00  0.00    -0.173 N 
ATOM     13  H9  UNL     1     -13.707 -26.733  19.190  1.00  0.00     0.186 HD
HETATM   14  C7  UNL     1     -15.352 -27.214  18.046  1.00  0.00     0.172 A 
ENDROOT
BRANCH   1  15
HETATM   15  C3  UNL     1     -16.406 -25.921  19.921  1.00  0.00     0.163 C 
BRANCH  15  16
HETATM   16  C2  UNL     1     -16.314 -26.943  21.018  1.00  0.00     0.104 C 
BRANCH  16  17
HETATM   17  S1  UNL     1     -15.278 -26.332  22.358  1.00  0.00    -0.091 SA
BRANCH  17  18
HETATM   18  C1  UNL     1     -15.184 -27.518  23.664  1.00  0.00     0.152 C 
HETATM   19  N1  UNL     1     -14.167 -28.264  23.826  1.00  0.00    -0.379 N 
ATOM     20  H12 UNL     1     -14.113 -28.949  24.580  1.00  0.00     0.158 HD
ATOM     21  H11 UNL     1     -13.372 -28.167  23.194  1.00  0.00     0.158 HD
BRANCH  18  22
HETATM   22  N2  UNL     1     -16.291 -27.652  24.543  1.00  0.00    -0.287 N 
ATOM     23  H2  UNL     1     -16.756 -26.814  24.891  1.00  0.00     0.188 HD
BRANCH  22  24
HETATM   24  N3  UNL     1     -16.754 -28.894  24.939  1.00  0.00    -0.343 N 
ATOM     25  H32 UNL     1     -17.026 -29.019  25.914  1.00  0.00     0.176 HD
ATOM     26  H31 UNL     1     -16.825 -29.672  24.283  1.00  0.00     0.176 HD
ENDBRANCH  22  24
ENDBRANCH  18  22
ENDBRANCH  17  18
ENDBRANCH  16  17
ENDBRANCH  15  16
ENDBRANCH   1  15
BRANCH  11  27
HETATM   27  N8  UNL     1     -11.922 -27.790  17.859  1.00  0.00    -0.234 N 
ATOM     28  H82 UNL     1     -11.686 -27.145  18.614  1.00  0.00     0.174 HD
ATOM     29  H81 UNL     1     -11.210 -28.363  17.405  1.00  0.00     0.174 HD
ENDBRANCH  11  27
TORSDOF 7
ENDMDL
MODEL 3
REMARK VINA RESULT: -7.712234553      0.848      1.141
REMARK  7 active torsions:
REMARK  status: ('A' for Active; 'I' for Inactive)
REMARK    1  A    between atoms: C1_4  and  N2_5 
REMARK    2  A    between atoms: C1_4  and  S1_10 
REMARK    3  A    between atoms: N2_5  and  N3_7 
REMARK    4  A    between atoms: S1_10  and  C2_11 
REMARK    5  A    between atoms: C2_11  and  C3_12 
REMARK    6  A    between atoms: C3_12  and  N4_13 
REMARK    7  A    between atoms: C6_23  and  N8_24 
ROOT
HETATM    1  N4  UNL     1     -15.734 -26.371  20.857  1.00  0.00    -0.259 N 
HETATM    2  N5  UNL     1     -17.041 -26.293  20.812  1.00  0.00    -0.238 N 
ATOM      3  H5  UNL     1     -17.628 -25.998  21.591  1.00  0.00     0.208 HD
HETATM    4  N6  UNL     1     -17.502 -26.650  19.618  1.00  0.00    -0.278 N 
ATOM      5  H6  UNL     1     -18.483 -26.672  19.337  1.00  0.00     0.189 HD
HETATM    6  C4  UNL     1     -16.454 -26.976  18.845  1.00  0.00     0.164 A 
HETATM    7  C5  UNL     1     -16.353 -27.409  17.539  1.00  0.00     0.291 A 
HETATM    8  O1  UNL     1     -17.332 -27.588  16.779  1.00  0.00    -0.265 OA
HETATM    9  N7  UNL     1     -15.114 -27.644  17.087  1.00  0.00    -0.154 N 
ATOM     10  H7  UNL     1     -14.996 -27.965  16.126  1.00  0.00     0.187 HD
HETATM   11  C6  UNL     1     -14.023 -27.472  17.849  1.00  0.00     0.680 A 
HETATM   12  N9  UNL     1     -14.116 -27.046  19.135  1.00  0.00    -0.173 N 
ATOM     13  H9  UNL     1     -13.278 -26.918  19.702  1.00  0.00     0.186 HD
HETATM   14  C7  UNL     1     -15.335 -26.794  19.646  1.00  0.00     0.172 A 
ENDROOT
BRANCH   1  15
HETATM   15  C3  UNL     1     -14.852 -26.059  21.996  1.00  0.00     0.163 C 
BRANCH  15  16
HETATM   16  C2  UNL     1     -15.609 -26.485  23.222  1.00  0.00     0.104 C 
BRANCH  16  17
HETATM   17  S1  UNL     1     -14.728 -27.803  24.076  1.00  0.00    -0.091 SA
BRANCH  17  18
HETATM   18  C1  UNL     1     -15.796 -28.629  25.216  1.00  0.00     0.152 C 
HETATM   19  N1  UNL     1     -17.031 -28.814  24.972  1.00  0.00    -0.379 N 
ATOM     20  H12 UNL     1     -17.647 -29.290  25.630  1.00  0.00     0.158 HD
ATOM     21  H11 UNL     1     -17.417 -28.491  24.085  1.00  0.00     0.158 HD
BRANCH  18  22
HETATM   22  N2  UNL     1     -15.257 -29.078  26.451  1.00  0.00    -0.287 N 
ATOM     23  H2  UNL     1     -14.384 -28.676  26.789  1.00  0.00     0.188 HD
BRANCH  22  24
HETATM   24  N3  UNL     1     -15.890 -30.050  27.206  1.00  0.00    -0.343 N 
ATOM     25  H32 UNL     1     -16.890 -29.954  27.375  1.00  0.00     0.176 HD
ATOM     26  H31 UNL     1     -15.379 -30.846  27.588  1.00  0.00     0.176 HD
ENDBRANCH  22  24
ENDBRANCH  18  22
ENDBRANCH  17  18
ENDBRANCH  16  17
ENDBRANCH  15  16
ENDBRANCH   1  15
BRANCH  11  27
HETATM   27  N8  UNL     1     -12.823 -27.699  17.409  1.00  0.00    -0.234 N 
ATOM     28  H82 UNL     1     -12.756 -28.260  16.559  1.00  0.00     0.174 HD
ATOM     29  H81 UNL     1     -11.990 -27.344  17.880  1.00  0.00     0.174 HD
ENDBRANCH  11  27
TORSDOF 7
ENDMDL
MODEL 4
REMARK VINA RESULT: -7.672236697      3.630      6.117
REMARK  7 active torsions:
REMARK  status: ('A' for Active; 'I' for Inactive)
REMARK    1  A    between atoms: C1_4  and  N2_5 
REMARK    2  A    between atoms: C1_4  and  S1_10 
REMARK    3  A    between atoms: N2_5  and  N3_7 
REMARK    4  A    between atoms: S1_10  and  C2_11 
REMARK    5  A    between atoms: C2_11  and  C3_12 
REMARK    6  A    between atoms: C3_12  and  N4_13 
REMARK    7  A    between atoms: C6_23  and  N8_24 
ROOT
HETATM    1  N4  UNL     1     -13.208 -27.331  19.152  1.00  0.00    -0.259 N 
HETATM    2  N5  UNL     1     -12.756 -27.740  17.992  1.00  0.00    -0.238 N 
ATOM      3  H5  UNL     1     -11.776 -27.938  17.793  1.00  0.00     0.208 HD
HETATM    4  N6  UNL     1     -13.741 -27.862  17.109  1.00  0.00    -0.278 N 
ATOM      5  H6  UNL     1     -13.642 -28.164  16.140  1.00  0.00     0.189 HD
HETATM    6  C4  UNL     1     -14.890 -27.519  17.714  1.00  0.00     0.164 A 
HETATM    7  C5  UNL     1     -16.197 -27.463  17.277  1.00  0.00     0.291 A 
HETATM    8  O1  UNL     1     -16.565 -27.754  16.116  1.00  0.00    -0.265 OA
HETATM    9  N7  UNL     1     -17.107 -27.066  18.177  1.00  0.00    -0.154 N 
ATOM     10  H7  UNL     1     -18.085 -27.011  17.894  1.00  0.00     0.187 HD
HETATM   11  C6  UNL     1     -16.780 -26.739  19.437  1.00  0.00     0.680 A 
HETATM   12  N9  UNL     1     -15.495 -26.793  19.873  1.00  0.00    -0.173 N 
ATOM     13  H9  UNL     1     -15.262 -26.543  20.834  1.00  0.00     0.186 HD
HETATM   14  C7  UNL     1     -14.537 -27.184  19.014  1.00  0.00     0.172 A 
ENDROOT
BRANCH   1  15
HETATM   15  C3  UNL     1     -12.435 -27.078  20.382  1.00  0.00     0.163 C 
BRANCH  15  16
HETATM   16  C2  UNL     1     -10.993 -27.229  19.991  1.00  0.00     0.104 C 
BRANCH  16  17
HETATM   17  S1  UNL     1      -9.954 -26.165  21.006  1.00  0.00    -0.091 SA
BRANCH  17  18
HETATM   18  C1  UNL     1      -9.063 -25.020  19.998  1.00  0.00     0.152 C 
HETATM   19  N1  UNL     1      -7.951 -24.521  20.363  1.00  0.00    -0.379 N 
ATOM     20  H12 UNL     1      -7.437 -23.860  19.781  1.00  0.00     0.158 HD
ATOM     21  H11 UNL     1      -7.550 -24.801  21.258  1.00  0.00     0.158 HD
BRANCH  18  22
HETATM   22  N2  UNL     1      -9.622 -24.630  18.751  1.00  0.00    -0.287 N 
ATOM     23  H2  UNL     1     -10.373 -23.941  18.736  1.00  0.00     0.188 HD
BRANCH  22  24
HETATM   24  N3  UNL     1      -9.173 -25.165  17.558  1.00  0.00    -0.343 N 
ATOM     25  H32 UNL     1      -8.316 -24.789  17.153  1.00  0.00     0.176 HD
ATOM     26  H31 UNL     1      -9.677 -25.915  17.085  1.00  0.00     0.176 HD
ENDBRANCH  22  24
ENDBRANCH  18  22
ENDBRANCH  17  18
ENDBRANCH  16  17
ENDBRANCH  15  16
ENDBRANCH   1  15
BRANCH  11  27
HETATM   27  N8  UNL     1     -17.662 -26.356  20.309  1.00  0.00    -0.234 N 
ATOM     28  H82 UNL     1     -17.993 -27.073  20.955  1.00  0.00     0.174 HD
ATOM     29  H81 UNL     1     -18.011 -25.398  20.351  1.00  0.00     0.174 HD
ENDBRANCH  11  27
TORSDOF 7
ENDMDL
MODEL 5
REMARK VINA RESULT: -7.593676663      2.096      2.920
REMARK  7 active torsions:
REMARK  status: ('A' for Active; 'I' for Inactive)
REMARK    1  A    between atoms: C1_4  and  N2_5 
REMARK    2  A    between atoms: C1_4  and  S1_10 
REMARK    3  A    between atoms: N2_5  and  N3_7 
REMARK    4  A    between atoms: S1_10  and  C2_11 
REMARK    5  A    between atoms: C2_11  and  C3_12 
REMARK    6  A    between atoms: C3_12  and  N4_13 
REMARK    7  A    between atoms: C6_23  and  N8_24 
ROOT
HETATM    1  N4  UNL     1     -16.447 -26.707  18.655  1.00  0.00    -0.259 N 
HETATM    2  N5  UNL     1     -17.486 -27.019  17.921  1.00  0.00    -0.238 N 
ATOM      3  H5  UNL     1     -18.447 -26.758  18.142  1.00  0.00     0.208 HD
HETATM    4  N6  UNL     1     -17.126 -27.720  16.852  1.00  0.00    -0.278 N 
ATOM      5  H6  UNL     1     -17.755 -28.078  16.131  1.00  0.00     0.189 HD
HETATM    6  C4  UNL     1     -15.793 -27.876  16.883  1.00  0.00     0.164 A 
HETATM    7  C5  UNL     1     -14.905 -28.510  16.039  1.00  0.00     0.291 A 
HETATM    8  O1  UNL     1     -15.236 -29.109  14.990  1.00  0.00    -0.265 OA
HETATM    9  N7  UNL     1     -13.614 -28.463  16.393  1.00  0.00    -0.154 N 
ATOM     10  H7  UNL     1     -12.925 -28.919  15.796  1.00  0.00     0.187 HD
HETATM   11  C6  UNL     1     -13.193 -27.839  17.504  1.00  0.00     0.680 A 
HETATM   12  N9  UNL     1     -14.062 -27.213  18.338  1.00  0.00    -0.173 N 
ATOM     13  H9  UNL     1     -13.728 -26.741  19.179  1.00  0.00     0.186 HD
HETATM   14  C7  UNL     1     -15.373 -27.227  18.036  1.00  0.00     0.172 A 
ENDROOT
BRANCH   1  15
HETATM   15  C3  UNL     1     -16.429 -25.938  19.912  1.00  0.00     0.163 C 
BRANCH  15  16
HETATM   16  C2  UNL     1     -16.071 -26.926  20.985  1.00  0.00     0.104 C 
BRANCH  16  17
HETATM   17  S1  UNL     1     -14.810 -26.240  22.073  1.00  0.00    -0.091 SA
BRANCH  17  18
HETATM   18  C1  UNL     1     -15.538 -25.629  23.562  1.00  0.00     0.152 C 
HETATM   19  N1  UNL     1     -16.384 -26.307  24.227  1.00  0.00    -0.379 N 
ATOM     20  H12 UNL     1     -16.805 -25.954  25.087  1.00  0.00     0.158 HD
ATOM     21  H11 UNL     1     -16.642 -27.239  23.902  1.00  0.00     0.158 HD
BRANCH  18  22
HETATM   22  N2  UNL     1     -15.178 -24.332  24.014  1.00  0.00    -0.287 N 
ATOM     23  H2  UNL     1     -15.480 -24.025  24.938  1.00  0.00     0.188 HD
BRANCH  22  24
HETATM   24  N3  UNL     1     -14.429 -23.473  23.229  1.00  0.00    -0.343 N 
ATOM     25  H32 UNL     1     -14.762 -23.266  22.289  1.00  0.00     0.176 HD
ATOM     26  H31 UNL     1     -13.564 -23.054  23.572  1.00  0.00     0.176 HD
ENDBRANCH  22  24
ENDBRANCH  18  22
ENDBRANCH  17  18
ENDBRANCH  16  17
ENDBRANCH  15  16
ENDBRANCH   1  15
BRANCH  11  27
HETATM   27  N8  UNL     1     -11.941 -27.793  17.846  1.00  0.00    -0.234 N 
ATOM     28  H82 UNL     1     -11.268 -27.783  17.079  1.00  0.00     0.174 HD
ATOM     29  H81 UNL     1     -11.640 -27.770  18.820  1.00  0.00     0.174 HD
ENDBRANCH  11  27
TORSDOF 7
ENDMDL
