MODEL 1
REMARK VINA RESULT: -6.635145835      0.000      0.000
REMARK  11 active torsions:
REMARK  status: ('A' for Active; 'I' for Inactive)
REMARK    1  A    between atoms: C2_2  and  C3_3 
REMARK    2  A    between atoms: C3_3  and  C4_4 
REMARK    3  A    between atoms: C7_7  and  S1_8 
REMARK    4  A    between atoms: S1_8  and  C8_9 
REMARK    5  A    between atoms: C8_9  and  N2_18 
REMARK    6  A    between atoms: N1_10  and  C9_12 
REMARK    7  A    between atoms: N2_18  and  C15_20 
REMARK    8  A    between atoms: C15_20  and  C16_21 
REMARK    9  A    between atoms: N3_29  and  C21_30 
REMARK   10  A    between atoms: C21_30  and  N4_32 
REMARK   11  A    between atoms: N4_32  and  C22_34 
ROOT
HETATM    1  C4  UNL     1       8.752   2.372 -30.030  1.00  0.00     0.036 C 
HETATM    2  C5  UNL     1       7.849   2.642 -31.235  1.00  0.00     0.039 C 
HETATM    3  C6  UNL     1       7.964   1.345 -29.179  1.00  0.00     0.046 C 
HETATM    4  C7  UNL     1       6.592   1.872 -29.130  1.00  0.00     0.060 C 
HETATM    5  C17 UNL     1       6.545   3.282 -28.722  1.00  0.00     0.046 C 
HETATM    6  C18 UNL     1       7.770   4.120 -28.657  1.00  0.00     0.029 C 
HETATM    7  C19 UNL     1       7.441   5.466 -29.225  1.00  0.00     0.038 C 
HETATM    8  C20 UNL     1       7.973   4.305 -27.135  1.00  0.00     0.038 C 
HETATM    9  N3  UNL     1       9.006   3.528 -29.220  1.00  0.00    -0.340 N 
ENDROOT
BRANCH   4  10
HETATM   10  S1  UNL     1       5.400   0.895 -28.171  1.00  0.00    -0.089 SA
BRANCH  10  11
HETATM   11  C8  UNL     1       5.606   1.279 -26.412  1.00  0.00     0.141 C 
HETATM   12  N1  UNL     1       6.559   0.805 -25.816  1.00  0.00    -0.337 N 
ATOM     13  H1  UNL     1       7.113   0.222 -26.445  1.00  0.00     0.168 HD
BRANCH  12  14
HETATM   14  C9  UNL     1       7.125   0.812 -24.548  1.00  0.00     0.034 A 
HETATM   15  C10 UNL     1       6.801  -0.197 -23.659  1.00  0.00     0.029 A 
HETATM   16  C11 UNL     1       7.333  -0.251 -22.395  1.00  0.00     0.002 A 
HETATM   17  C12 UNL     1       8.207   0.721 -22.005  1.00  0.00     0.000 A 
HETATM   18  C13 UNL     1       8.567   1.754 -22.858  1.00  0.00     0.002 A 
HETATM   19  C14 UNL     1       7.995   1.756 -24.127  1.00  0.00     0.029 A 
ENDBRANCH  12  14
BRANCH  11  20
HETATM   20  N2  UNL     1       4.561   1.999 -25.827  1.00  0.00    -0.362 N 
ATOM     21  H2  UNL     1       3.691   1.503 -25.638  1.00  0.00     0.161 HD
BRANCH  20  22
HETATM   22  C15 UNL     1       4.631   3.403 -25.472  1.00  0.00     0.239 C 
BRANCH  22  23
HETATM   23  C16 UNL     1       4.807   3.673 -24.026  1.00  0.00     0.403 C 
HETATM   24  F1  UNL     1       5.976   4.271 -23.679  1.00  0.00    -0.169 F 
HETATM   25  F2  UNL     1       4.687   2.524 -23.277  1.00  0.00    -0.169 F 
HETATM   26  F3  UNL     1       3.759   4.516 -23.630  1.00  0.00    -0.169 F 
ENDBRANCH  22  23
ENDBRANCH  20  22
ENDBRANCH  11  20
ENDBRANCH  10  11
ENDBRANCH   4  10
BRANCH   1  27
HETATM   27  C3  UNL     1       9.863   1.594 -30.662  1.00  0.00     0.057 C 
BRANCH  27  28
HETATM   28  C2  UNL     1       9.997   1.751 -32.118  1.00  0.00    -0.034 C 
HETATM   29  C1  UNL     1      10.150   0.716 -32.934  1.00  0.00     0.007 C 
ENDBRANCH  27  28
ENDBRANCH   1  27
BRANCH   9  30
HETATM   30  C21 UNL     1      10.249   3.963 -28.742  1.00  0.00     0.171 C 
HETATM   31  S2  UNL     1      11.092   5.028 -29.845  1.00  0.00    -0.041 SA
BRANCH  30  32
HETATM   32  N4  UNL     1      11.130   3.713 -27.702  1.00  0.00    -0.363 N 
ATOM     33  H4  UNL     1      11.473   2.755 -27.785  1.00  0.00     0.162 HD
BRANCH  32  34
HETATM   34  C22 UNL     1      11.716   4.306 -26.577  1.00  0.00     0.075 C 
HETATM   35  C23 UNL     1      13.239   4.027 -26.584  1.00  0.00     0.032 C 
HETATM   36  C24 UNL     1      11.233   3.576 -25.303  1.00  0.00     0.032 C 
ENDBRANCH  32  34
ENDBRANCH  30  32
ENDBRANCH   9  30
TORSDOF 11
ENDMDL
MODEL 2
REMARK VINA RESULT: -6.472224446      2.321      3.510
REMARK  11 active torsions:
REMARK  status: ('A' for Active; 'I' for Inactive)
REMARK    1  A    between atoms: C2_2  and  C3_3 
REMARK    2  A    between atoms: C3_3  and  C4_4 
REMARK    3  A    between atoms: C7_7  and  S1_8 
REMARK    4  A    between atoms: S1_8  and  C8_9 
REMARK    5  A    between atoms: C8_9  and  N2_18 
REMARK    6  A    between atoms: N1_10  and  C9_12 
REMARK    7  A    between atoms: N2_18  and  C15_20 
REMARK    8  A    between atoms: C15_20  and  C16_21 
REMARK    9  A    between atoms: N3_29  and  C21_30 
REMARK   10  A    between atoms: C21_30  and  N4_32 
REMARK   11  A    between atoms: N4_32  and  C22_34 
ROOT
HETATM    1  C4  UNL     1       6.695   2.015 -29.554  1.00  0.00     0.036 C 
HETATM    2  C5  UNL     1       5.229   1.922 -29.982  1.00  0.00     0.039 C 
HETATM    3  C6  UNL     1       6.715   1.439 -28.117  1.00  0.00     0.046 C 
HETATM    4  C7  UNL     1       5.575   2.076 -27.441  1.00  0.00     0.060 C 
HETATM    5  C17 UNL     1       5.573   3.537 -27.595  1.00  0.00     0.046 C 
HETATM    6  C18 UNL     1       6.466   4.223 -28.564  1.00  0.00     0.029 C 
HETATM    7  C19 UNL     1       5.676   5.302 -29.238  1.00  0.00     0.038 C 
HETATM    8  C20 UNL     1       7.494   4.919 -27.643  1.00  0.00     0.038 C 
HETATM    9  N3  UNL     1       7.205   3.354 -29.510  1.00  0.00    -0.340 N 
ENDROOT
BRANCH   4  10
HETATM   10  S1  UNL     1       5.330   1.624 -25.700  1.00  0.00    -0.089 SA
BRANCH  10  11
HETATM   11  C8  UNL     1       6.949   1.407 -24.915  1.00  0.00     0.141 C 
HETATM   12  N1  UNL     1       7.764   2.311 -24.994  1.00  0.00    -0.337 N 
ATOM     13  H1  UNL     1       7.379   3.086 -25.535  1.00  0.00     0.168 HD
BRANCH  12  14
HETATM   14  C9  UNL     1       9.054   2.613 -24.577  1.00  0.00     0.034 A 
HETATM   15  C10 UNL     1       9.977   3.059 -25.506  1.00  0.00     0.029 A 
HETATM   16  C11 UNL     1      11.264   3.382 -25.155  1.00  0.00     0.002 A 
HETATM   17  C12 UNL     1      11.642   3.259 -23.851  1.00  0.00     0.000 A 
HETATM   18  C13 UNL     1      10.756   2.819 -22.879  1.00  0.00     0.002 A 
HETATM   19  C14 UNL     1       9.465   2.506 -23.294  1.00  0.00     0.029 A 
ENDBRANCH  12  14
BRANCH  11  20
HETATM   20  N2  UNL     1       7.193   0.140 -24.380  1.00  0.00    -0.362 N 
ATOM     21  H2  UNL     1       7.785  -0.496 -24.915  1.00  0.00     0.161 HD
BRANCH  20  22
HETATM   22  C15 UNL     1       6.662  -0.333 -23.116  1.00  0.00     0.239 C 
BRANCH  22  23
HETATM   23  C16 UNL     1       7.654  -0.427 -22.020  1.00  0.00     0.403 C 
HETATM   24  F1  UNL     1       7.686   0.629 -21.166  1.00  0.00    -0.169 F 
HETATM   25  F2  UNL     1       8.930  -0.612 -22.503  1.00  0.00    -0.169 F 
HETATM   26  F3  UNL     1       7.342  -1.573 -21.275  1.00  0.00    -0.169 F 
ENDBRANCH  22  23
ENDBRANCH  20  22
ENDBRANCH  11  20
ENDBRANCH  10  11
ENDBRANCH   4  10
BRANCH   1  27
HETATM   27  C3  UNL     1       7.321   0.962 -30.412  1.00  0.00     0.057 C 
BRANCH  27  28
HETATM   28  C2  UNL     1       6.869   0.934 -31.812  1.00  0.00    -0.034 C 
HETATM   29  C1  UNL     1       7.640   0.498 -32.799  1.00  0.00     0.007 C 
ENDBRANCH  27  28
ENDBRANCH   1  27
BRANCH   9  30
HETATM   30  C21 UNL     1       8.413   3.812 -30.054  1.00  0.00     0.171 C 
HETATM   31  S2  UNL     1       8.253   4.471 -31.667  1.00  0.00    -0.041 SA
BRANCH  30  32
HETATM   32  N4  UNL     1       9.772   3.792 -29.780  1.00  0.00    -0.363 N 
ATOM     33  H4  UNL     1      10.197   4.637 -30.163  1.00  0.00     0.162 HD
BRANCH  32  34
HETATM   34  C22 UNL     1      10.769   3.024 -29.165  1.00  0.00     0.075 C 
HETATM   35  C23 UNL     1      12.151   3.669 -29.431  1.00  0.00     0.032 C 
HETATM   36  C24 UNL     1      10.877   1.659 -29.881  1.00  0.00     0.032 C 
ENDBRANCH  32  34
ENDBRANCH  30  32
ENDBRANCH   9  30
TORSDOF 11
ENDMDL
MODEL 3
REMARK VINA RESULT: -6.428823794      3.300      7.475
REMARK  11 active torsions:
REMARK  status: ('A' for Active; 'I' for Inactive)
REMARK    1  A    between atoms: C2_2  and  C3_3 
REMARK    2  A    between atoms: C3_3  and  C4_4 
REMARK    3  A    between atoms: C7_7  and  S1_8 
REMARK    4  A    between atoms: S1_8  and  C8_9 
REMARK    5  A    between atoms: C8_9  and  N2_18 
REMARK    6  A    between atoms: N1_10  and  C9_12 
REMARK    7  A    between atoms: N2_18  and  C15_20 
REMARK    8  A    between atoms: C15_20  and  C16_21 
REMARK    9  A    between atoms: N3_29  and  C21_30 
REMARK   10  A    between atoms: C21_30  and  N4_32 
REMARK   11  A    between atoms: N4_32  and  C22_34 
ROOT
HETATM    1  C4  UNL     1       6.731   2.176 -24.578  1.00  0.00     0.036 C 
HETATM    2  C5  UNL     1       6.794   2.803 -23.184  1.00  0.00     0.039 C 
HETATM    3  C6  UNL     1       8.212   2.061 -25.017  1.00  0.00     0.046 C 
HETATM    4  C7  UNL     1       8.806   3.364 -24.681  1.00  0.00     0.060 C 
HETATM    5  C17 UNL     1       8.020   4.491 -25.202  1.00  0.00     0.046 C 
HETATM    6  C18 UNL     1       6.650   4.306 -25.744  1.00  0.00     0.029 C 
HETATM    7  C19 UNL     1       5.800   5.436 -25.249  1.00  0.00     0.038 C 
HETATM    8  C20 UNL     1       6.854   4.522 -27.262  1.00  0.00     0.038 C 
HETATM    9  N3  UNL     1       6.035   2.973 -25.544  1.00  0.00    -0.340 N 
ENDROOT
BRANCH   4  10
HETATM   10  S1  UNL     1      10.560   3.568 -25.099  1.00  0.00    -0.089 SA
BRANCH  10  11
HETATM   11  C8  UNL     1      10.709   3.864 -26.881  1.00  0.00     0.141 C 
HETATM   12  N1  UNL     1      10.156   3.096 -27.651  1.00  0.00    -0.337 N 
ATOM     13  H1  UNL     1       9.679   2.359 -27.130  1.00  0.00     0.168 HD
BRANCH  12  14
HETATM   14  C9  UNL     1       9.973   2.913 -29.016  1.00  0.00     0.034 A 
HETATM   15  C10 UNL     1      10.552   1.820 -29.633  1.00  0.00     0.029 A 
HETATM   16  C11 UNL     1      10.402   1.579 -30.976  1.00  0.00     0.002 A 
HETATM   17  C12 UNL     1       9.658   2.446 -31.722  1.00  0.00     0.000 A 
HETATM   18  C13 UNL     1       9.054   3.557 -31.152  1.00  0.00     0.002 A 
HETATM   19  C14 UNL     1       9.242   3.749 -29.786  1.00  0.00     0.029 A 
ENDBRANCH  12  14
BRANCH  11  20
HETATM   20  N2  UNL     1      11.575   4.896 -27.249  1.00  0.00    -0.362 N 
ATOM     21  H2  UNL     1      11.259   5.855 -27.105  1.00  0.00     0.161 HD
BRANCH  20  22
HETATM   22  C15 UNL     1      12.892   4.697 -27.822  1.00  0.00     0.239 C 
BRANCH  22  23
HETATM   23  C16 UNL     1      14.011   4.775 -26.855  1.00  0.00     0.403 C 
HETATM   24  F1  UNL     1      13.727   4.355 -25.594  1.00  0.00    -0.169 F 
HETATM   25  F2  UNL     1      14.518   6.051 -26.765  1.00  0.00    -0.169 F 
HETATM   26  F3  UNL     1      15.047   3.971 -27.352  1.00  0.00    -0.169 F 
ENDBRANCH  22  23
ENDBRANCH  20  22
ENDBRANCH  11  20
ENDBRANCH  10  11
ENDBRANCH   4  10
BRANCH   1  27
HETATM   27  C3  UNL     1       6.304   0.779 -24.254  1.00  0.00     0.057 C 
BRANCH  27  28
HETATM   28  C2  UNL     1       7.376  -0.122 -23.805  1.00  0.00    -0.034 C 
HETATM   29  C1  UNL     1       7.450  -0.574 -22.560  1.00  0.00     0.007 C 
ENDBRANCH  27  28
ENDBRANCH   1  27
BRANCH   9  30
HETATM   30  C21 UNL     1       5.047   2.538 -26.438  1.00  0.00     0.171 C 
HETATM   31  S2  UNL     1       3.416   2.764 -25.847  1.00  0.00    -0.041 SA
BRANCH  30  32
HETATM   32  N4  UNL     1       4.930   1.835 -27.627  1.00  0.00    -0.363 N 
ATOM     33  H4  UNL     1       4.258   2.313 -28.228  1.00  0.00     0.162 HD
BRANCH  32  34
HETATM   34  C22 UNL     1       5.406   0.701 -28.296  1.00  0.00     0.075 C 
HETATM   35  C23 UNL     1       6.650   1.083 -29.136  1.00  0.00     0.032 C 
HETATM   36  C24 UNL     1       4.380   0.271 -29.369  1.00  0.00     0.032 C 
ENDBRANCH  32  34
ENDBRANCH  30  32
ENDBRANCH   9  30
TORSDOF 11
ENDMDL
MODEL 4
REMARK VINA RESULT: -6.326738000      1.737      3.403
REMARK  11 active torsions:
REMARK  status: ('A' for Active; 'I' for Inactive)
REMARK    1  A    between atoms: C2_2  and  C3_3 
REMARK    2  A    between atoms: C3_3  and  C4_4 
REMARK    3  A    between atoms: C7_7  and  S1_8 
REMARK    4  A    between atoms: S1_8  and  C8_9 
REMARK    5  A    between atoms: C8_9  and  N2_18 
REMARK    6  A    between atoms: N1_10  and  C9_12 
REMARK    7  A    between atoms: N2_18  and  C15_20 
REMARK    8  A    between atoms: C15_20  and  C16_21 
REMARK    9  A    between atoms: N3_29  and  C21_30 
REMARK   10  A    between atoms: C21_30  and  N4_32 
REMARK   11  A    between atoms: N4_32  and  C22_34 
ROOT
HETATM    1  C4  UNL     1      10.019   3.974 -27.818  1.00  0.00     0.036 C 
HETATM    2  C5  UNL     1      10.773   2.939 -28.655  1.00  0.00     0.039 C 
HETATM    3  C6  UNL     1       8.804   3.200 -27.250  1.00  0.00     0.046 C 
HETATM    4  C7  UNL     1       8.263   2.455 -28.397  1.00  0.00     0.060 C 
HETATM    5  C17 UNL     1       8.044   3.311 -29.570  1.00  0.00     0.046 C 
HETATM    6  C18 UNL     1       8.586   4.691 -29.645  1.00  0.00     0.029 C 
HETATM    7  C19 UNL     1       9.128   4.903 -31.025  1.00  0.00     0.038 C 
HETATM    8  C20 UNL     1       7.314   5.562 -29.517  1.00  0.00     0.038 C 
HETATM    9  N3  UNL     1       9.529   5.089 -28.574  1.00  0.00    -0.340 N 
ENDROOT
BRANCH   4  10
HETATM   10  S1  UNL     1       6.791   1.446 -28.066  1.00  0.00    -0.089 SA
BRANCH  10  11
HETATM   11  C8  UNL     1       6.464   1.451 -26.283  1.00  0.00     0.141 C 
HETATM   12  N1  UNL     1       7.263   0.906 -25.539  1.00  0.00    -0.337 N 
ATOM     13  H1  UNL     1       8.027   0.501 -26.080  1.00  0.00     0.168 HD
BRANCH  12  14
HETATM   14  C9  UNL     1       7.455   0.667 -24.185  1.00  0.00     0.034 A 
HETATM   15  C10 UNL     1       8.046   1.644 -23.404  1.00  0.00     0.029 A 
HETATM   16  C11 UNL     1       8.256   1.472 -22.059  1.00  0.00     0.002 A 
HETATM   17  C12 UNL     1       7.868   0.302 -21.476  1.00  0.00     0.000 A 
HETATM   18  C13 UNL     1       7.268  -0.709 -22.212  1.00  0.00     0.002 A 
HETATM   19  C14 UNL     1       7.082  -0.478 -23.572  1.00  0.00     0.029 A 
ENDBRANCH  12  14
BRANCH  11  20
HETATM   20  N2  UNL     1       5.227   1.976 -25.901  1.00  0.00    -0.362 N 
ATOM     21  H2  UNL     1       4.422   1.350 -25.910  1.00  0.00     0.161 HD
BRANCH  20  22
HETATM   22  C15 UNL     1       5.010   3.350 -25.492  1.00  0.00     0.239 C 
BRANCH  22  23
HETATM   23  C16 UNL     1       4.927   3.559 -24.028  1.00  0.00     0.403 C 
HETATM   24  F1  UNL     1       4.793   2.432 -23.281  1.00  0.00    -0.169 F 
HETATM   25  F2  UNL     1       3.895   4.407 -23.693  1.00  0.00    -0.169 F 
HETATM   26  F3  UNL     1       6.110   4.198 -23.631  1.00  0.00    -0.169 F 
ENDBRANCH  22  23
ENDBRANCH  20  22
ENDBRANCH  11  20
ENDBRANCH  10  11
ENDBRANCH   4  10
BRANCH   1  27
HETATM   27  C3  UNL     1      10.951   4.154 -26.661  1.00  0.00     0.057 C 
BRANCH  27  28
HETATM   28  C2  UNL     1      10.444   3.687 -25.362  1.00  0.00    -0.034 C 
HETATM   29  C1  UNL     1      11.250   3.301 -24.382  1.00  0.00     0.007 C 
ENDBRANCH  27  28
ENDBRANCH   1  27
BRANCH   9  30
HETATM   30  C21 UNL     1       9.657   6.447 -28.248  1.00  0.00     0.171 C 
HETATM   31  S2  UNL     1      11.069   7.207 -28.946  1.00  0.00    -0.041 SA
BRANCH  30  32
HETATM   32  N4  UNL     1       9.086   7.392 -27.411  1.00  0.00    -0.363 N 
ATOM     33  H4  UNL     1       9.738   8.169 -27.298  1.00  0.00     0.162 HD
BRANCH  32  34
HETATM   34  C22 UNL     1       7.932   7.661 -26.664  1.00  0.00     0.075 C 
HETATM   35  C23 UNL     1       8.195   8.864 -25.725  1.00  0.00     0.032 C 
HETATM   36  C24 UNL     1       7.679   6.498 -25.677  1.00  0.00     0.032 C 
ENDBRANCH  32  34
ENDBRANCH  30  32
ENDBRANCH   9  30
TORSDOF 11
ENDMDL
MODEL 5
REMARK VINA RESULT: -6.243257987      2.793      4.924
REMARK  11 active torsions:
REMARK  status: ('A' for Active; 'I' for Inactive)
REMARK    1  A    between atoms: C2_2  and  C3_3 
REMARK    2  A    between atoms: C3_3  and  C4_4 
REMARK    3  A    between atoms: C7_7  and  S1_8 
REMARK    4  A    between atoms: S1_8  and  C8_9 
REMARK    5  A    between atoms: C8_9  and  N2_18 
REMARK    6  A    between atoms: N1_10  and  C9_12 
REMARK    7  A    between atoms: N2_18  and  C15_20 
REMARK    8  A    between atoms: C15_20  and  C16_21 
REMARK    9  A    between atoms: N3_29  and  C21_30 
REMARK   10  A    between atoms: C21_30  and  N4_32 
REMARK   11  A    between atoms: N4_32  and  C22_34 
ROOT
HETATM    1  C4  UNL     1       4.448   1.895 -27.770  1.00  0.00     0.036 C 
HETATM    2  C5  UNL     1       2.950   1.890 -27.460  1.00  0.00     0.039 C 
HETATM    3  C6  UNL     1       5.116   1.440 -26.449  1.00  0.00     0.046 C 
HETATM    4  C7  UNL     1       4.448   2.223 -25.399  1.00  0.00     0.060 C 
HETATM    5  C17 UNL     1       4.427   3.661 -25.698  1.00  0.00     0.046 C 
HETATM    6  C18 UNL     1       4.788   4.188 -27.039  1.00  0.00     0.029 C 
HETATM    7  C19 UNL     1       3.814   5.271 -27.389  1.00  0.00     0.038 C 
HETATM    8  C20 UNL     1       6.152   4.869 -26.780  1.00  0.00     0.038 C 
HETATM    9  N3  UNL     1       4.967   3.185 -28.116  1.00  0.00    -0.340 N 
ENDROOT
BRANCH   4  10
HETATM   10  S1  UNL     1       5.028   1.938 -23.703  1.00  0.00    -0.089 SA
BRANCH  10  11
HETATM   11  C8  UNL     1       6.808   1.600 -23.740  1.00  0.00     0.141 C 
HETATM   12  N1  UNL     1       7.578   2.531 -23.908  1.00  0.00    -0.337 N 
ATOM     13  H1  UNL     1       7.058   3.402 -24.019  1.00  0.00     0.168 HD
BRANCH  12  14
HETATM   14  C9  UNL     1       8.943   2.774 -23.994  1.00  0.00     0.034 A 
HETATM   15  C10 UNL     1       9.472   3.235 -25.186  1.00  0.00     0.029 A 
HETATM   16  C11 UNL     1      10.810   3.501 -25.333  1.00  0.00     0.002 A 
HETATM   17  C12 UNL     1      11.642   3.306 -24.270  1.00  0.00     0.000 A 
HETATM   18  C13 UNL     1      11.163   2.847 -23.052  1.00  0.00     0.002 A 
HETATM   19  C14 UNL     1       9.797   2.593 -22.963  1.00  0.00     0.029 A 
ENDBRANCH  12  14
BRANCH  11  20
HETATM   20  N2  UNL     1       7.164   0.250 -23.704  1.00  0.00    -0.362 N 
ATOM     21  H2  UNL     1       7.645  -0.137 -24.516  1.00  0.00     0.161 HD
BRANCH  20  22
HETATM   22  C15 UNL     1       6.897  -0.640 -22.590  1.00  0.00     0.239 C 
BRANCH  22  23
HETATM   23  C16 UNL     1       7.993  -0.745 -21.599  1.00  0.00     0.403 C 
HETATM   24  F1  UNL     1       9.232  -0.955 -22.115  1.00  0.00    -0.169 F 
HETATM   25  F2  UNL     1       7.751  -1.739 -20.677  1.00  0.00    -0.169 F 
HETATM   26  F3  UNL     1       8.024   0.461 -20.884  1.00  0.00    -0.169 F 
ENDBRANCH  22  23
ENDBRANCH  20  22
ENDBRANCH  11  20
ENDBRANCH  10  11
ENDBRANCH   4  10
BRANCH   1  27
HETATM   27  C3  UNL     1       4.562   0.725 -28.695  1.00  0.00     0.057 C 
BRANCH  27  28
HETATM   28  C2  UNL     1       3.308   0.302 -29.338  1.00  0.00    -0.034 C 
HETATM   29  C1  UNL     1       2.959   0.708 -30.551  1.00  0.00     0.007 C 
ENDBRANCH  27  28
ENDBRANCH   1  27
BRANCH   9  30
HETATM   30  C21 UNL     1       5.797   3.494 -29.202  1.00  0.00     0.171 C 
HETATM   31  S2  UNL     1       4.923   3.867 -30.671  1.00  0.00    -0.041 SA
BRANCH  30  32
HETATM   32  N4  UNL     1       7.139   3.468 -29.550  1.00  0.00    -0.363 N 
ATOM     33  H4  UNL     1       7.430   4.412 -29.808  1.00  0.00     0.162 HD
BRANCH  32  34
HETATM   34  C22 UNL     1       8.237   2.608 -29.674  1.00  0.00     0.075 C 
HETATM   35  C23 UNL     1       8.007   1.352 -28.798  1.00  0.00     0.032 C 
HETATM   36  C24 UNL     1       9.477   3.264 -29.024  1.00  0.00     0.032 C 
ENDBRANCH  32  34
ENDBRANCH  30  32
ENDBRANCH   9  30
TORSDOF 11
ENDMDL
