MODEL 1
REMARK VINA RESULT: -8.561274161      0.000      0.000
REMARK  6 active torsions:
REMARK  status: ('A' for Active; 'I' for Inactive)
REMARK    1  A    between atoms: C2_2  and  N1_3 
REMARK    2  A    between atoms: C2_2  and  C13_15 
REMARK    3  A    between atoms: N1_3  and  C3_5 
REMARK    4  A    between atoms: C21_25  and  N3_26 
REMARK       I    between atoms: N3_26  and  C22_28 
REMARK    5  A    between atoms: C22_28  and  C23_30 
REMARK    6  A    between atoms: C26_33  and  C27_34 
ROOT
HETATM    1  C13 UNL     1       8.497   2.196 -28.423  1.00  0.00    -0.014 A 
HETATM    2  C14 UNL     1       9.766   2.677 -28.280  1.00  0.00     0.097 A 
HETATM    3  N2  UNL     1      10.660   2.408 -29.269  1.00  0.00    -0.374 N 
ATOM      4  H2  UNL     1      11.613   2.761 -29.180  1.00  0.00     0.164 HD
HETATM    5  C15 UNL     1      10.326   1.680 -30.382  1.00  0.00     0.097 A 
HETATM    6  C16 UNL     1       9.058   1.191 -30.541  1.00  0.00    -0.013 A 
HETATM    7  C17 UNL     1       8.136   1.474 -29.518  1.00  0.00    -0.039 A 
HETATM    8  C18 UNL     1       6.763   0.986 -29.815  1.00  0.00     0.040 C 
HETATM    9  C19 UNL     1       6.501   1.438 -31.272  1.00  0.00     0.007 C 
HETATM   10  C20 UNL     1       7.348   0.752 -32.273  1.00  0.00     0.030 C 
HETATM   11  C21 UNL     1       8.688   0.370 -31.702  1.00  0.00     0.120 C 
ENDROOT
BRANCH   1  12
HETATM   12  C2  UNL     1       7.494   2.365 -27.301  1.00  0.00     0.108 C 
HETATM   13  C1  UNL     1       6.605   3.556 -27.520  1.00  0.00     0.037 C 
BRANCH  12  14
HETATM   14  N1  UNL     1       8.167   2.420 -26.086  1.00  0.00    -0.409 N 
ATOM     15  H1  UNL     1       8.832   3.189 -26.014  1.00  0.00     0.154 HD
BRANCH  14  16
HETATM   16  C3  UNL     1       8.102   1.636 -24.976  1.00  0.00     0.085 C 
HETATM   17  C4  UNL     1       8.185   2.463 -23.675  1.00  0.00     0.009 C 
HETATM   18  C5  UNL     1       6.868   3.096 -23.323  1.00  0.00     0.011 C 
HETATM   19  C9  UNL     1       8.667   1.525 -22.602  1.00  0.00     0.011 C 
HETATM   20  C6  UNL     1       5.877   2.003 -23.044  1.00  0.00    -0.013 C 
HETATM   21  C7  UNL     1       6.372   1.052 -21.976  1.00  0.00     0.009 C 
HETATM   22  C12 UNL     1       5.679   1.242 -24.351  1.00  0.00     0.011 C 
HETATM   23  C8  UNL     1       7.658   0.409 -22.456  1.00  0.00    -0.013 C 
HETATM   24  C10 UNL     1       7.408  -0.317 -23.732  1.00  0.00     0.011 C 
HETATM   25  C11 UNL     1       6.984   0.688 -24.838  1.00  0.00     0.009 C 
ENDBRANCH  14  16
ENDBRANCH  12  14
ENDBRANCH   1  12
BRANCH  11  26
HETATM   26  N3  UNL     1       9.689   0.422 -32.753  1.00  0.00    -0.348 N 
HETATM   27  C22 UNL     1       9.881  -0.713 -33.595  1.00  0.00     0.252 C 
HETATM   28  O1  UNL     1       9.201  -1.739 -33.438  1.00  0.00    -0.268 OA
ATOM     29  H3  UNL     1      10.251   1.263 -32.887  1.00  0.00     0.163 HD
BRANCH  27  30
HETATM   30  C23 UNL     1      10.891  -0.663 -34.651  1.00  0.00     0.032 A 
HETATM   31  C24 UNL     1      11.609  -1.824 -34.953  1.00  0.00     0.018 A 
HETATM   32  C25 UNL     1      12.565  -1.835 -35.941  1.00  0.00     0.017 A 
HETATM   33  C26 UNL     1      12.862  -0.695 -36.686  1.00  0.00     0.048 A 
HETATM   34  C28 UNL     1      12.155   0.447 -36.388  1.00  0.00     0.017 A 
HETATM   35  C29 UNL     1      11.182   0.463 -35.382  1.00  0.00     0.018 A 
BRANCH  33  36
HETATM   36  C27 UNL     1      13.896  -0.746 -37.747  1.00  0.00     0.417 C 
HETATM   37  F1  UNL     1      13.567  -0.051 -38.878  1.00  0.00    -0.166 F 
HETATM   38  F2  UNL     1      15.081  -0.243 -37.250  1.00  0.00    -0.166 F 
HETATM   39  F3  UNL     1      14.170  -2.059 -38.114  1.00  0.00    -0.166 F 
ENDBRANCH  33  36
ENDBRANCH  27  30
ENDBRANCH  11  26
TORSDOF 6
ENDMDL
MODEL 2
REMARK VINA RESULT: -8.380694033      0.708      1.476
REMARK  6 active torsions:
REMARK  status: ('A' for Active; 'I' for Inactive)
REMARK    1  A    between atoms: C2_2  and  N1_3 
REMARK    2  A    between atoms: C2_2  and  C13_15 
REMARK    3  A    between atoms: N1_3  and  C3_5 
REMARK    4  A    between atoms: C21_25  and  N3_26 
REMARK       I    between atoms: N3_26  and  C22_28 
REMARK    5  A    between atoms: C22_28  and  C23_30 
REMARK    6  A    between atoms: C26_33  and  C27_34 
ROOT
HETATM    1  C13 UNL     1       7.919   2.084 -28.599  1.00  0.00    -0.014 A 
HETATM    2  C14 UNL     1       9.192   2.472 -28.295  1.00  0.00     0.097 A 
HETATM    3  N2  UNL     1      10.178   2.149 -29.172  1.00  0.00    -0.374 N 
ATOM      4  H2  UNL     1      11.135   2.433 -28.962  1.00  0.00     0.164 HD
HETATM    5  C15 UNL     1       9.933   1.456 -30.329  1.00  0.00     0.097 A 
HETATM    6  C16 UNL     1       8.664   1.059 -30.649  1.00  0.00    -0.013 A 
HETATM    7  C17 UNL     1       7.645   1.398 -29.742  1.00  0.00    -0.039 A 
HETATM    8  C18 UNL     1       6.289   1.011 -30.211  1.00  0.00     0.040 C 
HETATM    9  C19 UNL     1       6.239   1.492 -31.681  1.00  0.00     0.007 C 
HETATM   10  C20 UNL     1       7.152   0.757 -32.583  1.00  0.00     0.030 C 
HETATM   11  C21 UNL     1       8.383   0.276 -31.860  1.00  0.00     0.120 C 
ENDROOT
BRANCH   1  12
HETATM   12  C2  UNL     1       6.801   2.315 -27.604  1.00  0.00     0.108 C 
HETATM   13  C1  UNL     1       6.106   3.627 -27.837  1.00  0.00     0.037 C 
BRANCH  12  14
HETATM   14  N1  UNL     1       7.301   2.200 -26.313  1.00  0.00    -0.409 N 
ATOM     15  H1  UNL     1       8.218   2.627 -26.183  1.00  0.00     0.154 HD
BRANCH  14  16
HETATM   16  C3  UNL     1       6.794   1.622 -25.190  1.00  0.00     0.085 C 
HETATM   17  C4  UNL     1       7.870   0.848 -24.398  1.00  0.00     0.009 C 
HETATM   18  C5  UNL     1       8.723   1.761 -23.562  1.00  0.00     0.011 C 
HETATM   19  C9  UNL     1       7.138  -0.167 -23.562  1.00  0.00     0.011 C 
HETATM   20  C6  UNL     1       7.848   2.409 -22.528  1.00  0.00    -0.013 C 
HETATM   21  C7  UNL     1       7.101   1.386 -21.698  1.00  0.00     0.009 C 
HETATM   22  C12 UNL     1       6.849   3.283 -23.278  1.00  0.00     0.011 C 
HETATM   23  C8  UNL     1       6.215   0.570 -22.619  1.00  0.00    -0.013 C 
HETATM   24  C10 UNL     1       5.263   1.470 -23.325  1.00  0.00     0.011 C 
HETATM   25  C11 UNL     1       6.046   2.457 -24.236  1.00  0.00     0.009 C 
ENDBRANCH  14  16
ENDBRANCH  12  14
ENDBRANCH   1  12
BRANCH  11  26
HETATM   26  N3  UNL     1       9.506   0.265 -32.781  1.00  0.00    -0.348 N 
HETATM   27  C22 UNL     1       9.737  -0.885 -33.591  1.00  0.00     0.252 C 
HETATM   28  O1  UNL     1       8.989  -1.873 -33.516  1.00  0.00    -0.268 OA
ATOM     29  H3  UNL     1      10.124   1.073 -32.847  1.00  0.00     0.163 HD
BRANCH  27  30
HETATM   30  C23 UNL     1      10.870  -0.898 -34.515  1.00  0.00     0.032 A 
HETATM   31  C24 UNL     1      11.168   0.263 -35.234  1.00  0.00     0.018 A 
HETATM   32  C25 UNL     1      12.225   0.309 -36.111  1.00  0.00     0.017 A 
HETATM   33  C26 UNL     1      13.048  -0.795 -36.323  1.00  0.00     0.048 A 
HETATM   34  C28 UNL     1      12.755  -1.938 -35.615  1.00  0.00     0.017 A 
HETATM   35  C29 UNL     1      11.679  -1.989 -34.723  1.00  0.00     0.018 A 
BRANCH  33  36
HETATM   36  C27 UNL     1      14.183  -0.707 -37.273  1.00  0.00     0.417 C 
HETATM   37  F1  UNL     1      14.008  -1.432 -38.420  1.00  0.00    -0.166 F 
HETATM   38  F2  UNL     1      14.386   0.615 -37.614  1.00  0.00    -0.166 F 
HETATM   39  F3  UNL     1      15.368  -1.127 -36.676  1.00  0.00    -0.166 F 
ENDBRANCH  33  36
ENDBRANCH  27  30
ENDBRANCH  11  26
TORSDOF 6
ENDMDL
MODEL 3
REMARK VINA RESULT: -8.336064366      0.606      1.500
REMARK  6 active torsions:
REMARK  status: ('A' for Active; 'I' for Inactive)
REMARK    1  A    between atoms: C2_2  and  N1_3 
REMARK    2  A    between atoms: C2_2  and  C13_15 
REMARK    3  A    between atoms: N1_3  and  C3_5 
REMARK    4  A    between atoms: C21_25  and  N3_26 
REMARK       I    between atoms: N3_26  and  C22_28 
REMARK    5  A    between atoms: C22_28  and  C23_30 
REMARK    6  A    between atoms: C26_33  and  C27_34 
ROOT
HETATM    1  C13 UNL     1       8.025   1.977 -28.243  1.00  0.00    -0.014 A 
HETATM    2  C14 UNL     1       9.292   2.427 -28.012  1.00  0.00     0.097 A 
HETATM    3  N2  UNL     1      10.228   2.203 -28.971  1.00  0.00    -0.374 N 
ATOM      4  H2  UNL     1      11.181   2.534 -28.816  1.00  0.00     0.164 HD
HETATM    5  C15 UNL     1       9.938   1.548 -30.141  1.00  0.00     0.097 A 
HETATM    6  C16 UNL     1       8.674   1.091 -30.389  1.00  0.00    -0.013 A 
HETATM    7  C17 UNL     1       7.707   1.327 -29.396  1.00  0.00    -0.039 A 
HETATM    8  C18 UNL     1       6.344   0.880 -29.787  1.00  0.00     0.040 C 
HETATM    9  C19 UNL     1       6.158   1.423 -31.224  1.00  0.00     0.007 C 
HETATM   10  C20 UNL     1       7.043   0.784 -32.223  1.00  0.00     0.030 C 
HETATM   11  C21 UNL     1       8.349   0.347 -31.614  1.00  0.00     0.120 C 
ENDROOT
BRANCH   1  12
HETATM   12  C2  UNL     1       6.971   2.096 -27.162  1.00  0.00     0.108 C 
HETATM   13  C1  UNL     1       6.491   3.510 -27.001  1.00  0.00     0.037 C 
BRANCH  12  14
HETATM   14  N1  UNL     1       7.465   1.564 -25.977  1.00  0.00    -0.409 N 
ATOM     15  H1  UNL     1       8.225   0.896 -26.106  1.00  0.00     0.154 HD
BRANCH  14  16
HETATM   16  C3  UNL     1       7.122   1.769 -24.676  1.00  0.00     0.085 C 
HETATM   17  C4  UNL     1       6.427   0.537 -24.058  1.00  0.00     0.009 C 
HETATM   18  C5  UNL     1       7.413  -0.521 -23.646  1.00  0.00     0.011 C 
HETATM   19  C9  UNL     1       5.619   1.042 -22.893  1.00  0.00     0.011 C 
HETATM   20  C6  UNL     1       8.283   0.041 -22.559  1.00  0.00    -0.013 C 
HETATM   21  C7  UNL     1       7.467   0.562 -21.395  1.00  0.00     0.009 C 
HETATM   22  C12 UNL     1       9.078   1.186 -23.176  1.00  0.00     0.011 C 
HETATM   23  C8  UNL     1       6.564   1.672 -21.896  1.00  0.00    -0.013 C 
HETATM   24  C10 UNL     1       7.390   2.761 -22.488  1.00  0.00     0.011 C 
HETATM   25  C11 UNL     1       8.153   2.227 -23.732  1.00  0.00     0.009 C 
ENDBRANCH  14  16
ENDBRANCH  12  14
ENDBRANCH   1  12
BRANCH  11  26
HETATM   26  N3  UNL     1       9.400   0.444 -32.611  1.00  0.00    -0.348 N 
HETATM   27  C22 UNL     1       9.651  -0.662 -33.476  1.00  0.00     0.252 C 
HETATM   28  O1  UNL     1       8.980  -1.702 -33.383  1.00  0.00    -0.268 OA
ATOM     29  H3  UNL     1       9.954   1.296 -32.692  1.00  0.00     0.163 HD
BRANCH  27  30
HETATM   30  C23 UNL     1      10.711  -0.565 -34.477  1.00  0.00     0.032 A 
HETATM   31  C24 UNL     1      11.440  -1.714 -34.801  1.00  0.00     0.018 A 
HETATM   32  C25 UNL     1      12.443  -1.682 -35.741  1.00  0.00     0.017 A 
HETATM   33  C26 UNL     1      12.779  -0.508 -36.413  1.00  0.00     0.048 A 
HETATM   34  C28 UNL     1      12.062   0.621 -36.094  1.00  0.00     0.017 A 
HETATM   35  C29 UNL     1      11.042   0.593 -35.137  1.00  0.00     0.018 A 
BRANCH  33  36
HETATM   36  C27 UNL     1      13.863  -0.513 -37.424  1.00  0.00     0.417 C 
HETATM   37  F1  UNL     1      13.816   0.539 -38.297  1.00  0.00    -0.166 F 
HETATM   38  F2  UNL     1      15.084  -0.495 -36.780  1.00  0.00    -0.166 F 
HETATM   39  F3  UNL     1      13.848  -1.689 -38.167  1.00  0.00    -0.166 F 
ENDBRANCH  33  36
ENDBRANCH  27  30
ENDBRANCH  11  26
TORSDOF 6
ENDMDL
MODEL 4
REMARK VINA RESULT: -8.297221531      2.851      3.843
REMARK  6 active torsions:
REMARK  status: ('A' for Active; 'I' for Inactive)
REMARK    1  A    between atoms: C2_2  and  N1_3 
REMARK    2  A    between atoms: C2_2  and  C13_15 
REMARK    3  A    between atoms: N1_3  and  C3_5 
REMARK    4  A    between atoms: C21_25  and  N3_26 
REMARK       I    between atoms: N3_26  and  C22_28 
REMARK    5  A    between atoms: C22_28  and  C23_30 
REMARK    6  A    between atoms: C26_33  and  C27_34 
ROOT
HETATM    1  C13 UNL     1       6.128   3.370 -26.497  1.00  0.00    -0.014 A 
HETATM    2  C14 UNL     1       6.655   4.628 -26.528  1.00  0.00     0.097 A 
HETATM    3  N2  UNL     1       7.549   4.915 -27.511  1.00  0.00    -0.374 N 
ATOM      4  H2  UNL     1       7.952   5.852 -27.551  1.00  0.00     0.164 HD
HETATM    5  C15 UNL     1       7.928   3.992 -28.451  1.00  0.00     0.097 A 
HETATM    6  C16 UNL     1       7.409   2.726 -28.434  1.00  0.00    -0.013 A 
HETATM    7  C17 UNL     1       6.482   2.434 -27.418  1.00  0.00    -0.039 A 
HETATM    8  C18 UNL     1       5.901   1.070 -27.530  1.00  0.00     0.040 C 
HETATM    9  C19 UNL     1       5.516   0.936 -29.023  1.00  0.00     0.007 C 
HETATM   10  C20 UNL     1       6.676   0.906 -29.940  1.00  0.00     0.030 C 
HETATM   11  C21 UNL     1       7.834   1.706 -29.402  1.00  0.00     0.120 C 
ENDROOT
BRANCH   1  12
HETATM   12  C2  UNL     1       5.217   2.960 -25.358  1.00  0.00     0.108 C 
HETATM   13  C1  UNL     1       3.841   3.544 -25.503  1.00  0.00     0.037 C 
BRANCH  12  14
HETATM   14  N1  UNL     1       5.813   3.297 -24.148  1.00  0.00    -0.409 N 
ATOM     15  H1  UNL     1       5.612   4.247 -23.836  1.00  0.00     0.154 HD
BRANCH  14  16
HETATM   16  C3  UNL     1       6.615   2.593 -23.304  1.00  0.00     0.085 C 
HETATM   17  C4  UNL     1       5.869   1.417 -22.639  1.00  0.00     0.009 C 
HETATM   18  C5  UNL     1       5.761   0.227 -23.552  1.00  0.00     0.011 C 
HETATM   19  C9  UNL     1       6.618   1.094 -21.374  1.00  0.00     0.011 C 
HETATM   20  C6  UNL     1       7.146  -0.280 -23.833  1.00  0.00    -0.013 C 
HETATM   21  C7  UNL     1       7.904  -0.589 -22.559  1.00  0.00     0.009 C 
HETATM   22  C12 UNL     1       7.872   0.819 -24.603  1.00  0.00     0.011 C 
HETATM   23  C8  UNL     1       8.025   0.685 -21.746  1.00  0.00    -0.013 C 
HETATM   24  C10 UNL     1       8.738   1.721 -22.544  1.00  0.00     0.011 C 
HETATM   25  C11 UNL     1       7.903   2.086 -23.803  1.00  0.00     0.009 C 
ENDBRANCH  14  16
ENDBRANCH  12  14
ENDBRANCH   1  12
BRANCH  11  26
HETATM   26  N3  UNL     1       8.579   2.276 -30.510  1.00  0.00    -0.348 N 
HETATM   27  C22 UNL     1       9.987   2.067 -30.590  1.00  0.00     0.252 C 
HETATM   28  O1  UNL     1      10.578   1.403 -29.722  1.00  0.00    -0.268 OA
ATOM     29  H3  UNL     1       8.099   2.821 -31.226  1.00  0.00     0.163 HD
BRANCH  27  30
HETATM   30  C23 UNL     1      10.739   2.643 -31.703  1.00  0.00     0.032 A 
HETATM   31  C24 UNL     1      10.424   2.247 -33.007  1.00  0.00     0.018 A 
HETATM   32  C25 UNL     1      11.094   2.762 -34.091  1.00  0.00     0.017 A 
HETATM   33  C26 UNL     1      12.112   3.702 -33.943  1.00  0.00     0.048 A 
HETATM   34  C28 UNL     1      12.421   4.092 -32.661  1.00  0.00     0.017 A 
HETATM   35  C29 UNL     1      11.743   3.568 -31.555  1.00  0.00     0.018 A 
BRANCH  33  36
HETATM   36  C27 UNL     1      12.808   4.240 -35.137  1.00  0.00     0.417 C 
HETATM   37  F1  UNL     1      12.099   5.193 -35.813  1.00  0.00    -0.166 F 
HETATM   38  F2  UNL     1      14.017   4.783 -34.750  1.00  0.00    -0.166 F 
HETATM   39  F3  UNL     1      13.124   3.223 -36.032  1.00  0.00    -0.166 F 
ENDBRANCH  33  36
ENDBRANCH  27  30
ENDBRANCH  11  26
TORSDOF 6
ENDMDL
MODEL 5
REMARK VINA RESULT: -8.272163688      2.915      4.015
REMARK  6 active torsions:
REMARK  status: ('A' for Active; 'I' for Inactive)
REMARK    1  A    between atoms: C2_2  and  N1_3 
REMARK    2  A    between atoms: C2_2  and  C13_15 
REMARK    3  A    between atoms: N1_3  and  C3_5 
REMARK    4  A    between atoms: C21_25  and  N3_26 
REMARK       I    between atoms: N3_26  and  C22_28 
REMARK    5  A    between atoms: C22_28  and  C23_30 
REMARK    6  A    between atoms: C26_33  and  C27_34 
ROOT
HETATM    1  C13 UNL     1       6.041   3.397 -26.447  1.00  0.00    -0.014 A 
HETATM    2  C14 UNL     1       6.594   4.644 -26.474  1.00  0.00     0.097 A 
HETATM    3  N2  UNL     1       7.484   4.921 -27.464  1.00  0.00    -0.374 N 
ATOM      4  H2  UNL     1       7.906   5.849 -27.500  1.00  0.00     0.164 HD
HETATM    5  C15 UNL     1       7.834   3.997 -28.415  1.00  0.00     0.097 A 
HETATM    6  C16 UNL     1       7.289   2.743 -28.403  1.00  0.00    -0.013 A 
HETATM    7  C17 UNL     1       6.366   2.461 -27.380  1.00  0.00    -0.039 A 
HETATM    8  C18 UNL     1       5.755   1.111 -27.496  1.00  0.00     0.040 C 
HETATM    9  C19 UNL     1       5.352   0.998 -28.986  1.00  0.00     0.007 C 
HETATM   10  C20 UNL     1       6.503   0.951 -29.916  1.00  0.00     0.030 C 
HETATM   11  C21 UNL     1       7.682   1.721 -29.383  1.00  0.00     0.120 C 
ENDROOT
BRANCH   1  12
HETATM   12  C2  UNL     1       5.133   2.997 -25.302  1.00  0.00     0.108 C 
HETATM   13  C1  UNL     1       3.765   3.602 -25.435  1.00  0.00     0.037 C 
BRANCH  12  14
HETATM   14  N1  UNL     1       5.744   3.321 -24.096  1.00  0.00    -0.409 N 
ATOM     15  H1  UNL     1       5.541   4.265 -23.769  1.00  0.00     0.154 HD
BRANCH  14  16
HETATM   16  C3  UNL     1       6.561   2.611 -23.273  1.00  0.00     0.085 C 
HETATM   17  C4  UNL     1       5.840   1.401 -22.641  1.00  0.00     0.009 C 
HETATM   18  C5  UNL     1       5.756   0.235 -23.587  1.00  0.00     0.011 C 
HETATM   19  C9  UNL     1       6.598   1.058 -21.386  1.00  0.00     0.011 C 
HETATM   20  C6  UNL     1       7.151  -0.235 -23.883  1.00  0.00    -0.013 C 
HETATM   21  C7  UNL     1       7.916  -0.563 -22.619  1.00  0.00     0.009 C 
HETATM   22  C12 UNL     1       7.853   0.900 -24.622  1.00  0.00     0.011 C 
HETATM   23  C8  UNL     1       8.012   0.689 -21.771  1.00  0.00    -0.013 C 
HETATM   24  C10 UNL     1       8.703   1.762 -22.539  1.00  0.00     0.011 C 
HETATM   25  C11 UNL     1       7.859   2.144 -23.787  1.00  0.00     0.009 C 
ENDBRANCH  14  16
ENDBRANCH  12  14
ENDBRANCH   1  12
BRANCH  11  26
HETATM   26  N3  UNL     1       8.428   2.285 -30.494  1.00  0.00    -0.348 N 
HETATM   27  C22 UNL     1       9.828   2.036 -30.597  1.00  0.00     0.252 C 
HETATM   28  O1  UNL     1      10.411   1.344 -29.747  1.00  0.00    -0.268 OA
ATOM     29  H3  UNL     1       7.954   2.854 -31.196  1.00  0.00     0.163 HD
BRANCH  27  30
HETATM   30  C23 UNL     1      10.580   2.606 -31.713  1.00  0.00     0.032 A 
HETATM   31  C24 UNL     1      11.558   3.569 -31.447  1.00  0.00     0.018 A 
HETATM   32  C25 UNL     1      12.299   4.133 -32.458  1.00  0.00     0.017 A 
HETATM   33  C26 UNL     1      12.113   3.771 -33.791  1.00  0.00     0.048 A 
HETATM   34  C28 UNL     1      11.152   2.823 -34.053  1.00  0.00     0.017 A 
HETATM   35  C29 UNL     1      10.394   2.249 -33.027  1.00  0.00     0.018 A 
BRANCH  33  36
HETATM   36  C27 UNL     1      12.936   4.397 -34.854  1.00  0.00     0.417 C 
HETATM   37  F1  UNL     1      14.206   4.718 -34.460  1.00  0.00    -0.166 F 
HETATM   38  F2  UNL     1      13.014   3.537 -35.931  1.00  0.00    -0.166 F 
HETATM   39  F3  UNL     1      12.332   5.552 -35.339  1.00  0.00    -0.166 F 
ENDBRANCH  33  36
ENDBRANCH  27  30
ENDBRANCH  11  26
TORSDOF 6
ENDMDL
