MODEL 1
REMARK VINA RESULT: -8.024018224      0.000      0.000
REMARK  8 active torsions:
REMARK  status: ('A' for Active; 'I' for Inactive)
REMARK    1  A    between atoms: C2_2  and  C4_4 
REMARK    2  A    between atoms: C4_4  and  C5_6 
REMARK    3  A    between atoms: C5_6  and  C6_7 
REMARK    4  A    between atoms: C6_7  and  C7_8 
REMARK    5  A    between atoms: C7_8  and  C9_10 
REMARK    6  A    between atoms: C10_11  and  O2_12 
REMARK    7  A    between atoms: C21_24  and  O3_25 
REMARK    8  A    between atoms: C22_27  and  C24_29 
ROOT
HETATM    1  C9  UNL     1      10.539   4.192 -29.357  1.00  0.00     0.026 C 
HETATM    2  C10 UNL     1      10.130   2.806 -29.817  1.00  0.00     0.123 C 
HETATM    3  C11 UNL     1       8.996   2.385 -28.917  1.00  0.00     0.038 C 
HETATM    4  C12 UNL     1       8.645   3.595 -28.034  1.00  0.00     0.001 C 
HETATM    5  C13 UNL     1       8.054   3.141 -26.748  1.00  0.00    -0.005 C 
HETATM    6  C14 UNL     1       8.121   1.653 -26.639  1.00  0.00     0.006 C 
HETATM    7  C15 UNL     1       7.232   1.267 -25.436  1.00  0.00     0.007 C 
HETATM    8  C16 UNL     1       7.851   1.722 -24.164  1.00  0.00     0.013 C 
HETATM    9  C17 UNL     1       8.128   3.198 -24.217  1.00  0.00    -0.035 C 
HETATM   10  C18 UNL     1       9.225   3.652 -23.247  1.00  0.00     0.016 C 
HETATM   11  C19 UNL     1       6.912   3.991 -23.808  1.00  0.00     0.012 C 
HETATM   12  C20 UNL     1       5.633   3.301 -23.655  1.00  0.00     0.034 C 
HETATM   13  C21 UNL     1       5.621   1.911 -23.127  1.00  0.00     0.135 C 
HETATM   14  C22 UNL     1       7.005   1.301 -23.015  1.00  0.00     0.084 C 
HETATM   15  C23 UNL     1       7.516   1.836 -21.656  1.00  0.00     0.027 C 
HETATM   16  C25 UNL     1       8.711   3.683 -25.533  1.00  0.00    -0.002 C 
HETATM   17  C26 UNL     1      10.175   3.466 -25.665  1.00  0.00     0.006 C 
HETATM   18  C27 UNL     1      10.752   3.424 -27.038  1.00  0.00     0.010 C 
HETATM   19  C28 UNL     1       9.935   4.307 -28.015  1.00  0.00    -0.034 C 
HETATM   20  C29 UNL     1      10.033   5.665 -27.410  1.00  0.00     0.016 C 
ENDROOT
BRANCH   1  21
HETATM   21  C7  UNL     1      10.255   5.108 -30.437  1.00  0.00    -0.011 C 
HETATM   22  C8  UNL     1       9.043   5.919 -30.551  1.00  0.00     0.010 C 
BRANCH  21  23
HETATM   23  C6  UNL     1      11.462   6.023 -30.582  1.00  0.00     0.012 C 
BRANCH  23  24
HETATM   24  C5  UNL     1      12.738   5.503 -30.064  1.00  0.00     0.079 C 
BRANCH  24  25
HETATM   25  C4  UNL     1      13.501   6.368 -29.156  1.00  0.00     0.130 C 
HETATM   26  O1  UNL     1      14.054   7.346 -29.629  1.00  0.00    -0.298 OA
BRANCH  25  27
HETATM   27  C2  UNL     1      13.649   6.133 -27.698  1.00  0.00     0.047 C 
HETATM   28  C1  UNL     1      14.654   7.041 -27.053  1.00  0.00     0.017 C 
HETATM   29  C3  UNL     1      14.001   4.705 -27.422  1.00  0.00     0.017 C 
ENDBRANCH  25  27
ENDBRANCH  24  25
ENDBRANCH  23  24
ENDBRANCH  21  23
ENDBRANCH   1  21
BRANCH   2  30
HETATM   30  O2  UNL     1      11.157   1.910 -29.896  1.00  0.00    -0.395 OA
ATOM     31  H2  UNL     1      10.883   1.004 -29.982  1.00  0.00     0.210 HD
ENDBRANCH   2  30
BRANCH  14  32
HETATM   32  C24 UNL     1       6.991  -0.170 -22.810  1.00  0.00     0.397 C 
HETATM   33  F1  UNL     1       5.970  -0.918 -23.250  1.00  0.00    -0.170 F 
HETATM   34  F2  UNL     1       8.239  -0.658 -23.272  1.00  0.00    -0.170 F 
HETATM   35  F3  UNL     1       7.079  -0.515 -21.442  1.00  0.00    -0.170 F 
ENDBRANCH  14  32
BRANCH  13  36
HETATM   36  O3  UNL     1       4.733   1.174 -23.894  1.00  0.00    -0.394 OA
ATOM     37  H3  UNL     1       3.901   1.154 -23.436  1.00  0.00     0.210 HD
ENDBRANCH  13  36
TORSDOF 8
ENDMDL
MODEL 2
REMARK VINA RESULT: -7.259623838      4.308      7.935
REMARK  8 active torsions:
REMARK  status: ('A' for Active; 'I' for Inactive)
REMARK    1  A    between atoms: C2_2  and  C4_4 
REMARK    2  A    between atoms: C4_4  and  C5_6 
REMARK    3  A    between atoms: C5_6  and  C6_7 
REMARK    4  A    between atoms: C6_7  and  C7_8 
REMARK    5  A    between atoms: C7_8  and  C9_10 
REMARK    6  A    between atoms: C10_11  and  O2_12 
REMARK    7  A    between atoms: C21_24  and  O3_25 
REMARK    8  A    between atoms: C22_27  and  C24_29 
ROOT
HETATM    1  C9  UNL     1       5.693   2.026 -25.540  1.00  0.00     0.026 C 
HETATM    2  C10 UNL     1       6.955   1.194 -25.431  1.00  0.00     0.123 C 
HETATM    3  C11 UNL     1       7.704   1.399 -26.723  1.00  0.00     0.038 C 
HETATM    4  C12 UNL     1       6.949   2.477 -27.518  1.00  0.00     0.001 C 
HETATM    5  C13 UNL     1       7.178   2.299 -28.976  1.00  0.00    -0.005 C 
HETATM    6  C14 UNL     1       7.944   1.043 -29.234  1.00  0.00     0.006 C 
HETATM    7  C15 UNL     1       8.384   1.101 -30.713  1.00  0.00     0.007 C 
HETATM    8  C16 UNL     1       7.208   0.965 -31.611  1.00  0.00     0.013 C 
HETATM    9  C17 UNL     1       6.176   2.007 -31.283  1.00  0.00    -0.035 C 
HETATM   10  C18 UNL     1       4.759   1.630 -31.731  1.00  0.00     0.016 C 
HETATM   11  C19 UNL     1       6.467   3.300 -32.002  1.00  0.00     0.012 C 
HETATM   12  C20 UNL     1       7.747   3.458 -32.689  1.00  0.00     0.034 C 
HETATM   13  C21 UNL     1       8.363   2.278 -33.351  1.00  0.00     0.135 C 
HETATM   14  C22 UNL     1       7.656   0.975 -33.031  1.00  0.00     0.084 C 
HETATM   15  C23 UNL     1       6.481   0.956 -34.039  1.00  0.00     0.027 C 
HETATM   16  C25 UNL     1       5.946   2.218 -29.797  1.00  0.00    -0.002 C 
HETATM   17  C26 UNL     1       5.042   1.216 -29.174  1.00  0.00     0.006 C 
HETATM   18  C27 UNL     1       5.139   1.011 -27.702  1.00  0.00     0.010 C 
HETATM   19  C28 UNL     1       5.585   2.310 -26.985  1.00  0.00    -0.034 C 
HETATM   20  C29 UNL     1       4.515   3.282 -27.344  1.00  0.00     0.016 C 
ENDROOT
BRANCH   1  21
HETATM   21  C7  UNL     1       5.767   3.058 -24.532  1.00  0.00    -0.011 C 
HETATM   22  C8  UNL     1       4.614   3.731 -23.935  1.00  0.00     0.010 C 
BRANCH  21  23
HETATM   23  C6  UNL     1       6.648   2.529 -23.410  1.00  0.00     0.012 C 
BRANCH  23  24
HETATM   24  C5  UNL     1       7.677   3.451 -22.901  1.00  0.00     0.079 C 
BRANCH  24  25
HETATM   25  C4  UNL     1       8.727   3.873 -23.835  1.00  0.00     0.130 C 
HETATM   26  O1  UNL     1       8.620   4.968 -24.359  1.00  0.00    -0.298 OA
BRANCH  25  27
HETATM   27  C2  UNL     1       9.916   3.056 -24.188  1.00  0.00     0.047 C 
HETATM   28  C1  UNL     1      10.875   2.886 -23.046  1.00  0.00     0.017 C 
HETATM   29  C3  UNL     1      10.628   3.636 -25.369  1.00  0.00     0.017 C 
ENDBRANCH  25  27
ENDBRANCH  24  25
ENDBRANCH  23  24
ENDBRANCH  21  23
ENDBRANCH   1  21
BRANCH   2  30
HETATM   30  O2  UNL     1       6.744  -0.114 -25.098  1.00  0.00    -0.395 OA
ATOM     31  H2  UNL     1       7.281  -0.735 -25.577  1.00  0.00     0.210 HD
ENDBRANCH   2  30
BRANCH  14  32
HETATM   32  C24 UNL     1       8.436  -0.231 -33.405  1.00  0.00     0.397 C 
HETATM   33  F1  UNL     1       9.408  -0.699 -32.609  1.00  0.00    -0.170 F 
HETATM   34  F2  UNL     1       7.495  -1.239 -33.734  1.00  0.00    -0.170 F 
HETATM   35  F3  UNL     1       9.085  -0.078 -34.651  1.00  0.00    -0.170 F 
ENDBRANCH  14  32
BRANCH  13  36
HETATM   36  O3  UNL     1       9.716   2.282 -33.051  1.00  0.00    -0.394 OA
ATOM     37  H3  UNL     1      10.167   2.742 -33.749  1.00  0.00     0.210 HD
ENDBRANCH  13  36
TORSDOF 8
ENDMDL
MODEL 3
REMARK VINA RESULT: -7.217192641      4.311      7.338
REMARK  8 active torsions:
REMARK  status: ('A' for Active; 'I' for Inactive)
REMARK    1  A    between atoms: C2_2  and  C4_4 
REMARK    2  A    between atoms: C4_4  and  C5_6 
REMARK    3  A    between atoms: C5_6  and  C6_7 
REMARK    4  A    between atoms: C6_7  and  C7_8 
REMARK    5  A    between atoms: C7_8  and  C9_10 
REMARK    6  A    between atoms: C10_11  and  O2_12 
REMARK    7  A    between atoms: C21_24  and  O3_25 
REMARK    8  A    between atoms: C22_27  and  C24_29 
ROOT
HETATM    1  C9  UNL     1       9.130   3.883 -25.621  1.00  0.00     0.026 C 
HETATM    2  C10 UNL     1       8.050   4.366 -24.673  1.00  0.00     0.123 C 
HETATM    3  C11 UNL     1       6.800   3.610 -25.044  1.00  0.00     0.038 C 
HETATM    4  C12 UNL     1       7.196   2.573 -26.107  1.00  0.00     0.001 C 
HETATM    5  C13 UNL     1       6.033   2.253 -26.976  1.00  0.00    -0.005 C 
HETATM    6  C14 UNL     1       4.879   3.144 -26.651  1.00  0.00     0.006 C 
HETATM    7  C15 UNL     1       3.654   2.547 -27.378  1.00  0.00     0.007 C 
HETATM    8  C16 UNL     1       3.794   2.705 -28.849  1.00  0.00     0.013 C 
HETATM    9  C17 UNL     1       5.086   2.100 -29.319  1.00  0.00    -0.035 C 
HETATM   10  C18 UNL     1       5.583   2.673 -30.651  1.00  0.00     0.016 C 
HETATM   11  C19 UNL     1       4.926   0.623 -29.581  1.00  0.00     0.012 C 
HETATM   12  C20 UNL     1       3.700  -0.046 -29.150  1.00  0.00     0.034 C 
HETATM   13  C21 UNL     1       2.413   0.694 -29.214  1.00  0.00     0.135 C 
HETATM   14  C22 UNL     1       2.584   2.167 -29.529  1.00  0.00     0.084 C 
HETATM   15  C23 UNL     1       2.696   2.186 -31.072  1.00  0.00     0.027 C 
HETATM   16  C25 UNL     1       6.281   2.398 -28.431  1.00  0.00    -0.002 C 
HETATM   17  C26 UNL     1       6.893   3.732 -28.664  1.00  0.00     0.006 C 
HETATM   18  C27 UNL     1       7.704   4.327 -27.565  1.00  0.00     0.010 C 
HETATM   19  C28 UNL     1       8.374   3.226 -26.705  1.00  0.00    -0.034 C 
HETATM   20  C29 UNL     1       9.220   2.493 -27.689  1.00  0.00     0.016 C 
ENDROOT
BRANCH   1  21
HETATM   21  C7  UNL     1      10.131   3.208 -24.828  1.00  0.00    -0.011 C 
HETATM   22  C8  UNL     1      11.561   3.517 -24.844  1.00  0.00     0.010 C 
BRANCH  21  23
HETATM   23  C6  UNL     1       9.651   3.227 -23.385  1.00  0.00     0.012 C 
BRANCH  23  24
HETATM   24  C5  UNL     1       9.578   1.922 -22.707  1.00  0.00     0.079 C 
BRANCH  24  25
HETATM   25  C4  UNL     1       8.243   1.360 -22.464  1.00  0.00     0.130 C 
HETATM   26  O1  UNL     1       7.401   2.084 -21.963  1.00  0.00    -0.298 OA
BRANCH  25  27
HETATM   27  C2  UNL     1       7.846  -0.033 -22.788  1.00  0.00     0.047 C 
HETATM   28  C1  UNL     1       6.533  -0.120 -23.508  1.00  0.00     0.017 C 
HETATM   29  C3  UNL     1       7.807  -0.876 -21.553  1.00  0.00     0.017 C 
ENDBRANCH  25  27
ENDBRANCH  24  25
ENDBRANCH  23  24
ENDBRANCH  21  23
ENDBRANCH   1  21
BRANCH   2  30
HETATM   30  O2  UNL     1       7.902   5.723 -24.626  1.00  0.00    -0.395 OA
ATOM     31  H2  UNL     1       8.160   6.119 -23.802  1.00  0.00     0.210 HD
ENDBRANCH   2  30
BRANCH  14  32
HETATM   32  C24 UNL     1       1.364   2.975 -29.274  1.00  0.00     0.397 C 
HETATM   33  F1  UNL     1       0.896   3.143 -28.030  1.00  0.00    -0.170 F 
HETATM   34  F2  UNL     1       1.549   4.213 -29.939  1.00  0.00    -0.170 F 
HETATM   35  F3  UNL     1       0.243   2.478 -29.977  1.00  0.00    -0.170 F 
ENDBRANCH  14  32
BRANCH  13  36
HETATM   36  O3  UNL     1       1.719   0.438 -28.042  1.00  0.00    -0.394 OA
ATOM     37  H3  UNL     1       0.790   0.492 -28.236  1.00  0.00     0.210 HD
ENDBRANCH  13  36
TORSDOF 8
ENDMDL
MODEL 4
REMARK VINA RESULT: -7.193715889      3.838      8.285
REMARK  8 active torsions:
REMARK  status: ('A' for Active; 'I' for Inactive)
REMARK    1  A    between atoms: C2_2  and  C4_4 
REMARK    2  A    between atoms: C4_4  and  C5_6 
REMARK    3  A    between atoms: C5_6  and  C6_7 
REMARK    4  A    between atoms: C6_7  and  C7_8 
REMARK    5  A    between atoms: C7_8  and  C9_10 
REMARK    6  A    between atoms: C10_11  and  O2_12 
REMARK    7  A    between atoms: C21_24  and  O3_25 
REMARK    8  A    between atoms: C22_27  and  C24_29 
ROOT
HETATM    1  C9  UNL     1       6.273   3.279 -25.329  1.00  0.00     0.026 C 
HETATM    2  C10 UNL     1       5.841   4.687 -25.689  1.00  0.00     0.123 C 
HETATM    3  C11 UNL     1       6.819   5.172 -26.728  1.00  0.00     0.038 C 
HETATM    4  C12 UNL     1       7.727   3.983 -27.085  1.00  0.00     0.001 C 
HETATM    5  C13 UNL     1       9.051   4.468 -27.554  1.00  0.00    -0.005 C 
HETATM    6  C14 UNL     1       9.152   5.950 -27.393  1.00  0.00     0.006 C 
HETATM    7  C15 UNL     1      10.415   6.385 -28.169  1.00  0.00     0.007 C 
HETATM    8  C16 UNL     1      11.640   5.891 -27.488  1.00  0.00     0.013 C 
HETATM    9  C17 UNL     1      11.570   4.402 -27.302  1.00  0.00    -0.035 C 
HETATM   10  C18 UNL     1      12.460   3.882 -26.167  1.00  0.00     0.016 C 
HETATM   11  C19 UNL     1      12.067   3.681 -28.530  1.00  0.00     0.012 C 
HETATM   12  C20 UNL     1      12.311   4.444 -29.752  1.00  0.00     0.034 C 
HETATM   13  C21 UNL     1      12.835   5.831 -29.644  1.00  0.00     0.135 C 
HETATM   14  C22 UNL     1      12.846   6.359 -28.223  1.00  0.00     0.084 C 
HETATM   15  C23 UNL     1      14.166   5.792 -27.647  1.00  0.00     0.027 C 
HETATM   16  C25 UNL     1      10.216   3.887 -26.844  1.00  0.00    -0.002 C 
HETATM   17  C26 UNL     1       9.979   4.018 -25.383  1.00  0.00     0.006 C 
HETATM   18  C27 UNL     1       8.568   4.029 -24.905  1.00  0.00     0.010 C 
HETATM   19  C28 UNL     1       7.655   3.197 -25.841  1.00  0.00    -0.034 C 
HETATM   20  C29 UNL     1       8.254   1.835 -25.779  1.00  0.00     0.016 C 
ENDROOT
BRANCH   1  21
HETATM   21  C7  UNL     1       5.218   2.384 -25.743  1.00  0.00    -0.011 C 
HETATM   22  C8  UNL     1       5.350   1.351 -26.771  1.00  0.00     0.010 C 
BRANCH  21  23
HETATM   23  C6  UNL     1       4.652   1.741 -24.486  1.00  0.00     0.012 C 
BRANCH  23  24
HETATM   24  C5  UNL     1       5.499   1.807 -23.283  1.00  0.00     0.079 C 
BRANCH  24  25
HETATM   25  C4  UNL     1       6.281   0.613 -22.942  1.00  0.00     0.130 C 
HETATM   26  O1  UNL     1       6.041  -0.419 -23.544  1.00  0.00    -0.298 OA
BRANCH  25  27
HETATM   27  C2  UNL     1       7.348   0.574 -21.910  1.00  0.00     0.047 C 
HETATM   28  C1  UNL     1       8.511   1.468 -22.229  1.00  0.00     0.017 C 
HETATM   29  C3  UNL     1       7.828  -0.827 -21.694  1.00  0.00     0.017 C 
ENDBRANCH  25  27
ENDBRANCH  24  25
ENDBRANCH  23  24
ENDBRANCH  21  23
ENDBRANCH   1  21
BRANCH   2  30
HETATM   30  O2  UNL     1       5.686   5.523 -24.619  1.00  0.00    -0.395 OA
ATOM     31  H2  UNL     1       5.438   6.412 -24.846  1.00  0.00     0.210 HD
ENDBRANCH   2  30
BRANCH  14  32
HETATM   32  C24 UNL     1      13.049   7.827 -28.136  1.00  0.00     0.397 C 
HETATM   33  F1  UNL     1      12.029   8.677 -28.323  1.00  0.00    -0.170 F 
HETATM   34  F2  UNL     1      13.721   8.074 -26.913  1.00  0.00    -0.170 F 
HETATM   35  F3  UNL     1      14.022   8.284 -29.054  1.00  0.00    -0.170 F 
ENDBRANCH  14  32
BRANCH  13  36
HETATM   36  O3  UNL     1      12.132   6.621 -30.541  1.00  0.00    -0.394 OA
ATOM     37  H3  UNL     1      12.274   7.529 -30.302  1.00  0.00     0.210 HD
ENDBRANCH  13  36
TORSDOF 8
ENDMDL
MODEL 5
REMARK VINA RESULT: -7.176848363      1.696      3.557
REMARK  8 active torsions:
REMARK  status: ('A' for Active; 'I' for Inactive)
REMARK    1  A    between atoms: C2_2  and  C4_4 
REMARK    2  A    between atoms: C4_4  and  C5_6 
REMARK    3  A    between atoms: C5_6  and  C6_7 
REMARK    4  A    between atoms: C6_7  and  C7_8 
REMARK    5  A    between atoms: C7_8  and  C9_10 
REMARK    6  A    between atoms: C10_11  and  O2_12 
REMARK    7  A    between atoms: C21_24  and  O3_25 
REMARK    8  A    between atoms: C22_27  and  C24_29 
ROOT
HETATM    1  C9  UNL     1      10.825   5.672 -28.956  1.00  0.00     0.026 C 
HETATM    2  C10 UNL     1      11.884   4.958 -28.139  1.00  0.00     0.123 C 
HETATM    3  C11 UNL     1      11.188   3.800 -27.472  1.00  0.00     0.038 C 
HETATM    4  C12 UNL     1       9.755   3.752 -28.028  1.00  0.00     0.001 C 
HETATM    5  C13 UNL     1       8.837   3.133 -27.036  1.00  0.00    -0.005 C 
HETATM    6  C14 UNL     1       9.551   2.886 -25.747  1.00  0.00     0.006 C 
HETATM    7  C15 UNL     1       8.620   1.987 -24.903  1.00  0.00     0.007 C 
HETATM    8  C16 UNL     1       7.414   2.742 -24.477  1.00  0.00     0.013 C 
HETATM    9  C17 UNL     1       6.712   3.325 -25.671  1.00  0.00    -0.035 C 
HETATM   10  C18 UNL     1       5.830   4.532 -25.337  1.00  0.00     0.016 C 
HETATM   11  C19 UNL     1       5.764   2.323 -26.282  1.00  0.00     0.012 C 
HETATM   12  C20 UNL     1       5.810   0.934 -25.829  1.00  0.00     0.034 C 
HETATM   13  C21 UNL     1       6.110   0.649 -24.401  1.00  0.00     0.135 C 
HETATM   14  C22 UNL     1       6.554   1.875 -23.626  1.00  0.00     0.084 C 
HETATM   15  C23 UNL     1       5.215   2.545 -23.234  1.00  0.00     0.027 C 
HETATM   16  C25 UNL     1       7.638   3.941 -26.706  1.00  0.00    -0.002 C 
HETATM   17  C26 UNL     1       8.086   5.318 -26.376  1.00  0.00     0.006 C 
HETATM   18  C27 UNL     1       9.338   5.814 -27.012  1.00  0.00     0.010 C 
HETATM   19  C28 UNL     1       9.555   5.163 -28.401  1.00  0.00    -0.034 C 
HETATM   20  C29 UNL     1       8.342   5.573 -29.162  1.00  0.00     0.016 C 
ENDROOT
BRANCH   1  21
HETATM   21  C7  UNL     1      11.192   5.544 -30.347  1.00  0.00    -0.011 C 
HETATM   22  C8  UNL     1      11.844   6.584 -31.142  1.00  0.00     0.010 C 
BRANCH  21  23
HETATM   23  C6  UNL     1      11.995   4.259 -30.485  1.00  0.00     0.012 C 
BRANCH  23  24
HETATM   24  C5  UNL     1      11.462   3.255 -31.420  1.00  0.00     0.079 C 
BRANCH  24  25
HETATM   25  C4  UNL     1      10.707   2.133 -30.849  1.00  0.00     0.130 C 
HETATM   26  O1  UNL     1      11.245   1.464 -29.984  1.00  0.00    -0.298 OA
BRANCH  25  27
HETATM   27  C2  UNL     1       9.330   1.755 -31.253  1.00  0.00     0.047 C 
HETATM   28  C1  UNL     1       8.497   2.928 -31.679  1.00  0.00     0.017 C 
HETATM   29  C3  UNL     1       8.638   1.011 -30.154  1.00  0.00     0.017 C 
ENDBRANCH  25  27
ENDBRANCH  24  25
ENDBRANCH  23  24
ENDBRANCH  21  23
ENDBRANCH   1  21
BRANCH   2  30
HETATM   30  O2  UNL     1      12.585   5.767 -27.291  1.00  0.00    -0.395 OA
ATOM     31  H2  UNL     1      12.262   5.774 -26.397  1.00  0.00     0.210 HD
ENDBRANCH   2  30
BRANCH  14  32
HETATM   32  C24 UNL     1       7.165   1.558 -22.311  1.00  0.00     0.397 C 
HETATM   33  F1  UNL     1       8.164   0.669 -22.211  1.00  0.00    -0.170 F 
HETATM   34  F2  UNL     1       7.500   2.795 -21.708  1.00  0.00    -0.170 F 
HETATM   35  F3  UNL     1       6.212   1.077 -21.385  1.00  0.00    -0.170 F 
ENDBRANCH  14  32
BRANCH  13  36
HETATM   36  O3  UNL     1       7.007  -0.407 -24.360  1.00  0.00    -0.394 OA
ATOM     37  H3  UNL     1       7.460  -0.370 -23.526  1.00  0.00     0.210 HD
ENDBRANCH  13  36
TORSDOF 8
ENDMDL
