MODEL 1
REMARK VINA RESULT: -8.168251313      0.000      0.000
REMARK  16 active torsions:
REMARK  status: ('A' for Active; 'I' for Inactive)
REMARK    1  A    between atoms: C2_2  and  C18_28 
REMARK    2  A    between atoms: C3_3  and  C4_4 
REMARK    3  A    between atoms: C4_4  and  O2_6 
REMARK    4  A    between atoms: O2_6  and  S1_7 
REMARK    5  A    between atoms: S1_7  and  N1_10 
REMARK    6  A    between atoms: N1_10  and  C5_12 
REMARK    7  A    between atoms: C5_12  and  C6_13 
REMARK    8  A    between atoms: C6_13  and  C7_14 
REMARK    9  A    between atoms: C7_14  and  N2_15 
REMARK   10  A    between atoms: C10_18  and  N3_19 
REMARK   11  A    between atoms: C19_29  and  C21_31 
REMARK   12  A    between atoms: C22_32  and  C23_33 
REMARK   13  A    between atoms: C25_35  and  N5_37 
REMARK   14  A    between atoms: C29_40  and  C30_41 
REMARK   15  A    between atoms: C30_41  and  C31_42 
REMARK   16  A    between atoms: C31_42  and  C32_43 
ROOT
HETATM    1  C32 UNL     1      18.572  25.092  15.699  1.00  0.00     0.042 C 
HETATM    2  C33 UNL     1      18.083  25.438  17.082  1.00  0.00     0.031 C 
HETATM    3  C34 UNL     1      19.666  24.053  15.836  1.00  0.00     0.031 C 
HETATM    4  C35 UNL     1      19.040  26.294  15.049  1.00  0.00     0.068 C 
HETATM    5  N6  UNL     1      19.393  27.254  14.530  1.00  0.00    -0.196 NA
ENDROOT
BRANCH   1   6
HETATM    6  C31 UNL     1      17.396  24.479  14.936  1.00  0.00     0.024 C 
BRANCH   6   7
HETATM    7  C30 UNL     1      16.300  24.111  15.868  1.00  0.00     0.010 C 
BRANCH   7   8
HETATM    8  C29 UNL     1      15.914  22.673  15.842  1.00  0.00     0.040 C 
HETATM    9  C25 UNL     1      15.507  22.087  17.147  1.00  0.00     0.178 C 
HETATM   10  C24 UNL     1      14.455  21.136  16.799  1.00  0.00     0.022 C 
HETATM   11  C26 UNL     1      14.988  23.117  18.123  1.00  0.00     0.054 C 
HETATM   12  C23 UNL     1      14.042  21.235  15.549  1.00  0.00    -0.051 C 
HETATM   13  C36 UNL     1      14.802  22.316  14.887  1.00  0.00    -0.014 C 
HETATM   14  C37 UNL     1      15.402  21.866  13.558  1.00  0.00     0.020 C 
HETATM   15  C38 UNL     1      13.808  23.444  14.670  1.00  0.00     0.020 C 
BRANCH   9  16
HETATM   16  N5  UNL     1      16.592  21.307  17.730  1.00  0.00     0.093 N 
HETATM   17  C27 UNL     1      17.017  21.831  19.016  1.00  0.00     0.310 C 
HETATM   18  C28 UNL     1      17.687  21.040  16.863  1.00  0.00     0.310 C 
ENDBRANCH   9  16
BRANCH  12  19
HETATM   19  C22 UNL     1      12.981  20.372  14.982  1.00  0.00     0.008 C 
HETATM   20  C21 UNL     1      12.579  20.402  13.720  1.00  0.00     0.007 C 
BRANCH  20  21
HETATM   21  C19 UNL     1      11.551  19.541  13.251  1.00  0.00    -0.061 C 
HETATM   22  C18 UNL     1      10.284  19.579  13.398  1.00  0.00     0.013 C 
HETATM   23  C20 UNL     1      12.072  18.304  12.493  1.00  0.00     0.048 C 
BRANCH  22  24
HETATM   24  C2  UNL     1       9.410  20.534  14.022  1.00  0.00    -0.056 C 
HETATM   25  C1  UNL     1       8.927  21.760  13.278  1.00  0.00     0.048 C 
HETATM   26  C3  UNL     1       8.912  20.421  15.249  1.00  0.00     0.090 C 
BRANCH  26  27
HETATM   27  C4  UNL     1       9.132  19.421  16.235  1.00  0.00     0.299 C 
HETATM   28  O1  UNL     1       8.734  18.245  16.197  1.00  0.00    -0.259 OA
BRANCH  27  29
HETATM   29  O2  UNL     1       9.882  19.767  17.394  1.00  0.00    -0.176 OA
BRANCH  29  30
HETATM   30  S1  UNL     1      10.966  18.661  18.053  1.00  0.00     0.365 S 
HETATM   31  O3  UNL     1      10.319  18.016  19.264  1.00  0.00    -0.175 OA
HETATM   32  O4  UNL     1      12.181  19.394  18.564  1.00  0.00    -0.175 OA
BRANCH  30  33
HETATM   33  N1  UNL     1      11.345  17.436  16.931  1.00  0.00    -0.296 N 
ATOM     34  H1  UNL     1      11.506  17.613  15.939  1.00  0.00     0.174 HD
BRANCH  33  35
HETATM   35  C5  UNL     1      11.413  16.128  17.523  1.00  0.00     0.135 C 
BRANCH  35  36
HETATM   36  C6  UNL     1      10.301  15.202  17.107  1.00  0.00     0.050 C 
BRANCH  36  37
HETATM   37  C7  UNL     1      10.738  14.340  15.944  1.00  0.00     0.274 C 
BRANCH  37  38
HETATM   38  N2  UNL     1      10.635  14.994  14.663  1.00  0.00     0.088 N 
HETATM   39  C8  UNL     1       9.188  15.187  14.427  1.00  0.00     0.274 C 
HETATM   40  C9  UNL     1       9.122  16.110  13.219  1.00  0.00     0.066 C 
HETATM   41  C10 UNL     1       9.571  15.318  12.007  1.00  0.00     0.226 C 
HETATM   42  C16 UNL     1      10.957  14.719  12.252  1.00  0.00     0.066 C 
HETATM   43  C17 UNL     1      11.062  14.080  13.623  1.00  0.00     0.274 C 
BRANCH  41  44
HETATM   44  N3  UNL     1       9.671  16.203  10.891  1.00  0.00     0.096 N 
HETATM   45  C11 UNL     1      10.051  15.571   9.650  1.00  0.00     0.303 C 
HETATM   46  C12 UNL     1       8.976  14.570   9.295  1.00  0.00     0.302 C 
HETATM   47  N4  UNL     1       7.666  15.120   9.212  1.00  0.00     0.087 N 
HETATM   48  C13 UNL     1       6.718  14.013   9.418  1.00  0.00     0.310 C 
HETATM   49  C14 UNL     1       7.338  16.148  10.140  1.00  0.00     0.302 C 
HETATM   50  C15 UNL     1       8.482  16.973  10.624  1.00  0.00     0.303 C 
ENDBRANCH  41  44
ENDBRANCH  37  38
ENDBRANCH  36  37
ENDBRANCH  35  36
ENDBRANCH  33  35
ENDBRANCH  30  33
ENDBRANCH  29  30
ENDBRANCH  27  29
ENDBRANCH  26  27
ENDBRANCH  22  24
ENDBRANCH  20  21
ENDBRANCH  12  19
ENDBRANCH   7   8
ENDBRANCH   6   7
ENDBRANCH   1   6
TORSDOF 16
ENDMDL
MODEL 2
REMARK VINA RESULT: -8.000840317      2.376      4.954
REMARK  16 active torsions:
REMARK  status: ('A' for Active; 'I' for Inactive)
REMARK    1  A    between atoms: C2_2  and  C18_28 
REMARK    2  A    between atoms: C3_3  and  C4_4 
REMARK    3  A    between atoms: C4_4  and  O2_6 
REMARK    4  A    between atoms: O2_6  and  S1_7 
REMARK    5  A    between atoms: S1_7  and  N1_10 
REMARK    6  A    between atoms: N1_10  and  C5_12 
REMARK    7  A    between atoms: C5_12  and  C6_13 
REMARK    8  A    between atoms: C6_13  and  C7_14 
REMARK    9  A    between atoms: C7_14  and  N2_15 
REMARK   10  A    between atoms: C10_18  and  N3_19 
REMARK   11  A    between atoms: C19_29  and  C21_31 
REMARK   12  A    between atoms: C22_32  and  C23_33 
REMARK   13  A    between atoms: C25_35  and  N5_37 
REMARK   14  A    between atoms: C29_40  and  C30_41 
REMARK   15  A    between atoms: C30_41  and  C31_42 
REMARK   16  A    between atoms: C31_42  and  C32_43 
ROOT
HETATM    1  C32 UNL     1      21.151  25.565  20.043  1.00  0.00     0.042 C 
HETATM    2  C33 UNL     1      20.979  26.620  21.105  1.00  0.00     0.031 C 
HETATM    3  C34 UNL     1      20.232  24.408  20.379  1.00  0.00     0.031 C 
HETATM    4  C35 UNL     1      22.537  25.164  19.997  1.00  0.00     0.068 C 
HETATM    5  N6  UNL     1      23.644  24.863  19.950  1.00  0.00    -0.196 NA
ENDROOT
BRANCH   1   6
HETATM    6  C31 UNL     1      20.712  26.178  18.711  1.00  0.00     0.024 C 
BRANCH   6   7
HETATM    7  C30 UNL     1      20.429  25.115  17.712  1.00  0.00     0.010 C 
BRANCH   7   8
HETATM    8  C29 UNL     1      19.174  25.308  16.935  1.00  0.00     0.040 C 
HETATM    9  C25 UNL     1      19.342  25.499  15.469  1.00  0.00     0.178 C 
HETATM   10  C24 UNL     1      18.181  24.833  14.886  1.00  0.00     0.022 C 
HETATM   11  C26 UNL     1      20.621  24.895  14.936  1.00  0.00     0.054 C 
HETATM   12  C23 UNL     1      17.494  24.111  15.752  1.00  0.00    -0.051 C 
HETATM   13  C36 UNL     1      18.148  24.211  17.073  1.00  0.00    -0.014 C 
HETATM   14  C37 UNL     1      17.162  24.578  18.177  1.00  0.00     0.020 C 
HETATM   15  C38 UNL     1      18.758  22.845  17.334  1.00  0.00     0.020 C 
BRANCH   9  16
HETATM   16  N5  UNL     1      19.234  26.908  15.110  1.00  0.00     0.093 N 
HETATM   17  C27 UNL     1      18.425  27.112  13.921  1.00  0.00     0.310 C 
HETATM   18  C28 UNL     1      20.463  27.622  15.062  1.00  0.00     0.310 C 
ENDBRANCH   9  16
BRANCH  12  19
HETATM   19  C22 UNL     1      16.280  23.349  15.379  1.00  0.00     0.008 C 
HETATM   20  C21 UNL     1      16.254  22.047  15.131  1.00  0.00     0.007 C 
BRANCH  20  21
HETATM   21  C19 UNL     1      15.046  21.388  14.777  1.00  0.00    -0.061 C 
HETATM   22  C18 UNL     1      14.128  20.866  15.492  1.00  0.00     0.013 C 
HETATM   23  C20 UNL     1      14.855  21.212  13.257  1.00  0.00     0.048 C 
BRANCH  22  24
HETATM   24  C2  UNL     1      13.922  20.807  16.913  1.00  0.00    -0.056 C 
HETATM   25  C1  UNL     1      14.535  21.837  17.838  1.00  0.00     0.048 C 
HETATM   26  C3  UNL     1      13.163  19.912  17.535  1.00  0.00     0.090 C 
BRANCH  26  27
HETATM   27  C4  UNL     1      12.435  18.809  17.011  1.00  0.00     0.299 C 
HETATM   28  O1  UNL     1      12.657  17.607  17.226  1.00  0.00    -0.259 OA
BRANCH  27  29
HETATM   29  O2  UNL     1      11.331  19.075  16.152  1.00  0.00    -0.176 OA
BRANCH  29  30
HETATM   30  S1  UNL     1       9.800  19.323  16.805  1.00  0.00     0.365 S 
HETATM   31  O3  UNL     1       9.805  18.834  18.242  1.00  0.00    -0.175 OA
HETATM   32  O4  UNL     1       8.798  18.468  16.071  1.00  0.00    -0.175 OA
BRANCH  30  33
HETATM   33  N1  UNL     1       9.398  20.979  16.804  1.00  0.00    -0.296 N 
ATOM     34  H1  UNL     1       9.535  21.591  17.609  1.00  0.00     0.174 HD
BRANCH  33  35
HETATM   35  C5  UNL     1       8.848  21.426  15.554  1.00  0.00     0.135 C 
BRANCH  35  36
HETATM   36  C6  UNL     1       9.822  21.402  14.406  1.00  0.00     0.050 C 
BRANCH  36  37
HETATM   37  C7  UNL     1       9.111  21.056  13.116  1.00  0.00     0.274 C 
BRANCH  37  38
HETATM   38  N2  UNL     1       9.819  20.104  12.297  1.00  0.00     0.088 N 
HETATM   39  C8  UNL     1       8.822  19.077  11.925  1.00  0.00     0.274 C 
HETATM   40  C9  UNL     1       9.516  18.248  10.854  1.00  0.00     0.066 C 
HETATM   41  C10 UNL     1      10.609  17.444  11.527  1.00  0.00     0.226 C 
HETATM   42  C16 UNL     1      11.551  18.374  12.296  1.00  0.00     0.066 C 
HETATM   43  C17 UNL     1      10.789  19.400  13.111  1.00  0.00     0.274 C 
BRANCH  41  44
HETATM   44  N3  UNL     1      11.378  16.781  10.523  1.00  0.00     0.096 N 
HETATM   45  C11 UNL     1      12.503  16.026  11.022  1.00  0.00     0.303 C 
HETATM   46  C12 UNL     1      11.964  14.939  11.923  1.00  0.00     0.302 C 
HETATM   47  N4  UNL     1      11.006  14.086  11.307  1.00  0.00     0.087 N 
HETATM   48  C13 UNL     1      10.201  13.489  12.385  1.00  0.00     0.310 C 
HETATM   49  C14 UNL     1      10.108  14.688  10.381  1.00  0.00     0.302 C 
HETATM   50  C15 UNL     1      10.621  15.897   9.673  1.00  0.00     0.303 C 
ENDBRANCH  41  44
ENDBRANCH  37  38
ENDBRANCH  36  37
ENDBRANCH  35  36
ENDBRANCH  33  35
ENDBRANCH  30  33
ENDBRANCH  29  30
ENDBRANCH  27  29
ENDBRANCH  26  27
ENDBRANCH  22  24
ENDBRANCH  20  21
ENDBRANCH  12  19
ENDBRANCH   7   8
ENDBRANCH   6   7
ENDBRANCH   1   6
TORSDOF 16
ENDMDL
MODEL 3
REMARK VINA RESULT: -7.917104761      3.168      5.880
REMARK  16 active torsions:
REMARK  status: ('A' for Active; 'I' for Inactive)
REMARK    1  A    between atoms: C2_2  and  C18_28 
REMARK    2  A    between atoms: C3_3  and  C4_4 
REMARK    3  A    between atoms: C4_4  and  O2_6 
REMARK    4  A    between atoms: O2_6  and  S1_7 
REMARK    5  A    between atoms: S1_7  and  N1_10 
REMARK    6  A    between atoms: N1_10  and  C5_12 
REMARK    7  A    between atoms: C5_12  and  C6_13 
REMARK    8  A    between atoms: C6_13  and  C7_14 
REMARK    9  A    between atoms: C7_14  and  N2_15 
REMARK   10  A    between atoms: C10_18  and  N3_19 
REMARK   11  A    between atoms: C19_29  and  C21_31 
REMARK   12  A    between atoms: C22_32  and  C23_33 
REMARK   13  A    between atoms: C25_35  and  N5_37 
REMARK   14  A    between atoms: C29_40  and  C30_41 
REMARK   15  A    between atoms: C30_41  and  C31_42 
REMARK   16  A    between atoms: C31_42  and  C32_43 
ROOT
HETATM    1  C32 UNL     1      21.607  26.794  19.846  1.00  0.00     0.042 C 
HETATM    2  C33 UNL     1      21.141  25.397  20.167  1.00  0.00     0.031 C 
HETATM    3  C34 UNL     1      23.102  26.745  19.606  1.00  0.00     0.031 C 
HETATM    4  C35 UNL     1      21.259  27.670  20.939  1.00  0.00     0.068 C 
HETATM    5  N6  UNL     1      20.964  28.366  21.803  1.00  0.00    -0.196 NA
ENDROOT
BRANCH   1   6
HETATM    6  C31 UNL     1      20.910  27.226  18.554  1.00  0.00     0.024 C 
BRANCH   6   7
HETATM    7  C30 UNL     1      20.983  26.149  17.533  1.00  0.00     0.010 C 
BRANCH   7   8
HETATM    8  C29 UNL     1      19.714  25.903  16.795  1.00  0.00     0.040 C 
HETATM    9  C25 UNL     1      19.816  25.907  15.310  1.00  0.00     0.178 C 
HETATM   10  C24 UNL     1      18.857  24.891  14.884  1.00  0.00     0.022 C 
HETATM   11  C26 UNL     1      21.201  25.569  14.811  1.00  0.00     0.054 C 
HETATM   12  C23 UNL     1      18.384  24.159  15.874  1.00  0.00    -0.051 C 
HETATM   13  C36 UNL     1      19.002  24.618  17.136  1.00  0.00    -0.014 C 
HETATM   14  C37 UNL     1      17.964  24.888  18.221  1.00  0.00     0.020 C 
HETATM   15  C38 UNL     1      19.942  23.503  17.561  1.00  0.00     0.020 C 
BRANCH   9  16
HETATM   16  N5  UNL     1      19.349  27.173  14.758  1.00  0.00     0.093 N 
HETATM   17  C27 UNL     1      18.268  26.993  13.806  1.00  0.00     0.310 C 
HETATM   18  C28 UNL     1      20.366  28.038  14.269  1.00  0.00     0.310 C 
ENDBRANCH   9  16
BRANCH  12  19
HETATM   19  C22 UNL     1      17.401  23.070  15.671  1.00  0.00     0.008 C 
HETATM   20  C21 UNL     1      16.256  23.200  15.017  1.00  0.00     0.007 C 
BRANCH  20  21
HETATM   21  C19 UNL     1      15.363  22.105  14.866  1.00  0.00    -0.061 C 
HETATM   22  C18 UNL     1      14.687  21.442  15.722  1.00  0.00     0.013 C 
HETATM   23  C20 UNL     1      15.254  21.585  13.420  1.00  0.00     0.048 C 
BRANCH  22  24
HETATM   24  C2  UNL     1      14.510  21.589  17.140  1.00  0.00    -0.056 C 
HETATM   25  C1  UNL     1      14.390  22.956  17.779  1.00  0.00     0.048 C 
HETATM   26  C3  UNL     1      14.385  20.584  17.999  1.00  0.00     0.090 C 
BRANCH  26  27
HETATM   27  C4  UNL     1      14.440  19.181  17.777  1.00  0.00     0.299 C 
HETATM   28  O1  UNL     1      15.369  18.418  18.091  1.00  0.00    -0.259 OA
BRANCH  27  29
HETATM   29  O2  UNL     1      13.334  18.553  17.137  1.00  0.00    -0.176 OA
BRANCH  29  30
HETATM   30  S1  UNL     1      11.859  18.432  17.938  1.00  0.00     0.365 S 
HETATM   31  O3  UNL     1      12.125  18.386  19.432  1.00  0.00    -0.175 OA
HETATM   32  O4  UNL     1      11.204  17.121  17.584  1.00  0.00    -0.175 OA
BRANCH  30  33
HETATM   33  N1  UNL     1      10.875  19.784  17.611  1.00  0.00    -0.296 N 
ATOM     34  H1  UNL     1      10.716  20.538  18.279  1.00  0.00     0.174 HD
BRANCH  33  35
HETATM   35  C5  UNL     1      10.292  19.754  16.298  1.00  0.00     0.135 C 
BRANCH  35  36
HETATM   36  C6  UNL     1      11.038  20.566  15.271  1.00  0.00     0.050 C 
BRANCH  36  37
HETATM   37  C7  UNL     1      10.971  19.896  13.917  1.00  0.00     0.274 C 
BRANCH  37  38
HETATM   38  N2  UNL     1       9.682  19.999  13.278  1.00  0.00     0.088 N 
HETATM   39  C8  UNL     1       9.905  19.629  11.864  1.00  0.00     0.274 C 
HETATM   40  C9  UNL     1       8.504  19.482  11.287  1.00  0.00     0.066 C 
HETATM   41  C10 UNL     1       7.895  20.866  11.193  1.00  0.00     0.226 C 
HETATM   42  C16 UNL     1       7.931  21.552  12.561  1.00  0.00     0.066 C 
HETATM   43  C17 UNL     1       9.277  21.390  13.238  1.00  0.00     0.274 C 
BRANCH  41  44
HETATM   44  N3  UNL     1       6.526  20.741  10.806  1.00  0.00     0.096 N 
HETATM   45  C11 UNL     1       5.831  21.993  10.627  1.00  0.00     0.303 C 
HETATM   46  C12 UNL     1       6.516  22.744   9.508  1.00  0.00     0.302 C 
HETATM   47  N4  UNL     1       6.601  22.024   8.283  1.00  0.00     0.087 N 
HETATM   48  C13 UNL     1       7.718  22.601   7.519  1.00  0.00     0.310 C 
HETATM   49  C14 UNL     1       6.820  20.621   8.375  1.00  0.00     0.302 C 
HETATM   50  C15 UNL     1       6.308  19.963   9.612  1.00  0.00     0.303 C 
ENDBRANCH  41  44
ENDBRANCH  37  38
ENDBRANCH  36  37
ENDBRANCH  35  36
ENDBRANCH  33  35
ENDBRANCH  30  33
ENDBRANCH  29  30
ENDBRANCH  27  29
ENDBRANCH  26  27
ENDBRANCH  22  24
ENDBRANCH  20  21
ENDBRANCH  12  19
ENDBRANCH   7   8
ENDBRANCH   6   7
ENDBRANCH   1   6
TORSDOF 16
ENDMDL
MODEL 4
REMARK VINA RESULT: -7.843471741      2.447      4.753
REMARK  16 active torsions:
REMARK  status: ('A' for Active; 'I' for Inactive)
REMARK    1  A    between atoms: C2_2  and  C18_28 
REMARK    2  A    between atoms: C3_3  and  C4_4 
REMARK    3  A    between atoms: C4_4  and  O2_6 
REMARK    4  A    between atoms: O2_6  and  S1_7 
REMARK    5  A    between atoms: S1_7  and  N1_10 
REMARK    6  A    between atoms: N1_10  and  C5_12 
REMARK    7  A    between atoms: C5_12  and  C6_13 
REMARK    8  A    between atoms: C6_13  and  C7_14 
REMARK    9  A    between atoms: C7_14  and  N2_15 
REMARK   10  A    between atoms: C10_18  and  N3_19 
REMARK   11  A    between atoms: C19_29  and  C21_31 
REMARK   12  A    between atoms: C22_32  and  C23_33 
REMARK   13  A    between atoms: C25_35  and  N5_37 
REMARK   14  A    between atoms: C29_40  and  C30_41 
REMARK   15  A    between atoms: C30_41  and  C31_42 
REMARK   16  A    between atoms: C31_42  and  C32_43 
ROOT
HETATM    1  C32 UNL     1      20.200  25.753  15.605  1.00  0.00     0.042 C 
HETATM    2  C33 UNL     1      21.546  25.851  14.934  1.00  0.00     0.031 C 
HETATM    3  C34 UNL     1      19.180  26.425  14.708  1.00  0.00     0.031 C 
HETATM    4  C35 UNL     1      20.274  26.375  16.906  1.00  0.00     0.068 C 
HETATM    5  N6  UNL     1      20.343  26.853  17.947  1.00  0.00    -0.196 NA
ENDROOT
BRANCH   1   6
HETATM    6  C31 UNL     1      19.854  24.267  15.726  1.00  0.00     0.024 C 
BRANCH   6   7
HETATM    7  C30 UNL     1      18.413  24.087  16.040  1.00  0.00     0.010 C 
BRANCH   7   8
HETATM    8  C29 UNL     1      18.135  23.221  17.218  1.00  0.00     0.040 C 
HETATM    9  C25 UNL     1      17.594  23.913  18.419  1.00  0.00     0.178 C 
HETATM   10  C24 UNL     1      16.668  22.946  19.002  1.00  0.00     0.022 C 
HETATM   11  C26 UNL     1      16.874  25.200  18.086  1.00  0.00     0.054 C 
HETATM   12  C23 UNL     1      16.426  21.908  18.224  1.00  0.00    -0.051 C 
HETATM   13  C36 UNL     1      17.194  22.069  16.971  1.00  0.00    -0.014 C 
HETATM   14  C37 UNL     1      18.001  20.822  16.626  1.00  0.00     0.020 C 
HETATM   15  C38 UNL     1      16.163  22.354  15.892  1.00  0.00     0.020 C 
BRANCH   9  16
HETATM   16  N5  UNL     1      18.639  24.134  19.411  1.00  0.00     0.093 N 
HETATM   17  C27 UNL     1      19.537  22.997  19.525  1.00  0.00     0.310 C 
HETATM   18  C28 UNL     1      18.193  24.604  20.676  1.00  0.00     0.310 C 
ENDBRANCH   9  16
BRANCH  12  19
HETATM   19  C22 UNL     1      15.516  20.806  18.613  1.00  0.00     0.008 C 
HETATM   20  C21 UNL     1      14.992  20.652  19.820  1.00  0.00     0.007 C 
BRANCH  20  21
HETATM   21  C19 UNL     1      14.126  19.565  20.115  1.00  0.00    -0.061 C 
HETATM   22  C18 UNL     1      13.346  18.880  19.373  1.00  0.00     0.013 C 
HETATM   23  C20 UNL     1      14.072  19.200  21.612  1.00  0.00     0.048 C 
BRANCH  22  24
HETATM   24  C2  UNL     1      13.097  18.893  17.958  1.00  0.00    -0.056 C 
HETATM   25  C1  UNL     1      14.231  18.798  16.960  1.00  0.00     0.048 C 
HETATM   26  C3  UNL     1      11.893  18.937  17.398  1.00  0.00     0.090 C 
BRANCH  26  27
HETATM   27  C4  UNL     1      10.608  19.028  18.000  1.00  0.00     0.299 C 
HETATM   28  O1  UNL     1      10.096  18.206  18.777  1.00  0.00    -0.259 OA
BRANCH  27  29
HETATM   29  O2  UNL     1       9.804  20.165  17.708  1.00  0.00    -0.176 OA
BRANCH  29  30
HETATM   30  S1  UNL     1       9.305  20.456  16.127  1.00  0.00     0.365 S 
HETATM   31  O3  UNL     1       8.346  21.631  16.134  1.00  0.00    -0.175 OA
HETATM   32  O4  UNL     1       8.519  19.271  15.624  1.00  0.00    -0.175 OA
BRANCH  30  33
HETATM   33  N1  UNL     1      10.631  20.851  15.133  1.00  0.00    -0.296 N 
ATOM     34  H1  UNL     1      11.342  21.537  15.391  1.00  0.00     0.174 HD
BRANCH  33  35
HETATM   35  C5  UNL     1      10.647  20.123  13.894  1.00  0.00     0.135 C 
BRANCH  35  36
HETATM   36  C6  UNL     1      11.615  18.970  13.868  1.00  0.00     0.050 C 
BRANCH  36  37
HETATM   37  C7  UNL     1      11.000  17.778  13.168  1.00  0.00     0.274 C 
BRANCH  37  38
HETATM   38  N2  UNL     1      11.072  16.555  13.928  1.00  0.00     0.088 N 
HETATM   39  C8  UNL     1      10.410  15.527  13.097  1.00  0.00     0.274 C 
HETATM   40  C9  UNL     1      10.738  14.212  13.788  1.00  0.00     0.066 C 
HETATM   41  C10 UNL     1       9.958  14.164  15.086  1.00  0.00     0.226 C 
HETATM   42  C16 UNL     1      10.267  15.402  15.932  1.00  0.00     0.066 C 
HETATM   43  C17 UNL     1      10.237  16.673  15.106  1.00  0.00     0.274 C 
BRANCH  41  44
HETATM   44  N3  UNL     1      10.371  13.017  15.829  1.00  0.00     0.096 N 
HETATM   45  C11 UNL     1       9.700  12.843  17.096  1.00  0.00     0.303 C 
HETATM   46  C12 UNL     1       8.228  12.655  16.816  1.00  0.00     0.302 C 
HETATM   47  N4  UNL     1       7.931  11.583  15.927  1.00  0.00     0.087 N 
HETATM   48  C13 UNL     1       6.614  11.864  15.335  1.00  0.00     0.310 C 
HETATM   49  C14 UNL     1       8.846  11.359  14.860  1.00  0.00     0.302 C 
HETATM   50  C15 UNL     1      10.257  11.768  15.118  1.00  0.00     0.303 C 
ENDBRANCH  41  44
ENDBRANCH  37  38
ENDBRANCH  36  37
ENDBRANCH  35  36
ENDBRANCH  33  35
ENDBRANCH  30  33
ENDBRANCH  29  30
ENDBRANCH  27  29
ENDBRANCH  26  27
ENDBRANCH  22  24
ENDBRANCH  20  21
ENDBRANCH  12  19
ENDBRANCH   7   8
ENDBRANCH   6   7
ENDBRANCH   1   6
TORSDOF 16
ENDMDL
MODEL 5
REMARK VINA RESULT: -7.837823867      3.845     13.043
REMARK  16 active torsions:
REMARK  status: ('A' for Active; 'I' for Inactive)
REMARK    1  A    between atoms: C2_2  and  C18_28 
REMARK    2  A    between atoms: C3_3  and  C4_4 
REMARK    3  A    between atoms: C4_4  and  O2_6 
REMARK    4  A    between atoms: O2_6  and  S1_7 
REMARK    5  A    between atoms: S1_7  and  N1_10 
REMARK    6  A    between atoms: N1_10  and  C5_12 
REMARK    7  A    between atoms: C5_12  and  C6_13 
REMARK    8  A    between atoms: C6_13  and  C7_14 
REMARK    9  A    between atoms: C7_14  and  N2_15 
REMARK   10  A    between atoms: C10_18  and  N3_19 
REMARK   11  A    between atoms: C19_29  and  C21_31 
REMARK   12  A    between atoms: C22_32  and  C23_33 
REMARK   13  A    between atoms: C25_35  and  N5_37 
REMARK   14  A    between atoms: C29_40  and  C30_41 
REMARK   15  A    between atoms: C30_41  and  C31_42 
REMARK   16  A    between atoms: C31_42  and  C32_43 
ROOT
HETATM    1  C32 UNL     1       9.242  14.341  16.850  1.00  0.00     0.042 C 
HETATM    2  C33 UNL     1      10.692  14.030  17.114  1.00  0.00     0.031 C 
HETATM    3  C34 UNL     1       8.787  15.358  17.877  1.00  0.00     0.031 C 
HETATM    4  C35 UNL     1       8.477  13.119  16.917  1.00  0.00     0.068 C 
HETATM    5  N6  UNL     1       7.875  12.142  16.952  1.00  0.00    -0.196 NA
ENDROOT
BRANCH   1   6
HETATM    6  C31 UNL     1       9.153  14.969  15.457  1.00  0.00     0.024 C 
BRANCH   6   7
HETATM    7  C30 UNL     1       9.095  16.450  15.550  1.00  0.00     0.010 C 
BRANCH   7   8
HETATM    8  C29 UNL     1      10.355  17.149  15.179  1.00  0.00     0.040 C 
HETATM    9  C25 UNL     1      10.351  17.839  13.860  1.00  0.00     0.178 C 
HETATM   10  C24 UNL     1      11.167  19.030  14.077  1.00  0.00     0.022 C 
HETATM   11  C26 UNL     1       8.964  18.224  13.398  1.00  0.00     0.054 C 
HETATM   12  C23 UNL     1      11.457  19.250  15.345  1.00  0.00    -0.051 C 
HETATM   13  C36 UNL     1      10.837  18.186  16.162  1.00  0.00    -0.014 C 
HETATM   14  C37 UNL     1      11.833  17.546  17.124  1.00  0.00     0.020 C 
HETATM   15  C38 UNL     1       9.712  18.860  16.928  1.00  0.00     0.020 C 
BRANCH   9  16
HETATM   16  N5  UNL     1      11.041  17.042  12.853  1.00  0.00     0.093 N 
HETATM   17  C27 UNL     1      11.994  17.828  12.089  1.00  0.00     0.310 C 
HETATM   18  C28 UNL     1      10.203  16.247  12.023  1.00  0.00     0.310 C 
ENDBRANCH   9  16
BRANCH  12  19
HETATM   19  C22 UNL     1      12.272  20.402  15.795  1.00  0.00     0.008 C 
HETATM   20  C21 UNL     1      13.510  20.653  15.395  1.00  0.00     0.007 C 
BRANCH  20  21
HETATM   21  C19 UNL     1      14.227  21.781  15.875  1.00  0.00    -0.061 C 
HETATM   22  C18 UNL     1      14.881  21.969  16.955  1.00  0.00     0.013 C 
HETATM   23  C20 UNL     1      14.135  23.015  14.957  1.00  0.00     0.048 C 
BRANCH  22  24
HETATM   24  C2  UNL     1      15.203  21.103  18.055  1.00  0.00    -0.056 C 
HETATM   25  C1  UNL     1      14.132  20.603  19.001  1.00  0.00     0.048 C 
HETATM   26  C3  UNL     1      16.416  20.629  18.320  1.00  0.00     0.090 C 
BRANCH  26  27
HETATM   27  C4  UNL     1      17.654  20.870  17.664  1.00  0.00     0.299 C 
HETATM   28  O1  UNL     1      18.006  20.421  16.561  1.00  0.00    -0.259 OA
BRANCH  27  29
HETATM   29  O2  UNL     1      18.608  21.708  18.307  1.00  0.00    -0.176 OA
BRANCH  29  30
HETATM   30  S1  UNL     1      18.776  23.311  17.823  1.00  0.00     0.365 S 
HETATM   31  O3  UNL     1      20.074  23.853  18.395  1.00  0.00    -0.175 OA
HETATM   32  O4  UNL     1      17.670  24.136  18.430  1.00  0.00    -0.175 OA
BRANCH  30  33
HETATM   33  N1  UNL     1      18.848  23.431  16.125  1.00  0.00    -0.296 N 
ATOM     34  H1  UNL     1      19.572  22.986  15.560  1.00  0.00     0.174 HD
BRANCH  33  35
HETATM   35  C5  UNL     1      17.785  24.222  15.569  1.00  0.00     0.135 C 
BRANCH  35  36
HETATM   36  C6  UNL     1      18.026  25.708  15.623  1.00  0.00     0.050 C 
BRANCH  36  37
HETATM   37  C7  UNL     1      19.062  26.114  14.599  1.00  0.00     0.274 C 
BRANCH  37  38
HETATM   38  N2  UNL     1      20.245  26.708  15.170  1.00  0.00     0.088 N 
HETATM   39  C8  UNL     1      21.327  25.723  14.962  1.00  0.00     0.274 C 
HETATM   40  C9  UNL     1      22.600  26.477  15.320  1.00  0.00     0.066 C 
HETATM   41  C10 UNL     1      22.605  26.689  16.821  1.00  0.00     0.226 C 
HETATM   42  C16 UNL     1      21.321  27.398  17.258  1.00  0.00     0.066 C 
HETATM   43  C17 UNL     1      20.092  26.792  16.608  1.00  0.00     0.274 C 
BRANCH  41  44
HETATM   44  N3  UNL     1      23.705  27.532  17.162  1.00  0.00     0.096 N 
HETATM   45  C11 UNL     1      23.883  27.750  18.579  1.00  0.00     0.303 C 
HETATM   46  C12 UNL     1      24.166  26.411  19.219  1.00  0.00     0.302 C 
HETATM   47  N4  UNL     1      25.278  25.718  18.663  1.00  0.00     0.087 N 
HETATM   48  C13 UNL     1      25.092  24.290  18.965  1.00  0.00     0.310 C 
HETATM   49  C14 UNL     1      25.476  25.839  17.259  1.00  0.00     0.302 C 
HETATM   50  C15 UNL     1      24.978  27.102  16.640  1.00  0.00     0.303 C 
ENDBRANCH  41  44
ENDBRANCH  37  38
ENDBRANCH  36  37
ENDBRANCH  35  36
ENDBRANCH  33  35
ENDBRANCH  30  33
ENDBRANCH  29  30
ENDBRANCH  27  29
ENDBRANCH  26  27
ENDBRANCH  22  24
ENDBRANCH  20  21
ENDBRANCH  12  19
ENDBRANCH   7   8
ENDBRANCH   6   7
ENDBRANCH   1   6
TORSDOF 16
ENDMDL
