MODEL 1
REMARK VINA RESULT: -8.619223403      0.000      0.000
REMARK  17 active torsions:
REMARK  status: ('A' for Active; 'I' for Inactive)
REMARK    1  A    between atoms: C2_2  and  C3_3 
REMARK    2  A    between atoms: C3_3  and  C4_4 
REMARK    3  A    between atoms: C4_4  and  C5_5 
REMARK    4  A    between atoms: C5_5  and  O1_6 
REMARK    5  A    between atoms: O1_6  and  C6_7 
REMARK    6  A    between atoms: C6_7  and  C7_9 
REMARK    7  A    between atoms: C7_9  and  N1_10 
REMARK    8  A    between atoms: C7_9  and  C27_41 
REMARK       I    between atoms: N1_10  and  C8_12 
REMARK       I    between atoms: C8_12  and  N2_14 
REMARK    9  A    between atoms: C12_18  and  C13_19 
REMARK       I    between atoms: C13_19  and  N3_21 
REMARK   10  A    between atoms: C17_25  and  C18_26 
REMARK       I    between atoms: C18_26  and  N4_28 
REMARK   11  A    between atoms: N4_28  and  C19_30 
REMARK   12  A    between atoms: C19_30  and  C21_32 
REMARK   13  A    between atoms: C19_30  and  C24_36 
REMARK   14  A    between atoms: C21_32  and  C22_33 
REMARK   15  A    between atoms: C22_33  and  O6_34 
REMARK   16  A    between atoms: C24_36  and  O8_38 
REMARK   17  A    between atoms: C27_41  and  C29_43 
ROOT
HETATM    1  N1  UNL     1      18.586  23.539  17.109  1.00  0.00    -0.329 N 
ATOM      2  H1  UNL     1      19.582  23.379  17.262  1.00  0.00     0.165 HD
HETATM    3  C8  UNL     1      18.168  24.735  16.475  1.00  0.00     0.319 C 
HETATM    4  O3  UNL     1      16.929  24.912  16.296  1.00  0.00    -0.247 OA
HETATM    5  N2  UNL     1      19.039  25.761  16.022  1.00  0.00    -0.333 N 
HETATM    6  C9  UNL     1      18.438  26.939  15.412  1.00  0.00     0.127 C 
HETATM    7  C10 UNL     1      18.971  27.099  14.026  1.00  0.00     0.021 C 
HETATM    8  C11 UNL     1      20.169  26.214  13.738  1.00  0.00     0.017 C 
HETATM    9  C12 UNL     1      21.158  26.235  14.864  1.00  0.00     0.096 C 
HETATM   10  C26 UNL     1      20.480  25.715  16.133  1.00  0.00     0.141 C 
ENDROOT
BRANCH   1  11
HETATM   11  C7  UNL     1      17.620  22.524  17.553  1.00  0.00     0.189 C 
BRANCH  11  12
HETATM   12  C6  UNL     1      17.535  21.414  16.589  1.00  0.00     0.283 C 
HETATM   13  O2  UNL     1      18.538  20.710  16.427  1.00  0.00    -0.263 OA
BRANCH  12  14
HETATM   14  O1  UNL     1      16.423  21.132  15.881  1.00  0.00    -0.308 OA
BRANCH  14  15
HETATM   15  C5  UNL     1      15.166  20.679  16.354  1.00  0.00     0.071 C 
HETATM   16  C31 UNL     1      14.261  21.937  16.579  1.00  0.00     0.038 C 
HETATM   17  C32 UNL     1      14.384  22.893  15.465  1.00  0.00     0.003 C 
HETATM   18  C33 UNL     1      13.207  23.058  14.579  1.00  0.00     0.000 C 
HETATM   19  C34 UNL     1      12.048  22.145  14.856  1.00  0.00     0.000 C 
HETATM   20  C35 UNL     1      12.349  20.783  14.330  1.00  0.00     0.000 C 
HETATM   21  C36 UNL     1      13.028  19.844  15.257  1.00  0.00     0.003 C 
HETATM   22  C37 UNL     1      14.521  19.954  15.227  1.00  0.00     0.038 C 
BRANCH  15  23
HETATM   23  C4  UNL     1      15.225  19.988  17.646  1.00  0.00     0.038 C 
BRANCH  23  24
HETATM   24  C3  UNL     1      14.337  20.343  18.753  1.00  0.00     0.002 C 
BRANCH  24  25
HETATM   25  C2  UNL     1      14.760  20.238  20.162  1.00  0.00    -0.004 C 
HETATM   26  C1  UNL     1      14.045  19.198  20.970  1.00  0.00     0.005 C 
ENDBRANCH  24  25
ENDBRANCH  23  24
ENDBRANCH  15  23
ENDBRANCH  14  15
ENDBRANCH  12  14
ENDBRANCH  11  12
BRANCH  11  27
HETATM   27  C27 UNL     1      17.911  22.164  18.960  1.00  0.00     0.014 C 
HETATM   28  C28 UNL     1      19.419  22.294  19.260  1.00  0.00     0.012 C 
BRANCH  27  29
HETATM   29  C29 UNL     1      17.246  23.042  20.002  1.00  0.00     0.002 C 
HETATM   30  C30 UNL     1      18.278  23.965  20.644  1.00  0.00     0.005 C 
ENDBRANCH  27  29
ENDBRANCH  11  27
ENDBRANCH   1  11
BRANCH   9  31
HETATM   31  C13 UNL     1      21.783  27.534  15.077  1.00  0.00     0.226 C 
HETATM   32  O4  UNL     1      21.143  28.621  14.815  1.00  0.00    -0.273 OA
HETATM   33  N3  UNL     1      23.096  27.718  15.568  1.00  0.00    -0.338 N 
HETATM   34  C14 UNL     1      23.782  29.017  15.741  1.00  0.00     0.127 C 
HETATM   35  C17 UNL     1      24.073  26.773  16.029  1.00  0.00     0.179 C 
HETATM   36  C15 UNL     1      25.185  28.749  15.195  1.00  0.00     0.022 C 
HETATM   37  C16 UNL     1      25.409  27.293  15.518  1.00  0.00     0.037 C 
BRANCH  35  38
HETATM   38  C18 UNL     1      24.183  26.695  17.514  1.00  0.00     0.241 C 
HETATM   39  O5  UNL     1      25.184  27.283  18.046  1.00  0.00    -0.271 OA
HETATM   40  N4  UNL     1      23.207  25.998  18.248  1.00  0.00    -0.341 N 
ATOM     41  H4  UNL     1      22.450  25.553  17.731  1.00  0.00     0.163 HD
BRANCH  40  42
HETATM   42  C19 UNL     1      23.209  25.869  19.711  1.00  0.00     0.119 C 
HETATM   43  C20 UNL     1      22.068  24.892  20.051  1.00  0.00     0.049 C 
BRANCH  42  44
HETATM   44  C21 UNL     1      22.884  27.227  20.251  1.00  0.00     0.067 C 
BRANCH  44  45
HETATM   45  C22 UNL     1      21.456  27.415  20.684  1.00  0.00     0.170 C 
BRANCH  45  46
HETATM   46  O6  UNL     1      21.329  27.983  21.949  1.00  0.00    -0.396 OA
HETATM   47  C23 UNL     1      21.925  27.082  22.845  1.00  0.00     0.201 C 
ENDBRANCH  45  46
ENDBRANCH  44  45
ENDBRANCH  42  44
BRANCH  42  48
HETATM   48  C24 UNL     1      24.465  25.282  20.164  1.00  0.00     0.286 C 
HETATM   49  O7  UNL     1      25.208  25.826  21.052  1.00  0.00    -0.262 OA
BRANCH  48  50
HETATM   50  O8  UNL     1      24.912  24.085  19.638  1.00  0.00    -0.325 OA
HETATM   51  C25 UNL     1      26.159  23.894  19.010  1.00  0.00     0.213 C 
ENDBRANCH  48  50
ENDBRANCH  42  48
ENDBRANCH  40  42
ENDBRANCH  35  38
ENDBRANCH   9  31
TORSDOF 17
ENDMDL
MODEL 2
REMARK VINA RESULT: -8.479321175      3.385     11.676
REMARK  17 active torsions:
REMARK  status: ('A' for Active; 'I' for Inactive)
REMARK    1  A    between atoms: C2_2  and  C3_3 
REMARK    2  A    between atoms: C3_3  and  C4_4 
REMARK    3  A    between atoms: C4_4  and  C5_5 
REMARK    4  A    between atoms: C5_5  and  O1_6 
REMARK    5  A    between atoms: O1_6  and  C6_7 
REMARK    6  A    between atoms: C6_7  and  C7_9 
REMARK    7  A    between atoms: C7_9  and  N1_10 
REMARK    8  A    between atoms: C7_9  and  C27_41 
REMARK       I    between atoms: N1_10  and  C8_12 
REMARK       I    between atoms: C8_12  and  N2_14 
REMARK    9  A    between atoms: C12_18  and  C13_19 
REMARK       I    between atoms: C13_19  and  N3_21 
REMARK   10  A    between atoms: C17_25  and  C18_26 
REMARK       I    between atoms: C18_26  and  N4_28 
REMARK   11  A    between atoms: N4_28  and  C19_30 
REMARK   12  A    between atoms: C19_30  and  C21_32 
REMARK   13  A    between atoms: C19_30  and  C24_36 
REMARK   14  A    between atoms: C21_32  and  C22_33 
REMARK   15  A    between atoms: C22_33  and  O6_34 
REMARK   16  A    between atoms: C24_36  and  O8_38 
REMARK   17  A    between atoms: C27_41  and  C29_43 
ROOT
HETATM    1  N1  UNL     1      18.454  24.313  16.190  1.00  0.00    -0.329 N 
ATOM      2  H1  UNL     1      18.826  23.369  16.090  1.00  0.00     0.165 HD
HETATM    3  C8  UNL     1      17.094  24.557  15.879  1.00  0.00     0.319 C 
HETATM    4  O3  UNL     1      16.655  25.736  16.011  1.00  0.00    -0.247 OA
HETATM    5  N2  UNL     1      16.176  23.573  15.423  1.00  0.00    -0.333 N 
HETATM    6  C9  UNL     1      14.817  24.002  15.125  1.00  0.00     0.127 C 
HETATM    7  C10 UNL     1      13.861  23.225  15.969  1.00  0.00     0.021 C 
HETATM    8  C11 UNL     1      14.501  22.038  16.662  1.00  0.00     0.017 C 
HETATM    9  C12 UNL     1      15.386  21.263  15.733  1.00  0.00     0.096 C 
HETATM   10  C26 UNL     1      16.505  22.179  15.232  1.00  0.00     0.141 C 
ENDROOT
BRANCH   1  11
HETATM   11  C7  UNL     1      19.343  25.388  16.655  1.00  0.00     0.189 C 
BRANCH  11  12
HETATM   12  C6  UNL     1      19.992  25.028  17.926  1.00  0.00     0.283 C 
HETATM   13  O2  UNL     1      19.988  23.839  18.263  1.00  0.00    -0.263 OA
BRANCH  12  14
HETATM   14  O1  UNL     1      20.590  25.928  18.732  1.00  0.00    -0.308 OA
BRANCH  14  15
HETATM   15  C5  UNL     1      21.971  26.088  19.007  1.00  0.00     0.071 C 
HETATM   16  C31 UNL     1      22.127  27.325  19.954  1.00  0.00     0.038 C 
HETATM   17  C32 UNL     1      21.110  27.318  21.019  1.00  0.00     0.003 C 
HETATM   18  C33 UNL     1      21.577  27.068  22.403  1.00  0.00     0.000 C 
HETATM   19  C34 UNL     1      23.034  26.740  22.551  1.00  0.00     0.000 C 
HETATM   20  C35 UNL     1      23.274  25.329  22.133  1.00  0.00     0.000 C 
HETATM   21  C36 UNL     1      23.593  25.102  20.701  1.00  0.00     0.003 C 
HETATM   22  C37 UNL     1      22.379  24.927  19.842  1.00  0.00     0.038 C 
BRANCH  15  23
HETATM   23  C4  UNL     1      22.788  26.379  17.825  1.00  0.00     0.038 C 
BRANCH  23  24
HETATM   24  C3  UNL     1      22.763  27.688  17.170  1.00  0.00     0.002 C 
BRANCH  24  25
HETATM   25  C2  UNL     1      23.471  27.944  15.902  1.00  0.00    -0.004 C 
HETATM   26  C1  UNL     1      23.775  29.383  15.618  1.00  0.00     0.005 C 
ENDBRANCH  24  25
ENDBRANCH  23  24
ENDBRANCH  15  23
ENDBRANCH  14  15
ENDBRANCH  12  14
ENDBRANCH  11  12
BRANCH  11  27
HETATM   27  C27 UNL     1      20.234  25.792  15.542  1.00  0.00     0.014 C 
HETATM   28  C28 UNL     1      20.769  24.555  14.789  1.00  0.00     0.012 C 
BRANCH  27  29
HETATM   29  C29 UNL     1      19.578  26.629  14.461  1.00  0.00     0.002 C 
HETATM   30  C30 UNL     1      20.006  28.087  14.596  1.00  0.00     0.005 C 
ENDBRANCH  27  29
ENDBRANCH  11  27
ENDBRANCH   1  11
BRANCH   9  31
HETATM   31  C13 UNL     1      14.674  20.626  14.632  1.00  0.00     0.226 C 
HETATM   32  O4  UNL     1      15.260  20.422  13.503  1.00  0.00    -0.273 OA
HETATM   33  N3  UNL     1      13.330  20.193  14.694  1.00  0.00    -0.338 N 
HETATM   34  C14 UNL     1      12.560  19.598  13.580  1.00  0.00     0.127 C 
HETATM   35  C17 UNL     1      12.389  20.184  15.777  1.00  0.00     0.179 C 
HETATM   36  C15 UNL     1      11.204  20.299  13.675  1.00  0.00     0.022 C 
HETATM   37  C16 UNL     1      11.052  20.555  15.153  1.00  0.00     0.037 C 
BRANCH  35  38
HETATM   38  C18 UNL     1      12.211  18.845  16.409  1.00  0.00     0.241 C 
HETATM   39  O5  UNL     1      13.252  18.311  16.922  1.00  0.00    -0.271 OA
HETATM   40  N4  UNL     1      10.942  18.242  16.416  1.00  0.00    -0.341 N 
ATOM     41  H4  UNL     1      10.173  18.744  15.972  1.00  0.00     0.163 HD
BRANCH  40  42
HETATM   42  C19 UNL     1      10.650  16.935  17.021  1.00  0.00     0.119 C 
HETATM   43  C20 UNL     1       9.115  16.834  17.089  1.00  0.00     0.049 C 
BRANCH  42  44
HETATM   44  C21 UNL     1      11.211  16.982  18.407  1.00  0.00     0.067 C 
BRANCH  44  45
HETATM   45  C22 UNL     1      10.340  17.666  19.424  1.00  0.00     0.170 C 
BRANCH  45  46
HETATM   46  O6  UNL     1      11.050  18.469  20.314  1.00  0.00    -0.396 OA
HETATM   47  C23 UNL     1      12.140  17.702  20.751  1.00  0.00     0.201 C 
ENDBRANCH  45  46
ENDBRANCH  44  45
ENDBRANCH  42  44
BRANCH  42  48
HETATM   48  C24 UNL     1      11.142  15.863  16.165  1.00  0.00     0.286 C 
HETATM   49  O7  UNL     1      11.522  14.727  16.618  1.00  0.00    -0.262 OA
BRANCH  48  50
HETATM   50  O8  UNL     1      11.220  16.035  14.796  1.00  0.00    -0.325 OA
HETATM   51  C25 UNL     1      11.087  15.006  13.843  1.00  0.00     0.213 C 
ENDBRANCH  48  50
ENDBRANCH  42  48
ENDBRANCH  40  42
ENDBRANCH  35  38
ENDBRANCH   9  31
TORSDOF 17
ENDMDL
MODEL 3
REMARK VINA RESULT: -8.433284953      5.501     13.267
REMARK  17 active torsions:
REMARK  status: ('A' for Active; 'I' for Inactive)
REMARK    1  A    between atoms: C2_2  and  C3_3 
REMARK    2  A    between atoms: C3_3  and  C4_4 
REMARK    3  A    between atoms: C4_4  and  C5_5 
REMARK    4  A    between atoms: C5_5  and  O1_6 
REMARK    5  A    between atoms: O1_6  and  C6_7 
REMARK    6  A    between atoms: C6_7  and  C7_9 
REMARK    7  A    between atoms: C7_9  and  N1_10 
REMARK    8  A    between atoms: C7_9  and  C27_41 
REMARK       I    between atoms: N1_10  and  C8_12 
REMARK       I    between atoms: C8_12  and  N2_14 
REMARK    9  A    between atoms: C12_18  and  C13_19 
REMARK       I    between atoms: C13_19  and  N3_21 
REMARK   10  A    between atoms: C17_25  and  C18_26 
REMARK       I    between atoms: C18_26  and  N4_28 
REMARK   11  A    between atoms: N4_28  and  C19_30 
REMARK   12  A    between atoms: C19_30  and  C21_32 
REMARK   13  A    between atoms: C19_30  and  C24_36 
REMARK   14  A    between atoms: C21_32  and  C22_33 
REMARK   15  A    between atoms: C22_33  and  O6_34 
REMARK   16  A    between atoms: C24_36  and  O8_38 
REMARK   17  A    between atoms: C27_41  and  C29_43 
ROOT
HETATM    1  N1  UNL     1      13.746  19.494  16.149  1.00  0.00    -0.329 N 
ATOM      2  H1  UNL     1      13.977  18.660  15.608  1.00  0.00     0.165 HD
HETATM    3  C8  UNL     1      12.505  19.554  16.828  1.00  0.00     0.319 C 
HETATM    4  O3  UNL     1      12.240  20.598  17.494  1.00  0.00    -0.247 OA
HETATM    5  N2  UNL     1      11.523  18.528  16.821  1.00  0.00    -0.333 N 
HETATM    6  C9  UNL     1      10.289  18.766  17.556  1.00  0.00     0.127 C 
HETATM    7  C10 UNL     1      10.117  17.698  18.585  1.00  0.00     0.021 C 
HETATM    8  C11 UNL     1      11.069  16.531  18.403  1.00  0.00     0.017 C 
HETATM    9  C12 UNL     1      11.151  16.100  16.971  1.00  0.00     0.096 C 
HETATM   10  C26 UNL     1      11.668  17.268  16.127  1.00  0.00     0.141 C 
ENDROOT
BRANCH   1  11
HETATM   11  C7  UNL     1      14.709  20.602  16.204  1.00  0.00     0.189 C 
BRANCH  11  12
HETATM   12  C6  UNL     1      15.792  20.318  17.161  1.00  0.00     0.283 C 
HETATM   13  O2  UNL     1      15.597  19.446  18.015  1.00  0.00    -0.263 OA
BRANCH  12  14
HETATM   14  O1  UNL     1      16.978  20.958  17.148  1.00  0.00    -0.308 OA
BRANCH  14  15
HETATM   15  C5  UNL     1      17.419  22.018  17.980  1.00  0.00     0.071 C 
HETATM   16  C31 UNL     1      18.546  22.788  17.214  1.00  0.00     0.038 C 
HETATM   17  C32 UNL     1      18.188  22.995  15.800  1.00  0.00     0.003 C 
HETATM   18  C33 UNL     1      17.900  24.384  15.369  1.00  0.00     0.000 C 
HETATM   19  C34 UNL     1      17.900  25.419  16.457  1.00  0.00     0.000 C 
HETATM   20  C35 UNL     1      16.636  25.318  17.242  1.00  0.00     0.000 C 
HETATM   21  C36 UNL     1      16.648  24.404  18.412  1.00  0.00     0.003 C 
HETATM   22  C37 UNL     1      16.297  22.990  18.066  1.00  0.00     0.038 C 
BRANCH  15  23
HETATM   23  C4  UNL     1      18.018  21.578  19.244  1.00  0.00     0.038 C 
BRANCH  23  24
HETATM   24  C3  UNL     1      19.226  22.202  19.785  1.00  0.00     0.002 C 
BRANCH  24  25
HETATM   25  C2  UNL     1      19.171  23.270  20.801  1.00  0.00    -0.004 C 
HETATM   26  C1  UNL     1      19.788  24.573  20.395  1.00  0.00     0.005 C 
ENDBRANCH  24  25
ENDBRANCH  23  24
ENDBRANCH  15  23
ENDBRANCH  14  15
ENDBRANCH  12  14
ENDBRANCH  11  12
BRANCH  11  27
HETATM   27  C27 UNL     1      15.116  20.957  14.824  1.00  0.00     0.014 C 
HETATM   28  C28 UNL     1      14.341  20.115  13.789  1.00  0.00     0.012 C 
BRANCH  27  29
HETATM   29  C29 UNL     1      14.839  22.392  14.419  1.00  0.00     0.002 C 
HETATM   30  C30 UNL     1      13.884  23.043  15.414  1.00  0.00     0.005 C 
ENDBRANCH  27  29
ENDBRANCH  11  27
ENDBRANCH   1  11
BRANCH   9  31
HETATM   31  C13 UNL     1       9.905  15.561  16.443  1.00  0.00     0.226 C 
HETATM   32  O4  UNL     1       8.769  16.007  16.858  1.00  0.00    -0.273 OA
HETATM   33  N3  UNL     1       9.824  14.540  15.469  1.00  0.00    -0.338 N 
HETATM   34  C14 UNL     1       8.579  13.929  14.955  1.00  0.00     0.127 C 
HETATM   35  C17 UNL     1      10.847  13.856  14.731  1.00  0.00     0.179 C 
HETATM   36  C15 UNL     1       8.903  12.435  14.930  1.00  0.00     0.022 C 
HETATM   37  C16 UNL     1      10.384  12.409  14.645  1.00  0.00     0.037 C 
BRANCH  35  38
HETATM   38  C18 UNL     1      11.004  14.340  13.328  1.00  0.00     0.241 C 
HETATM   39  O5  UNL     1      10.692  13.518  12.401  1.00  0.00    -0.271 OA
HETATM   40  N4  UNL     1      11.474  15.642  13.090  1.00  0.00    -0.341 N 
ATOM     41  H4  UNL     1      11.706  16.221  13.898  1.00  0.00     0.163 HD
BRANCH  40  42
HETATM   42  C19 UNL     1      11.653  16.225  11.754  1.00  0.00     0.119 C 
HETATM   43  C20 UNL     1      12.129  17.672  11.984  1.00  0.00     0.049 C 
BRANCH  42  44
HETATM   44  C21 UNL     1      10.298  16.239  11.119  1.00  0.00     0.067 C 
BRANCH  44  45
HETATM   45  C22 UNL     1       9.358  17.287  11.646  1.00  0.00     0.170 C 
BRANCH  45  46
HETATM   46  O6  UNL     1       8.736  16.926  12.840  1.00  0.00    -0.396 OA
HETATM   47  C23 UNL     1       8.890  18.018  13.707  1.00  0.00     0.201 C 
ENDBRANCH  45  46
ENDBRANCH  44  45
ENDBRANCH  42  44
BRANCH  42  48
HETATM   48  C24 UNL     1      12.695  15.510  11.028  1.00  0.00     0.286 C 
HETATM   49  O7  UNL     1      12.464  14.823   9.973  1.00  0.00    -0.262 OA
BRANCH  48  50
HETATM   50  O8  UNL     1      14.007  15.547  11.462  1.00  0.00    -0.325 OA
HETATM   51  C25 UNL     1      15.127  15.206  10.678  1.00  0.00     0.213 C 
ENDBRANCH  48  50
ENDBRANCH  42  48
ENDBRANCH  40  42
ENDBRANCH  35  38
ENDBRANCH   9  31
TORSDOF 17
ENDMDL
MODEL 4
REMARK VINA RESULT: -8.317117668      5.389     13.244
REMARK  17 active torsions:
REMARK  status: ('A' for Active; 'I' for Inactive)
REMARK    1  A    between atoms: C2_2  and  C3_3 
REMARK    2  A    between atoms: C3_3  and  C4_4 
REMARK    3  A    between atoms: C4_4  and  C5_5 
REMARK    4  A    between atoms: C5_5  and  O1_6 
REMARK    5  A    between atoms: O1_6  and  C6_7 
REMARK    6  A    between atoms: C6_7  and  C7_9 
REMARK    7  A    between atoms: C7_9  and  N1_10 
REMARK    8  A    between atoms: C7_9  and  C27_41 
REMARK       I    between atoms: N1_10  and  C8_12 
REMARK       I    between atoms: C8_12  and  N2_14 
REMARK    9  A    between atoms: C12_18  and  C13_19 
REMARK       I    between atoms: C13_19  and  N3_21 
REMARK   10  A    between atoms: C17_25  and  C18_26 
REMARK       I    between atoms: C18_26  and  N4_28 
REMARK   11  A    between atoms: N4_28  and  C19_30 
REMARK   12  A    between atoms: C19_30  and  C21_32 
REMARK   13  A    between atoms: C19_30  and  C24_36 
REMARK   14  A    between atoms: C21_32  and  C22_33 
REMARK   15  A    between atoms: C22_33  and  O6_34 
REMARK   16  A    between atoms: C24_36  and  O8_38 
REMARK   17  A    between atoms: C27_41  and  C29_43 
ROOT
HETATM    1  N1  UNL     1      13.633  19.313  16.165  1.00  0.00    -0.329 N 
ATOM      2  H1  UNL     1      13.947  18.453  15.714  1.00  0.00     0.165 HD
HETATM    3  C8  UNL     1      12.341  19.356  16.745  1.00  0.00     0.319 C 
HETATM    4  O3  UNL     1      11.973  20.432  17.298  1.00  0.00    -0.247 OA
HETATM    5  N2  UNL     1      11.417  18.277  16.752  1.00  0.00    -0.333 N 
HETATM    6  C9  UNL     1      10.119  18.502  17.373  1.00  0.00     0.127 C 
HETATM    7  C10 UNL     1       9.924  17.512  18.474  1.00  0.00     0.021 C 
HETATM    8  C11 UNL     1      10.946  16.391  18.460  1.00  0.00     0.017 C 
HETATM    9  C12 UNL     1      11.160  15.852  17.079  1.00  0.00     0.096 C 
HETATM   10  C26 UNL     1      11.680  16.976  16.180  1.00  0.00     0.141 C 
ENDROOT
BRANCH   1  11
HETATM   11  C7  UNL     1      14.531  20.476  16.196  1.00  0.00     0.189 C 
BRANCH  11  12
HETATM   12  C6  UNL     1      15.595  20.298  17.198  1.00  0.00     0.283 C 
HETATM   13  O2  UNL     1      15.384  19.522  18.136  1.00  0.00    -0.263 OA
BRANCH  12  14
HETATM   14  O1  UNL     1      16.780  20.937  17.139  1.00  0.00    -0.308 OA
BRANCH  14  15
HETATM   15  C5  UNL     1      17.258  21.990  17.959  1.00  0.00     0.071 C 
HETATM   16  C31 UNL     1      18.413  22.710  17.184  1.00  0.00     0.038 C 
HETATM   17  C32 UNL     1      18.064  22.913  15.768  1.00  0.00     0.003 C 
HETATM   18  C33 UNL     1      17.826  24.305  15.319  1.00  0.00     0.000 C 
HETATM   19  C34 UNL     1      17.862  25.352  16.394  1.00  0.00     0.000 C 
HETATM   20  C35 UNL     1      16.595  25.307  17.179  1.00  0.00     0.000 C 
HETATM   21  C36 UNL     1      16.573  24.408  18.360  1.00  0.00     0.003 C 
HETATM   22  C37 UNL     1      16.171  23.003  18.031  1.00  0.00     0.038 C 
BRANCH  15  23
HETATM   23  C4  UNL     1      17.840  21.545  19.229  1.00  0.00     0.038 C 
BRANCH  23  24
HETATM   24  C3  UNL     1      19.102  22.089  19.733  1.00  0.00     0.002 C 
BRANCH  24  25
HETATM   25  C2  UNL     1      19.145  23.201  20.702  1.00  0.00    -0.004 C 
HETATM   26  C1  UNL     1      19.801  24.454  20.209  1.00  0.00     0.005 C 
ENDBRANCH  24  25
ENDBRANCH  23  24
ENDBRANCH  15  23
ENDBRANCH  14  15
ENDBRANCH  12  14
ENDBRANCH  11  12
BRANCH  11  27
HETATM   27  C27 UNL     1      14.962  20.789  14.814  1.00  0.00     0.014 C 
HETATM   28  C28 UNL     1      14.109  20.019  13.784  1.00  0.00     0.012 C 
BRANCH  27  29
HETATM   29  C29 UNL     1      14.816  22.242  14.406  1.00  0.00     0.002 C 
HETATM   30  C30 UNL     1      13.672  22.891  15.179  1.00  0.00     0.005 C 
ENDBRANCH  27  29
ENDBRANCH  11  27
ENDBRANCH   1  11
BRANCH   9  31
HETATM   31  C13 UNL     1       9.987  15.201  16.509  1.00  0.00     0.226 C 
HETATM   32  O4  UNL     1       8.953  14.958  17.239  1.00  0.00    -0.273 OA
HETATM   33  N3  UNL     1       9.877  14.790  15.162  1.00  0.00    -0.338 N 
HETATM   34  C14 UNL     1       8.727  14.076  14.566  1.00  0.00     0.127 C 
HETATM   35  C17 UNL     1      10.770  14.947  14.050  1.00  0.00     0.179 C 
HETATM   36  C15 UNL     1       9.389  12.994  13.711  1.00  0.00     0.022 C 
HETATM   37  C16 UNL     1      10.677  13.644  13.270  1.00  0.00     0.037 C 
BRANCH  35  38
HETATM   38  C18 UNL     1      10.379  16.038  13.112  1.00  0.00     0.241 C 
HETATM   39  O5  UNL     1      10.444  15.771  11.864  1.00  0.00    -0.271 OA
HETATM   40  N4  UNL     1       9.964  17.280  13.623  1.00  0.00    -0.341 N 
ATOM     41  H4  UNL     1       9.955  17.400  14.636  1.00  0.00     0.163 HD
BRANCH  40  42
HETATM   42  C19 UNL     1       9.545  18.417  12.793  1.00  0.00     0.119 C 
HETATM   43  C20 UNL     1      10.742  18.738  11.879  1.00  0.00     0.049 C 
BRANCH  42  44
HETATM   44  C21 UNL     1       9.313  19.558  13.734  1.00  0.00     0.067 C 
BRANCH  44  45
HETATM   45  C22 UNL     1      10.390  20.606  13.742  1.00  0.00     0.170 C 
BRANCH  45  46
HETATM   46  O6  UNL     1      10.258  21.531  14.775  1.00  0.00    -0.396 OA
HETATM   47  C23 UNL     1       8.958  21.374  15.278  1.00  0.00     0.201 C 
ENDBRANCH  45  46
ENDBRANCH  44  45
ENDBRANCH  42  44
BRANCH  42  48
HETATM   48  C24 UNL     1       8.415  18.038  11.952  1.00  0.00     0.286 C 
HETATM   49  O7  UNL     1       8.392  18.233  10.687  1.00  0.00    -0.262 OA
BRANCH  48  50
HETATM   50  O8  UNL     1       7.299  17.438  12.502  1.00  0.00    -0.325 OA
HETATM   51  C25 UNL     1       6.759  16.203  12.091  1.00  0.00     0.213 C 
ENDBRANCH  48  50
ENDBRANCH  42  48
ENDBRANCH  40  42
ENDBRANCH  35  38
ENDBRANCH   9  31
TORSDOF 17
ENDMDL
MODEL 5
REMARK VINA RESULT: -8.262561450      3.242      6.560
REMARK  17 active torsions:
REMARK  status: ('A' for Active; 'I' for Inactive)
REMARK    1  A    between atoms: C2_2  and  C3_3 
REMARK    2  A    between atoms: C3_3  and  C4_4 
REMARK    3  A    between atoms: C4_4  and  C5_5 
REMARK    4  A    between atoms: C5_5  and  O1_6 
REMARK    5  A    between atoms: O1_6  and  C6_7 
REMARK    6  A    between atoms: C6_7  and  C7_9 
REMARK    7  A    between atoms: C7_9  and  N1_10 
REMARK    8  A    between atoms: C7_9  and  C27_41 
REMARK       I    between atoms: N1_10  and  C8_12 
REMARK       I    between atoms: C8_12  and  N2_14 
REMARK    9  A    between atoms: C12_18  and  C13_19 
REMARK       I    between atoms: C13_19  and  N3_21 
REMARK   10  A    between atoms: C17_25  and  C18_26 
REMARK       I    between atoms: C18_26  and  N4_28 
REMARK   11  A    between atoms: N4_28  and  C19_30 
REMARK   12  A    between atoms: C19_30  and  C21_32 
REMARK   13  A    between atoms: C19_30  and  C24_36 
REMARK   14  A    between atoms: C21_32  and  C22_33 
REMARK   15  A    between atoms: C22_33  and  O6_34 
REMARK   16  A    between atoms: C24_36  and  O8_38 
REMARK   17  A    between atoms: C27_41  and  C29_43 
ROOT
HETATM    1  N1  UNL     1      11.496  21.154  15.600  1.00  0.00    -0.329 N 
ATOM      2  H1  UNL     1      11.477  21.834  16.360  1.00  0.00     0.165 HD
HETATM    3  C8  UNL     1      12.609  21.129  14.724  1.00  0.00     0.319 C 
HETATM    4  O3  UNL     1      12.612  20.277  13.789  1.00  0.00    -0.247 OA
HETATM    5  N2  UNL     1      13.732  21.995  14.812  1.00  0.00    -0.333 N 
HETATM    6  C9  UNL     1      14.780  21.848  13.812  1.00  0.00     0.127 C 
HETATM    7  C10 UNL     1      16.074  21.552  14.496  1.00  0.00     0.021 C 
HETATM    8  C11 UNL     1      16.023  21.772  15.996  1.00  0.00     0.017 C 
HETATM    9  C12 UNL     1      15.337  23.058  16.346  1.00  0.00     0.096 C 
HETATM   10  C26 UNL     1      13.898  23.012  15.825  1.00  0.00     0.141 C 
ENDROOT
BRANCH   1  11
HETATM   11  C7  UNL     1      10.370  20.224  15.441  1.00  0.00     0.189 C 
BRANCH  11  12
HETATM   12  C6  UNL     1      10.151  19.439  16.667  1.00  0.00     0.283 C 
HETATM   13  O2  UNL     1       9.159  18.703  16.715  1.00  0.00    -0.263 OA
BRANCH  12  14
HETATM   14  O1  UNL     1      10.977  19.484  17.731  1.00  0.00    -0.308 OA
BRANCH  14  15
HETATM   15  C5  UNL     1      11.843  18.473  18.221  1.00  0.00     0.071 C 
HETATM   16  C31 UNL     1      13.314  18.962  18.007  1.00  0.00     0.038 C 
HETATM   17  C32 UNL     1      13.469  20.379  18.380  1.00  0.00     0.003 C 
HETATM   18  C33 UNL     1      14.275  20.679  19.587  1.00  0.00     0.000 C 
HETATM   19  C34 UNL     1      14.759  19.487  20.362  1.00  0.00     0.000 C 
HETATM   20  C35 UNL     1      13.634  18.921  21.160  1.00  0.00     0.000 C 
HETATM   21  C36 UNL     1      12.805  17.880  20.501  1.00  0.00     0.003 C 
HETATM   22  C37 UNL     1      11.673  18.443  19.698  1.00  0.00     0.038 C 
BRANCH  15  23
HETATM   23  C4  UNL     1      11.735  17.195  17.511  1.00  0.00     0.038 C 
BRANCH  23  24
HETATM   24  C3  UNL     1      10.871  16.115  17.989  1.00  0.00     0.002 C 
BRANCH  24  25
HETATM   25  C2  UNL     1      10.744  14.835  17.268  1.00  0.00    -0.004 C 
HETATM   26  C1  UNL     1       9.657  13.929  17.759  1.00  0.00     0.005 C 
ENDBRANCH  24  25
ENDBRANCH  23  24
ENDBRANCH  15  23
ENDBRANCH  14  15
ENDBRANCH  12  14
ENDBRANCH  11  12
BRANCH  11  27
HETATM   27  C27 UNL     1       9.203  20.967  14.908  1.00  0.00     0.014 C 
HETATM   28  C28 UNL     1       8.802  22.115  15.858  1.00  0.00     0.012 C 
BRANCH  27  29
HETATM   29  C29 UNL     1       9.428  21.650  13.573  1.00  0.00     0.002 C 
HETATM   30  C30 UNL     1       8.092  22.073  12.969  1.00  0.00     0.005 C 
ENDBRANCH  27  29
ENDBRANCH  11  27
ENDBRANCH   1  11
BRANCH   9  31
HETATM   31  C13 UNL     1      16.042  24.248  15.887  1.00  0.00     0.226 C 
HETATM   32  O4  UNL     1      15.421  25.164  15.227  1.00  0.00    -0.273 OA
HETATM   33  N3  UNL     1      17.414  24.500  16.112  1.00  0.00    -0.338 N 
HETATM   34  C14 UNL     1      18.173  25.667  15.612  1.00  0.00     0.127 C 
HETATM   35  C17 UNL     1      18.401  23.767  16.851  1.00  0.00     0.179 C 
HETATM   36  C15 UNL     1      19.479  25.049  15.111  1.00  0.00     0.022 C 
HETATM   37  C16 UNL     1      19.679  23.872  16.033  1.00  0.00     0.037 C 
BRANCH  35  38
HETATM   38  C18 UNL     1      18.701  24.344  18.193  1.00  0.00     0.241 C 
HETATM   39  O5  UNL     1      17.703  24.553  18.963  1.00  0.00    -0.271 OA
HETATM   40  N4  UNL     1      20.031  24.627  18.548  1.00  0.00    -0.341 N 
ATOM     41  H4  UNL     1      20.759  24.434  17.860  1.00  0.00     0.163 HD
BRANCH  40  42
HETATM   42  C19 UNL     1      20.441  25.182  19.844  1.00  0.00     0.119 C 
HETATM   43  C20 UNL     1      19.496  24.560  20.889  1.00  0.00     0.049 C 
BRANCH  42  44
HETATM   44  C21 UNL     1      20.197  26.657  19.763  1.00  0.00     0.067 C 
BRANCH  44  45
HETATM   45  C22 UNL     1      21.089  27.398  18.806  1.00  0.00     0.170 C 
BRANCH  45  46
HETATM   46  O6  UNL     1      20.520  27.587  17.548  1.00  0.00    -0.396 OA
HETATM   47  C23 UNL     1      21.590  27.746  16.654  1.00  0.00     0.201 C 
ENDBRANCH  45  46
ENDBRANCH  44  45
ENDBRANCH  42  44
BRANCH  42  48
HETATM   48  C24 UNL     1      21.805  24.773  20.159  1.00  0.00     0.286 C 
HETATM   49  O7  UNL     1      22.583  24.225  19.303  1.00  0.00    -0.262 OA
BRANCH  48  50
HETATM   50  O8  UNL     1      22.322  24.964  21.426  1.00  0.00    -0.325 OA
HETATM   51  C25 UNL     1      23.255  25.961  21.777  1.00  0.00     0.213 C 
ENDBRANCH  48  50
ENDBRANCH  42  48
ENDBRANCH  40  42
ENDBRANCH  35  38
ENDBRANCH   9  31
TORSDOF 17
ENDMDL
