MODEL 1
REMARK VINA RESULT: -9.127902006      0.000      0.000
REMARK  18 active torsions:
REMARK  status: ('A' for Active; 'I' for Inactive)
REMARK    1  A    between atoms: C2_2  and  C3_3 
REMARK    2  A    between atoms: C3_3  and  C4_4 
REMARK    3  A    between atoms: C4_4  and  C5_5 
REMARK    4  A    between atoms: C5_5  and  C6_6 
REMARK    5  A    between atoms: C6_6  and  O1_7 
REMARK    6  A    between atoms: O1_7  and  C7_8 
REMARK       I    between atoms: C7_8  and  N1_10 
REMARK       I    between atoms: N2_13  and  C10_14 
REMARK    7  A    between atoms: C10_14  and  C11_16 
REMARK    8  A    between atoms: C11_16  and  C12_17 
REMARK    9  A    between atoms: C12_17  and  C13_18 
REMARK   10  A    between atoms: C13_18  and  C14_19 
REMARK   11  A    between atoms: C14_19  and  N3_20 
REMARK   12  A    between atoms: N4_23  and  C17_24 
REMARK   13  A    between atoms: C17_24  and  C18_25 
REMARK   14  A    between atoms: C18_25  and  O4_26 
REMARK   15  A    between atoms: C18_25  and  C19_28 
REMARK   16  A    between atoms: C19_28  and  N5_31 
REMARK       I    between atoms: N5_31  and  C22_33 
REMARK   17  A    between atoms: C22_33  and  O6_35 
REMARK   18  A    between atoms: O6_35  and  C23_36 
ROOT
HETATM    1  N3  UNL     1      17.079  23.396  17.259  1.00  0.00     0.101 N 
HETATM    2  C15 UNL     1      17.282  24.744  17.642  1.00  0.00     0.303 C 
HETATM    3  C16 UNL     1      17.980  25.630  16.685  1.00  0.00     0.302 C 
HETATM    4  N4  UNL     1      17.615  25.444  15.275  1.00  0.00     0.095 N 
HETATM    5  C31 UNL     1      17.647  24.004  15.022  1.00  0.00     0.314 C 
HETATM    6  C32 UNL     1      16.632  23.328  15.872  1.00  0.00     0.186 C 
HETATM    7  C33 UNL     1      16.325  21.888  15.483  1.00  0.00     0.044 C 
HETATM    8  C34 UNL     1      15.077  22.426  14.787  1.00  0.00     0.005 C 
HETATM    9  C35 UNL     1      15.218  23.692  15.618  1.00  0.00     0.044 C 
ENDROOT
BRANCH   1  10
HETATM   10  C14 UNL     1      18.083  22.445  17.525  1.00  0.00     0.273 C 
BRANCH  10  11
HETATM   11  C13 UNL     1      17.963  21.896  18.934  1.00  0.00     0.031 C 
BRANCH  11  12
HETATM   12  C12 UNL     1      16.507  21.762  19.276  1.00  0.00     0.011 C 
BRANCH  12  13
HETATM   13  C11 UNL     1      15.856  20.520  18.816  1.00  0.00     0.103 C 
BRANCH  13  14
HETATM   14  C10 UNL     1      14.736  20.014  19.608  1.00  0.00     0.219 C 
HETATM   15  N2  UNL     1      13.701  19.214  19.050  1.00  0.00    -0.349 N 
HETATM   16  C9  UNL     1      12.588  18.670  19.780  1.00  0.00     0.145 C 
HETATM   17  C36 UNL     1      13.732  18.932  17.623  1.00  0.00     0.145 C 
HETATM   18  C8  UNL     1      11.793  17.709  18.929  1.00  0.00     0.148 C 
HETATM   19  N1  UNL     1      11.409  18.360  17.699  1.00  0.00    -0.325 N 
HETATM   20  C7  UNL     1      10.121  18.131  17.101  1.00  0.00     0.362 C 
HETATM   21  C37 UNL     1      12.341  19.244  17.040  1.00  0.00     0.148 C 
HETATM   22  O2  UNL     1       9.809  18.731  16.051  1.00  0.00    -0.238 OA
HETATM   23  O3  UNL     1      14.623  20.262  20.857  1.00  0.00    -0.273 OA
BRANCH  20  24
HETATM   24  O1  UNL     1       9.212  17.257  17.661  1.00  0.00    -0.304 OA
BRANCH  24  25
HETATM   25  C6  UNL     1       8.935  16.004  17.059  1.00  0.00     0.180 C 
BRANCH  25  26
HETATM   26  C5  UNL     1       9.715  14.950  17.811  1.00  0.00     0.027 C 
BRANCH  26  27
HETATM   27  C4  UNL     1      10.645  14.153  16.961  1.00  0.00     0.002 C 
BRANCH  27  28
HETATM   28  C3  UNL     1       9.968  13.192  16.016  1.00  0.00    -0.000 C 
BRANCH  28  29
HETATM   29  C2  UNL     1      10.787  13.248  14.718  1.00  0.00    -0.005 C 
HETATM   30  C1  UNL     1      11.032  14.673  14.342  1.00  0.00     0.005 C 
ENDBRANCH  28  29
ENDBRANCH  27  28
ENDBRANCH  26  27
ENDBRANCH  25  26
ENDBRANCH  24  25
ENDBRANCH  20  24
ENDBRANCH  13  14
ENDBRANCH  12  13
ENDBRANCH  11  12
ENDBRANCH  10  11
ENDBRANCH   1  10
BRANCH   4  31
HETATM   31  C17 UNL     1      18.742  26.016  14.532  1.00  0.00     0.306 C 
BRANCH  31  32
HETATM   32  C18 UNL     1      19.648  26.867  15.318  1.00  0.00     0.173 C 
BRANCH  32  33
HETATM   33  O4  UNL     1      19.530  28.206  14.801  1.00  0.00    -0.391 OA
ATOM     34  H4  UNL     1      19.330  28.774  15.535  1.00  0.00     0.210 HD
ENDBRANCH  32  33
BRANCH  32  35
HETATM   35  C19 UNL     1      21.130  26.531  15.198  1.00  0.00     0.055 C 
HETATM   36  C20 UNL     1      21.869  27.542  14.399  1.00  0.00     0.041 C 
HETATM   37  C21 UNL     1      21.220  25.210  14.404  1.00  0.00     0.041 C 
BRANCH  35  38
HETATM   38  N5  UNL     1      21.663  26.224  16.489  1.00  0.00    -0.326 N 
HETATM   39  C22 UNL     1      21.617  27.179  17.523  1.00  0.00     0.361 C 
HETATM   40  O5  UNL     1      21.116  28.299  17.340  1.00  0.00    -0.238 OA
ATOM     41  H5  UNL     1      22.079  25.309  16.662  1.00  0.00     0.165 HD
BRANCH  39  42
HETATM   42  O6  UNL     1      22.111  26.974  18.798  1.00  0.00    -0.296 OA
BRANCH  42  43
HETATM   43  C23 UNL     1      23.221  26.208  19.071  1.00  0.00     0.164 C 
HETATM   44  C24 UNL     1      24.499  26.826  19.417  1.00  0.00     0.201 C 
HETATM   45  O7  UNL     1      24.501  26.954  20.786  1.00  0.00    -0.383 OA
HETATM   46  C25 UNL     1      23.989  25.743  21.246  1.00  0.00     0.128 C 
HETATM   47  C26 UNL     1      23.417  25.995  22.623  1.00  0.00     0.032 C 
HETATM   48  C30 UNL     1      22.997  25.260  20.256  1.00  0.00     0.046 C 
HETATM   49  C27 UNL     1      22.237  26.929  22.421  1.00  0.00     0.002 C 
HETATM   50  C28 UNL     1      21.155  26.118  21.767  1.00  0.00     0.001 C 
HETATM   51  C29 UNL     1      21.591  25.194  20.705  1.00  0.00     0.010 C 
ENDBRANCH  42  43
ENDBRANCH  39  42
ENDBRANCH  35  38
ENDBRANCH  32  35
ENDBRANCH  31  32
ENDBRANCH   4  31
TORSDOF 18
ENDMDL
MODEL 2
REMARK VINA RESULT: -8.844138260      1.976      3.363
REMARK  18 active torsions:
REMARK  status: ('A' for Active; 'I' for Inactive)
REMARK    1  A    between atoms: C2_2  and  C3_3 
REMARK    2  A    between atoms: C3_3  and  C4_4 
REMARK    3  A    between atoms: C4_4  and  C5_5 
REMARK    4  A    between atoms: C5_5  and  C6_6 
REMARK    5  A    between atoms: C6_6  and  O1_7 
REMARK    6  A    between atoms: O1_7  and  C7_8 
REMARK       I    between atoms: C7_8  and  N1_10 
REMARK       I    between atoms: N2_13  and  C10_14 
REMARK    7  A    between atoms: C10_14  and  C11_16 
REMARK    8  A    between atoms: C11_16  and  C12_17 
REMARK    9  A    between atoms: C12_17  and  C13_18 
REMARK   10  A    between atoms: C13_18  and  C14_19 
REMARK   11  A    between atoms: C14_19  and  N3_20 
REMARK   12  A    between atoms: N4_23  and  C17_24 
REMARK   13  A    between atoms: C17_24  and  C18_25 
REMARK   14  A    between atoms: C18_25  and  O4_26 
REMARK   15  A    between atoms: C18_25  and  C19_28 
REMARK   16  A    between atoms: C19_28  and  N5_31 
REMARK       I    between atoms: N5_31  and  C22_33 
REMARK   17  A    between atoms: C22_33  and  O6_35 
REMARK   18  A    between atoms: O6_35  and  C23_36 
ROOT
HETATM    1  N3  UNL     1      16.848  22.063  18.234  1.00  0.00     0.101 N 
HETATM    2  C15 UNL     1      17.271  21.384  17.064  1.00  0.00     0.303 C 
HETATM    3  C16 UNL     1      17.961  22.178  16.024  1.00  0.00     0.302 C 
HETATM    4  N4  UNL     1      18.909  23.180  16.525  1.00  0.00     0.095 N 
HETATM    5  C31 UNL     1      18.225  23.904  17.595  1.00  0.00     0.314 C 
HETATM    6  C32 UNL     1      17.895  22.966  18.699  1.00  0.00     0.186 C 
HETATM    7  C33 UNL     1      17.482  23.629  20.005  1.00  0.00     0.044 C 
HETATM    8  C34 UNL     1      18.906  23.372  20.494  1.00  0.00     0.005 C 
HETATM    9  C35 UNL     1      19.047  22.336  19.389  1.00  0.00     0.044 C 
ENDROOT
BRANCH   1  10
HETATM   10  C14 UNL     1      15.584  22.685  18.251  1.00  0.00     0.273 C 
BRANCH  10  11
HETATM   11  C13 UNL     1      14.652  22.070  17.225  1.00  0.00     0.031 C 
BRANCH  11  12
HETATM   12  C12 UNL     1      14.166  23.152  16.305  1.00  0.00     0.011 C 
BRANCH  12  13
HETATM   13  C11 UNL     1      14.255  22.851  14.864  1.00  0.00     0.103 C 
BRANCH  13  14
HETATM   14  C10 UNL     1      14.152  21.450  14.459  1.00  0.00     0.219 C 
HETATM   15  N2  UNL     1      12.904  20.796  14.264  1.00  0.00    -0.349 N 
HETATM   16  C9  UNL     1      12.740  19.430  13.848  1.00  0.00     0.145 C 
HETATM   17  C36 UNL     1      11.681  21.539  14.527  1.00  0.00     0.145 C 
HETATM   18  C8  UNL     1      11.293  19.121  13.546  1.00  0.00     0.148 C 
HETATM   19  N1  UNL     1      10.477  19.476  14.683  1.00  0.00    -0.325 N 
HETATM   20  C7  UNL     1       9.356  18.669  15.082  1.00  0.00     0.362 C 
HETATM   21  C37 UNL     1      10.778  20.676  15.428  1.00  0.00     0.148 C 
HETATM   22  O2  UNL     1       8.687  18.989  16.087  1.00  0.00    -0.238 OA
HETATM   23  O3  UNL     1      15.187  20.727  14.257  1.00  0.00    -0.273 OA
BRANCH  20  24
HETATM   24  O1  UNL     1       8.993  17.541  14.375  1.00  0.00    -0.304 OA
BRANCH  24  25
HETATM   25  C6  UNL     1       9.037  16.257  14.972  1.00  0.00     0.180 C 
BRANCH  25  26
HETATM   26  C5  UNL     1      10.489  15.909  15.209  1.00  0.00     0.027 C 
BRANCH  26  27
HETATM   27  C4  UNL     1      10.832  15.655  16.638  1.00  0.00     0.002 C 
BRANCH  27  28
HETATM   28  C3  UNL     1      11.450  16.828  17.355  1.00  0.00    -0.000 C 
BRANCH  28  29
HETATM   29  C2  UNL     1      10.536  17.101  18.559  1.00  0.00    -0.005 C 
HETATM   30  C1  UNL     1      11.299  17.840  19.609  1.00  0.00     0.005 C 
ENDBRANCH  28  29
ENDBRANCH  27  28
ENDBRANCH  26  27
ENDBRANCH  25  26
ENDBRANCH  24  25
ENDBRANCH  20  24
ENDBRANCH  13  14
ENDBRANCH  12  13
ENDBRANCH  11  12
ENDBRANCH  10  11
ENDBRANCH   1  10
BRANCH   4  31
HETATM   31  C17 UNL     1      19.052  24.127  15.414  1.00  0.00     0.306 C 
BRANCH  31  32
HETATM   32  C18 UNL     1      19.406  25.501  15.798  1.00  0.00     0.173 C 
BRANCH  32  33
HETATM   33  O4  UNL     1      18.502  26.383  15.103  1.00  0.00    -0.391 OA
ATOM     34  H4  UNL     1      17.678  26.369  15.575  1.00  0.00     0.210 HD
ENDBRANCH  32  33
BRANCH  32  35
HETATM   35  C19 UNL     1      20.798  25.960  15.381  1.00  0.00     0.055 C 
HETATM   36  C20 UNL     1      20.756  27.201  14.565  1.00  0.00     0.041 C 
HETATM   37  C21 UNL     1      21.366  24.861  14.457  1.00  0.00     0.041 C 
BRANCH  35  38
HETATM   38  N5  UNL     1      21.665  25.974  16.518  1.00  0.00    -0.326 N 
HETATM   39  C22 UNL     1      21.543  26.983  17.493  1.00  0.00     0.361 C 
HETATM   40  O5  UNL     1      20.687  27.875  17.390  1.00  0.00    -0.238 OA
ATOM     41  H5  UNL     1      22.375  25.249  16.624  1.00  0.00     0.165 HD
BRANCH  39  42
HETATM   42  O6  UNL     1      22.338  27.079  18.620  1.00  0.00    -0.296 OA
BRANCH  42  43
HETATM   43  C23 UNL     1      23.517  26.387  18.783  1.00  0.00     0.164 C 
HETATM   44  C24 UNL     1      24.754  27.078  19.140  1.00  0.00     0.201 C 
HETATM   45  O7  UNL     1      24.803  27.082  20.515  1.00  0.00    -0.383 OA
HETATM   46  C25 UNL     1      24.410  25.795  20.878  1.00  0.00     0.128 C 
HETATM   47  C26 UNL     1      23.877  25.873  22.291  1.00  0.00     0.032 C 
HETATM   48  C30 UNL     1      23.420  25.322  19.882  1.00  0.00     0.046 C 
HETATM   49  C27 UNL     1      22.618  26.719  22.217  1.00  0.00     0.002 C 
HETATM   50  C28 UNL     1      21.579  25.882  21.528  1.00  0.00     0.001 C 
HETATM   51  C29 UNL     1      22.044  25.098  20.370  1.00  0.00     0.010 C 
ENDBRANCH  42  43
ENDBRANCH  39  42
ENDBRANCH  35  38
ENDBRANCH  32  35
ENDBRANCH  31  32
ENDBRANCH   4  31
TORSDOF 18
ENDMDL
MODEL 3
REMARK VINA RESULT: -8.832499781      1.612      2.199
REMARK  18 active torsions:
REMARK  status: ('A' for Active; 'I' for Inactive)
REMARK    1  A    between atoms: C2_2  and  C3_3 
REMARK    2  A    between atoms: C3_3  and  C4_4 
REMARK    3  A    between atoms: C4_4  and  C5_5 
REMARK    4  A    between atoms: C5_5  and  C6_6 
REMARK    5  A    between atoms: C6_6  and  O1_7 
REMARK    6  A    between atoms: O1_7  and  C7_8 
REMARK       I    between atoms: C7_8  and  N1_10 
REMARK       I    between atoms: N2_13  and  C10_14 
REMARK    7  A    between atoms: C10_14  and  C11_16 
REMARK    8  A    between atoms: C11_16  and  C12_17 
REMARK    9  A    between atoms: C12_17  and  C13_18 
REMARK   10  A    between atoms: C13_18  and  C14_19 
REMARK   11  A    between atoms: C14_19  and  N3_20 
REMARK   12  A    between atoms: N4_23  and  C17_24 
REMARK   13  A    between atoms: C17_24  and  C18_25 
REMARK   14  A    between atoms: C18_25  and  O4_26 
REMARK   15  A    between atoms: C18_25  and  C19_28 
REMARK   16  A    between atoms: C19_28  and  N5_31 
REMARK       I    between atoms: N5_31  and  C22_33 
REMARK   17  A    between atoms: C22_33  and  O6_35 
REMARK   18  A    between atoms: O6_35  and  C23_36 
ROOT
HETATM    1  N3  UNL     1      16.420  23.257  17.173  1.00  0.00     0.101 N 
HETATM    2  C15 UNL     1      16.732  24.590  17.536  1.00  0.00     0.303 C 
HETATM    3  C16 UNL     1      17.629  25.353  16.639  1.00  0.00     0.302 C 
HETATM    4  N4  UNL     1      17.401  25.148  15.203  1.00  0.00     0.095 N 
HETATM    5  C31 UNL     1      17.296  23.705  14.998  1.00  0.00     0.314 C 
HETATM    6  C32 UNL     1      16.123  23.181  15.746  1.00  0.00     0.186 C 
HETATM    7  C33 UNL     1      15.699  21.769  15.368  1.00  0.00     0.044 C 
HETATM    8  C34 UNL     1      14.604  22.411  14.518  1.00  0.00     0.005 C 
HETATM    9  C35 UNL     1      14.797  23.688  15.322  1.00  0.00     0.044 C 
ENDROOT
BRANCH   1  10
HETATM   10  C14 UNL     1      17.273  22.214  17.580  1.00  0.00     0.273 C 
BRANCH  10  11
HETATM   11  C13 UNL     1      16.817  21.609  18.894  1.00  0.00     0.031 C 
BRANCH  11  12
HETATM   12  C12 UNL     1      15.929  20.435  18.600  1.00  0.00     0.011 C 
BRANCH  12  13
HETATM   13  C11 UNL     1      14.483  20.668  18.781  1.00  0.00     0.103 C 
BRANCH  13  14
HETATM   14  C10 UNL     1      13.615  19.493  18.856  1.00  0.00     0.219 C 
HETATM   15  N2  UNL     1      12.774  19.091  17.782  1.00  0.00    -0.349 N 
HETATM   16  C9  UNL     1      11.917  17.937  17.789  1.00  0.00     0.145 C 
HETATM   17  C36 UNL     1      12.739  19.910  16.580  1.00  0.00     0.145 C 
HETATM   18  C8  UNL     1      11.320  17.691  16.423  1.00  0.00     0.148 C 
HETATM   19  N1  UNL     1      10.663  18.891  15.962  1.00  0.00    -0.325 N 
HETATM   20  C7  UNL     1       9.427  18.835  15.230  1.00  0.00     0.362 C 
HETATM   21  C37 UNL     1      11.265  20.178  16.223  1.00  0.00     0.148 C 
HETATM   22  O2  UNL     1       8.870  19.893  14.869  1.00  0.00    -0.238 OA
HETATM   23  O3  UNL     1      13.563  18.756  19.899  1.00  0.00    -0.273 OA
BRANCH  20  24
HETATM   24  O1  UNL     1       8.834  17.630  14.909  1.00  0.00    -0.304 OA
BRANCH  24  25
HETATM   25  C6  UNL     1       8.805  17.161  13.572  1.00  0.00     0.180 C 
BRANCH  25  26
HETATM   26  C5  UNL     1      10.072  16.372  13.334  1.00  0.00     0.027 C 
BRANCH  26  27
HETATM   27  C4  UNL     1      11.151  17.137  12.646  1.00  0.00     0.002 C 
BRANCH  27  28
HETATM   28  C3  UNL     1      10.669  18.080  11.573  1.00  0.00    -0.000 C 
BRANCH  28  29
HETATM   29  C2  UNL     1      11.104  19.480  12.031  1.00  0.00    -0.005 C 
HETATM   30  C1  UNL     1      12.423  19.392  12.726  1.00  0.00     0.005 C 
ENDBRANCH  28  29
ENDBRANCH  27  28
ENDBRANCH  26  27
ENDBRANCH  25  26
ENDBRANCH  24  25
ENDBRANCH  20  24
ENDBRANCH  13  14
ENDBRANCH  12  13
ENDBRANCH  11  12
ENDBRANCH  10  11
ENDBRANCH   1  10
BRANCH   4  31
HETATM   31  C17 UNL     1      18.662  25.561  14.577  1.00  0.00     0.306 C 
BRANCH  31  32
HETATM   32  C18 UNL     1      19.502  26.458  15.384  1.00  0.00     0.173 C 
BRANCH  32  33
HETATM   33  O4  UNL     1      19.293  27.795  14.890  1.00  0.00    -0.391 OA
ATOM     34  H4  UNL     1      18.925  27.718  14.017  1.00  0.00     0.210 HD
ENDBRANCH  32  33
BRANCH  32  35
HETATM   35  C19 UNL     1      21.004  26.229  15.268  1.00  0.00     0.055 C 
HETATM   36  C20 UNL     1      21.664  27.260  14.427  1.00  0.00     0.041 C 
HETATM   37  C21 UNL     1      21.189  24.889  14.523  1.00  0.00     0.041 C 
BRANCH  35  38
HETATM   38  N5  UNL     1      21.563  26.011  16.566  1.00  0.00    -0.326 N 
HETATM   39  C22 UNL     1      21.714  27.085  17.465  1.00  0.00     0.361 C 
HETATM   40  O5  UNL     1      21.367  28.234  17.154  1.00  0.00    -0.238 OA
ATOM     41  H5  UNL     1      21.854  25.073  16.843  1.00  0.00     0.165 HD
BRANCH  39  42
HETATM   42  O6  UNL     1      22.247  26.971  18.735  1.00  0.00    -0.296 OA
BRANCH  42  43
HETATM   43  C23 UNL     1      23.358  26.214  19.031  1.00  0.00     0.164 C 
HETATM   44  C24 UNL     1      24.625  26.843  19.398  1.00  0.00     0.201 C 
HETATM   45  O7  UNL     1      24.600  26.973  20.767  1.00  0.00    -0.383 OA
HETATM   46  C25 UNL     1      24.090  25.759  21.220  1.00  0.00     0.128 C 
HETATM   47  C26 UNL     1      23.490  26.009  22.586  1.00  0.00     0.032 C 
HETATM   48  C30 UNL     1      23.120  25.266  20.213  1.00  0.00     0.046 C 
HETATM   49  C27 UNL     1      22.307  26.933  22.360  1.00  0.00     0.002 C 
HETATM   50  C28 UNL     1      21.244  26.112  21.688  1.00  0.00     0.001 C 
HETATM   51  C29 UNL     1      21.707  25.190  20.636  1.00  0.00     0.010 C 
ENDBRANCH  42  43
ENDBRANCH  39  42
ENDBRANCH  35  38
ENDBRANCH  32  35
ENDBRANCH  31  32
ENDBRANCH   4  31
TORSDOF 18
ENDMDL
MODEL 4
REMARK VINA RESULT: -8.818314451      2.453      3.335
REMARK  18 active torsions:
REMARK  status: ('A' for Active; 'I' for Inactive)
REMARK    1  A    between atoms: C2_2  and  C3_3 
REMARK    2  A    between atoms: C3_3  and  C4_4 
REMARK    3  A    between atoms: C4_4  and  C5_5 
REMARK    4  A    between atoms: C5_5  and  C6_6 
REMARK    5  A    between atoms: C6_6  and  O1_7 
REMARK    6  A    between atoms: O1_7  and  C7_8 
REMARK       I    between atoms: C7_8  and  N1_10 
REMARK       I    between atoms: N2_13  and  C10_14 
REMARK    7  A    between atoms: C10_14  and  C11_16 
REMARK    8  A    between atoms: C11_16  and  C12_17 
REMARK    9  A    between atoms: C12_17  and  C13_18 
REMARK   10  A    between atoms: C13_18  and  C14_19 
REMARK   11  A    between atoms: C14_19  and  N3_20 
REMARK   12  A    between atoms: N4_23  and  C17_24 
REMARK   13  A    between atoms: C17_24  and  C18_25 
REMARK   14  A    between atoms: C18_25  and  O4_26 
REMARK   15  A    between atoms: C18_25  and  C19_28 
REMARK   16  A    between atoms: C19_28  and  N5_31 
REMARK       I    between atoms: N5_31  and  C22_33 
REMARK   17  A    between atoms: C22_33  and  O6_35 
REMARK   18  A    between atoms: O6_35  and  C23_36 
ROOT
HETATM    1  N3  UNL     1      15.820  22.438  17.428  1.00  0.00     0.101 N 
HETATM    2  C15 UNL     1      15.971  23.677  18.097  1.00  0.00     0.303 C 
HETATM    3  C16 UNL     1      17.194  24.462  17.817  1.00  0.00     0.302 C 
HETATM    4  N4  UNL     1      17.628  24.467  16.414  1.00  0.00     0.095 N 
HETATM    5  C31 UNL     1      17.588  23.079  15.959  1.00  0.00     0.314 C 
HETATM    6  C32 UNL     1      16.191  22.574  16.024  1.00  0.00     0.186 C 
HETATM    7  C33 UNL     1      15.944  21.270  15.280  1.00  0.00     0.044 C 
HETATM    8  C34 UNL     1      15.363  22.116  14.150  1.00  0.00     0.005 C 
HETATM    9  C35 UNL     1      15.208  23.254  15.147  1.00  0.00     0.044 C 
ENDROOT
BRANCH   1  10
HETATM   10  C14 UNL     1      16.373  21.275  17.998  1.00  0.00     0.273 C 
BRANCH  10  11
HETATM   11  C13 UNL     1      16.103  21.208  19.489  1.00  0.00     0.031 C 
BRANCH  11  12
HETATM   12  C12 UNL     1      14.666  20.831  19.701  1.00  0.00     0.011 C 
BRANCH  12  13
HETATM   13  C11 UNL     1      14.405  19.390  19.883  1.00  0.00     0.103 C 
BRANCH  13  14
HETATM   14  C10 UNL     1      13.078  18.893  19.523  1.00  0.00     0.219 C 
HETATM   15  N2  UNL     1      12.688  18.656  18.176  1.00  0.00    -0.349 N 
HETATM   16  C9  UNL     1      11.407  18.150  17.761  1.00  0.00     0.145 C 
HETATM   17  C36 UNL     1      13.630  18.969  17.112  1.00  0.00     0.145 C 
HETATM   18  C8  UNL     1      11.398  17.829  16.285  1.00  0.00     0.148 C 
HETATM   19  N1  UNL     1      11.826  18.988  15.538  1.00  0.00    -0.325 N 
HETATM   20  C7  UNL     1      11.222  19.333  14.279  1.00  0.00     0.362 C 
HETATM   21  C37 UNL     1      12.896  19.811  16.051  1.00  0.00     0.148 C 
HETATM   22  O2  UNL     1      11.597  20.358  13.671  1.00  0.00    -0.238 OA
HETATM   23  O3  UNL     1      12.187  18.642  20.404  1.00  0.00    -0.273 OA
BRANCH  20  24
HETATM   24  O1  UNL     1      10.232  18.553  13.718  1.00  0.00    -0.304 OA
BRANCH  24  25
HETATM   25  C6  UNL     1       9.925  18.640  12.338  1.00  0.00     0.180 C 
BRANCH  25  26
HETATM   26  C5  UNL     1       8.521  19.187  12.212  1.00  0.00     0.027 C 
BRANCH  26  27
HETATM   27  C4  UNL     1       8.456  20.647  11.919  1.00  0.00     0.002 C 
BRANCH  27  28
HETATM   28  C3  UNL     1       8.348  21.530  13.136  1.00  0.00    -0.000 C 
BRANCH  28  29
HETATM   29  C2  UNL     1       7.452  22.704  12.713  1.00  0.00    -0.005 C 
HETATM   30  C1  UNL     1       6.556  22.273  11.599  1.00  0.00     0.005 C 
ENDBRANCH  28  29
ENDBRANCH  27  28
ENDBRANCH  26  27
ENDBRANCH  25  26
ENDBRANCH  24  25
ENDBRANCH  20  24
ENDBRANCH  13  14
ENDBRANCH  12  13
ENDBRANCH  11  12
ENDBRANCH  10  11
ENDBRANCH   1  10
BRANCH   4  31
HETATM   31  C17 UNL     1      19.045  24.838  16.478  1.00  0.00     0.306 C 
BRANCH  31  32
HETATM   32  C18 UNL     1      19.407  26.075  15.769  1.00  0.00     0.173 C 
BRANCH  32  33
HETATM   33  O4  UNL     1      18.704  26.066  14.512  1.00  0.00    -0.391 OA
ATOM     34  H4  UNL     1      18.526  25.158  14.296  1.00  0.00     0.210 HD
ENDBRANCH  32  33
BRANCH  32  35
HETATM   35  C19 UNL     1      20.878  26.209  15.394  1.00  0.00     0.055 C 
HETATM   36  C20 UNL     1      21.121  27.359  14.486  1.00  0.00     0.041 C 
HETATM   37  C21 UNL     1      21.244  24.944  14.588  1.00  0.00     0.041 C 
BRANCH  35  38
HETATM   38  N5  UNL     1      21.686  26.144  16.572  1.00  0.00    -0.326 N 
HETATM   39  C22 UNL     1      21.644  27.184  17.521  1.00  0.00     0.361 C 
HETATM   40  O5  UNL     1      20.910  28.171  17.359  1.00  0.00    -0.238 OA
ATOM     41  H5  UNL     1      22.296  25.341  16.726  1.00  0.00     0.165 HD
BRANCH  39  42
HETATM   42  O6  UNL     1      22.392  27.210  18.684  1.00  0.00    -0.296 OA
BRANCH  42  43
HETATM   43  C23 UNL     1      23.446  26.361  18.932  1.00  0.00     0.164 C 
HETATM   44  C24 UNL     1      24.742  26.874  19.371  1.00  0.00     0.201 C 
HETATM   45  O7  UNL     1      24.697  26.891  20.746  1.00  0.00    -0.383 OA
HETATM   46  C25 UNL     1      24.101  25.679  21.086  1.00  0.00     0.128 C 
HETATM   47  C26 UNL     1      23.490  25.852  22.459  1.00  0.00     0.032 C 
HETATM   48  C30 UNL     1      23.124  25.336  20.026  1.00  0.00     0.046 C 
HETATM   49  C27 UNL     1      22.372  26.866  22.293  1.00  0.00     0.002 C 
HETATM   50  C28 UNL     1      21.274  26.175  21.537  1.00  0.00     0.001 C 
HETATM   51  C29 UNL     1      21.700  25.316  20.418  1.00  0.00     0.010 C 
ENDBRANCH  42  43
ENDBRANCH  39  42
ENDBRANCH  35  38
ENDBRANCH  32  35
ENDBRANCH  31  32
ENDBRANCH   4  31
TORSDOF 18
ENDMDL
MODEL 5
REMARK VINA RESULT: -8.731184931      2.259      3.254
REMARK  18 active torsions:
REMARK  status: ('A' for Active; 'I' for Inactive)
REMARK    1  A    between atoms: C2_2  and  C3_3 
REMARK    2  A    between atoms: C3_3  and  C4_4 
REMARK    3  A    between atoms: C4_4  and  C5_5 
REMARK    4  A    between atoms: C5_5  and  C6_6 
REMARK    5  A    between atoms: C6_6  and  O1_7 
REMARK    6  A    between atoms: O1_7  and  C7_8 
REMARK       I    between atoms: C7_8  and  N1_10 
REMARK       I    between atoms: N2_13  and  C10_14 
REMARK    7  A    between atoms: C10_14  and  C11_16 
REMARK    8  A    between atoms: C11_16  and  C12_17 
REMARK    9  A    between atoms: C12_17  and  C13_18 
REMARK   10  A    between atoms: C13_18  and  C14_19 
REMARK   11  A    between atoms: C14_19  and  N3_20 
REMARK   12  A    between atoms: N4_23  and  C17_24 
REMARK   13  A    between atoms: C17_24  and  C18_25 
REMARK   14  A    between atoms: C18_25  and  O4_26 
REMARK   15  A    between atoms: C18_25  and  C19_28 
REMARK   16  A    between atoms: C19_28  and  N5_31 
REMARK       I    between atoms: N5_31  and  C22_33 
REMARK   17  A    between atoms: C22_33  and  O6_35 
REMARK   18  A    between atoms: O6_35  and  C23_36 
ROOT
HETATM    1  N3  UNL     1      17.835  23.913  17.213  1.00  0.00     0.101 N 
HETATM    2  C15 UNL     1      17.872  25.279  17.589  1.00  0.00     0.303 C 
HETATM    3  C16 UNL     1      18.527  26.227  16.661  1.00  0.00     0.302 C 
HETATM    4  N4  UNL     1      18.263  25.993  15.236  1.00  0.00     0.095 N 
HETATM    5  C31 UNL     1      18.461  24.563  15.004  1.00  0.00     0.314 C 
HETATM    6  C32 UNL     1      17.477  23.789  15.804  1.00  0.00     0.186 C 
HETATM    7  C33 UNL     1      17.346  22.323  15.418  1.00  0.00     0.044 C 
HETATM    8  C34 UNL     1      16.089  22.720  14.646  1.00  0.00     0.005 C 
HETATM    9  C35 UNL     1      16.048  24.000  15.468  1.00  0.00     0.044 C 
ENDROOT
BRANCH   1  10
HETATM   10  C14 UNL     1      18.917  23.076  17.547  1.00  0.00     0.273 C 
BRANCH  10  11
HETATM   11  C13 UNL     1      18.805  22.573  18.973  1.00  0.00     0.031 C 
BRANCH  11  12
HETATM   12  C12 UNL     1      17.352  22.451  19.328  1.00  0.00     0.011 C 
BRANCH  12  13
HETATM   13  C11 UNL     1      16.827  21.073  19.404  1.00  0.00     0.103 C 
BRANCH  13  14
HETATM   14  C10 UNL     1      16.413  20.439  18.153  1.00  0.00     0.219 C 
HETATM   15  N2  UNL     1      15.058  20.401  17.725  1.00  0.00    -0.349 N 
HETATM   16  C9  UNL     1      14.593  19.812  16.498  1.00  0.00     0.145 C 
HETATM   17  C36 UNL     1      14.037  20.971  18.591  1.00  0.00     0.145 C 
HETATM   18  C8  UNL     1      13.134  20.123  16.261  1.00  0.00     0.148 C 
HETATM   19  N1  UNL     1      12.363  19.725  17.416  1.00  0.00    -0.325 N 
HETATM   20  C7  UNL     1      11.059  19.136  17.280  1.00  0.00     0.362 C 
HETATM   21  C37 UNL     1      12.901  19.941  18.739  1.00  0.00     0.148 C 
HETATM   22  O2  UNL     1      10.430  18.778  18.298  1.00  0.00    -0.238 OA
HETATM   23  O3  UNL     1      17.252  19.880  17.368  1.00  0.00    -0.273 OA
BRANCH  20  24
HETATM   24  O1  UNL     1      10.476  18.955  16.042  1.00  0.00    -0.304 OA
BRANCH  24  25
HETATM   25  C6  UNL     1       9.314  19.673  15.668  1.00  0.00     0.180 C 
BRANCH  25  26
HETATM   26  C5  UNL     1       9.760  20.980  15.052  1.00  0.00     0.027 C 
BRANCH  26  27
HETATM   27  C4  UNL     1       8.648  21.813  14.510  1.00  0.00     0.002 C 
BRANCH  27  28
HETATM   28  C3  UNL     1       8.387  21.632  13.036  1.00  0.00    -0.000 C 
BRANCH  28  29
HETATM   29  C2  UNL     1       7.385  22.734  12.659  1.00  0.00    -0.005 C 
HETATM   30  C1  UNL     1       6.514  22.257  11.543  1.00  0.00     0.005 C 
ENDBRANCH  28  29
ENDBRANCH  27  28
ENDBRANCH  26  27
ENDBRANCH  25  26
ENDBRANCH  24  25
ENDBRANCH  20  24
ENDBRANCH  13  14
ENDBRANCH  12  13
ENDBRANCH  11  12
ENDBRANCH  10  11
ENDBRANCH   1  10
BRANCH   4  31
HETATM   31  C17 UNL     1      19.364  26.677  14.550  1.00  0.00     0.306 C 
BRANCH  31  32
HETATM   32  C18 UNL     1      20.119  27.637  15.369  1.00  0.00     0.173 C 
BRANCH  32  33
HETATM   33  O4  UNL     1      19.783  28.956  14.897  1.00  0.00    -0.391 OA
ATOM     34  H4  UNL     1      20.589  29.361  14.600  1.00  0.00     0.210 HD
ENDBRANCH  32  33
BRANCH  32  35
HETATM   35  C19 UNL     1      21.635  27.552  15.247  1.00  0.00     0.055 C 
HETATM   36  C20 UNL     1      22.154  28.385  14.132  1.00  0.00     0.041 C 
HETATM   37  C21 UNL     1      21.966  26.090  14.877  1.00  0.00     0.041 C 
BRANCH  35  38
HETATM   38  N5  UNL     1      22.237  27.755  16.529  1.00  0.00    -0.326 N 
HETATM   39  C22 UNL     1      22.109  26.779  17.536  1.00  0.00     0.361 C 
HETATM   40  O5  UNL     1      21.479  25.729  17.337  1.00  0.00    -0.238 OA
ATOM     41  H5  UNL     1      22.761  28.610  16.714  1.00  0.00     0.165 HD
BRANCH  39  42
HETATM   42  O6  UNL     1      22.651  26.890  18.803  1.00  0.00    -0.296 OA
BRANCH  42  43
HETATM   43  C23 UNL     1      23.696  26.117  19.256  1.00  0.00     0.164 C 
HETATM   44  C24 UNL     1      24.927  26.729  19.753  1.00  0.00     0.201 C 
HETATM   45  O7  UNL     1      24.742  26.909  21.104  1.00  0.00    -0.383 OA
HETATM   46  C25 UNL     1      24.146  25.725  21.532  1.00  0.00     0.128 C 
HETATM   47  C26 UNL     1      23.394  26.039  22.806  1.00  0.00     0.032 C 
HETATM   48  C30 UNL     1      23.291  25.220  20.432  1.00  0.00     0.046 C 
HETATM   49  C27 UNL     1      22.274  26.982  22.408  1.00  0.00     0.002 C 
HETATM   50  C28 UNL     1      21.276  26.164  21.640  1.00  0.00     0.001 C 
HETATM   51  C29 UNL     1      21.835  25.193  20.682  1.00  0.00     0.010 C 
ENDBRANCH  42  43
ENDBRANCH  39  42
ENDBRANCH  35  38
ENDBRANCH  32  35
ENDBRANCH  31  32
ENDBRANCH   4  31
TORSDOF 18
ENDMDL
