MODEL 1
REMARK VINA RESULT: -9.067150786      0.000      0.000
REMARK  16 active torsions:
REMARK  status: ('A' for Active; 'I' for Inactive)
REMARK    1  A    between atoms: N1_9  and  C9_10 
REMARK    2  A    between atoms: C9_10  and  C10_11 
REMARK    3  A    between atoms: C10_11  and  C11_12 
REMARK    4  A    between atoms: C11_12  and  N2_13 
REMARK    5  A    between atoms: C11_12  and  C18_23 
REMARK       I    between atoms: N2_13  and  C12_15 
REMARK    6  A    between atoms: C12_15  and  O2_17 
REMARK    7  A    between atoms: O2_17  and  C13_18 
REMARK       I    between atoms: C18_23  and  N3_25 
REMARK    8  A    between atoms: C22_29  and  C23_30 
REMARK       I    between atoms: C23_30  and  N4_32 
REMARK    9  A    between atoms: N4_32  and  C24_33 
REMARK   10  A    between atoms: C24_33  and  C25_34 
REMARK   11  A    between atoms: C25_34  and  S1_35 
REMARK   12  A    between atoms: S1_35  and  S2_36 
REMARK   13  A    between atoms: S2_36  and  C26_37 
REMARK   14  A    between atoms: C26_37  and  C27_38 
REMARK   15  A    between atoms: C27_38  and  C28_39 
REMARK   16  A    between atoms: C28_39  and  C29_40 
REMARK       I    between atoms: C29_40  and  N5_42 
ROOT
HETATM    1  C11 UNL     1      18.132  24.839  17.470  1.00  0.00     0.183 C 
ENDROOT
BRANCH   1   2
HETATM    2  C10 UNL     1      17.972  25.917  16.460  1.00  0.00     0.079 C 
BRANCH   2   3
HETATM    3  C9  UNL     1      18.226  25.580  15.042  1.00  0.00     0.065 C 
BRANCH   3   4
HETATM    4  N1  UNL     1      19.468  25.819  14.462  1.00  0.00    -0.374 N 
HETATM    5  C8  UNL     1      19.835  27.113  14.044  1.00  0.00     0.064 C 
HETATM    6  C7  UNL     1      20.602  27.888  15.107  1.00  0.00     0.054 C 
HETATM    7  C6  UNL     1      21.857  27.175  15.558  1.00  0.00    -0.031 C 
HETATM    8  C5  UNL     1      21.765  26.995  17.062  1.00  0.00     0.010 C 
HETATM    9  C33 UNL     1      21.878  25.819  14.884  1.00  0.00     0.030 C 
HETATM   10  C34 UNL     1      23.105  27.908  15.153  1.00  0.00    -0.006 C 
HETATM   11  C4  UNL     1      23.029  27.288  17.800  1.00  0.00     0.001 C 
HETATM   12  C3  UNL     1      24.184  26.696  17.063  1.00  0.00     0.005 C 
HETATM   13  C2  UNL     1      24.309  27.156  15.633  1.00  0.00    -0.014 C 
HETATM   14  C1  UNL     1      25.599  27.934  15.468  1.00  0.00     0.010 C 
HETATM   15  C32 UNL     1      20.548  25.088  15.009  1.00  0.00     0.128 C 
HETATM   16  C35 UNL     1      23.091  29.352  15.593  1.00  0.00     0.011 C 
ENDBRANCH   3   4
ENDBRANCH   2   3
ENDBRANCH   1   2
BRANCH   1  17
HETATM   17  N2  UNL     1      18.664  25.250  18.727  1.00  0.00    -0.323 N 
HETATM   18  C12 UNL     1      19.594  24.402  19.444  1.00  0.00     0.361 C 
HETATM   19  O1  UNL     1      19.917  23.275  19.017  1.00  0.00    -0.238 OA
ATOM     20  H2  UNL     1      18.388  26.147  19.125  1.00  0.00     0.165 HD
BRANCH  18  21
HETATM   21  O2  UNL     1      20.159  24.843  20.635  1.00  0.00    -0.299 OA
BRANCH  21  22
HETATM   22  C13 UNL     1      21.272  25.742  20.535  1.00  0.00     0.133 C 
HETATM   23  C14 UNL     1      21.241  26.469  21.920  1.00  0.00     0.032 C 
HETATM   24  C15 UNL     1      22.684  26.848  22.128  1.00  0.00     0.002 C 
HETATM   25  C16 UNL     1      23.525  25.825  21.375  1.00  0.00     0.002 C 
HETATM   26  C17 UNL     1      22.535  24.972  20.573  1.00  0.00     0.032 C 
ENDBRANCH  21  22
ENDBRANCH  18  21
ENDBRANCH   1  17
BRANCH   1  27
HETATM   27  C18 UNL     1      16.873  24.015  17.568  1.00  0.00     0.243 C 
HETATM   28  O3  UNL     1      15.884  24.495  18.186  1.00  0.00    -0.271 OA
HETATM   29  N3  UNL     1      16.772  22.740  16.993  1.00  0.00    -0.336 N 
HETATM   30  C19 UNL     1      17.953  22.116  16.298  1.00  0.00     0.127 C 
HETATM   31  C22 UNL     1      15.849  21.695  16.837  1.00  0.00     0.194 C 
HETATM   32  C20 UNL     1      18.003  20.794  17.072  1.00  0.00     0.022 C 
HETATM   33  C21 UNL     1      16.598  20.609  17.677  1.00  0.00     0.038 C 
BRANCH  31  34
HETATM   34  C23 UNL     1      14.429  21.764  17.156  1.00  0.00     0.309 C 
HETATM   35  O4  UNL     1      13.954  21.911  18.323  1.00  0.00    -0.255 OA
HETATM   36  N4  UNL     1      13.604  21.651  16.044  1.00  0.00    -0.413 NA
BRANCH  36  37
HETATM   37  C24 UNL     1      12.791  21.540  14.955  1.00  0.00     0.233 C 
BRANCH  37  38
HETATM   38  C25 UNL     1      12.860  20.126  14.350  1.00  0.00     0.119 C 
BRANCH  38  39
HETATM   39  S1  UNL     1      11.201  19.484  13.974  1.00  0.00    -0.095 SA
BRANCH  39  40
HETATM   40  S2  UNL     1       9.745  20.598  15.073  1.00  0.00    -0.098 SA
BRANCH  40  41
HETATM   41  C26 UNL     1       9.576  19.994  16.757  1.00  0.00     0.086 C 
BRANCH  41  42
HETATM   42  C27 UNL     1      10.560  18.911  17.079  1.00  0.00     0.020 C 
BRANCH  42  43
HETATM   43  C28 UNL     1      11.624  19.222  18.078  1.00  0.00     0.103 C 
BRANCH  43  44
HETATM   44  C29 UNL     1      11.500  18.538  19.376  1.00  0.00     0.219 C 
HETATM   45  O5  UNL     1      10.427  18.109  19.881  1.00  0.00    -0.273 OA
HETATM   46  N5  UNL     1      12.695  18.343  20.134  1.00  0.00    -0.361 N 
HETATM   47  C30 UNL     1      12.670  17.682  21.431  1.00  0.00     0.152 C 
HETATM   48  C31 UNL     1      13.984  18.777  19.590  1.00  0.00     0.152 C 
ENDBRANCH  43  44
ENDBRANCH  42  43
ENDBRANCH  41  42
ENDBRANCH  40  41
ENDBRANCH  39  40
ENDBRANCH  38  39
ENDBRANCH  37  38
ENDBRANCH  36  37
ENDBRANCH  31  34
ENDBRANCH   1  27
TORSDOF 16
ENDMDL
MODEL 2
REMARK VINA RESULT: -8.876200180      3.866     10.996
REMARK  16 active torsions:
REMARK  status: ('A' for Active; 'I' for Inactive)
REMARK    1  A    between atoms: N1_9  and  C9_10 
REMARK    2  A    between atoms: C9_10  and  C10_11 
REMARK    3  A    between atoms: C10_11  and  C11_12 
REMARK    4  A    between atoms: C11_12  and  N2_13 
REMARK    5  A    between atoms: C11_12  and  C18_23 
REMARK       I    between atoms: N2_13  and  C12_15 
REMARK    6  A    between atoms: C12_15  and  O2_17 
REMARK    7  A    between atoms: O2_17  and  C13_18 
REMARK       I    between atoms: C18_23  and  N3_25 
REMARK    8  A    between atoms: C22_29  and  C23_30 
REMARK       I    between atoms: C23_30  and  N4_32 
REMARK    9  A    between atoms: N4_32  and  C24_33 
REMARK   10  A    between atoms: C24_33  and  C25_34 
REMARK   11  A    between atoms: C25_34  and  S1_35 
REMARK   12  A    between atoms: S1_35  and  S2_36 
REMARK   13  A    between atoms: S2_36  and  C26_37 
REMARK   14  A    between atoms: C26_37  and  C27_38 
REMARK   15  A    between atoms: C27_38  and  C28_39 
REMARK   16  A    between atoms: C28_39  and  C29_40 
REMARK       I    between atoms: C29_40  and  N5_42 
ROOT
HETATM    1  C11 UNL     1      17.394  23.042  17.249  1.00  0.00     0.183 C 
ENDROOT
BRANCH   1   2
HETATM    2  C10 UNL     1      17.226  23.049  15.772  1.00  0.00     0.079 C 
BRANCH   2   3
HETATM    3  C9  UNL     1      16.475  21.933  15.157  1.00  0.00     0.065 C 
BRANCH   3   4
HETATM    4  N1  UNL     1      15.302  22.167  14.445  1.00  0.00    -0.374 N 
HETATM    5  C8  UNL     1      15.005  21.435  13.279  1.00  0.00     0.064 C 
HETATM    6  C7  UNL     1      14.152  20.204  13.548  1.00  0.00     0.054 C 
HETATM    7  C6  UNL     1      12.844  20.536  14.231  1.00  0.00    -0.031 C 
HETATM    8  C5  UNL     1      12.781  19.734  15.516  1.00  0.00     0.010 C 
HETATM    9  C33 UNL     1      12.863  22.015  14.555  1.00  0.00     0.030 C 
HETATM   10  C34 UNL     1      11.658  20.275  13.345  1.00  0.00    -0.006 C 
HETATM   11  C4  UNL     1      11.457  19.103  15.791  1.00  0.00     0.001 C 
HETATM   12  C3  UNL     1      10.369  20.078  15.486  1.00  0.00     0.005 C 
HETATM   13  C2  UNL     1      10.397  20.618  14.078  1.00  0.00    -0.014 C 
HETATM   14  C1  UNL     1       9.145  20.175  13.347  1.00  0.00     0.010 C 
HETATM   15  C32 UNL     1      14.158  22.445  15.229  1.00  0.00     0.128 C 
HETATM   16  C35 UNL     1      11.657  18.874  12.784  1.00  0.00     0.011 C 
ENDBRANCH   3   4
ENDBRANCH   2   3
ENDBRANCH   1   2
BRANCH   1  17
HETATM   17  N2  UNL     1      17.135  21.796  17.891  1.00  0.00    -0.323 N 
HETATM   18  C12 UNL     1      15.872  21.561  18.558  1.00  0.00     0.361 C 
HETATM   19  O1  UNL     1      14.999  22.448  18.639  1.00  0.00    -0.238 OA
ATOM     20  H2  UNL     1      17.845  21.064  17.880  1.00  0.00     0.165 HD
BRANCH  18  21
HETATM   21  O2  UNL     1      15.605  20.319  19.121  1.00  0.00    -0.299 OA
BRANCH  21  22
HETATM   22  C13 UNL     1      14.321  20.145  19.738  1.00  0.00     0.133 C 
HETATM   23  C14 UNL     1      13.695  18.989  18.890  1.00  0.00     0.032 C 
HETATM   24  C15 UNL     1      12.751  18.337  19.866  1.00  0.00     0.002 C 
HETATM   25  C16 UNL     1      13.318  18.575  21.260  1.00  0.00     0.002 C 
HETATM   26  C17 UNL     1      14.494  19.541  21.078  1.00  0.00     0.032 C 
ENDBRANCH  21  22
ENDBRANCH  18  21
ENDBRANCH   1  17
BRANCH   1  27
HETATM   27  C18 UNL     1      18.705  23.680  17.635  1.00  0.00     0.243 C 
HETATM   28  O3  UNL     1      19.694  23.541  16.863  1.00  0.00    -0.271 OA
HETATM   29  N3  UNL     1      18.854  24.418  18.817  1.00  0.00    -0.336 N 
HETATM   30  C19 UNL     1      17.710  24.553  19.787  1.00  0.00     0.127 C 
HETATM   31  C22 UNL     1      19.823  25.149  19.520  1.00  0.00     0.194 C 
HETATM   32  C20 UNL     1      18.420  24.057  21.051  1.00  0.00     0.022 C 
HETATM   33  C21 UNL     1      19.927  24.227  20.780  1.00  0.00     0.038 C 
BRANCH  31  34
HETATM   34  C23 UNL     1      21.130  25.536  19.006  1.00  0.00     0.309 C 
HETATM   35  O4  UNL     1      21.347  25.986  17.840  1.00  0.00    -0.255 OA
HETATM   36  N4  UNL     1      22.160  25.369  19.923  1.00  0.00    -0.413 NA
BRANCH  36  37
HETATM   37  C24 UNL     1      23.174  25.205  20.822  1.00  0.00     0.233 C 
BRANCH  37  38
HETATM   38  C25 UNL     1      24.376  26.101  20.475  1.00  0.00     0.119 C 
BRANCH  38  39
HETATM   39  S1  UNL     1      24.999  25.757  18.802  1.00  0.00    -0.095 SA
BRANCH  39  40
HETATM   40  S2  UNL     1      24.912  27.543  17.632  1.00  0.00    -0.098 SA
BRANCH  40  41
HETATM   41  C26 UNL     1      24.100  27.266  16.053  1.00  0.00     0.086 C 
BRANCH  41  42
HETATM   42  C27 UNL     1      23.125  28.350  15.712  1.00  0.00     0.020 C 
BRANCH  42  43
HETATM   43  C28 UNL     1      22.262  28.149  14.511  1.00  0.00     0.103 C 
BRANCH  43  44
HETATM   44  C29 UNL     1      20.825  27.975  14.779  1.00  0.00     0.219 C 
HETATM   45  O5  UNL     1      20.009  28.900  15.040  1.00  0.00    -0.273 OA
HETATM   46  N5  UNL     1      20.305  26.645  14.746  1.00  0.00    -0.361 N 
HETATM   47  C30 UNL     1      18.899  26.374  15.005  1.00  0.00     0.152 C 
HETATM   48  C31 UNL     1      21.187  25.525  14.408  1.00  0.00     0.152 C 
ENDBRANCH  43  44
ENDBRANCH  42  43
ENDBRANCH  41  42
ENDBRANCH  40  41
ENDBRANCH  39  40
ENDBRANCH  38  39
ENDBRANCH  37  38
ENDBRANCH  36  37
ENDBRANCH  31  34
ENDBRANCH   1  27
TORSDOF 16
ENDMDL
MODEL 3
REMARK VINA RESULT: -8.869721542      2.578      5.096
REMARK  16 active torsions:
REMARK  status: ('A' for Active; 'I' for Inactive)
REMARK    1  A    between atoms: N1_9  and  C9_10 
REMARK    2  A    between atoms: C9_10  and  C10_11 
REMARK    3  A    between atoms: C10_11  and  C11_12 
REMARK    4  A    between atoms: C11_12  and  N2_13 
REMARK    5  A    between atoms: C11_12  and  C18_23 
REMARK       I    between atoms: N2_13  and  C12_15 
REMARK    6  A    between atoms: C12_15  and  O2_17 
REMARK    7  A    between atoms: O2_17  and  C13_18 
REMARK       I    between atoms: C18_23  and  N3_25 
REMARK    8  A    between atoms: C22_29  and  C23_30 
REMARK       I    between atoms: C23_30  and  N4_32 
REMARK    9  A    between atoms: N4_32  and  C24_33 
REMARK   10  A    between atoms: C24_33  and  C25_34 
REMARK   11  A    between atoms: C25_34  and  S1_35 
REMARK   12  A    between atoms: S1_35  and  S2_36 
REMARK   13  A    between atoms: S2_36  and  C26_37 
REMARK   14  A    between atoms: C26_37  and  C27_38 
REMARK   15  A    between atoms: C27_38  and  C28_39 
REMARK   16  A    between atoms: C28_39  and  C29_40 
REMARK       I    between atoms: C29_40  and  N5_42 
ROOT
HETATM    1  C11 UNL     1      16.958  24.125  16.213  1.00  0.00     0.183 C 
ENDROOT
BRANCH   1   2
HETATM    2  C10 UNL     1      16.830  24.245  17.689  1.00  0.00     0.079 C 
BRANCH   2   3
HETATM    3  C9  UNL     1      17.208  23.076  18.513  1.00  0.00     0.065 C 
BRANCH   3   4
HETATM    4  N1  UNL     1      18.073  23.214  19.595  1.00  0.00    -0.374 N 
HETATM    5  C8  UNL     1      19.362  22.646  19.568  1.00  0.00     0.064 C 
HETATM    6  C7  UNL     1      20.430  23.610  19.072  1.00  0.00     0.054 C 
HETATM    7  C6  UNL     1      20.501  24.877  19.895  1.00  0.00    -0.031 C 
HETATM    8  C5  UNL     1      20.305  26.048  18.951  1.00  0.00     0.010 C 
HETATM    9  C33 UNL     1      19.365  24.834  20.895  1.00  0.00     0.030 C 
HETATM   10  C34 UNL     1      21.787  24.983  20.665  1.00  0.00    -0.006 C 
HETATM   11  C4  UNL     1      21.231  27.194  19.183  1.00  0.00     0.001 C 
HETATM   12  C3  UNL     1      21.347  27.451  20.649  1.00  0.00     0.005 C 
HETATM   13  C2  UNL     1      21.799  26.258  21.453  1.00  0.00    -0.014 C 
HETATM   14  C1  UNL     1      23.146  26.556  22.080  1.00  0.00     0.010 C 
HETATM   15  C32 UNL     1      18.037  24.467  20.249  1.00  0.00     0.128 C 
HETATM   16  C35 UNL     1      23.001  24.819  19.783  1.00  0.00     0.011 C 
ENDBRANCH   3   4
ENDBRANCH   2   3
ENDBRANCH   1   2
BRANCH   1  17
HETATM   17  N2  UNL     1      18.264  24.358  15.689  1.00  0.00    -0.323 N 
HETATM   18  C12 UNL     1      18.542  25.548  14.914  1.00  0.00     0.361 C 
HETATM   19  O1  UNL     1      17.649  26.374  14.636  1.00  0.00    -0.238 OA
ATOM     20  H2  UNL     1      19.007  23.681  15.862  1.00  0.00     0.165 HD
BRANCH  18  21
HETATM   21  O2  UNL     1      19.834  25.799  14.467  1.00  0.00    -0.299 OA
BRANCH  21  22
HETATM   22  C13 UNL     1      20.544  26.875  15.095  1.00  0.00     0.133 C 
HETATM   23  C14 UNL     1      21.975  26.269  15.283  1.00  0.00     0.032 C 
HETATM   24  C15 UNL     1      22.857  27.489  15.260  1.00  0.00     0.002 C 
HETATM   25  C16 UNL     1      22.145  28.538  14.414  1.00  0.00     0.002 C 
HETATM   26  C17 UNL     1      20.753  27.967  14.118  1.00  0.00     0.032 C 
ENDBRANCH  21  22
ENDBRANCH  18  21
ENDBRANCH   1  17
BRANCH   1  27
HETATM   27  C18 UNL     1      16.313  22.851  15.728  1.00  0.00     0.243 C 
HETATM   28  O3  UNL     1      17.054  21.914  15.323  1.00  0.00    -0.271 OA
HETATM   29  N3  UNL     1      14.921  22.680  15.717  1.00  0.00    -0.336 N 
HETATM   30  C19 UNL     1      14.007  23.799  16.141  1.00  0.00     0.127 C 
HETATM   31  C22 UNL     1      13.953  21.720  15.386  1.00  0.00     0.194 C 
HETATM   32  C20 UNL     1      13.122  23.858  14.891  1.00  0.00     0.022 C 
HETATM   33  C21 UNL     1      13.274  22.487  14.204  1.00  0.00     0.038 C 
BRANCH  31  34
HETATM   34  C23 UNL     1      14.219  20.324  15.064  1.00  0.00     0.309 C 
HETATM   35  O4  UNL     1      14.544  19.894  13.915  1.00  0.00    -0.255 OA
HETATM   36  N4  UNL     1      14.084  19.468  16.149  1.00  0.00    -0.413 NA
BRANCH  36  37
HETATM   37  C24 UNL     1      13.951  18.624  17.212  1.00  0.00     0.233 C 
BRANCH  37  38
HETATM   38  C25 UNL     1      15.011  18.914  18.289  1.00  0.00     0.119 C 
BRANCH  38  39
HETATM   39  S1  UNL     1      14.296  19.814  19.698  1.00  0.00    -0.095 SA
BRANCH  39  40
HETATM   40  S2  UNL     1      13.294  18.432  20.984  1.00  0.00    -0.098 SA
BRANCH  40  41
HETATM   41  C26 UNL     1      11.570  18.224  20.523  1.00  0.00     0.086 C 
BRANCH  41  42
HETATM   42  C27 UNL     1      11.395  17.295  19.362  1.00  0.00     0.020 C 
BRANCH  42  43
HETATM   43  C28 UNL     1      10.174  17.464  18.520  1.00  0.00     0.103 C 
BRANCH  43  44
HETATM   44  C29 UNL     1      10.217  18.572  17.551  1.00  0.00     0.219 C 
HETATM   45  O5  UNL     1       9.985  19.784  17.809  1.00  0.00    -0.273 OA
HETATM   46  N5  UNL     1      10.547  18.251  16.198  1.00  0.00    -0.361 N 
HETATM   47  C30 UNL     1      10.608  19.277  15.168  1.00  0.00     0.152 C 
HETATM   48  C31 UNL     1      10.871  16.869  15.834  1.00  0.00     0.152 C 
ENDBRANCH  43  44
ENDBRANCH  42  43
ENDBRANCH  41  42
ENDBRANCH  40  41
ENDBRANCH  39  40
ENDBRANCH  38  39
ENDBRANCH  37  38
ENDBRANCH  36  37
ENDBRANCH  31  34
ENDBRANCH   1  27
TORSDOF 16
ENDMDL
MODEL 4
REMARK VINA RESULT: -8.812738986      1.698      2.593
REMARK  16 active torsions:
REMARK  status: ('A' for Active; 'I' for Inactive)
REMARK    1  A    between atoms: N1_9  and  C9_10 
REMARK    2  A    between atoms: C9_10  and  C10_11 
REMARK    3  A    between atoms: C10_11  and  C11_12 
REMARK    4  A    between atoms: C11_12  and  N2_13 
REMARK    5  A    between atoms: C11_12  and  C18_23 
REMARK       I    between atoms: N2_13  and  C12_15 
REMARK    6  A    between atoms: C12_15  and  O2_17 
REMARK    7  A    between atoms: O2_17  and  C13_18 
REMARK       I    between atoms: C18_23  and  N3_25 
REMARK    8  A    between atoms: C22_29  and  C23_30 
REMARK       I    between atoms: C23_30  and  N4_32 
REMARK    9  A    between atoms: N4_32  and  C24_33 
REMARK   10  A    between atoms: C24_33  and  C25_34 
REMARK   11  A    between atoms: C25_34  and  S1_35 
REMARK   12  A    between atoms: S1_35  and  S2_36 
REMARK   13  A    between atoms: S2_36  and  C26_37 
REMARK   14  A    between atoms: C26_37  and  C27_38 
REMARK   15  A    between atoms: C27_38  and  C28_39 
REMARK   16  A    between atoms: C28_39  and  C29_40 
REMARK       I    between atoms: C29_40  and  N5_42 
ROOT
HETATM    1  C11 UNL     1      16.395  23.060  15.971  1.00  0.00     0.183 C 
ENDROOT
BRANCH   1   2
HETATM    2  C10 UNL     1      16.335  24.272  15.112  1.00  0.00     0.079 C 
BRANCH   2   3
HETATM    3  C9  UNL     1      17.270  25.378  15.410  1.00  0.00     0.065 C 
BRANCH   3   4
HETATM    4  N1  UNL     1      18.538  25.418  14.836  1.00  0.00    -0.374 N 
HETATM    5  C8  UNL     1      18.972  26.550  14.119  1.00  0.00     0.064 C 
HETATM    6  C7  UNL     1      19.741  27.543  14.978  1.00  0.00     0.054 C 
HETATM    7  C6  UNL     1      20.951  26.926  15.643  1.00  0.00    -0.031 C 
HETATM    8  C5  UNL     1      20.810  27.138  17.139  1.00  0.00     0.010 C 
HETATM    9  C33 UNL     1      20.932  25.443  15.336  1.00  0.00     0.030 C 
HETATM   10  C34 UNL     1      22.240  27.488  15.113  1.00  0.00    -0.006 C 
HETATM   11  C4  UNL     1      22.063  27.566  17.826  1.00  0.00     0.001 C 
HETATM   12  C3  UNL     1      23.212  26.766  17.308  1.00  0.00     0.005 C 
HETATM   13  C2  UNL     1      23.396  26.843  15.814  1.00  0.00    -0.014 C 
HETATM   14  C1  UNL     1      24.723  27.507  15.506  1.00  0.00     0.010 C 
HETATM   15  C32 UNL     1      19.569  24.815  15.591  1.00  0.00     0.128 C 
HETATM   16  C35 UNL     1      22.276  28.996  15.172  1.00  0.00     0.011 C 
ENDBRANCH   3   4
ENDBRANCH   2   3
ENDBRANCH   1   2
BRANCH   1  17
HETATM   17  N2  UNL     1      16.916  23.263  17.282  1.00  0.00    -0.323 N 
HETATM   18  C12 UNL     1      17.887  22.344  17.838  1.00  0.00     0.361 C 
HETATM   19  O1  UNL     1      18.257  21.327  17.217  1.00  0.00    -0.238 OA
ATOM     20  H2  UNL     1      16.602  24.061  17.834  1.00  0.00     0.165 HD
BRANCH  18  21
HETATM   21  O2  UNL     1      18.438  22.590  19.090  1.00  0.00    -0.299 OA
BRANCH  21  22
HETATM   22  C13 UNL     1      19.011  23.887  19.307  1.00  0.00     0.133 C 
HETATM   23  C14 UNL     1      19.013  23.996  20.868  1.00  0.00     0.032 C 
HETATM   24  C15 UNL     1      20.167  24.927  21.133  1.00  0.00     0.002 C 
HETATM   25  C16 UNL     1      21.150  24.756  19.982  1.00  0.00     0.002 C 
HETATM   26  C17 UNL     1      20.448  23.858  18.957  1.00  0.00     0.032 C 
ENDBRANCH  21  22
ENDBRANCH  18  21
ENDBRANCH   1  17
BRANCH   1  27
HETATM   27  C18 UNL     1      15.083  22.319  15.931  1.00  0.00     0.243 C 
HETATM   28  O3  UNL     1      14.487  22.087  17.019  1.00  0.00    -0.271 OA
HETATM   29  N3  UNL     1      14.510  21.884  14.728  1.00  0.00    -0.336 N 
HETATM   30  C19 UNL     1      15.224  22.094  13.418  1.00  0.00     0.127 C 
HETATM   31  C22 UNL     1      13.373  21.215  14.251  1.00  0.00     0.194 C 
HETATM   32  C20 UNL     1      15.218  20.646  12.918  1.00  0.00     0.022 C 
HETATM   33  C21 UNL     1      14.084  19.941  13.687  1.00  0.00     0.038 C 
BRANCH  31  34
HETATM   34  C23 UNL     1      12.190  20.889  15.038  1.00  0.00     0.309 C 
HETATM   35  O4  UNL     1      12.209  20.384  16.201  1.00  0.00    -0.255 OA
HETATM   36  N4  UNL     1      10.996  21.184  14.392  1.00  0.00    -0.413 NA
BRANCH  36  37
HETATM   37  C24 UNL     1       9.821  21.471  13.761  1.00  0.00     0.233 C 
BRANCH  37  38
HETATM   38  C25 UNL     1       8.769  20.377  14.018  1.00  0.00     0.119 C 
BRANCH  38  39
HETATM   39  S1  UNL     1       9.548  18.755  14.277  1.00  0.00    -0.095 SA
BRANCH  39  40
HETATM   40  S2  UNL     1       9.327  18.182  16.323  1.00  0.00    -0.098 SA
BRANCH  40  41
HETATM   41  C26 UNL     1      10.357  16.768  16.734  1.00  0.00     0.086 C 
BRANCH  41  42
HETATM   42  C27 UNL     1      11.075  16.941  18.037  1.00  0.00     0.020 C 
BRANCH  42  43
HETATM   43  C28 UNL     1      11.422  18.331  18.454  1.00  0.00     0.103 C 
BRANCH  43  44
HETATM   44  C29 UNL     1      11.898  18.481  19.840  1.00  0.00     0.219 C 
HETATM   45  O5  UNL     1      11.198  18.334  20.878  1.00  0.00    -0.273 OA
HETATM   46  N5  UNL     1      13.272  18.826  20.030  1.00  0.00    -0.361 N 
HETATM   47  C30 UNL     1      13.832  19.002  21.362  1.00  0.00     0.152 C 
HETATM   48  C31 UNL     1      14.156  18.971  18.870  1.00  0.00     0.152 C 
ENDBRANCH  43  44
ENDBRANCH  42  43
ENDBRANCH  41  42
ENDBRANCH  40  41
ENDBRANCH  39  40
ENDBRANCH  38  39
ENDBRANCH  37  38
ENDBRANCH  36  37
ENDBRANCH  31  34
ENDBRANCH   1  27
TORSDOF 16
ENDMDL
MODEL 5
REMARK VINA RESULT: -8.796396817      1.262      1.528
REMARK  16 active torsions:
REMARK  status: ('A' for Active; 'I' for Inactive)
REMARK    1  A    between atoms: N1_9  and  C9_10 
REMARK    2  A    between atoms: C9_10  and  C10_11 
REMARK    3  A    between atoms: C10_11  and  C11_12 
REMARK    4  A    between atoms: C11_12  and  N2_13 
REMARK    5  A    between atoms: C11_12  and  C18_23 
REMARK       I    between atoms: N2_13  and  C12_15 
REMARK    6  A    between atoms: C12_15  and  O2_17 
REMARK    7  A    between atoms: O2_17  and  C13_18 
REMARK       I    between atoms: C18_23  and  N3_25 
REMARK    8  A    between atoms: C22_29  and  C23_30 
REMARK       I    between atoms: C23_30  and  N4_32 
REMARK    9  A    between atoms: N4_32  and  C24_33 
REMARK   10  A    between atoms: C24_33  and  C25_34 
REMARK   11  A    between atoms: C25_34  and  S1_35 
REMARK   12  A    between atoms: S1_35  and  S2_36 
REMARK   13  A    between atoms: S2_36  and  C26_37 
REMARK   14  A    between atoms: C26_37  and  C27_38 
REMARK   15  A    between atoms: C27_38  and  C28_39 
REMARK   16  A    between atoms: C28_39  and  C29_40 
REMARK       I    between atoms: C29_40  and  N5_42 
ROOT
HETATM    1  C11 UNL     1      18.676  24.984  16.844  1.00  0.00     0.183 C 
ENDROOT
BRANCH   1   2
HETATM    2  C10 UNL     1      18.637  25.469  15.439  1.00  0.00     0.079 C 
BRANCH   2   3
HETATM    3  C9  UNL     1      19.221  26.797  15.149  1.00  0.00     0.065 C 
BRANCH   3   4
HETATM    4  N1  UNL     1      20.472  26.913  14.550  1.00  0.00    -0.374 N 
HETATM    5  C8  UNL     1      21.009  28.176  14.234  1.00  0.00     0.064 C 
HETATM    6  C7  UNL     1      21.900  28.737  15.333  1.00  0.00     0.054 C 
HETATM    7  C6  UNL     1      23.051  27.819  15.678  1.00  0.00    -0.031 C 
HETATM    8  C5  UNL     1      22.968  27.518  17.163  1.00  0.00     0.010 C 
HETATM    9  C33 UNL     1      22.866  26.541  14.889  1.00  0.00     0.030 C 
HETATM   10  C34 UNL     1      24.381  28.406  15.296  1.00  0.00    -0.006 C 
HETATM   11  C4  UNL     1      24.275  27.565  17.880  1.00  0.00     0.001 C 
HETATM   12  C3  UNL     1      25.319  26.888  17.056  1.00  0.00     0.005 C 
HETATM   13  C2  UNL     1      25.477  27.454  15.668  1.00  0.00    -0.014 C 
HETATM   14  C1  UNL     1      26.860  28.057  15.527  1.00  0.00     0.010 C 
HETATM   15  C32 UNL     1      21.449  25.993  14.995  1.00  0.00     0.128 C 
HETATM   16  C35 UNL     1      24.581  29.792  15.860  1.00  0.00     0.011 C 
ENDBRANCH   3   4
ENDBRANCH   2   3
ENDBRANCH   1   2
BRANCH   1  17
HETATM   17  N2  UNL     1      19.217  25.899  17.794  1.00  0.00    -0.323 N 
HETATM   18  C12 UNL     1      20.266  25.482  18.700  1.00  0.00     0.361 C 
HETATM   19  O1  UNL     1      20.690  24.309  18.717  1.00  0.00    -0.238 OA
ATOM     20  H2  UNL     1      18.862  26.854  17.836  1.00  0.00     0.165 HD
BRANCH  18  21
HETATM   21  O2  UNL     1      20.833  26.401  19.576  1.00  0.00    -0.299 OA
BRANCH  21  22
HETATM   22  C13 UNL     1      21.221  25.915  20.868  1.00  0.00     0.133 C 
HETATM   23  C14 UNL     1      22.733  25.570  20.657  1.00  0.00     0.032 C 
HETATM   24  C15 UNL     1      23.308  25.741  22.038  1.00  0.00     0.002 C 
HETATM   25  C16 UNL     1      22.444  26.772  22.755  1.00  0.00     0.002 C 
HETATM   26  C17 UNL     1      21.251  27.040  21.830  1.00  0.00     0.032 C 
ENDBRANCH  21  22
ENDBRANCH  18  21
ENDBRANCH   1  17
BRANCH   1  27
HETATM   27  C18 UNL     1      17.344  24.396  17.236  1.00  0.00     0.243 C 
HETATM   28  O3  UNL     1      16.344  25.161  17.310  1.00  0.00    -0.271 OA
HETATM   29  N3  UNL     1      17.188  23.031  17.518  1.00  0.00    -0.336 N 
HETATM   30  C19 UNL     1      18.373  22.102  17.495  1.00  0.00     0.127 C 
HETATM   31  C22 UNL     1      16.195  22.110  17.885  1.00  0.00     0.194 C 
HETATM   32  C20 UNL     1      18.223  21.504  18.899  1.00  0.00     0.022 C 
HETATM   33  C21 UNL     1      16.753  21.733  19.297  1.00  0.00     0.038 C 
BRANCH  31  34
HETATM   34  C23 UNL     1      14.762  22.372  17.905  1.00  0.00     0.309 C 
HETATM   35  O4  UNL     1      14.037  22.361  18.946  1.00  0.00    -0.255 OA
HETATM   36  N4  UNL     1      14.230  22.643  16.651  1.00  0.00    -0.413 NA
BRANCH  36  37
HETATM   37  C24 UNL     1      13.704  22.909  15.421  1.00  0.00     0.233 C 
BRANCH  37  38
HETATM   38  C25 UNL     1      14.128  21.846  14.392  1.00  0.00     0.119 C 
BRANCH  38  39
HETATM   39  S1  UNL     1      14.040  20.172  15.094  1.00  0.00    -0.095 SA
BRANCH  39  40
HETATM   40  S2  UNL     1      11.992  19.614  15.341  1.00  0.00    -0.098 SA
BRANCH  40  41
HETATM   41  C26 UNL     1      11.368  20.074  16.962  1.00  0.00     0.086 C 
BRANCH  41  42
HETATM   42  C27 UNL     1      10.746  18.920  17.686  1.00  0.00     0.020 C 
BRANCH  42  43
HETATM   43  C28 UNL     1      11.658  17.985  18.408  1.00  0.00     0.103 C 
BRANCH  43  44
HETATM   44  C29 UNL     1      12.059  18.404  19.761  1.00  0.00     0.219 C 
HETATM   45  O5  UNL     1      11.314  18.416  20.778  1.00  0.00    -0.273 OA
HETATM   46  N5  UNL     1      13.408  18.838  19.943  1.00  0.00    -0.361 N 
HETATM   47  C30 UNL     1      13.894  19.277  21.243  1.00  0.00     0.152 C 
HETATM   48  C31 UNL     1      14.343  18.810  18.815  1.00  0.00     0.152 C 
ENDBRANCH  43  44
ENDBRANCH  42  43
ENDBRANCH  41  42
ENDBRANCH  40  41
ENDBRANCH  39  40
ENDBRANCH  38  39
ENDBRANCH  37  38
ENDBRANCH  36  37
ENDBRANCH  31  34
ENDBRANCH   1  27
TORSDOF 16
ENDMDL
