MODEL 1
REMARK VINA RESULT: -6.748783875      0.000      0.000
REMARK  3 active torsions:
REMARK  status: ('A' for Active; 'I' for Inactive)
REMARK       I    between atoms: C2_2  and  N1_4 
REMARK    1  A    between atoms: N1_4  and  C3_6 
REMARK    2  A    between atoms: N2_8  and  N3_10 
REMARK    3  A    between atoms: N3_10  and  C5_12 
ROOT
HETATM    1  N3  UNL     1      12.897  42.177  42.926  1.00  0.00    -0.278 N 
ATOM      2  H3  UNL     1      13.091  41.313  43.431  1.00  0.00     0.189 HD
ENDROOT
BRANCH   1   3
HETATM    3  N2  UNL     1      13.308  42.276  41.612  1.00  0.00    -0.287 N 
HETATM    4  C3  UNL     1      14.497  42.708  41.276  1.00  0.00     0.094 C 
HETATM    5  C4  UNL     1      14.890  42.796  39.851  1.00  0.00     0.090 C 
ATOM      6  H2  UNL     1      12.660  42.001  40.873  1.00  0.00     0.188 HD
BRANCH   4   7
HETATM    7  N1  UNL     1      15.373  43.079  42.319  1.00  0.00    -0.316 N 
HETATM    8  C2  UNL     1      15.917  42.133  43.189  1.00  0.00     0.218 C 
HETATM    9  C1  UNL     1      16.851  42.572  44.291  1.00  0.00     0.117 C 
HETATM   10  O1  UNL     1      15.659  40.916  43.091  1.00  0.00    -0.274 OA
ATOM     11  H1  UNL     1      15.614  44.063  42.440  1.00  0.00     0.170 HD
ENDBRANCH   4   7
ENDBRANCH   1   3
BRANCH   1  12
HETATM   12  C5  UNL     1      12.274  43.132  43.550  1.00  0.00     0.163 A 
HETATM   13  C6  UNL     1      12.200  43.017  44.938  1.00  0.00     0.078 A 
HETATM   14  C7  UNL     1      11.536  44.033  45.607  1.00  0.00     0.035 A 
HETATM   15 BR1  UNL     1      11.397  43.941  47.502  1.00  0.00    -0.049 Br
HETATM   16  C8  UNL     1      10.989  45.089  44.905  1.00  0.00     0.057 A 
HETATM   17 BR2  UNL     1      10.085  46.460  45.888  1.00  0.00    -0.047 Br
HETATM   18  C9  UNL     1      11.106  45.127  43.527  1.00  0.00     0.070 A 
HETATM   19  C10 UNL     1      10.507  46.277  42.794  1.00  0.00     0.078 C 
HETATM   20  O2  UNL     1      11.739  44.154  42.923  1.00  0.00    -0.296 OA
ENDBRANCH   1  12
TORSDOF 3
ENDMDL
MODEL 2
REMARK VINA RESULT: -6.667750515      4.644      5.951
REMARK  3 active torsions:
REMARK  status: ('A' for Active; 'I' for Inactive)
REMARK       I    between atoms: C2_2  and  N1_4 
REMARK    1  A    between atoms: N1_4  and  C3_6 
REMARK    2  A    between atoms: N2_8  and  N3_10 
REMARK    3  A    between atoms: N3_10  and  C5_12 
ROOT
HETATM    1  N3  UNL     1      12.269  46.175  47.009  1.00  0.00    -0.278 N 
ATOM      2  H3  UNL     1      12.252  46.659  47.907  1.00  0.00     0.189 HD
ENDROOT
BRANCH   1   3
HETATM    3  N2  UNL     1      12.614  44.839  46.990  1.00  0.00    -0.287 N 
HETATM    4  C3  UNL     1      11.765  43.888  47.282  1.00  0.00     0.094 C 
HETATM    5  C4  UNL     1      12.184  42.468  47.248  1.00  0.00     0.090 C 
ATOM      6  H2  UNL     1      13.569  44.583  46.738  1.00  0.00     0.188 HD
BRANCH   4   7
HETATM    7  N1  UNL     1      10.449  44.271  47.624  1.00  0.00    -0.316 N 
HETATM    8  C2  UNL     1       9.405  44.208  46.700  1.00  0.00     0.218 C 
HETATM    9  C1  UNL     1       8.014  44.627  47.107  1.00  0.00     0.117 C 
HETATM   10  O1  UNL     1       9.577  43.811  45.531  1.00  0.00    -0.274 OA
ATOM     11  H1  UNL     1      10.258  44.603  48.570  1.00  0.00     0.170 HD
ENDBRANCH   4   7
ENDBRANCH   1   3
BRANCH   1  12
HETATM   12  C5  UNL     1      11.964  46.847  45.940  1.00  0.00     0.163 A 
HETATM   13  C6  UNL     1      11.913  46.122  44.748  1.00  0.00     0.078 A 
HETATM   14  C7  UNL     1      11.589  46.835  43.605  1.00  0.00     0.035 A 
HETATM   15 BR1  UNL     1      11.501  45.910  41.945  1.00  0.00    -0.049 Br
HETATM   16  C8  UNL     1      11.334  48.191  43.677  1.00  0.00     0.057 A 
HETATM   17 BR2  UNL     1      10.892  49.118  42.062  1.00  0.00    -0.047 Br
HETATM   18  C9  UNL     1      11.407  48.835  44.899  1.00  0.00     0.070 A 
HETATM   19  C10 UNL     1      11.129  50.297  44.950  1.00  0.00     0.078 C 
HETATM   20  O2  UNL     1      11.716  48.136  45.962  1.00  0.00    -0.296 OA
ENDBRANCH   1  12
TORSDOF 3
ENDMDL
MODEL 3
REMARK VINA RESULT: -6.655247347      1.923      2.938
REMARK  3 active torsions:
REMARK  status: ('A' for Active; 'I' for Inactive)
REMARK       I    between atoms: C2_2  and  N1_4 
REMARK    1  A    between atoms: N1_4  and  C3_6 
REMARK    2  A    between atoms: N2_8  and  N3_10 
REMARK    3  A    between atoms: N3_10  and  C5_12 
ROOT
HETATM    1  N3  UNL     1      14.605  45.123  41.134  1.00  0.00    -0.278 N 
ATOM      2  H3  UNL     1      15.346  45.777  40.883  1.00  0.00     0.189 HD
ENDROOT
BRANCH   1   3
HETATM    3  N2  UNL     1      14.549  43.911  40.476  1.00  0.00    -0.287 N 
HETATM    4  C3  UNL     1      15.301  42.893  40.808  1.00  0.00     0.094 C 
HETATM    5  C4  UNL     1      15.204  41.613  40.069  1.00  0.00     0.090 C 
ATOM      6  H2  UNL     1      13.895  43.805  39.700  1.00  0.00     0.188 HD
BRANCH   4   7
HETATM    7  N1  UNL     1      16.195  43.068  41.887  1.00  0.00    -0.316 N 
HETATM    8  C2  UNL     1      15.977  42.459  43.124  1.00  0.00     0.218 C 
HETATM    9  C1  UNL     1      16.957  42.673  44.252  1.00  0.00     0.117 C 
HETATM   10  O1  UNL     1      14.987  41.732  43.340  1.00  0.00    -0.274 OA
ATOM     11  H1  UNL     1      17.020  43.655  41.760  1.00  0.00     0.170 HD
ENDBRANCH   4   7
ENDBRANCH   1   3
BRANCH   1  12
HETATM   12  C5  UNL     1      13.761  45.470  42.059  1.00  0.00     0.163 A 
HETATM   13  C6  UNL     1      13.080  46.671  41.855  1.00  0.00     0.078 A 
HETATM   14  C7  UNL     1      12.179  47.045  42.839  1.00  0.00     0.035 A 
HETATM   15 BR1  UNL     1      11.216  48.672  42.626  1.00  0.00    -0.049 Br
HETATM   16  C8  UNL     1      11.987  46.246  43.950  1.00  0.00     0.057 A 
HETATM   17 BR2  UNL     1      10.728  46.818  45.272  1.00  0.00    -0.047 Br
HETATM   18  C9  UNL     1      12.703  45.069  44.076  1.00  0.00     0.070 A 
HETATM   19  C10 UNL     1      12.479  44.226  45.283  1.00  0.00     0.078 C 
HETATM   20  O2  UNL     1      13.548  44.742  43.131  1.00  0.00    -0.296 OA
ENDBRANCH   1  12
TORSDOF 3
ENDMDL
MODEL 4
REMARK VINA RESULT: -6.587122434      1.108      2.156
REMARK  3 active torsions:
REMARK  status: ('A' for Active; 'I' for Inactive)
REMARK       I    between atoms: C2_2  and  N1_4 
REMARK    1  A    between atoms: N1_4  and  C3_6 
REMARK    2  A    between atoms: N2_8  and  N3_10 
REMARK    3  A    between atoms: N3_10  and  C5_12 
ROOT
HETATM    1  N3  UNL     1      12.877  42.189  43.098  1.00  0.00    -0.278 N 
ATOM      2  H3  UNL     1      13.139  41.338  43.596  1.00  0.00     0.189 HD
ENDROOT
BRANCH   1   3
HETATM    3  N2  UNL     1      13.213  42.299  41.764  1.00  0.00    -0.287 N 
HETATM    4  C3  UNL     1      14.387  42.719  41.366  1.00  0.00     0.094 C 
HETATM    5  C4  UNL     1      14.699  42.821  39.922  1.00  0.00     0.090 C 
ATOM      6  H2  UNL     1      12.520  42.043  41.061  1.00  0.00     0.188 HD
BRANCH   4   7
HETATM    7  N1  UNL     1      15.328  43.064  42.361  1.00  0.00    -0.316 N 
HETATM    8  C2  UNL     1      15.914  42.098  43.181  1.00  0.00     0.218 C 
HETATM    9  C1  UNL     1      16.914  42.510  44.232  1.00  0.00     0.117 C 
HETATM   10  O1  UNL     1      15.639  40.886  43.077  1.00  0.00    -0.274 OA
ATOM     11  H1  UNL     1      15.585  44.044  42.484  1.00  0.00     0.170 HD
ENDBRANCH   4   7
ENDBRANCH   1   3
BRANCH   1  12
HETATM   12  C5  UNL     1      12.243  43.116  43.751  1.00  0.00     0.163 A 
HETATM   13  C6  UNL     1      11.907  44.262  43.028  1.00  0.00     0.078 A 
HETATM   14  C7  UNL     1      11.231  45.253  43.721  1.00  0.00     0.035 A 
HETATM   15 BR1  UNL     1      10.741  46.842  42.797  1.00  0.00    -0.049 Br
HETATM   16  C8  UNL     1      10.920  45.083  45.056  1.00  0.00     0.057 A 
HETATM   17 BR2  UNL     1       9.985  46.490  45.956  1.00  0.00    -0.047 Br
HETATM   18  C9  UNL     1      11.290  43.917  45.700  1.00  0.00     0.070 A 
HETATM   19  C10 UNL     1      10.944  43.758  47.140  1.00  0.00     0.078 C 
HETATM   20  O2  UNL     1      11.928  42.998  45.020  1.00  0.00    -0.296 OA
ENDBRANCH   1  12
TORSDOF 3
ENDMDL
MODEL 5
REMARK VINA RESULT: -6.580448023      3.581      5.981
REMARK  3 active torsions:
REMARK  status: ('A' for Active; 'I' for Inactive)
REMARK       I    between atoms: C2_2  and  N1_4 
REMARK    1  A    between atoms: N1_4  and  C3_6 
REMARK    2  A    between atoms: N2_8  and  N3_10 
REMARK    3  A    between atoms: N3_10  and  C5_12 
ROOT
HETATM    1  N3  UNL     1      12.507  43.248  46.684  1.00  0.00    -0.278 N 
ATOM      2  H3  UNL     1      13.003  42.988  47.536  1.00  0.00     0.189 HD
ENDROOT
BRANCH   1   3
HETATM    3  N2  UNL     1      11.151  43.492  46.762  1.00  0.00    -0.287 N 
HETATM    4  C3  UNL     1      10.663  44.648  47.134  1.00  0.00     0.094 C 
HETATM    5  C4  UNL     1       9.199  44.859  47.203  1.00  0.00     0.090 C 
ATOM      6  H2  UNL     1      10.503  42.742  46.520  1.00  0.00     0.188 HD
BRANCH   4   7
HETATM    7  N1  UNL     1      11.583  45.668  47.461  1.00  0.00    -0.316 N 
HETATM    8  C2  UNL     1      11.854  46.718  46.583  1.00  0.00     0.218 C 
HETATM    9  C1  UNL     1      12.844  47.789  46.972  1.00  0.00     0.117 C 
HETATM   10  O1  UNL     1      11.300  46.811  45.469  1.00  0.00    -0.274 OA
ATOM     11  H1  UNL     1      12.062  45.636  48.362  1.00  0.00     0.170 HD
ENDBRANCH   4   7
ENDBRANCH   1   3
BRANCH   1  12
HETATM   12  C5  UNL     1      13.183  43.333  45.578  1.00  0.00     0.163 A 
HETATM   13  C6  UNL     1      12.465  43.711  44.442  1.00  0.00     0.078 A 
HETATM   14  C7  UNL     1      13.182  43.802  43.260  1.00  0.00     0.035 A 
HETATM   15 BR1  UNL     1      12.266  44.312  41.673  1.00  0.00    -0.049 Br
HETATM   16  C8  UNL     1      14.536  43.529  43.242  1.00  0.00     0.057 A 
HETATM   17 BR2  UNL     1      15.469  43.673  41.578  1.00  0.00    -0.047 Br
HETATM   18  C9  UNL     1      15.174  43.160  44.413  1.00  0.00     0.070 A 
HETATM   19  C10 UNL     1      16.633  42.869  44.368  1.00  0.00     0.078 C 
HETATM   20  O2  UNL     1      14.470  43.082  45.515  1.00  0.00    -0.296 OA
ENDBRANCH   1  12
TORSDOF 3
ENDMDL
