MODEL 1
REMARK VINA RESULT: -9.154692066      0.000      0.000
REMARK  2 active torsions:
REMARK  status: ('A' for Active; 'I' for Inactive)
REMARK    1  A    between atoms: C2_2  and  C3_3 
REMARK    2  A    between atoms: C6_6  and  O1_7 
ROOT
HETATM    1  C3  UNL     1      11.797  45.131  45.162  1.00  0.00     0.025 C 
HETATM    2  C4  UNL     1      12.126  43.818  45.745  1.00  0.00     0.001 C 
HETATM    3  C5  UNL     1      11.662  43.955  47.108  1.00  0.00     0.040 C 
HETATM    4  C6  UNL     1      10.125  44.131  47.008  1.00  0.00     0.148 C 
HETATM    5  C7  UNL     1       9.660  45.054  45.908  1.00  0.00     0.161 C 
HETATM    6  O2  UNL     1       8.547  44.553  45.181  1.00  0.00    -0.382 OA
HETATM    7  C8  UNL     1       9.574  43.774  44.551  1.00  0.00     0.181 C 
HETATM    8  C9  UNL     1      10.414  44.933  44.691  1.00  0.00     0.017 C 
HETATM    9  C10 UNL     1      10.441  45.599  43.405  1.00  0.00     0.015 C 
HETATM   10  C11 UNL     1      11.506  44.879  42.565  1.00  0.00     0.007 C 
HETATM   11  C12 UNL     1      11.875  43.517  42.851  1.00  0.00     0.007 A 
HETATM   12  C13 UNL     1      12.820  42.883  43.671  1.00  0.00     0.011 A 
HETATM   13  C14 UNL     1      13.263  43.289  45.065  1.00  0.00    -0.004 C 
HETATM   14  C15 UNL     1      14.607  43.948  45.057  1.00  0.00     0.007 C 
HETATM   15  C16 UNL     1      15.608  42.903  44.603  1.00  0.00     0.025 C 
HETATM   16  C17 UNL     1      15.718  42.652  43.150  1.00  0.00     0.084 C 
HETATM   17  C18 UNL     1      14.888  41.517  42.599  1.00  0.00     0.104 C 
HETATM   18  C19 UNL     1      13.753  42.032  41.686  1.00  0.00     0.255 C 
HETATM   19  F1  UNL     1      12.719  41.149  41.767  1.00  0.00    -0.205 F 
HETATM   20  F2  UNL     1      14.169  42.300  40.438  1.00  0.00    -0.205 F 
HETATM   21  C20 UNL     1      13.353  43.294  42.483  1.00  0.00     0.050 A 
HETATM   22  C21 UNL     1      14.282  44.272  42.060  1.00  0.00     0.133 C 
HETATM   23  N1  UNL     1      15.649  43.857  42.416  1.00  0.00    -0.411 N 
HETATM   24  C22 UNL     1      16.588  44.043  41.382  1.00  0.00     0.143 C 
ENDROOT
BRANCH   1  25
HETATM   25  C2  UNL     1      11.960  46.337  46.014  1.00  0.00    -0.031 C 
HETATM   26  C1  UNL     1      12.307  47.551  45.610  1.00  0.00     0.007 C 
ENDBRANCH   1  25
BRANCH   4  27
HETATM   27  O1  UNL     1       9.712  44.645  48.235  1.00  0.00    -0.393 OA
ATOM     28  H1  UNL     1       9.412  43.903  48.746  1.00  0.00     0.210 HD
ENDBRANCH   4  27
TORSDOF 2
ENDMDL
MODEL 2
REMARK VINA RESULT: -8.771945904      2.037      3.573
REMARK  2 active torsions:
REMARK  status: ('A' for Active; 'I' for Inactive)
REMARK    1  A    between atoms: C2_2  and  C3_3 
REMARK    2  A    between atoms: C6_6  and  O1_7 
ROOT
HETATM    1  C3  UNL     1      11.420  45.218  44.208  1.00  0.00     0.025 C 
HETATM    2  C4  UNL     1      12.394  46.007  43.433  1.00  0.00     0.001 C 
HETATM    3  C5  UNL     1      11.722  47.279  43.287  1.00  0.00     0.040 C 
HETATM    4  C6  UNL     1      11.589  47.846  44.724  1.00  0.00     0.148 C 
HETATM    5  C7  UNL     1      11.178  46.840  45.771  1.00  0.00     0.161 C 
HETATM    6  O2  UNL     1      11.920  46.944  46.978  1.00  0.00    -0.382 OA
HETATM    7  C8  UNL     1      12.892  46.234  46.197  1.00  0.00     0.181 C 
HETATM    8  C9  UNL     1      11.780  45.547  45.600  1.00  0.00     0.017 C 
HETATM    9  C10 UNL     1      11.682  44.253  46.243  1.00  0.00     0.015 C 
HETATM   10  C11 UNL     1      12.685  43.334  45.530  1.00  0.00     0.007 C 
HETATM   11  C12 UNL     1      13.822  43.881  44.837  1.00  0.00     0.007 A 
HETATM   12  C13 UNL     1      14.084  44.336  43.536  1.00  0.00     0.011 A 
HETATM   13  C14 UNL     1      13.158  45.117  42.621  1.00  0.00    -0.004 C 
HETATM   14  C15 UNL     1      12.566  44.255  41.550  1.00  0.00     0.007 C 
HETATM   15  C16 UNL     1      13.712  43.795  40.670  1.00  0.00     0.025 C 
HETATM   16  C17 UNL     1      14.523  42.655  41.148  1.00  0.00     0.084 C 
HETATM   17  C18 UNL     1      15.778  42.996  41.916  1.00  0.00     0.104 C 
HETATM   18  C19 UNL     1      15.662  42.596  43.404  1.00  0.00     0.255 C 
HETATM   19  F1  UNL     1      16.432  43.455  44.128  1.00  0.00    -0.205 F 
HETATM   20  F2  UNL     1      15.916  41.295  43.616  1.00  0.00    -0.205 F 
HETATM   21  C20 UNL     1      14.184  42.979  43.643  1.00  0.00     0.050 A 
HETATM   22  C21 UNL     1      13.462  41.856  43.176  1.00  0.00     0.133 C 
HETATM   23  N1  UNL     1      13.710  41.661  41.738  1.00  0.00    -0.411 N 
HETATM   24  C22 UNL     1      13.959  40.321  41.380  1.00  0.00     0.143 C 
ENDROOT
BRANCH   1  25
HETATM   25  C2  UNL     1       9.975  45.404  43.916  1.00  0.00    -0.031 C 
HETATM   26  C1  UNL     1       8.989  44.578  44.237  1.00  0.00     0.007 C 
ENDBRANCH   1  25
BRANCH   4  27
HETATM   27  O1  UNL     1      10.625  48.850  44.659  1.00  0.00    -0.393 OA
ATOM     28  H1  UNL     1      10.924  49.463  43.997  1.00  0.00     0.210 HD
ENDBRANCH   4  27
TORSDOF 2
ENDMDL
MODEL 3
REMARK VINA RESULT: -8.555897304      3.513      5.912
REMARK  2 active torsions:
REMARK  status: ('A' for Active; 'I' for Inactive)
REMARK    1  A    between atoms: C2_2  and  C3_3 
REMARK    2  A    between atoms: C6_6  and  O1_7 
ROOT
HETATM    1  C3  UNL     1      13.422  43.150  43.126  1.00  0.00     0.025 C 
HETATM    2  C4  UNL     1      14.166  43.709  44.268  1.00  0.00     0.001 C 
HETATM    3  C5  UNL     1      15.476  43.118  44.108  1.00  0.00     0.040 C 
HETATM    4  C6  UNL     1      16.028  43.684  42.774  1.00  0.00     0.148 C 
HETATM    5  C7  UNL     1      15.030  43.737  41.643  1.00  0.00     0.161 C 
HETATM    6  O2  UNL     1      15.073  44.951  40.906  1.00  0.00    -0.382 OA
HETATM    7  C8  UNL     1      14.323  45.420  42.035  1.00  0.00     0.181 C 
HETATM    8  C9  UNL     1      13.708  44.121  42.053  1.00  0.00     0.017 C 
HETATM    9  C10 UNL     1      12.412  44.253  41.421  1.00  0.00     0.015 C 
HETATM   10  C11 UNL     1      11.450  44.768  42.501  1.00  0.00     0.007 C 
HETATM   11  C12 UNL     1      11.943  45.496  43.641  1.00  0.00     0.007 A 
HETATM   12  C13 UNL     1      12.402  45.163  44.925  1.00  0.00     0.011 A 
HETATM   13  C14 UNL     1      13.248  43.970  45.328  1.00  0.00    -0.004 C 
HETATM   14  C15 UNL     1      12.437  42.908  46.003  1.00  0.00     0.007 C 
HETATM   15  C16 UNL     1      11.928  43.501  47.302  1.00  0.00     0.025 C 
HETATM   16  C17 UNL     1      10.736  44.374  47.232  1.00  0.00     0.084 C 
HETATM   17  C18 UNL     1      10.995  45.858  47.121  1.00  0.00     0.104 C 
HETATM   18  C19 UNL     1      10.579  46.408  45.739  1.00  0.00     0.255 C 
HETATM   19  F1  UNL     1      11.383  47.470  45.453  1.00  0.00    -0.205 F 
HETATM   20  F2  UNL     1       9.263  46.656  45.650  1.00  0.00    -0.205 F 
HETATM   21  C20 UNL     1      11.040  45.224  44.859  1.00  0.00     0.050 A 
HETATM   22  C21 UNL     1       9.967  44.306  44.934  1.00  0.00     0.133 C 
HETATM   23  N1  UNL     1       9.781  43.863  46.325  1.00  0.00    -0.411 N 
HETATM   24  C22 UNL     1       8.434  43.845  46.742  1.00  0.00     0.143 C 
ENDROOT
BRANCH   1  25
HETATM   25  C2  UNL     1      13.693  41.744  42.732  1.00  0.00    -0.031 C 
HETATM   26  C1  UNL     1      12.934  40.976  41.962  1.00  0.00     0.007 C 
ENDBRANCH   1  25
BRANCH   4  27
HETATM   27  O1  UNL     1      17.085  42.855  42.406  1.00  0.00    -0.393 OA
ATOM     28  H1  UNL     1      17.866  43.395  42.429  1.00  0.00     0.210 HD
ENDBRANCH   4  27
TORSDOF 2
ENDMDL
MODEL 4
REMARK VINA RESULT: -8.072068652      2.155      3.641
REMARK  2 active torsions:
REMARK  status: ('A' for Active; 'I' for Inactive)
REMARK    1  A    between atoms: C2_2  and  C3_3 
REMARK    2  A    between atoms: C6_6  and  O1_7 
ROOT
HETATM    1  C3  UNL     1      11.932  45.067  42.795  1.00  0.00     0.025 C 
HETATM    2  C4  UNL     1      13.181  45.847  42.737  1.00  0.00     0.001 C 
HETATM    3  C5  UNL     1      12.700  47.193  42.521  1.00  0.00     0.040 C 
HETATM    4  C6  UNL     1      11.894  47.557  43.794  1.00  0.00     0.148 C 
HETATM    5  C7  UNL     1      10.997  46.461  44.316  1.00  0.00     0.161 C 
HETATM    6  O2  UNL     1      11.055  46.306  45.727  1.00  0.00    -0.382 OA
HETATM    7  C8  UNL     1      12.267  45.614  45.392  1.00  0.00     0.181 C 
HETATM    8  C9  UNL     1      11.572  45.148  44.223  1.00  0.00     0.017 C 
HETATM    9  C10 UNL     1      11.138  43.793  44.495  1.00  0.00     0.015 C 
HETATM   10  C11 UNL     1      12.338  42.883  44.196  1.00  0.00     0.007 C 
HETATM   11  C12 UNL     1      13.682  43.395  44.243  1.00  0.00     0.007 A 
HETATM   12  C13 UNL     1      14.560  44.001  43.331  1.00  0.00     0.011 A 
HETATM   13  C14 UNL     1      14.222  45.006  42.244  1.00  0.00    -0.004 C 
HETATM   14  C15 UNL     1      14.209  44.378  40.885  1.00  0.00     0.007 C 
HETATM   15  C16 UNL     1      15.627  43.927  40.593  1.00  0.00     0.025 C 
HETATM   16  C17 UNL     1      16.069  42.647  41.185  1.00  0.00     0.084 C 
HETATM   17  C18 UNL     1      16.795  42.732  42.507  1.00  0.00     0.104 C 
HETATM   18  C19 UNL     1      15.954  42.136  43.658  1.00  0.00     0.255 C 
HETATM   19  F1  UNL     1      16.293  42.790  44.804  1.00  0.00    -0.205 F 
HETATM   20  F2  UNL     1      16.039  40.798  43.726  1.00  0.00    -0.205 F 
HETATM   21  C20 UNL     1      14.559  42.641  43.226  1.00  0.00     0.050 A 
HETATM   22  C21 UNL     1      14.131  41.685  42.276  1.00  0.00     0.133 C 
HETATM   23  N1  UNL     1      15.046  41.675  41.124  1.00  0.00    -0.411 N 
HETATM   24  C22 UNL     1      15.404  40.381  40.692  1.00  0.00     0.143 C 
ENDROOT
BRANCH   1  25
HETATM   25  C2  UNL     1      10.822  45.452  41.887  1.00  0.00    -0.031 C 
HETATM   26  C1  UNL     1      10.823  45.389  40.563  1.00  0.00     0.007 C 
ENDBRANCH   1  25
BRANCH   4  27
HETATM   27  O1  UNL     1      11.113  48.660  43.460  1.00  0.00    -0.393 OA
ATOM     28  H1  UNL     1      10.220  48.343  43.394  1.00  0.00     0.210 HD
ENDBRANCH   4  27
TORSDOF 2
ENDMDL
MODEL 5
REMARK VINA RESULT: -7.810642110      3.253      6.111
REMARK  2 active torsions:
REMARK  status: ('A' for Active; 'I' for Inactive)
REMARK    1  A    between atoms: C2_2  and  C3_3 
REMARK    2  A    between atoms: C6_6  and  O1_7 
ROOT
HETATM    1  C3  UNL     1      14.799  43.514  41.858  1.00  0.00     0.025 C 
HETATM    2  C4  UNL     1      13.589  43.383  41.026  1.00  0.00     0.001 C 
HETATM    3  C5  UNL     1      14.123  42.903  39.771  1.00  0.00     0.040 C 
HETATM    4  C6  UNL     1      14.720  41.506  40.079  1.00  0.00     0.148 C 
HETATM    5  C7  UNL     1      15.503  41.418  41.367  1.00  0.00     0.161 C 
HETATM    6  O2  UNL     1      15.217  40.250  42.123  1.00  0.00    -0.382 OA
HETATM    7  C8  UNL     1      14.063  41.020  42.487  1.00  0.00     0.181 C 
HETATM    8  C9  UNL     1      14.927  42.168  42.448  1.00  0.00     0.017 C 
HETATM    9  C10 UNL     1      15.288  42.479  43.816  1.00  0.00     0.015 C 
HETATM   10  C11 UNL     1      14.136  43.315  44.391  1.00  0.00     0.007 C 
HETATM   11  C12 UNL     1      12.810  43.224  43.836  1.00  0.00     0.007 A 
HETATM   12  C13 UNL     1      12.101  43.875  42.815  1.00  0.00     0.011 A 
HETATM   13  C14 UNL     1      12.626  44.337  41.468  1.00  0.00    -0.004 C 
HETATM   14  C15 UNL     1      12.845  45.818  41.429  1.00  0.00     0.007 C 
HETATM   15  C16 UNL     1      11.485  46.469  41.579  1.00  0.00     0.025 C 
HETATM   16  C17 UNL     1      10.930  46.583  42.945  1.00  0.00     0.084 C 
HETATM   17  C18 UNL     1      10.004  45.475  43.389  1.00  0.00     0.104 C 
HETATM   18  C19 UNL     1      10.639  44.614  44.503  1.00  0.00     0.255 C 
HETATM   19  F1  UNL     1      10.133  43.354  44.396  1.00  0.00    -0.205 F 
HETATM   20  F2  UNL     1      10.521  45.167  45.721  1.00  0.00    -0.205 F 
HETATM   21  C20 UNL     1      12.094  44.580  43.984  1.00  0.00     0.050 A 
HETATM   22  C21 UNL     1      12.652  45.790  44.455  1.00  0.00     0.133 C 
HETATM   23  N1  UNL     1      11.932  46.936  43.876  1.00  0.00    -0.411 N 
HETATM   24  C22 UNL     1      11.626  47.947  44.809  1.00  0.00     0.143 C 
ENDROOT
BRANCH   1  25
HETATM   25  C2  UNL     1      16.047  43.992  41.210  1.00  0.00    -0.031 C 
HETATM   26  C1  UNL     1      17.288  43.781  41.627  1.00  0.00     0.007 C 
ENDBRANCH   1  25
BRANCH   4  27
HETATM   27  O1  UNL     1      15.565  41.200  39.014  1.00  0.00    -0.393 OA
ATOM     28  H1  UNL     1      15.849  40.304  39.150  1.00  0.00     0.210 HD
ENDBRANCH   4  27
TORSDOF 2
ENDMDL
