MODEL 1
REMARK VINA RESULT: -5.239323401      0.000      0.000
REMARK  3 active torsions:
REMARK  status: ('A' for Active; 'I' for Inactive)
REMARK    1  A    between atoms: N1_2  and  C3_4 
REMARK    2  A    between atoms: C3_4  and  N2_6 
REMARK       I    between atoms: N2_6  and  C4_8 
REMARK    3  A    between atoms: C4_8  and  C5_10 
ROOT
HETATM    1  N2  UNL     1      14.674  44.281  40.859  1.00  0.00    -0.299 N 
ATOM      2  H2  UNL     1      14.419  45.035  40.221  1.00  0.00     0.171 HD
HETATM    3  C4  UNL     1      14.177  44.286  42.178  1.00  0.00     0.264 C 
HETATM    4  O1  UNL     1      14.439  43.411  43.011  1.00  0.00    -0.267 OA
ENDROOT
BRANCH   3   5
HETATM    5  C5  UNL     1      13.293  45.400  42.588  1.00  0.00     0.075 A 
HETATM    6  C6  UNL     1      12.539  45.524  43.721  1.00  0.00     0.045 A 
HETATM    7  C7  UNL     1      11.812  46.654  43.854  1.00  0.00     0.036 A 
HETATM    8 BR1  UNL     1      10.686  47.003  45.393  1.00  0.00    -0.049 Br
HETATM    9  C8  UNL     1      11.894  47.569  42.847  1.00  0.00     0.069 A 
HETATM   10 BR2  UNL     1      11.003  49.272  42.707  1.00  0.00    -0.042 Br
HETATM   11  S2  UNL     1      12.974  46.843  41.744  1.00  0.00    -0.076 SA
ENDBRANCH   3   5
BRANCH   1  12
HETATM   12  C3  UNL     1      15.540  43.223  40.402  1.00  0.00     0.176 C 
HETATM   13  S1  UNL     1      17.136  43.387  40.566  1.00  0.00    -0.041 SA
BRANCH  12  14
HETATM   14  N1  UNL     1      15.013  42.046  39.814  1.00  0.00    -0.367 N 
HETATM   15  C1  UNL     1      14.651  42.048  38.417  1.00  0.00     0.151 C 
HETATM   16  C2  UNL     1      14.857  40.871  40.649  1.00  0.00     0.151 C 
ENDBRANCH  12  14
ENDBRANCH   1  12
TORSDOF 3
ENDMDL
MODEL 2
REMARK VINA RESULT: -5.183900713      1.855      2.566
REMARK  3 active torsions:
REMARK  status: ('A' for Active; 'I' for Inactive)
REMARK    1  A    between atoms: N1_2  and  C3_4 
REMARK    2  A    between atoms: C3_4  and  N2_6 
REMARK       I    between atoms: N2_6  and  C4_8 
REMARK    3  A    between atoms: C4_8  and  C5_10 
ROOT
HETATM    1  N2  UNL     1      14.049  43.152  40.075  1.00  0.00    -0.299 N 
ATOM      2  H2  UNL     1      13.623  43.966  39.631  1.00  0.00     0.171 HD
HETATM    3  C4  UNL     1      13.754  42.859  41.422  1.00  0.00     0.264 C 
HETATM    4  O1  UNL     1      14.227  41.894  42.032  1.00  0.00    -0.267 OA
ENDROOT
BRANCH   3   5
HETATM    5  C5  UNL     1      12.825  43.757  42.145  1.00  0.00     0.075 A 
HETATM    6  C6  UNL     1      12.461  45.039  41.842  1.00  0.00     0.045 A 
HETATM    7  C7  UNL     1      11.587  45.642  42.676  1.00  0.00     0.036 A 
HETATM    8 BR1  UNL     1      10.958  47.456  42.404  1.00  0.00    -0.049 Br
HETATM    9  C8  UNL     1      11.145  44.920  43.745  1.00  0.00     0.069 A 
HETATM   10 BR2  UNL     1       9.910  45.459  45.121  1.00  0.00    -0.042 Br
HETATM   11  S2  UNL     1      11.951  43.426  43.568  1.00  0.00    -0.076 SA
ENDBRANCH   3   5
BRANCH   1  12
HETATM   12  C3  UNL     1      14.946  42.315  39.319  1.00  0.00     0.176 C 
HETATM   13  S1  UNL     1      16.536  42.561  39.435  1.00  0.00    -0.041 SA
BRANCH  12  14
HETATM   14  N1  UNL     1      14.456  41.283  38.480  1.00  0.00    -0.367 N 
HETATM   15  C1  UNL     1      14.264  39.958  39.018  1.00  0.00     0.151 C 
HETATM   16  C2  UNL     1      14.161  41.604  37.097  1.00  0.00     0.151 C 
ENDBRANCH  12  14
ENDBRANCH   1  12
TORSDOF 3
ENDMDL
MODEL 3
REMARK VINA RESULT: -5.161377862      1.525      1.838
REMARK  3 active torsions:
REMARK  status: ('A' for Active; 'I' for Inactive)
REMARK    1  A    between atoms: N1_2  and  C3_4 
REMARK    2  A    between atoms: C3_4  and  N2_6 
REMARK       I    between atoms: N2_6  and  C4_8 
REMARK    3  A    between atoms: C4_8  and  C5_10 
ROOT
HETATM    1  N2  UNL     1      14.353  43.994  41.522  1.00  0.00    -0.299 N 
ATOM      2  H2  UNL     1      14.898  44.854  41.447  1.00  0.00     0.171 HD
HETATM    3  C4  UNL     1      13.045  44.041  42.044  1.00  0.00     0.264 C 
HETATM    4  O1  UNL     1      12.321  43.047  42.168  1.00  0.00    -0.267 OA
ENDROOT
BRANCH   3   5
HETATM    5  C5  UNL     1      12.508  45.354  42.467  1.00  0.00     0.075 A 
HETATM    6  C6  UNL     1      12.376  45.860  43.729  1.00  0.00     0.045 A 
HETATM    7  C7  UNL     1      11.849  47.099  43.842  1.00  0.00     0.036 A 
HETATM    8 BR1  UNL     1      11.588  47.977  45.551  1.00  0.00    -0.049 Br
HETATM    9  C8  UNL     1      11.497  47.734  42.688  1.00  0.00     0.069 A 
HETATM   10 BR2  UNL     1      10.726  49.487  42.478  1.00  0.00    -0.042 Br
HETATM   11  S2  UNL     1      11.903  46.601  41.479  1.00  0.00    -0.076 SA
ENDBRANCH   3   5
BRANCH   1  12
HETATM   12  C3  UNL     1      14.931  42.745  41.094  1.00  0.00     0.176 C 
HETATM   13  S1  UNL     1      15.078  42.447  39.516  1.00  0.00    -0.041 SA
BRANCH  12  14
HETATM   14  N1  UNL     1      15.371  41.779  42.033  1.00  0.00    -0.367 N 
HETATM   15  C1  UNL     1      16.149  42.197  43.174  1.00  0.00     0.151 C 
HETATM   16  C2  UNL     1      15.016  40.391  41.810  1.00  0.00     0.151 C 
ENDBRANCH  12  14
ENDBRANCH   1  12
TORSDOF 3
ENDMDL
MODEL 4
REMARK VINA RESULT: -5.143089479      1.829      2.118
REMARK  3 active torsions:
REMARK  status: ('A' for Active; 'I' for Inactive)
REMARK    1  A    between atoms: N1_2  and  C3_4 
REMARK    2  A    between atoms: C3_4  and  N2_6 
REMARK       I    between atoms: N2_6  and  C4_8 
REMARK    3  A    between atoms: C4_8  and  C5_10 
ROOT
HETATM    1  N2  UNL     1      14.327  44.016  42.417  1.00  0.00    -0.299 N 
ATOM      2  H2  UNL     1      14.831  44.852  42.715  1.00  0.00     0.171 HD
HETATM    3  C4  UNL     1      12.940  43.918  42.646  1.00  0.00     0.264 C 
HETATM    4  O1  UNL     1      12.258  42.941  42.316  1.00  0.00    -0.267 OA
ENDROOT
BRANCH   3   5
HETATM    5  C5  UNL     1      12.262  45.049  43.318  1.00  0.00     0.075 A 
HETATM    6  C6  UNL     1      11.365  45.020  44.349  1.00  0.00     0.045 A 
HETATM    7  C7  UNL     1      10.890  46.208  44.782  1.00  0.00     0.036 A 
HETATM    8 BR1  UNL     1       9.613  46.361  46.234  1.00  0.00    -0.049 Br
HETATM    9  C8  UNL     1      11.345  47.328  44.154  1.00  0.00     0.069 A 
HETATM   10 BR2  UNL     1      10.886  49.165  44.507  1.00  0.00    -0.042 Br
HETATM   11  S2  UNL     1      12.419  46.710  42.980  1.00  0.00    -0.076 SA
ENDBRANCH   3   5
BRANCH   1  12
HETATM   12  C3  UNL     1      15.043  42.947  41.766  1.00  0.00     0.176 C 
HETATM   13  S1  UNL     1      15.300  43.027  40.176  1.00  0.00    -0.041 SA
BRANCH  12  14
HETATM   14  N1  UNL     1      15.524  41.833  42.499  1.00  0.00    -0.367 N 
HETATM   15  C1  UNL     1      15.171  40.498  42.079  1.00  0.00     0.151 C 
HETATM   16  C2  UNL     1      16.363  42.081  43.655  1.00  0.00     0.151 C 
ENDBRANCH  12  14
ENDBRANCH   1  12
TORSDOF 3
ENDMDL
MODEL 5
REMARK VINA RESULT: -5.125123742      1.291      1.553
REMARK  3 active torsions:
REMARK  status: ('A' for Active; 'I' for Inactive)
REMARK    1  A    between atoms: N1_2  and  C3_4 
REMARK    2  A    between atoms: C3_4  and  N2_6 
REMARK       I    between atoms: N2_6  and  C4_8 
REMARK    3  A    between atoms: C4_8  and  C5_10 
ROOT
HETATM    1  N2  UNL     1      13.607  43.142  41.001  1.00  0.00    -0.299 N 
ATOM      2  H2  UNL     1      12.651  43.283  40.675  1.00  0.00     0.171 HD
HETATM    3  C4  UNL     1      14.160  44.032  41.944  1.00  0.00     0.264 C 
HETATM    4  O1  UNL     1      15.309  43.931  42.389  1.00  0.00    -0.267 OA
ENDROOT
BRANCH   3   5
HETATM    5  C5  UNL     1      13.318  45.149  42.429  1.00  0.00     0.075 A 
HETATM    6  C6  UNL     1      12.515  45.200  43.534  1.00  0.00     0.045 A 
HETATM    7  C7  UNL     1      11.845  46.351  43.752  1.00  0.00     0.036 A 
HETATM    8 BR1  UNL     1      10.662  46.606  45.268  1.00  0.00    -0.049 Br
HETATM    9  C8  UNL     1      12.028  47.359  42.853  1.00  0.00     0.069 A 
HETATM   10 BR2  UNL     1      11.239  49.117  42.854  1.00  0.00    -0.042 Br
HETATM   11  S2  UNL     1      13.122  46.688  41.729  1.00  0.00    -0.076 SA
ENDBRANCH   3   5
BRANCH   1  12
HETATM   12  C3  UNL     1      14.379  42.036  40.492  1.00  0.00     0.176 C 
HETATM   13  S1  UNL     1      14.371  40.638  41.294  1.00  0.00    -0.041 SA
BRANCH  12  14
HETATM   14  N1  UNL     1      15.139  42.157  39.302  1.00  0.00    -0.367 N 
HETATM   15  C1  UNL     1      16.525  42.550  39.379  1.00  0.00     0.151 C 
HETATM   16  C2  UNL     1      14.486  41.877  38.038  1.00  0.00     0.151 C 
ENDBRANCH  12  14
ENDBRANCH   1  12
TORSDOF 3
ENDMDL
