MODEL 1
REMARK VINA RESULT: -6.326246587      0.000      0.000
REMARK  1 active torsions:
REMARK  status: ('A' for Active; 'I' for Inactive)
REMARK       I    between atoms: C1_2  and  N1_3 
REMARK    1  A    between atoms: C1_2  and  C5_11 
ROOT
HETATM    1  O1  UNL     1      11.278  44.881  40.504  1.00  0.00    -0.267 OA
HETATM    2  C1  UNL     1      11.811  44.725  41.625  1.00  0.00     0.264 C 
HETATM    3  N1  UNL     1      12.479  43.542  42.006  1.00  0.00    -0.303 N 
ATOM      4  H1  UNL     1      12.204  43.118  42.893  1.00  0.00     0.171 HD
HETATM    5  C2  UNL     1      13.387  42.962  41.349  1.00  0.00     0.142 C 
HETATM    6  N2  UNL     1      13.955  43.323  40.111  1.00  0.00    -0.370 N 
ATOM      7  H2  UNL     1      13.940  44.278  39.753  1.00  0.00     0.161 HD
HETATM    8  C3  UNL     1      14.552  42.240  39.402  1.00  0.00     0.132 C 
HETATM    9  C4  UNL     1      15.368  41.399  40.392  1.00  0.00     0.102 C 
HETATM   10  S1  UNL     1      14.226  41.468  41.840  1.00  0.00    -0.092 SA
ENDROOT
BRANCH   2  11
HETATM   11  C5  UNL     1      11.714  45.865  42.571  1.00  0.00     0.075 A 
HETATM   12  C6  UNL     1      12.087  45.910  43.887  1.00  0.00     0.045 A 
HETATM   13  C7  UNL     1      11.896  47.072  44.539  1.00  0.00     0.036 A 
HETATM   14 BR1  UNL     1      12.367  47.313  46.407  1.00  0.00    -0.049 Br
HETATM   15  C8  UNL     1      11.350  48.106  43.834  1.00  0.00     0.069 A 
HETATM   16 BR2  UNL     1      10.950  49.886  44.464  1.00  0.00    -0.042 Br
HETATM   17  S2  UNL     1      11.114  47.437  42.285  1.00  0.00    -0.076 SA
ENDBRANCH   2  11
TORSDOF 1
ENDMDL
MODEL 2
REMARK VINA RESULT: -6.175064620      1.212      1.934
REMARK  1 active torsions:
REMARK  status: ('A' for Active; 'I' for Inactive)
REMARK       I    between atoms: C1_2  and  N1_3 
REMARK    1  A    between atoms: C1_2  and  C5_11 
ROOT
HETATM    1  O1  UNL     1      11.089  45.108  40.473  1.00  0.00    -0.267 OA
HETATM    2  C1  UNL     1      11.605  45.182  41.610  1.00  0.00     0.264 C 
HETATM    3  N1  UNL     1      12.314  44.120  42.210  1.00  0.00    -0.303 N 
ATOM      4  H1  UNL     1      12.038  43.853  43.155  1.00  0.00     0.171 HD
HETATM    5  C2  UNL     1      13.260  43.473  41.681  1.00  0.00     0.142 C 
HETATM    6  N2  UNL     1      13.838  43.629  40.406  1.00  0.00    -0.370 N 
ATOM      7  H2  UNL     1      13.790  44.501  39.879  1.00  0.00     0.161 HD
HETATM    8  C3  UNL     1      14.496  42.464  39.915  1.00  0.00     0.132 C 
HETATM    9  C4  UNL     1      15.326  41.855  41.052  1.00  0.00     0.102 C 
HETATM   10  S1  UNL     1      14.152  42.133  42.447  1.00  0.00    -0.092 SA
ENDROOT
BRANCH   2  11
HETATM   11  C5  UNL     1      11.439  46.470  42.331  1.00  0.00     0.075 A 
HETATM   12  C6  UNL     1      10.954  47.655  41.849  1.00  0.00     0.045 A 
HETATM   13  C7  UNL     1      10.902  48.691  42.707  1.00  0.00     0.036 A 
HETATM   14 BR1  UNL     1      10.242  50.444  42.193  1.00  0.00    -0.049 Br
HETATM   15  C8  UNL     1      11.334  48.472  43.983  1.00  0.00     0.069 A 
HETATM   16 BR2  UNL     1      11.391  49.731  45.445  1.00  0.00    -0.042 Br
HETATM   17  S2  UNL     1      11.804  46.834  43.958  1.00  0.00    -0.076 SA
ENDBRANCH   2  11
TORSDOF 1
ENDMDL
MODEL 3
REMARK VINA RESULT: -5.952705772      1.611      1.630
REMARK  1 active torsions:
REMARK  status: ('A' for Active; 'I' for Inactive)
REMARK       I    between atoms: C1_2  and  N1_3 
REMARK    1  A    between atoms: C1_2  and  C5_11 
ROOT
HETATM    1  O1  UNL     1      12.123  43.262  42.150  1.00  0.00    -0.267 OA
HETATM    2  C1  UNL     1      12.959  44.192  42.180  1.00  0.00     0.264 C 
HETATM    3  N1  UNL     1      14.327  44.013  41.888  1.00  0.00    -0.303 N 
ATOM      4  H1  UNL     1      14.998  44.370  42.569  1.00  0.00     0.171 HD
HETATM    5  C2  UNL     1      14.796  43.452  40.859  1.00  0.00     0.142 C 
HETATM    6  N2  UNL     1      14.108  42.879  39.771  1.00  0.00    -0.370 N 
ATOM      7  H2  UNL     1      13.156  43.142  39.517  1.00  0.00     0.161 HD
HETATM    8  C3  UNL     1      14.857  41.900  39.055  1.00  0.00     0.132 C 
HETATM    9  C4  UNL     1      16.284  42.426  38.856  1.00  0.00     0.102 C 
HETATM   10  S1  UNL     1      16.527  43.232  40.498  1.00  0.00    -0.092 SA
ENDROOT
BRANCH   2  11
HETATM   11  C5  UNL     1      12.443  45.536  42.546  1.00  0.00     0.075 A 
HETATM   12  C6  UNL     1      12.300  46.078  43.794  1.00  0.00     0.045 A 
HETATM   13  C7  UNL     1      11.804  47.327  43.866  1.00  0.00     0.036 A 
HETATM   14 BR1  UNL     1      11.535  48.251  45.553  1.00  0.00    -0.049 Br
HETATM   15  C8  UNL     1      11.488  47.947  42.692  1.00  0.00     0.069 A 
HETATM   16 BR2  UNL     1      10.764  49.720  42.446  1.00  0.00    -0.042 Br
HETATM   17  S2  UNL     1      11.885  46.778  41.517  1.00  0.00    -0.076 SA
ENDBRANCH   2  11
TORSDOF 1
ENDMDL
MODEL 4
REMARK VINA RESULT: -5.898807564      3.084      3.611
REMARK  1 active torsions:
REMARK  status: ('A' for Active; 'I' for Inactive)
REMARK       I    between atoms: C1_2  and  N1_3 
REMARK    1  A    between atoms: C1_2  and  C5_11 
ROOT
HETATM    1  O1  UNL     1      14.709  45.300  41.478  1.00  0.00    -0.267 OA
HETATM    2  C1  UNL     1      13.979  44.286  41.526  1.00  0.00     0.264 C 
HETATM    3  N1  UNL     1      13.868  43.360  40.468  1.00  0.00    -0.303 N 
ATOM      4  H1  UNL     1      12.927  43.123  40.154  1.00  0.00     0.171 HD
HETATM    5  C2  UNL     1      14.831  42.797  39.875  1.00  0.00     0.142 C 
HETATM    6  N2  UNL     1      16.214  42.936  40.102  1.00  0.00    -0.370 N 
ATOM      7  H2  UNL     1      16.601  43.251  40.991  1.00  0.00     0.161 HD
HETATM    8  C3  UNL     1      17.028  42.599  38.981  1.00  0.00     0.132 C 
HETATM    9  C4  UNL     1      16.489  41.304  38.358  1.00  0.00     0.102 C 
HETATM   10  S1  UNL     1      14.682  41.627  38.539  1.00  0.00    -0.092 SA
ENDROOT
BRANCH   2  11
HETATM   11  C5  UNL     1      13.206  44.085  42.778  1.00  0.00     0.075 A 
HETATM   12  C6  UNL     1      11.881  44.340  43.008  1.00  0.00     0.045 A 
HETATM   13  C7  UNL     1      11.409  44.071  44.239  1.00  0.00     0.036 A 
HETATM   14 BR1  UNL     1       9.557  44.371  44.739  1.00  0.00    -0.049 Br
HETATM   15  C8  UNL     1      12.289  43.566  45.152  1.00  0.00     0.069 A 
HETATM   16 BR2  UNL     1      11.940  43.077  46.987  1.00  0.00    -0.042 Br
HETATM   17  S2  UNL     1      13.749  43.479  44.279  1.00  0.00    -0.076 SA
ENDBRANCH   2  11
TORSDOF 1
ENDMDL
MODEL 5
REMARK VINA RESULT: -5.862615817      1.784      2.183
REMARK  1 active torsions:
REMARK  status: ('A' for Active; 'I' for Inactive)
REMARK       I    between atoms: C1_2  and  N1_3 
REMARK    1  A    between atoms: C1_2  and  C5_11 
ROOT
HETATM    1  O1  UNL     1      11.711  44.788  41.189  1.00  0.00    -0.267 OA
HETATM    2  C1  UNL     1      12.019  44.056  42.156  1.00  0.00     0.264 C 
HETATM    3  N1  UNL     1      12.629  42.793  42.008  1.00  0.00    -0.303 N 
ATOM      4  H1  UNL     1      12.197  42.009  42.496  1.00  0.00     0.171 HD
HETATM    5  C2  UNL     1      13.663  42.548  41.327  1.00  0.00     0.142 C 
HETATM    6  N2  UNL     1      14.452  43.431  40.563  1.00  0.00    -0.370 N 
ATOM      7  H2  UNL     1      14.483  44.435  40.735  1.00  0.00     0.161 HD
HETATM    8  C3  UNL     1      15.204  42.799  39.529  1.00  0.00     0.132 C 
HETATM    9  C4  UNL     1      15.832  41.519  40.095  1.00  0.00     0.102 C 
HETATM   10  S1  UNL     1      14.428  40.949  41.146  1.00  0.00    -0.092 SA
ENDROOT
BRANCH   2  11
HETATM   11  C5  UNL     1      11.710  44.582  43.510  1.00  0.00     0.075 A 
HETATM   12  C6  UNL     1      12.330  45.596  44.188  1.00  0.00     0.045 A 
HETATM   13  C7  UNL     1      11.861  45.890  45.415  1.00  0.00     0.036 A 
HETATM   14 BR1  UNL     1      12.621  47.297  46.517  1.00  0.00    -0.049 Br
HETATM   15  C8  UNL     1      10.808  45.155  45.877  1.00  0.00     0.069 A 
HETATM   16 BR2  UNL     1       9.906  45.319  47.577  1.00  0.00    -0.042 Br
HETATM   17  S2  UNL     1      10.497  44.074  44.598  1.00  0.00    -0.076 SA
ENDBRANCH   2  11
TORSDOF 1
ENDMDL
