MODEL 1
REMARK VINA RESULT: -7.642416069      0.000      0.000
REMARK  1 active torsions:
REMARK  status: ('A' for Active; 'I' for Inactive)
REMARK    1  A    between atoms: C5_6  and  C6_7 
ROOT
HETATM    1  N1  UNL     1      11.214  50.088  42.409  1.00  0.00    -0.197 NA
HETATM    2  C1  UNL     1      11.444  49.060  42.908  1.00  0.00     0.068 C 
HETATM    3  C2  UNL     1      11.719  47.772  43.551  1.00  0.00     0.119 C 
HETATM    4  C3  UNL     1      10.942  47.568  44.803  1.00  0.00    -0.005 C 
HETATM    5  C4  UNL     1      10.873  46.553  45.612  1.00  0.00     0.032 C 
HETATM    6  C5  UNL     1      11.424  45.226  45.751  1.00  0.00     0.083 C 
HETATM    7  O1  UNL     1      12.278  44.623  44.925  1.00  0.00    -0.264 OA
HETATM    8  C7  UNL     1      12.472  43.649  44.015  1.00  0.00     0.365 C 
HETATM    9  O2  UNL     1      12.902  42.455  44.284  1.00  0.00    -0.238 OA
HETATM   10  N2  UNL     1      12.253  43.717  42.595  1.00  0.00    -0.332 N 
ATOM     11  H2  UNL     1      11.826  42.899  42.160  1.00  0.00     0.165 HD
HETATM   12  C8  UNL     1      12.571  44.810  41.728  1.00  0.00     0.087 C 
HETATM   13  C9  UNL     1      11.416  45.292  40.876  1.00  0.00     0.026 C 
HETATM   14  C10 UNL     1      11.273  46.773  41.227  1.00  0.00     0.008 C 
HETATM   15  C11 UNL     1      11.572  46.614  42.714  1.00  0.00     0.009 C 
HETATM   16  C12 UNL     1      12.937  45.992  42.536  1.00  0.00     0.031 C 
ENDROOT
BRANCH   6  17
HETATM   17  C6  UNL     1      10.272  44.306  46.255  1.00  0.00     0.186 C 
HETATM   18 BR1  UNL     1       8.866  44.167  44.974  1.00  0.00    -0.072 Br
HETATM   19 BR2  UNL     1       9.612  44.921  47.948  1.00  0.00    -0.072 Br
ENDBRANCH   6  17
TORSDOF 1
ENDMDL
MODEL 2
REMARK VINA RESULT: -7.171910638      3.091      5.744
REMARK  1 active torsions:
REMARK  status: ('A' for Active; 'I' for Inactive)
REMARK    1  A    between atoms: C5_6  and  C6_7 
ROOT
HETATM    1  N1  UNL     1      12.187  41.424  47.983  1.00  0.00    -0.197 NA
HETATM    2  C1  UNL     1      12.214  42.401  47.348  1.00  0.00     0.068 C 
HETATM    3  C2  UNL     1      12.256  43.619  46.533  1.00  0.00     0.119 C 
HETATM    4  C3  UNL     1      12.840  43.397  45.183  1.00  0.00    -0.005 C 
HETATM    5  C4  UNL     1      12.996  44.204  44.176  1.00  0.00     0.032 C 
HETATM    6  C5  UNL     1      12.733  45.579  43.824  1.00  0.00     0.083 C 
HETATM    7  O1  UNL     1      12.155  46.504  44.589  1.00  0.00    -0.264 OA
HETATM    8  C7  UNL     1      11.073  47.277  44.802  1.00  0.00     0.365 C 
HETATM    9  O2  UNL     1      10.924  48.487  44.357  1.00  0.00    -0.238 OA
HETATM   10  N2  UNL     1       9.888  46.944  45.544  1.00  0.00    -0.332 N 
ATOM     11  H2  UNL     1       8.999  47.246  45.144  1.00  0.00     0.165 HD
HETATM   12  C8  UNL     1       9.822  46.234  46.785  1.00  0.00     0.087 C 
HETATM   13  C9  UNL     1       8.891  45.039  46.776  1.00  0.00     0.026 C 
HETATM   14  C10 UNL     1       9.779  43.859  47.169  1.00  0.00     0.008 C 
HETATM   15  C11 UNL     1      11.009  44.320  46.396  1.00  0.00     0.009 C 
HETATM   16  C12 UNL     1      11.145  45.653  47.093  1.00  0.00     0.031 C 
ENDROOT
BRANCH   6  17
HETATM   17  C6  UNL     1      12.249  45.585  42.344  1.00  0.00     0.186 C 
HETATM   18 BR1  UNL     1      12.812  44.021  41.409  1.00  0.00    -0.072 Br
HETATM   19 BR2  UNL     1      12.836  47.179  41.450  1.00  0.00    -0.072 Br
ENDBRANCH   6  17
TORSDOF 1
ENDMDL
MODEL 3
REMARK VINA RESULT: -7.148993780      2.534      4.009
REMARK  1 active torsions:
REMARK  status: ('A' for Active; 'I' for Inactive)
REMARK    1  A    between atoms: C5_6  and  C6_7 
ROOT
HETATM    1  N1  UNL     1      10.758  49.156  42.215  1.00  0.00    -0.197 NA
HETATM    2  C1  UNL     1      10.790  48.113  42.733  1.00  0.00     0.068 C 
HETATM    3  C2  UNL     1      10.843  46.793  43.367  1.00  0.00     0.119 C 
HETATM    4  C3  UNL     1      11.509  45.766  42.522  1.00  0.00    -0.005 C 
HETATM    5  C4  UNL     1      11.789  44.518  42.753  1.00  0.00     0.032 C 
HETATM    6  C5  UNL     1      11.644  43.540  43.806  1.00  0.00     0.083 C 
HETATM    7  O1  UNL     1      11.098  43.732  45.006  1.00  0.00    -0.264 OA
HETATM    8  C7  UNL     1      11.297  43.831  46.334  1.00  0.00     0.365 C 
HETATM    9  O2  UNL     1      11.213  42.845  47.175  1.00  0.00    -0.238 OA
HETATM   10  N2  UNL     1      11.634  45.009  47.087  1.00  0.00    -0.332 N 
ATOM     11  H2  UNL     1      12.327  44.894  47.827  1.00  0.00     0.165 HD
HETATM   12  C8  UNL     1      11.100  46.325  46.909  1.00  0.00     0.087 C 
HETATM   13  C9  UNL     1      12.144  47.407  46.732  1.00  0.00     0.026 C 
HETATM   14  C10 UNL     1      11.806  48.052  45.388  1.00  0.00     0.008 C 
HETATM   15  C11 UNL     1      11.413  46.757  44.686  1.00  0.00     0.009 C 
HETATM   16  C12 UNL     1      10.319  46.375  45.656  1.00  0.00     0.031 C 
ENDROOT
BRANCH   6  17
HETATM   17  C6  UNL     1      12.956  42.701  43.832  1.00  0.00     0.186 C 
HETATM   18 BR1  UNL     1      14.379  43.642  44.685  1.00  0.00    -0.072 Br
HETATM   19 BR2  UNL     1      13.444  42.161  42.057  1.00  0.00    -0.072 Br
ENDBRANCH   6  17
TORSDOF 1
ENDMDL
MODEL 4
REMARK VINA RESULT: -7.040466900      0.773      1.178
REMARK  1 active torsions:
REMARK  status: ('A' for Active; 'I' for Inactive)
REMARK    1  A    between atoms: C5_6  and  C6_7 
ROOT
HETATM    1  N1  UNL     1      10.797  50.102  42.172  1.00  0.00    -0.197 NA
HETATM    2  C1  UNL     1      11.163  49.163  42.758  1.00  0.00     0.068 C 
HETATM    3  C2  UNL     1      11.609  47.987  43.510  1.00  0.00     0.119 C 
HETATM    4  C3  UNL     1      10.937  47.849  44.830  1.00  0.00    -0.005 C 
HETATM    5  C4  UNL     1      11.025  46.928  45.743  1.00  0.00     0.032 C 
HETATM    6  C5  UNL     1      11.718  45.684  45.979  1.00  0.00     0.083 C 
HETATM    7  O1  UNL     1      12.576  45.079  45.160  1.00  0.00    -0.264 OA
HETATM    8  C7  UNL     1      12.813  44.033  44.345  1.00  0.00     0.365 C 
HETATM    9  O2  UNL     1      13.380  42.922  44.705  1.00  0.00    -0.238 OA
HETATM   10  N2  UNL     1      12.500  43.921  42.946  1.00  0.00    -0.332 N 
ATOM     11  H2  UNL     1      12.133  43.022  42.631  1.00  0.00     0.165 HD
HETATM   12  C8  UNL     1      12.648  44.936  41.948  1.00  0.00     0.087 C 
HETATM   13  C9  UNL     1      11.398  45.207  41.138  1.00  0.00     0.026 C 
HETATM   14  C10 UNL     1      11.124  46.697  41.342  1.00  0.00     0.008 C 
HETATM   15  C11 UNL     1      11.531  46.734  42.811  1.00  0.00     0.009 C 
HETATM   16  C12 UNL     1      12.939  46.230  42.599  1.00  0.00     0.031 C 
ENDROOT
BRANCH   6  17
HETATM   17  C6  UNL     1      10.702  44.720  46.660  1.00  0.00     0.186 C 
HETATM   18 BR1  UNL     1      11.575  43.233  47.474  1.00  0.00    -0.072 Br
HETATM   19 BR2  UNL     1       9.374  44.143  45.400  1.00  0.00    -0.072 Br
ENDBRANCH   6  17
TORSDOF 1
ENDMDL
MODEL 5
REMARK VINA RESULT: -7.035571009      1.210      1.354
REMARK  1 active torsions:
REMARK  status: ('A' for Active; 'I' for Inactive)
REMARK    1  A    between atoms: C5_6  and  C6_7 
ROOT
HETATM    1  N1  UNL     1      10.736  50.261  44.049  1.00  0.00    -0.197 NA
HETATM    2  C1  UNL     1      11.155  49.195  44.266  1.00  0.00     0.068 C 
HETATM    3  C2  UNL     1      11.668  47.853  44.555  1.00  0.00     0.119 C 
HETATM    4  C3  UNL     1      11.110  47.272  45.806  1.00  0.00    -0.005 C 
HETATM    5  C4  UNL     1      11.279  46.108  46.358  1.00  0.00     0.032 C 
HETATM    6  C5  UNL     1      11.995  44.877  46.120  1.00  0.00     0.083 C 
HETATM    7  O1  UNL     1      12.785  44.599  45.084  1.00  0.00    -0.264 OA
HETATM    8  C7  UNL     1      12.957  43.883  43.956  1.00  0.00     0.365 C 
HETATM    9  O2  UNL     1      13.558  42.735  43.888  1.00  0.00    -0.238 OA
HETATM   10  N2  UNL     1      12.528  44.222  42.626  1.00  0.00    -0.332 N 
ATOM     11  H2  UNL     1      12.140  43.463  42.065  1.00  0.00     0.165 HD
HETATM   12  C8  UNL     1      12.587  45.511  42.006  1.00  0.00     0.087 C 
HETATM   13  C9  UNL     1      11.271  45.991  41.429  1.00  0.00     0.026 C 
HETATM   14  C10 UNL     1      11.009  47.323  42.129  1.00  0.00     0.008 C 
HETATM   15  C11 UNL     1      11.537  46.893  43.494  1.00  0.00     0.009 C 
HETATM   16  C12 UNL     1      12.925  46.531  43.019  1.00  0.00     0.031 C 
ENDROOT
BRANCH   6  17
HETATM   17  C6  UNL     1      11.045  43.712  46.525  1.00  0.00     0.186 C 
HETATM   18 BR1  UNL     1       9.471  44.352  47.392  1.00  0.00    -0.072 Br
HETATM   19 BR2  UNL     1      11.972  42.437  47.620  1.00  0.00    -0.072 Br
ENDBRANCH   6  17
TORSDOF 1
ENDMDL
