MODEL 1
REMARK VINA RESULT: -7.734033687      0.000      0.000
REMARK  9 active torsions:
REMARK  status: ('A' for Active; 'I' for Inactive)
REMARK    1  A    between atoms: C2_2  and  C3_3 
REMARK    2  A    between atoms: C3_3  and  C4_4 
REMARK    3  A    between atoms: C4_4  and  N1_5 
REMARK    4  A    between atoms: C6_10  and  N3_11 
REMARK    5  A    between atoms: C8_17  and  C9_18 
REMARK    6  A    between atoms: C9_18  and  N5_19 
REMARK    7  A    between atoms: N5_19  and  C10_22 
REMARK    8  A    between atoms: C10_22  and  C11_23 
REMARK    9  A    between atoms: C11_23  and  N6_24 
ROOT
HETATM    1  N1  UNL     1       5.879  17.314 -31.434  1.00  0.00    -0.375 N 
ATOM      2  H1  UNL     1       5.217  17.764 -32.065  1.00  0.00     0.161 HD
HETATM    3  C5  UNL     1       5.782  17.805 -30.294  1.00  0.00     0.126 A 
HETATM    4  N2  UNL     1       4.854  18.806 -30.115  1.00  0.00    -0.177 N 
ATOM      5  H2  UNL     1       4.283  19.099 -30.907  1.00  0.00     0.186 HD
HETATM    6  C6  UNL     1       4.679  19.405 -28.930  1.00  0.00     0.677 A 
HETATM    7  N4  UNL     1       5.394  19.069 -27.844  1.00  0.00    -0.201 N 
ATOM      8  H4  UNL     1       5.244  19.538 -26.950  1.00  0.00     0.183 HD
HETATM    9  C7  UNL     1       6.313  18.098 -27.968  1.00  0.00     0.118 A 
HETATM   10  C8  UNL     1       6.511  17.467 -29.178  1.00  0.00     0.028 A 
ENDROOT
BRANCH  10  11
HETATM   11  C9  UNL     1       7.513  16.381 -29.249  1.00  0.00     0.276 C 
BRANCH  11  12
HETATM   12  N5  UNL     1       8.562  16.631 -28.270  1.00  0.00    -0.070 N 
ATOM     13  H52 UNL     1       8.948  17.571 -28.369  1.00  0.00     0.277 HD
ATOM     14  H51 UNL     1       8.180  16.715 -27.328  1.00  0.00     0.277 HD
BRANCH  12  15
HETATM   15  C10 UNL     1       9.601  15.622 -28.333  1.00  0.00     0.252 C 
BRANCH  15  16
HETATM   16  C11 UNL     1      10.675  16.013 -29.286  1.00  0.00     0.153 C 
BRANCH  16  17
HETATM   17  N6  UNL     1      10.952  14.964 -30.260  1.00  0.00    -0.351 N 
HETATM   18  C12 UNL     1      10.039  14.528 -31.322  1.00  0.00     0.126 C 
HETATM   19  C13 UNL     1      11.040  14.035 -32.354  1.00  0.00     0.029 C 
HETATM   20  C14 UNL     1      12.010  13.275 -31.470  1.00  0.00     0.104 C 
HETATM   21  C15 UNL     1      12.150  14.207 -30.326  1.00  0.00     0.219 C 
HETATM   22  O1  UNL     1      13.153  14.285 -29.580  1.00  0.00    -0.273 OA
ENDBRANCH  16  17
ENDBRANCH  15  16
ENDBRANCH  12  15
ENDBRANCH  11  12
ENDBRANCH  10  11
BRANCH   1  23
HETATM   23  C4  UNL     1       6.601  16.350 -32.119  1.00  0.00     0.121 C 
BRANCH  23  24
HETATM   24  C3  UNL     1       6.980  16.810 -33.546  1.00  0.00     0.019 C 
BRANCH  24  25
HETATM   25  C2  UNL     1       7.944  15.750 -34.069  1.00  0.00    -0.003 C 
HETATM   26  C1  UNL     1       7.293  14.383 -34.051  1.00  0.00     0.005 C 
ENDBRANCH  24  25
ENDBRANCH  23  24
ENDBRANCH   1  23
BRANCH   6  27
HETATM   27  N3  UNL     1       3.781  20.345 -28.833  1.00  0.00    -0.234 N 
ATOM     28  H32 UNL     1       3.816  21.134 -29.479  1.00  0.00     0.174 HD
ATOM     29  H31 UNL     1       3.066  20.264 -28.111  1.00  0.00     0.174 HD
ENDBRANCH   6  27
TORSDOF 9
ENDMDL
MODEL 2
REMARK VINA RESULT: -7.591246260      1.077      1.222
REMARK  9 active torsions:
REMARK  status: ('A' for Active; 'I' for Inactive)
REMARK    1  A    between atoms: C2_2  and  C3_3 
REMARK    2  A    between atoms: C3_3  and  C4_4 
REMARK    3  A    between atoms: C4_4  and  N1_5 
REMARK    4  A    between atoms: C6_10  and  N3_11 
REMARK    5  A    between atoms: C8_17  and  C9_18 
REMARK    6  A    between atoms: C9_18  and  N5_19 
REMARK    7  A    between atoms: N5_19  and  C10_22 
REMARK    8  A    between atoms: C10_22  and  C11_23 
REMARK    9  A    between atoms: C11_23  and  N6_24 
ROOT
HETATM    1  N1  UNL     1       5.738  17.645 -31.175  1.00  0.00    -0.375 N 
ATOM      2  H1  UNL     1       5.166  18.118 -31.874  1.00  0.00     0.161 HD
HETATM    3  C5  UNL     1       5.520  18.128 -30.049  1.00  0.00     0.126 A 
HETATM    4  N2  UNL     1       4.601  19.151 -29.968  1.00  0.00    -0.177 N 
ATOM      5  H2  UNL     1       4.135  19.466 -30.818  1.00  0.00     0.186 HD
HETATM    6  C6  UNL     1       4.304  19.744 -28.804  1.00  0.00     0.677 A 
HETATM    7  N4  UNL     1       4.878  19.380 -27.646  1.00  0.00    -0.201 N 
ATOM      8  H4  UNL     1       4.635  19.845 -26.771  1.00  0.00     0.183 HD
HETATM    9  C7  UNL     1       5.780  18.386 -27.673  1.00  0.00     0.118 A 
HETATM   10  C8  UNL     1       6.103  17.761 -28.858  1.00  0.00     0.028 A 
ENDROOT
BRANCH  10  11
HETATM   11  C9  UNL     1       7.079  16.650 -28.824  1.00  0.00     0.276 C 
BRANCH  11  12
HETATM   12  N5  UNL     1       8.111  16.948 -27.840  1.00  0.00    -0.070 N 
ATOM     13  H52 UNL     1       8.060  17.918 -27.528  1.00  0.00     0.277 HD
ATOM     14  H51 UNL     1       7.921  16.487 -26.950  1.00  0.00     0.277 HD
BRANCH  12  15
HETATM   15  C10 UNL     1       9.432  16.618 -28.336  1.00  0.00     0.252 C 
BRANCH  15  16
HETATM   16  C11 UNL     1       9.353  15.861 -29.615  1.00  0.00     0.153 C 
BRANCH  16  17
HETATM   17  N6  UNL     1      10.185  14.664 -29.596  1.00  0.00    -0.351 N 
HETATM   18  C12 UNL     1       9.907  13.447 -28.826  1.00  0.00     0.126 C 
HETATM   19  C13 UNL     1      10.599  12.411 -29.695  1.00  0.00     0.029 C 
HETATM   20  C14 UNL     1      11.891  13.133 -30.026  1.00  0.00     0.104 C 
HETATM   21  C15 UNL     1      11.392  14.497 -30.323  1.00  0.00     0.219 C 
HETATM   22  O1  UNL     1      11.956  15.320 -31.080  1.00  0.00    -0.273 OA
ENDBRANCH  16  17
ENDBRANCH  15  16
ENDBRANCH  12  15
ENDBRANCH  11  12
ENDBRANCH  10  11
BRANCH   1  23
HETATM   23  C4  UNL     1       6.511  16.668 -31.781  1.00  0.00     0.121 C 
BRANCH  23  24
HETATM   24  C3  UNL     1       6.692  16.926 -33.296  1.00  0.00     0.019 C 
BRANCH  24  25
HETATM   25  C2  UNL     1       7.835  16.013 -33.727  1.00  0.00    -0.003 C 
HETATM   26  C1  UNL     1       7.307  14.648 -34.117  1.00  0.00     0.005 C 
ENDBRANCH  24  25
ENDBRANCH  23  24
ENDBRANCH   1  23
BRANCH   6  27
HETATM   27  N3  UNL     1       3.424  20.706 -28.803  1.00  0.00    -0.234 N 
ATOM     28  H32 UNL     1       3.526  21.474 -29.467  1.00  0.00     0.174 HD
ATOM     29  H31 UNL     1       2.656  20.664 -28.134  1.00  0.00     0.174 HD
ENDBRANCH   6  27
TORSDOF 9
ENDMDL
MODEL 3
REMARK VINA RESULT: -7.584093180      1.068      1.185
REMARK  9 active torsions:
REMARK  status: ('A' for Active; 'I' for Inactive)
REMARK    1  A    between atoms: C2_2  and  C3_3 
REMARK    2  A    between atoms: C3_3  and  C4_4 
REMARK    3  A    between atoms: C4_4  and  N1_5 
REMARK    4  A    between atoms: C6_10  and  N3_11 
REMARK    5  A    between atoms: C8_17  and  C9_18 
REMARK    6  A    between atoms: C9_18  and  N5_19 
REMARK    7  A    between atoms: N5_19  and  C10_22 
REMARK    8  A    between atoms: C10_22  and  C11_23 
REMARK    9  A    between atoms: C11_23  and  N6_24 
ROOT
HETATM    1  N1  UNL     1       6.004  17.092 -32.079  1.00  0.00    -0.375 N 
ATOM      2  H1  UNL     1       5.398  17.740 -32.582  1.00  0.00     0.161 HD
HETATM    3  C5  UNL     1       5.972  17.341 -30.860  1.00  0.00     0.126 A 
HETATM    4  N2  UNL     1       5.172  18.383 -30.448  1.00  0.00    -0.177 N 
ATOM      5  H2  UNL     1       4.637  18.901 -31.144  1.00  0.00     0.186 HD
HETATM    6  C6  UNL     1       5.077  18.736 -29.159  1.00  0.00     0.677 A 
HETATM    7  N4  UNL     1       5.751  18.097 -28.189  1.00  0.00    -0.201 N 
ATOM      8  H4  UNL     1       5.662  18.382 -27.213  1.00  0.00     0.183 HD
HETATM    9  C7  UNL     1       6.544  17.072 -28.540  1.00  0.00     0.118 A 
HETATM   10  C8  UNL     1       6.659  16.692 -29.860  1.00  0.00     0.028 A 
ENDROOT
BRANCH  10  11
HETATM   11  C9  UNL     1       7.522  15.535 -30.186  1.00  0.00     0.276 C 
BRANCH  11  12
HETATM   12  N5  UNL     1       8.042  14.962 -28.952  1.00  0.00    -0.070 N 
ATOM     13  H52 UNL     1       7.967  15.619 -28.174  1.00  0.00     0.277 HD
ATOM     14  H51 UNL     1       7.431  14.227 -28.596  1.00  0.00     0.277 HD
BRANCH  12  15
HETATM   15  C10 UNL     1       9.401  14.487 -29.116  1.00  0.00     0.252 C 
BRANCH  15  16
HETATM   16  C11 UNL     1      10.104  15.229 -30.198  1.00  0.00     0.153 C 
BRANCH  16  17
HETATM   17  N6  UNL     1      11.307  14.538 -30.646  1.00  0.00    -0.351 N 
HETATM   18  C12 UNL     1      11.355  13.500 -31.682  1.00  0.00     0.126 C 
HETATM   19  C13 UNL     1      12.772  13.695 -32.195  1.00  0.00     0.029 C 
HETATM   20  C14 UNL     1      13.526  13.867 -30.891  1.00  0.00     0.104 C 
HETATM   21  C15 UNL     1      12.614  14.766 -30.146  1.00  0.00     0.219 C 
HETATM   22  O1  UNL     1      12.967  15.566 -29.249  1.00  0.00    -0.273 OA
ENDBRANCH  16  17
ENDBRANCH  15  16
ENDBRANCH  12  15
ENDBRANCH  11  12
ENDBRANCH  10  11
BRANCH   1  23
HETATM   23  C4  UNL     1       6.600  16.216 -32.970  1.00  0.00     0.121 C 
BRANCH  23  24
HETATM   24  C3  UNL     1       7.760  16.879 -33.751  1.00  0.00     0.019 C 
BRANCH  24  25
HETATM   25  C2  UNL     1       8.903  15.870 -33.709  1.00  0.00    -0.003 C 
HETATM   26  C1  UNL     1       8.364  14.456 -33.676  1.00  0.00     0.005 C 
ENDBRANCH  24  25
ENDBRANCH  23  24
ENDBRANCH   1  23
BRANCH   6  27
HETATM   27  N3  UNL     1       4.299  19.733 -28.842  1.00  0.00    -0.234 N 
ATOM     28  H32 UNL     1       3.716  19.664 -28.008  1.00  0.00     0.174 HD
ATOM     29  H31 UNL     1       4.296  20.558 -29.442  1.00  0.00     0.174 HD
ENDBRANCH   6  27
TORSDOF 9
ENDMDL
MODEL 4
REMARK VINA RESULT: -7.507932015      2.564      6.509
REMARK  9 active torsions:
REMARK  status: ('A' for Active; 'I' for Inactive)
REMARK    1  A    between atoms: C2_2  and  C3_3 
REMARK    2  A    between atoms: C3_3  and  C4_4 
REMARK    3  A    between atoms: C4_4  and  N1_5 
REMARK    4  A    between atoms: C6_10  and  N3_11 
REMARK    5  A    between atoms: C8_17  and  C9_18 
REMARK    6  A    between atoms: C9_18  and  N5_19 
REMARK    7  A    between atoms: N5_19  and  C10_22 
REMARK    8  A    between atoms: C10_22  and  C11_23 
REMARK    9  A    between atoms: C11_23  and  N6_24 
ROOT
HETATM    1  N1  UNL     1      10.432  14.365 -33.628  1.00  0.00    -0.375 N 
ATOM      2  H1  UNL     1      10.764  13.953 -34.499  1.00  0.00     0.161 HD
HETATM    3  C5  UNL     1      11.158  14.001 -32.683  1.00  0.00     0.126 A 
HETATM    4  N2  UNL     1      12.207  13.160 -32.980  1.00  0.00    -0.177 N 
ATOM      5  H2  UNL     1      12.354  12.875 -33.948  1.00  0.00     0.186 HD
HETATM    6  C6  UNL     1      13.039  12.705 -32.033  1.00  0.00     0.677 A 
HETATM    7  N4  UNL     1      12.905  13.041 -30.740  1.00  0.00    -0.201 N 
ATOM      8  H4  UNL     1      13.551  12.683 -30.036  1.00  0.00     0.183 HD
HETATM    9  C7  UNL     1      11.897  13.860 -30.400  1.00  0.00     0.118 A 
HETATM   10  C8  UNL     1      11.027  14.340 -31.356  1.00  0.00     0.028 A 
ENDROOT
BRANCH  10  11
HETATM   11  C9  UNL     1       9.955  15.265 -30.930  1.00  0.00     0.276 C 
BRANCH  11  12
HETATM   12  N5  UNL     1       8.893  14.504 -30.286  1.00  0.00    -0.070 N 
ATOM     13  H52 UNL     1       8.652  13.671 -30.823  1.00  0.00     0.277 HD
ATOM     14  H51 UNL     1       9.223  14.052 -29.433  1.00  0.00     0.277 HD
BRANCH  12  15
HETATM   15  C10 UNL     1       7.727  15.327 -30.032  1.00  0.00     0.252 C 
BRANCH  15  16
HETATM   16  C11 UNL     1       7.464  15.454 -28.573  1.00  0.00     0.153 C 
BRANCH  16  17
HETATM   17  N6  UNL     1       8.142  16.605 -27.991  1.00  0.00    -0.351 N 
HETATM   18  C12 UNL     1       7.556  17.939 -27.816  1.00  0.00     0.126 C 
HETATM   19  C13 UNL     1       8.348  18.428 -26.615  1.00  0.00     0.029 C 
HETATM   20  C14 UNL     1       9.745  17.971 -26.990  1.00  0.00     0.104 C 
HETATM   21  C15 UNL     1       9.475  16.608 -27.506  1.00  0.00     0.219 C 
HETATM   22  O1  UNL     1      10.295  15.661 -27.497  1.00  0.00    -0.273 OA
ENDBRANCH  16  17
ENDBRANCH  15  16
ENDBRANCH  12  15
ENDBRANCH  11  12
ENDBRANCH  10  11
BRANCH   1  23
HETATM   23  C4  UNL     1       9.318  15.150 -33.871  1.00  0.00     0.121 C 
BRANCH  23  24
HETATM   24  C3  UNL     1       8.014  14.320 -33.900  1.00  0.00     0.019 C 
BRANCH  24  25
HETATM   25  C2  UNL     1       6.895  15.315 -33.615  1.00  0.00    -0.003 C 
HETATM   26  C1  UNL     1       7.404  16.736 -33.730  1.00  0.00     0.005 C 
ENDBRANCH  24  25
ENDBRANCH  23  24
ENDBRANCH   1  23
BRANCH   6  27
HETATM   27  N3  UNL     1      14.010  11.912 -32.388  1.00  0.00    -0.234 N 
ATOM     28  H32 UNL     1      14.152  11.710 -33.377  1.00  0.00     0.174 HD
ATOM     29  H31 UNL     1      14.603  11.514 -31.660  1.00  0.00     0.174 HD
ENDBRANCH   6  27
TORSDOF 9
ENDMDL
MODEL 5
REMARK VINA RESULT: -7.433681500      2.480      6.753
REMARK  9 active torsions:
REMARK  status: ('A' for Active; 'I' for Inactive)
REMARK    1  A    between atoms: C2_2  and  C3_3 
REMARK    2  A    between atoms: C3_3  and  C4_4 
REMARK    3  A    between atoms: C4_4  and  N1_5 
REMARK    4  A    between atoms: C6_10  and  N3_11 
REMARK    5  A    between atoms: C8_17  and  C9_18 
REMARK    6  A    between atoms: C9_18  and  N5_19 
REMARK    7  A    between atoms: N5_19  and  C10_22 
REMARK    8  A    between atoms: C10_22  and  C11_23 
REMARK    9  A    between atoms: C11_23  and  N6_24 
ROOT
HETATM    1  N1  UNL     1      10.413  14.405 -33.589  1.00  0.00    -0.375 N 
ATOM      2  H1  UNL     1      10.761  14.066 -34.485  1.00  0.00     0.161 HD
HETATM    3  C5  UNL     1      11.140  13.990 -32.667  1.00  0.00     0.126 A 
HETATM    4  N2  UNL     1      12.212  13.197 -33.015  1.00  0.00    -0.177 N 
ATOM      5  H2  UNL     1      12.373  12.988 -34.000  1.00  0.00     0.186 HD
HETATM    6  C6  UNL     1      13.047  12.694 -32.098  1.00  0.00     0.677 A 
HETATM    7  N4  UNL     1      12.896  12.930 -30.784  1.00  0.00    -0.201 N 
ATOM      8  H4  UNL     1      13.546  12.537 -30.102  1.00  0.00     0.183 HD
HETATM    9  C7  UNL     1      11.867  13.698 -30.394  1.00  0.00     0.118 A 
HETATM   10  C8  UNL     1      10.993  14.227 -31.320  1.00  0.00     0.028 A 
ENDROOT
BRANCH  10  11
HETATM   11  C9  UNL     1       9.895  15.093 -30.837  1.00  0.00     0.276 C 
BRANCH  11  12
HETATM   12  N5  UNL     1       8.878  14.267 -30.200  1.00  0.00    -0.070 N 
ATOM     13  H52 UNL     1       8.050  14.174 -30.790  1.00  0.00     0.277 HD
ATOM     14  H51 UNL     1       9.160  13.287 -30.168  1.00  0.00     0.277 HD
BRANCH  12  15
HETATM   15  C10 UNL     1       8.537  14.765 -28.882  1.00  0.00     0.252 C 
BRANCH  15  16
HETATM   16  C11 UNL     1       8.798  16.226 -28.773  1.00  0.00     0.153 C 
BRANCH  16  17
HETATM   17  N6  UNL     1       7.565  17.002 -28.750  1.00  0.00    -0.351 N 
HETATM   18  C12 UNL     1       6.511  16.957 -29.769  1.00  0.00     0.126 C 
HETATM   19  C13 UNL     1       5.302  17.327 -28.927  1.00  0.00     0.029 C 
HETATM   20  C14 UNL     1       5.868  18.464 -28.100  1.00  0.00     0.104 C 
HETATM   21  C15 UNL     1       7.197  17.921 -27.733  1.00  0.00     0.219 C 
HETATM   22  O1  UNL     1       7.846  18.237 -26.708  1.00  0.00    -0.273 OA
ENDBRANCH  16  17
ENDBRANCH  15  16
ENDBRANCH  12  15
ENDBRANCH  11  12
ENDBRANCH  10  11
BRANCH   1  23
HETATM   23  C4  UNL     1       9.283  15.180 -33.784  1.00  0.00     0.121 C 
BRANCH  23  24
HETATM   24  C3  UNL     1       7.993  14.327 -33.837  1.00  0.00     0.019 C 
BRANCH  24  25
HETATM   25  C2  UNL     1       6.921  15.173 -33.159  1.00  0.00    -0.003 C 
HETATM   26  C1  UNL     1       7.064  16.628 -33.553  1.00  0.00     0.005 C 
ENDBRANCH  24  25
ENDBRANCH  23  24
ENDBRANCH   1  23
BRANCH   6  27
HETATM   27  N3  UNL     1      14.041  11.952 -32.500  1.00  0.00    -0.234 N 
ATOM     28  H32 UNL     1      14.952  12.382 -32.654  1.00  0.00     0.174 HD
ATOM     29  H31 UNL     1      13.875  10.958 -32.652  1.00  0.00     0.174 HD
ENDBRANCH   6  27
TORSDOF 9
ENDMDL
