MODEL 1
REMARK VINA RESULT: -7.075136433      0.000      0.000
REMARK  12 active torsions:
REMARK  status: ('A' for Active; 'I' for Inactive)
REMARK    1  A    between atoms: C2_2  and  C3_3 
REMARK    2  A    between atoms: C3_3  and  C4_4 
REMARK    3  A    between atoms: C5_5  and  C6_6 
REMARK    4  A    between atoms: C6_6  and  C7_7 
REMARK    5  A    between atoms: C7_7  and  C8_8 
REMARK    6  A    between atoms: C8_8  and  C9_9 
REMARK    7  A    between atoms: C9_9  and  C10_10 
REMARK    8  A    between atoms: C10_10  and  N1_11 
REMARK    9  A    between atoms: N1_11  and  N2_12 
REMARK   10  A    between atoms: C13_19  and  O1_20 
REMARK   11  A    between atoms: C14_22  and  O2_23 
REMARK   12  A    between atoms: C15_25  and  O3_26 
ROOT
HETATM    1  C3  UNL     1       9.798  14.990 -29.652  1.00  0.00     0.010 C 
HETATM    2  C11 UNL     1      10.553  15.641 -30.827  1.00  0.00     0.060 C 
HETATM    3  C12 UNL     1      10.493  14.892 -32.071  1.00  0.00     0.059 C 
HETATM    4  N3  UNL     1      10.981  13.734 -32.311  1.00  0.00    -0.375 N 
ATOM      5  H3  UNL     1      10.826  13.386 -33.257  1.00  0.00     0.161 HD
HETATM    6  C13 UNL     1      11.702  12.866 -31.460  1.00  0.00     0.248 C 
HETATM    7  C14 UNL     1      11.636  13.232 -29.992  1.00  0.00     0.196 C 
HETATM    8  C15 UNL     1      10.292  13.532 -29.475  1.00  0.00     0.163 C 
ENDROOT
BRANCH   1   9
HETATM    9  C2  UNL     1      10.156  15.694 -28.423  1.00  0.00     0.012 C 
HETATM   10  C1  UNL     1      10.812  16.980 -28.353  1.00  0.00     0.006 C 
ENDBRANCH   1   9
BRANCH   1  11
HETATM   11  C4  UNL     1       8.395  14.847 -30.054  1.00  0.00    -0.018 C 
HETATM   12  C5  UNL     1       7.259  15.693 -29.945  1.00  0.00    -0.030 C 
BRANCH  12  13
HETATM   13  C6  UNL     1       6.619  16.175 -28.707  1.00  0.00     0.027 C 
BRANCH  13  14
HETATM   14  C7  UNL     1       5.476  17.180 -29.091  1.00  0.00     0.004 C 
BRANCH  14  15
HETATM   15  C8  UNL     1       6.079  18.493 -29.468  1.00  0.00     0.006 C 
BRANCH  15  16
HETATM   16  C9  UNL     1       5.046  19.459 -29.927  1.00  0.00     0.061 C 
BRANCH  16  17
HETATM   17  C10 UNL     1       4.545  20.276 -28.751  1.00  0.00     0.181 C 
BRANCH  17  18
HETATM   18  N1  UNL     1       3.436  20.806 -28.850  1.00  0.00    -0.350 NA
BRANCH  18  19
HETATM   19  N2  UNL     1       2.351  21.397 -28.798  1.00  0.00    -0.281 N 
ATOM     20  H22 UNL     1       2.688  21.913 -29.611  1.00  0.00     0.191 HD
ATOM     21  H21 UNL     1       1.429  21.807 -28.648  1.00  0.00     0.191 HD
ENDBRANCH  18  19
ENDBRANCH  17  18
ENDBRANCH  16  17
ENDBRANCH  15  16
ENDBRANCH  14  15
ENDBRANCH  13  14
ENDBRANCH  12  13
ENDBRANCH   1  11
BRANCH   8  22
HETATM   22  O3  UNL     1       9.358  12.604 -29.882  1.00  0.00    -0.392 OA
ATOM     23  H3  UNL     1       8.476  12.831 -29.613  1.00  0.00     0.210 HD
ENDBRANCH   8  22
BRANCH   7  24
HETATM   24  O2  UNL     1      12.651  14.081 -29.602  1.00  0.00    -0.389 OA
ATOM     25  H2  UNL     1      12.394  14.668 -28.901  1.00  0.00     0.210 HD
ENDBRANCH   7  24
BRANCH   6  26
HETATM   26  O1  UNL     1      13.037  12.754 -31.844  1.00  0.00    -0.374 OA
ATOM     27  H1  UNL     1      13.318  11.848 -31.889  1.00  0.00     0.212 HD
ENDBRANCH   6  26
TORSDOF 12
ENDMDL
MODEL 2
REMARK VINA RESULT: -6.830500617      1.423      2.549
REMARK  12 active torsions:
REMARK  status: ('A' for Active; 'I' for Inactive)
REMARK    1  A    between atoms: C2_2  and  C3_3 
REMARK    2  A    between atoms: C3_3  and  C4_4 
REMARK    3  A    between atoms: C5_5  and  C6_6 
REMARK    4  A    between atoms: C6_6  and  C7_7 
REMARK    5  A    between atoms: C7_7  and  C8_8 
REMARK    6  A    between atoms: C8_8  and  C9_9 
REMARK    7  A    between atoms: C9_9  and  C10_10 
REMARK    8  A    between atoms: C10_10  and  N1_11 
REMARK    9  A    between atoms: N1_11  and  N2_12 
REMARK   10  A    between atoms: C13_19  and  O1_20 
REMARK   11  A    between atoms: C14_22  and  O2_23 
REMARK   12  A    between atoms: C15_25  and  O3_26 
ROOT
HETATM    1  C3  UNL     1       9.507  15.177 -29.824  1.00  0.00     0.010 C 
HETATM    2  C11 UNL     1       9.259  13.663 -29.683  1.00  0.00     0.060 C 
HETATM    3  C12 UNL     1      10.422  12.898 -29.264  1.00  0.00     0.059 C 
HETATM    4  N3  UNL     1      11.516  12.728 -29.903  1.00  0.00    -0.375 N 
ATOM      5  H3  UNL     1      12.211  12.151 -29.429  1.00  0.00     0.161 HD
HETATM    6  C13 UNL     1      11.908  13.219 -31.169  1.00  0.00     0.248 C 
HETATM    7  C14 UNL     1      11.028  14.328 -31.708  1.00  0.00     0.196 C 
HETATM    8  C15 UNL     1      10.721  15.410 -30.759  1.00  0.00     0.163 C 
ENDROOT
BRANCH   1   9
HETATM    9  C2  UNL     1       8.355  15.776 -30.494  1.00  0.00     0.012 C 
HETATM   10  C1  UNL     1       6.969  15.494 -30.195  1.00  0.00     0.006 C 
ENDBRANCH   1   9
BRANCH   1  11
HETATM   11  C4  UNL     1       9.959  15.674 -28.520  1.00  0.00    -0.018 C 
HETATM   12  C5  UNL     1       9.365  16.507 -27.536  1.00  0.00    -0.030 C 
BRANCH  12  13
HETATM   13  C6  UNL     1       8.967  17.919 -27.682  1.00  0.00     0.027 C 
BRANCH  13  14
HETATM   14  C7  UNL     1       7.428  18.039 -27.393  1.00  0.00     0.004 C 
BRANCH  14  15
HETATM   15  C8  UNL     1       6.766  18.746 -28.530  1.00  0.00     0.006 C 
BRANCH  15  16
HETATM   16  C9  UNL     1       5.307  18.915 -28.296  1.00  0.00     0.061 C 
BRANCH  16  17
HETATM   17  C10 UNL     1       4.732  19.888 -29.308  1.00  0.00     0.181 C 
BRANCH  17  18
HETATM   18  N1  UNL     1       3.775  20.582 -28.958  1.00  0.00    -0.350 NA
BRANCH  18  19
HETATM   19  N2  UNL     1       2.770  21.150 -28.517  1.00  0.00    -0.281 N 
ATOM     20  H22 UNL     1       3.398  21.930 -28.322  1.00  0.00     0.191 HD
ATOM     21  H21 UNL     1       1.873  21.505 -28.185  1.00  0.00     0.191 HD
ENDBRANCH  18  19
ENDBRANCH  17  18
ENDBRANCH  16  17
ENDBRANCH  15  16
ENDBRANCH  14  15
ENDBRANCH  13  14
ENDBRANCH  12  13
ENDBRANCH   1  11
BRANCH   8  22
HETATM   22  O3  UNL     1      11.840  15.838 -30.079  1.00  0.00    -0.392 OA
ATOM     23  H3  UNL     1      12.447  16.310 -30.636  1.00  0.00     0.210 HD
ENDBRANCH   8  22
BRANCH   7  24
HETATM   24  O2  UNL     1       9.978  13.860 -32.473  1.00  0.00    -0.389 OA
ATOM     25  H2  UNL     1       9.290  13.462 -31.953  1.00  0.00     0.210 HD
ENDBRANCH   7  24
BRANCH   6  26
HETATM   26  O1  UNL     1      11.993  12.201 -32.118  1.00  0.00    -0.374 OA
ATOM     27  H1  UNL     1      11.293  12.255 -32.758  1.00  0.00     0.212 HD
ENDBRANCH   6  26
TORSDOF 12
ENDMDL
MODEL 3
REMARK VINA RESULT: -6.706774172      3.237      3.726
REMARK  12 active torsions:
REMARK  status: ('A' for Active; 'I' for Inactive)
REMARK    1  A    between atoms: C2_2  and  C3_3 
REMARK    2  A    between atoms: C3_3  and  C4_4 
REMARK    3  A    between atoms: C5_5  and  C6_6 
REMARK    4  A    between atoms: C6_6  and  C7_7 
REMARK    5  A    between atoms: C7_7  and  C8_8 
REMARK    6  A    between atoms: C8_8  and  C9_9 
REMARK    7  A    between atoms: C9_9  and  C10_10 
REMARK    8  A    between atoms: C10_10  and  N1_11 
REMARK    9  A    between atoms: N1_11  and  N2_12 
REMARK   10  A    between atoms: C13_19  and  O1_20 
REMARK   11  A    between atoms: C14_22  and  O2_23 
REMARK   12  A    between atoms: C15_25  and  O3_26 
ROOT
HETATM    1  C3  UNL     1      10.712  15.214 -29.983  1.00  0.00     0.010 C 
HETATM    2  C11 UNL     1      10.509  15.524 -31.479  1.00  0.00     0.060 C 
HETATM    3  C12 UNL     1      10.332  14.351 -32.319  1.00  0.00     0.059 C 
HETATM    4  N3  UNL     1      11.182  13.425 -32.557  1.00  0.00    -0.375 N 
ATOM      5  H3  UNL     1      10.855  12.686 -33.179  1.00  0.00     0.161 HD
HETATM    6  C13 UNL     1      12.506  13.274 -32.087  1.00  0.00     0.248 C 
HETATM    7  C14 UNL     1      12.862  14.173 -30.921  1.00  0.00     0.196 C 
HETATM    8  C15 UNL     1      11.880  14.208 -29.826  1.00  0.00     0.163 C 
ENDROOT
BRANCH   1   9
HETATM    9  C2  UNL     1      11.135  16.439 -29.309  1.00  0.00     0.012 C 
HETATM   10  C1  UNL     1      10.740  16.845 -27.979  1.00  0.00     0.006 C 
ENDBRANCH   1   9
BRANCH   1  11
HETATM   11  C4  UNL     1       9.535  14.471 -29.522  1.00  0.00    -0.018 C 
HETATM   12  C5  UNL     1       8.139  14.726 -29.578  1.00  0.00    -0.030 C 
BRANCH  12  13
HETATM   13  C6  UNL     1       7.407  15.837 -28.941  1.00  0.00     0.027 C 
BRANCH  13  14
HETATM   14  C7  UNL     1       6.632  16.630 -30.053  1.00  0.00     0.004 C 
BRANCH  14  15
HETATM   15  C8  UNL     1       6.674  15.858 -31.330  1.00  0.00     0.006 C 
BRANCH  15  16
HETATM   16  C9  UNL     1       6.618  16.755 -32.515  1.00  0.00     0.061 C 
BRANCH  16  17
HETATM   17  C10 UNL     1       7.299  16.091 -33.697  1.00  0.00     0.181 C 
BRANCH  17  18
HETATM   18  N1  UNL     1       7.126  14.880 -33.855  1.00  0.00    -0.350 NA
BRANCH  18  19
HETATM   19  N2  UNL     1       7.117  13.655 -34.020  1.00  0.00    -0.281 N 
ATOM     20  H22 UNL     1       6.191  13.688 -33.593  1.00  0.00     0.191 HD
ATOM     21  H21 UNL     1       7.233  12.659 -34.210  1.00  0.00     0.191 HD
ENDBRANCH  18  19
ENDBRANCH  17  18
ENDBRANCH  16  17
ENDBRANCH  15  16
ENDBRANCH  14  15
ENDBRANCH  13  14
ENDBRANCH  12  13
ENDBRANCH   1  11
BRANCH   8  22
HETATM   22  O3  UNL     1      11.449  12.947 -29.473  1.00  0.00    -0.392 OA
ATOM     23  H3  UNL     1      10.941  12.947 -28.670  1.00  0.00     0.210 HD
ENDBRANCH   8  22
BRANCH   7  24
HETATM   24  O2  UNL     1      13.388  15.386 -31.317  1.00  0.00    -0.389 OA
ATOM     25  H2  UNL     1      14.336  15.416 -31.259  1.00  0.00     0.210 HD
ENDBRANCH   7  24
BRANCH   6  26
HETATM   26  O1  UNL     1      13.442  13.452 -33.105  1.00  0.00    -0.374 OA
ATOM     27  H1  UNL     1      13.595  14.371 -33.287  1.00  0.00     0.212 HD
ENDBRANCH   6  26
TORSDOF 12
ENDMDL
MODEL 4
REMARK VINA RESULT: -6.676769698      1.609      2.339
REMARK  12 active torsions:
REMARK  status: ('A' for Active; 'I' for Inactive)
REMARK    1  A    between atoms: C2_2  and  C3_3 
REMARK    2  A    between atoms: C3_3  and  C4_4 
REMARK    3  A    between atoms: C5_5  and  C6_6 
REMARK    4  A    between atoms: C6_6  and  C7_7 
REMARK    5  A    between atoms: C7_7  and  C8_8 
REMARK    6  A    between atoms: C8_8  and  C9_9 
REMARK    7  A    between atoms: C9_9  and  C10_10 
REMARK    8  A    between atoms: C10_10  and  N1_11 
REMARK    9  A    between atoms: N1_11  and  N2_12 
REMARK   10  A    between atoms: C13_19  and  O1_20 
REMARK   11  A    between atoms: C14_22  and  O2_23 
REMARK   12  A    between atoms: C15_25  and  O3_26 
ROOT
HETATM    1  C3  UNL     1      10.088  15.073 -30.332  1.00  0.00     0.010 C 
HETATM    2  C11 UNL     1       9.978  13.555 -30.571  1.00  0.00     0.060 C 
HETATM    3  C12 UNL     1      10.760  12.743 -29.654  1.00  0.00     0.059 C 
HETATM    4  N3  UNL     1      12.033  12.700 -29.538  1.00  0.00    -0.375 N 
ATOM      5  H3  UNL     1      12.383  12.057 -28.828  1.00  0.00     0.161 HD
HETATM    6  C13 UNL     1      13.028  13.412 -30.247  1.00  0.00     0.248 C 
HETATM    7  C14 UNL     1      12.504  14.587 -31.046  1.00  0.00     0.196 C 
HETATM    8  C15 UNL     1      11.583  15.481 -30.327  1.00  0.00     0.163 C 
ENDROOT
BRANCH   1   9
HETATM    9  C2  UNL     1       9.480  15.767 -31.465  1.00  0.00     0.012 C 
HETATM   10  C1  UNL     1       8.258  15.375 -32.131  1.00  0.00     0.006 C 
ENDBRANCH   1   9
BRANCH   1  11
HETATM   11  C4  UNL     1       9.640  15.337 -28.961  1.00  0.00    -0.018 C 
HETATM   12  C5  UNL     1       8.424  15.091 -28.268  1.00  0.00    -0.030 C 
BRANCH  12  13
HETATM   13  C6  UNL     1       7.094  15.652 -28.570  1.00  0.00     0.027 C 
BRANCH  13  14
HETATM   14  C7  UNL     1       7.181  17.219 -28.493  1.00  0.00     0.004 C 
BRANCH  14  15
HETATM   15  C8  UNL     1       6.216  17.814 -29.464  1.00  0.00     0.006 C 
BRANCH  15  16
HETATM   16  C9  UNL     1       5.109  18.525 -28.771  1.00  0.00     0.061 C 
BRANCH  16  17
HETATM   17  C10 UNL     1       4.730  19.772 -29.547  1.00  0.00     0.181 C 
BRANCH  17  18
HETATM   18  N1  UNL     1       3.814  20.470 -29.104  1.00  0.00    -0.350 NA
BRANCH  18  19
HETATM   19  N2  UNL     1       2.906  21.077 -28.525  1.00  0.00    -0.281 N 
ATOM     20  H22 UNL     1       3.264  20.633 -27.678  1.00  0.00     0.191 HD
ATOM     21  H21 UNL     1       2.124  21.626 -28.169  1.00  0.00     0.191 HD
ENDBRANCH  18  19
ENDBRANCH  17  18
ENDBRANCH  16  17
ENDBRANCH  15  16
ENDBRANCH  14  15
ENDBRANCH  13  14
ENDBRANCH  12  13
ENDBRANCH   1  11
BRANCH   8  22
HETATM   22  O3  UNL     1      12.042  15.796 -29.066  1.00  0.00    -0.392 OA
ATOM     23  H3  UNL     1      12.637  15.141 -28.720  1.00  0.00     0.210 HD
ENDBRANCH   8  22
BRANCH   7  24
HETATM   24  O2  UNL     1      12.155  14.249 -32.337  1.00  0.00    -0.389 OA
ATOM     25  H2  UNL     1      11.650  13.446 -32.387  1.00  0.00     0.210 HD
ENDBRANCH   7  24
BRANCH   6  26
HETATM   26  O1  UNL     1      13.762  12.578 -31.088  1.00  0.00    -0.374 OA
ATOM     27  H1  UNL     1      14.458  12.130 -30.623  1.00  0.00     0.212 HD
ENDBRANCH   6  26
TORSDOF 12
ENDMDL
MODEL 5
REMARK VINA RESULT: -6.627922732      3.170      3.720
REMARK  12 active torsions:
REMARK  status: ('A' for Active; 'I' for Inactive)
REMARK    1  A    between atoms: C2_2  and  C3_3 
REMARK    2  A    between atoms: C3_3  and  C4_4 
REMARK    3  A    between atoms: C5_5  and  C6_6 
REMARK    4  A    between atoms: C6_6  and  C7_7 
REMARK    5  A    between atoms: C7_7  and  C8_8 
REMARK    6  A    between atoms: C8_8  and  C9_9 
REMARK    7  A    between atoms: C9_9  and  C10_10 
REMARK    8  A    between atoms: C10_10  and  N1_11 
REMARK    9  A    between atoms: N1_11  and  N2_12 
REMARK   10  A    between atoms: C13_19  and  O1_20 
REMARK   11  A    between atoms: C14_22  and  O2_23 
REMARK   12  A    between atoms: C15_25  and  O3_26 
ROOT
HETATM    1  C3  UNL     1       9.671  14.795 -29.124  1.00  0.00     0.010 C 
HETATM    2  C11 UNL     1      10.223  15.803 -30.150  1.00  0.00     0.060 C 
HETATM    3  C12 UNL     1      10.131  15.367 -31.534  1.00  0.00     0.059 C 
HETATM    4  N3  UNL     1      10.729  14.379 -32.083  1.00  0.00    -0.375 N 
ATOM      5  H3  UNL     1      10.525  14.244 -33.073  1.00  0.00     0.161 HD
HETATM    6  C13 UNL     1      11.630  13.445 -31.522  1.00  0.00     0.248 C 
HETATM    7  C14 UNL     1      11.665  13.443 -30.008  1.00  0.00     0.196 C 
HETATM    8  C15 UNL     1      10.352  13.421 -29.345  1.00  0.00     0.163 C 
ENDROOT
BRANCH   1   9
HETATM    9  C2  UNL     1      10.061  15.234 -27.787  1.00  0.00     0.012 C 
HETATM   10  C1  UNL     1       9.644  16.463 -27.151  1.00  0.00     0.006 C 
ENDBRANCH   1   9
BRANCH   1  11
HETATM   11  C4  UNL     1       8.263  14.554 -29.455  1.00  0.00    -0.018 C 
HETATM   12  C5  UNL     1       7.277  15.320 -30.132  1.00  0.00    -0.030 C 
BRANCH  12  13
HETATM   13  C6  UNL     1       6.723  16.625 -29.726  1.00  0.00     0.027 C 
BRANCH  13  14
HETATM   14  C7  UNL     1       6.177  17.358 -31.003  1.00  0.00     0.004 C 
BRANCH  14  15
HETATM   15  C8  UNL     1       6.176  16.407 -32.155  1.00  0.00     0.006 C 
BRANCH  15  16
HETATM   16  C9  UNL     1       6.846  16.990 -33.347  1.00  0.00     0.061 C 
BRANCH  16  17
HETATM   17  C10 UNL     1       7.705  15.938 -34.022  1.00  0.00     0.181 C 
BRANCH  17  18
HETATM   18  N1  UNL     1       7.362  14.758 -33.913  1.00  0.00    -0.350 NA
BRANCH  18  19
HETATM   19  N2  UNL     1       7.109  13.548 -33.937  1.00  0.00    -0.281 N 
ATOM     20  H22 UNL     1       7.331  13.567 -32.941  1.00  0.00     0.191 HD
ATOM     21  H21 UNL     1       6.875  12.567 -34.089  1.00  0.00     0.191 HD
ENDBRANCH  18  19
ENDBRANCH  17  18
ENDBRANCH  16  17
ENDBRANCH  15  16
ENDBRANCH  14  15
ENDBRANCH  13  14
ENDBRANCH  12  13
ENDBRANCH   1  11
BRANCH   8  22
HETATM   22  O3  UNL     1       9.502  12.492 -29.905  1.00  0.00    -0.392 OA
ATOM     23  H3  UNL     1       8.960  12.056 -29.258  1.00  0.00     0.210 HD
ENDBRANCH   8  22
BRANCH   7  24
HETATM   24  O2  UNL     1      12.604  14.311 -29.489  1.00  0.00    -0.389 OA
ATOM     25  H2  UNL     1      13.057  14.811 -30.158  1.00  0.00     0.210 HD
ENDBRANCH   7  24
BRANCH   6  26
HETATM   26  O1  UNL     1      12.925  13.617 -32.010  1.00  0.00    -0.374 OA
ATOM     27  H1  UNL     1      13.568  13.179 -31.465  1.00  0.00     0.212 HD
ENDBRANCH   6  26
TORSDOF 12
ENDMDL
