MODEL 1
REMARK VINA RESULT: -6.942040035      0.000      0.000
REMARK  8 active torsions:
REMARK  status: ('A' for Active; 'I' for Inactive)
REMARK    1  A    between atoms: C1_2  and  C2_3 
REMARK       I    between atoms: C1_2  and  N3_16 
REMARK    2  A    between atoms: C2_3  and  C3_4 
REMARK    3  A    between atoms: C3_4  and  N1_5 
REMARK    4  A    between atoms: N1_5  and  C4_8 
REMARK    5  A    between atoms: C4_8  and  C5_9 
REMARK    6  A    between atoms: N3_16  and  C10_18 
REMARK    7  A    between atoms: C10_18  and  C11_19 
REMARK    8  A    between atoms: C11_19  and  C12_20 
ROOT
HETATM    1  O1  UNL     1       9.374  15.088 -33.982  1.00  0.00    -0.274 OA
HETATM    2  C1  UNL     1       8.441  15.064 -33.141  1.00  0.00     0.219 C 
HETATM    3  N3  UNL     1       8.630  14.727 -31.785  1.00  0.00    -0.361 N 
ATOM      4  H3  UNL     1       7.826  14.734 -31.157  1.00  0.00     0.162 HD
ENDROOT
BRANCH   2   5
HETATM    5  C2  UNL     1       7.029  15.407 -33.562  1.00  0.00     0.130 C 
BRANCH   5   6
HETATM    6  C3  UNL     1       6.749  16.795 -33.054  1.00  0.00     0.241 C 
BRANCH   6   7
HETATM    7  N1  UNL     1       5.764  16.811 -31.999  1.00  0.00    -0.074 N 
ATOM      8  H12 UNL     1       4.907  17.291 -32.274  1.00  0.00     0.277 HD
ATOM      9  H11 UNL     1       5.362  15.889 -31.830  1.00  0.00     0.277 HD
BRANCH   7  10
HETATM   10  C4  UNL     1       6.350  17.374 -30.820  1.00  0.00     0.237 C 
BRANCH  10  11
HETATM   11  C5  UNL     1       5.777  16.734 -29.571  1.00  0.00     0.021 C 
HETATM   12  C6  UNL     1       5.326  17.766 -28.565  1.00  0.00     0.051 C 
HETATM   13  C7  UNL     1       6.411  18.660 -28.101  1.00  0.00     0.060 C 
HETATM   14  N2  UNL     1       7.698  18.101 -27.971  1.00  0.00    -0.382 N 
HETATM   15  C8  UNL     1       7.969  16.840 -28.489  1.00  0.00     0.060 C 
ATOM     16  H2  UNL     1       8.433  18.625 -27.495  1.00  0.00     0.163 HD
HETATM   17  C9  UNL     1       6.865  15.944 -28.881  1.00  0.00     0.051 C 
ENDBRANCH  10  11
ENDBRANCH   7  10
ENDBRANCH   6   7
ENDBRANCH   5   6
ENDBRANCH   2   5
BRANCH   3  18
HETATM   18  C10 UNL     1       9.922  14.375 -31.262  1.00  0.00     0.123 C 
BRANCH  18  19
HETATM   19  C11 UNL     1      10.693  15.631 -30.947  1.00  0.00     0.024 C 
BRANCH  19  20
HETATM   20  C12 UNL     1      11.539  15.410 -29.722  1.00  0.00    -0.010 C 
HETATM   21  C13 UNL     1      12.024  16.690 -29.166  1.00  0.00     0.024 C 
HETATM   22  C14 UNL     1      13.367  17.133 -29.688  1.00  0.00     0.114 C 
HETATM   23  N4  UNL     1      13.739  16.608 -30.954  1.00  0.00    -0.421 N 
HETATM   24  C15 UNL     1      13.506  15.221 -31.149  1.00  0.00     0.114 C 
ATOM     25  H4  UNL     1      14.149  17.193 -31.681  1.00  0.00     0.153 HD
HETATM   26  C16 UNL     1      12.764  14.552 -30.044  1.00  0.00     0.024 C 
ENDBRANCH  19  20
ENDBRANCH  18  19
ENDBRANCH   3  18
TORSDOF 8
ENDMDL
MODEL 2
REMARK VINA RESULT: -6.930281205      1.702      5.162
REMARK  8 active torsions:
REMARK  status: ('A' for Active; 'I' for Inactive)
REMARK    1  A    between atoms: C1_2  and  C2_3 
REMARK       I    between atoms: C1_2  and  N3_16 
REMARK    2  A    between atoms: C2_3  and  C3_4 
REMARK    3  A    between atoms: C3_4  and  N1_5 
REMARK    4  A    between atoms: N1_5  and  C4_8 
REMARK    5  A    between atoms: C4_8  and  C5_9 
REMARK    6  A    between atoms: N3_16  and  C10_18 
REMARK    7  A    between atoms: C10_18  and  C11_19 
REMARK    8  A    between atoms: C11_19  and  C12_20 
ROOT
HETATM    1  O1  UNL     1       6.944  16.896 -33.730  1.00  0.00    -0.274 OA
HETATM    2  C1  UNL     1       7.106  15.749 -33.242  1.00  0.00     0.219 C 
HETATM    3  N3  UNL     1       6.661  15.386 -31.955  1.00  0.00    -0.361 N 
ATOM      4  H3  UNL     1       6.823  14.434 -31.625  1.00  0.00     0.162 HD
ENDROOT
BRANCH   2   5
HETATM    5  C2  UNL     1       7.810  14.675 -34.042  1.00  0.00     0.130 C 
BRANCH   5   6
HETATM    6  C3  UNL     1       9.269  15.043 -34.073  1.00  0.00     0.241 C 
BRANCH   6   7
HETATM    7  N1  UNL     1       9.732  15.576 -32.813  1.00  0.00    -0.074 N 
ATOM      8  H12 UNL     1      10.424  16.315 -32.935  1.00  0.00     0.277 HD
ATOM      9  H11 UNL     1       9.017  16.125 -32.338  1.00  0.00     0.277 HD
BRANCH   7  10
HETATM   10  C4  UNL     1      10.221  14.501 -32.004  1.00  0.00     0.237 C 
BRANCH  10  11
HETATM   11  C5  UNL     1      10.213  14.880 -30.536  1.00  0.00     0.021 C 
HETATM   12  C6  UNL     1      11.609  15.105 -30.004  1.00  0.00     0.051 C 
HETATM   13  C7  UNL     1      12.485  13.917 -30.110  1.00  0.00     0.060 C 
HETATM   14  N2  UNL     1      11.886  12.654 -29.935  1.00  0.00    -0.382 N 
HETATM   15  C8  UNL     1      10.502  12.534 -29.908  1.00  0.00     0.060 C 
ATOM     16  H2  UNL     1      12.471  11.825 -29.827  1.00  0.00     0.163 HD
HETATM   17  C9  UNL     1       9.655  13.728 -29.734  1.00  0.00     0.051 C 
ENDBRANCH  10  11
ENDBRANCH   7  10
ENDBRANCH   6   7
ENDBRANCH   5   6
ENDBRANCH   2   5
BRANCH   3  18
HETATM   18  C10 UNL     1       5.985  16.318 -31.093  1.00  0.00     0.123 C 
BRANCH  18  19
HETATM   19  C11 UNL     1       6.981  16.938 -30.148  1.00  0.00     0.024 C 
BRANCH  19  20
HETATM   20  C12 UNL     1       6.569  16.659 -28.727  1.00  0.00    -0.010 C 
HETATM   21  C13 UNL     1       5.998  17.862 -28.087  1.00  0.00     0.024 C 
HETATM   22  C14 UNL     1       6.997  18.717 -27.350  1.00  0.00     0.114 C 
HETATM   23  N4  UNL     1       8.346  18.589 -27.773  1.00  0.00    -0.421 N 
HETATM   24  C15 UNL     1       8.812  17.265 -27.990  1.00  0.00     0.114 C 
ATOM     25  H4  UNL     1       8.947  19.401 -27.914  1.00  0.00     0.153 HD
HETATM   26  C16 UNL     1       7.764  16.210 -27.884  1.00  0.00     0.024 C 
ENDBRANCH  19  20
ENDBRANCH  18  19
ENDBRANCH   3  18
TORSDOF 8
ENDMDL
MODEL 3
REMARK VINA RESULT: -6.842267401      1.716      5.776
REMARK  8 active torsions:
REMARK  status: ('A' for Active; 'I' for Inactive)
REMARK    1  A    between atoms: C1_2  and  C2_3 
REMARK       I    between atoms: C1_2  and  N3_16 
REMARK    2  A    between atoms: C2_3  and  C3_4 
REMARK    3  A    between atoms: C3_4  and  N1_5 
REMARK    4  A    between atoms: N1_5  and  C4_8 
REMARK    5  A    between atoms: C4_8  and  C5_9 
REMARK    6  A    between atoms: N3_16  and  C10_18 
REMARK    7  A    between atoms: C10_18  and  C11_19 
REMARK    8  A    between atoms: C11_19  and  C12_20 
ROOT
HETATM    1  O1  UNL     1       7.022  17.123 -33.729  1.00  0.00    -0.274 OA
HETATM    2  C1  UNL     1       6.969  16.093 -33.011  1.00  0.00     0.219 C 
HETATM    3  N3  UNL     1       6.468  16.094 -31.694  1.00  0.00    -0.361 N 
ATOM      4  H3  UNL     1       6.450  15.218 -31.171  1.00  0.00     0.162 HD
ENDROOT
BRANCH   2   5
HETATM    5  C2  UNL     1       7.456  14.765 -33.550  1.00  0.00     0.130 C 
BRANCH   5   6
HETATM    6  C3  UNL     1       8.896  14.957 -33.940  1.00  0.00     0.241 C 
BRANCH   6   7
HETATM    7  N1  UNL     1       9.685  15.535 -32.878  1.00  0.00    -0.074 N 
ATOM      8  H12 UNL     1      10.346  16.232 -33.221  1.00  0.00     0.277 HD
ATOM      9  H11 UNL     1       9.135  16.145 -32.274  1.00  0.00     0.277 HD
BRANCH   7  10
HETATM   10  C4  UNL     1      10.329  14.484 -32.150  1.00  0.00     0.237 C 
BRANCH  10  11
HETATM   11  C5  UNL     1       9.727  14.335 -30.767  1.00  0.00     0.021 C 
HETATM   12  C6  UNL     1       9.999  15.543 -29.901  1.00  0.00     0.051 C 
HETATM   13  C7  UNL     1      11.439  15.812 -29.689  1.00  0.00     0.060 C 
HETATM   14  N2  UNL     1      12.298  14.700 -29.592  1.00  0.00    -0.382 N 
HETATM   15  C8  UNL     1      11.838  13.430 -29.925  1.00  0.00     0.060 C 
ATOM     16  H2  UNL     1      13.260  14.826 -29.277  1.00  0.00     0.163 HD
HETATM   17  C9  UNL     1      10.393  13.175 -30.064  1.00  0.00     0.051 C 
ENDBRANCH  10  11
ENDBRANCH   7  10
ENDBRANCH   6   7
ENDBRANCH   5   6
ENDBRANCH   2   5
BRANCH   3  18
HETATM   18  C10 UNL     1       5.983  17.292 -31.066  1.00  0.00     0.123 C 
BRANCH  18  19
HETATM   19  C11 UNL     1       6.177  17.190 -29.575  1.00  0.00     0.024 C 
BRANCH  19  20
HETATM   20  C12 UNL     1       6.840  18.442 -29.065  1.00  0.00    -0.010 C 
HETATM   21  C13 UNL     1       6.986  18.412 -27.595  1.00  0.00     0.024 C 
HETATM   22  C14 UNL     1       5.839  19.027 -26.836  1.00  0.00     0.114 C 
HETATM   23  N4  UNL     1       4.598  19.069 -27.525  1.00  0.00    -0.421 N 
HETATM   24  C15 UNL     1       4.647  19.491 -28.880  1.00  0.00     0.114 C 
ATOM     25  H4  UNL     1       3.721  18.811 -27.072  1.00  0.00     0.153 HD
HETATM   26  C16 UNL     1       6.022  19.684 -29.423  1.00  0.00     0.024 C 
ENDBRANCH  19  20
ENDBRANCH  18  19
ENDBRANCH   3  18
TORSDOF 8
ENDMDL
MODEL 4
REMARK VINA RESULT: -6.818690611      2.307      4.630
REMARK  8 active torsions:
REMARK  status: ('A' for Active; 'I' for Inactive)
REMARK    1  A    between atoms: C1_2  and  C2_3 
REMARK       I    between atoms: C1_2  and  N3_16 
REMARK    2  A    between atoms: C2_3  and  C3_4 
REMARK    3  A    between atoms: C3_4  and  N1_5 
REMARK    4  A    between atoms: N1_5  and  C4_8 
REMARK    5  A    between atoms: C4_8  and  C5_9 
REMARK    6  A    between atoms: N3_16  and  C10_18 
REMARK    7  A    between atoms: C10_18  and  C11_19 
REMARK    8  A    between atoms: C11_19  and  C12_20 
ROOT
HETATM    1  O1  UNL     1       7.410  19.172 -27.725  1.00  0.00    -0.274 OA
HETATM    2  C1  UNL     1       7.119  18.030 -28.161  1.00  0.00     0.219 C 
HETATM    3  N3  UNL     1       7.983  16.921 -28.061  1.00  0.00    -0.361 N 
ATOM      4  H3  UNL     1       7.679  16.021 -28.433  1.00  0.00     0.162 HD
ENDROOT
BRANCH   2   5
HETATM    5  C2  UNL     1       5.784  17.789 -28.832  1.00  0.00     0.130 C 
BRANCH   5   6
HETATM    6  C3  UNL     1       5.886  16.464 -29.537  1.00  0.00     0.241 C 
BRANCH   6   7
HETATM    7  N1  UNL     1       5.949  16.604 -30.973  1.00  0.00    -0.074 N 
ATOM      8  H12 UNL     1       5.055  16.405 -31.422  1.00  0.00     0.277 HD
ATOM      9  H11 UNL     1       6.042  17.576 -31.264  1.00  0.00     0.277 HD
BRANCH   7  10
HETATM   10  C4  UNL     1       7.006  15.780 -31.476  1.00  0.00     0.237 C 
BRANCH  10  11
HETATM   11  C5  UNL     1       6.703  15.311 -32.886  1.00  0.00     0.021 C 
HETATM   12  C6  UNL     1       7.714  14.301 -33.373  1.00  0.00     0.051 C 
HETATM   13  C7  UNL     1       9.102  14.815 -33.406  1.00  0.00     0.060 C 
HETATM   14  N2  UNL     1       9.281  16.171 -33.742  1.00  0.00    -0.382 N 
HETATM   15  C8  UNL     1       8.189  17.029 -33.796  1.00  0.00     0.060 C 
ATOM     16  H2  UNL     1      10.217  16.524 -33.946  1.00  0.00     0.163 HD
HETATM   17  C9  UNL     1       6.818  16.486 -33.829  1.00  0.00     0.051 C 
ENDBRANCH  10  11
ENDBRANCH   7  10
ENDBRANCH   6   7
ENDBRANCH   5   6
ENDBRANCH   2   5
BRANCH   3  18
HETATM   18  C10 UNL     1       9.282  17.021 -27.452  1.00  0.00     0.123 C 
BRANCH  18  19
HETATM   19  C11 UNL     1      10.123  15.843 -27.870  1.00  0.00     0.024 C 
BRANCH  19  20
HETATM   20  C12 UNL     1       9.679  15.361 -29.224  1.00  0.00    -0.010 C 
HETATM   21  C13 UNL     1       9.647  13.885 -29.287  1.00  0.00     0.024 C 
HETATM   22  C14 UNL     1      10.925  13.249 -29.772  1.00  0.00     0.114 C 
HETATM   23  N4  UNL     1      12.101  14.027 -29.607  1.00  0.00    -0.421 N 
HETATM   24  C15 UNL     1      12.001  15.398 -29.966  1.00  0.00     0.114 C 
ATOM     25  H4  UNL     1      12.968  13.625 -29.252  1.00  0.00     0.153 HD
HETATM   26  C16 UNL     1      10.626  15.850 -30.322  1.00  0.00     0.024 C 
ENDBRANCH  19  20
ENDBRANCH  18  19
ENDBRANCH   3  18
TORSDOF 8
ENDMDL
MODEL 5
REMARK VINA RESULT: -6.799676747      4.008      6.179
REMARK  8 active torsions:
REMARK  status: ('A' for Active; 'I' for Inactive)
REMARK    1  A    between atoms: C1_2  and  C2_3 
REMARK       I    between atoms: C1_2  and  N3_16 
REMARK    2  A    between atoms: C2_3  and  C3_4 
REMARK    3  A    between atoms: C3_4  and  N1_5 
REMARK    4  A    between atoms: N1_5  and  C4_8 
REMARK    5  A    between atoms: C4_8  and  C5_9 
REMARK    6  A    between atoms: N3_16  and  C10_18 
REMARK    7  A    between atoms: C10_18  and  C11_19 
REMARK    8  A    between atoms: C11_19  and  C12_20 
ROOT
HETATM    1  O1  UNL     1       6.738  19.433 -28.819  1.00  0.00    -0.274 OA
HETATM    2  C1  UNL     1       5.593  19.154 -29.255  1.00  0.00     0.219 C 
HETATM    3  N3  UNL     1       5.302  17.971 -29.964  1.00  0.00    -0.361 N 
ATOM      4  H3  UNL     1       4.347  17.807 -30.284  1.00  0.00     0.162 HD
ENDROOT
BRANCH   2   5
HETATM    5  C2  UNL     1       4.440  20.107 -29.028  1.00  0.00     0.130 C 
BRANCH   5   6
HETATM    6  C3  UNL     1       4.478  20.496 -27.575  1.00  0.00     0.241 C 
BRANCH   6   7
HETATM    7  N1  UNL     1       4.513  19.351 -26.696  1.00  0.00    -0.074 N 
ATOM      8  H12 UNL     1       3.748  18.701 -26.874  1.00  0.00     0.277 HD
ATOM      9  H11 UNL     1       5.287  18.721 -26.910  1.00  0.00     0.277 HD
BRANCH   7  10
HETATM   10  C4  UNL     1       4.540  19.805 -25.339  1.00  0.00     0.237 C 
BRANCH  10  11
HETATM   11  C5  UNL     1       3.134  19.946 -24.788  1.00  0.00     0.021 C 
HETATM   12  C6  UNL     1       2.819  21.373 -24.407  1.00  0.00     0.051 C 
HETATM   13  C7  UNL     1       3.718  21.925 -23.369  1.00  0.00     0.060 C 
HETATM   14  N2  UNL     1       4.175  21.041 -22.372  1.00  0.00    -0.382 N 
HETATM   15  C8  UNL     1       3.980  19.671 -22.509  1.00  0.00     0.060 C 
ATOM     16  H2  UNL     1       4.650  21.407 -21.547  1.00  0.00     0.163 HD
HETATM   17  C9  UNL     1       3.027  19.152 -23.507  1.00  0.00     0.051 C 
ENDBRANCH  10  11
ENDBRANCH   7  10
ENDBRANCH   6   7
ENDBRANCH   5   6
ENDBRANCH   2   5
BRANCH   3  18
HETATM   18  C10 UNL     1       6.312  16.988 -30.250  1.00  0.00     0.123 C 
BRANCH  18  19
HETATM   19  C11 UNL     1       6.453  16.835 -31.743  1.00  0.00     0.024 C 
BRANCH  19  20
HETATM   20  C12 UNL     1       6.934  15.446 -32.065  1.00  0.00    -0.010 C 
HETATM   21  C13 UNL     1       8.260  15.184 -31.469  1.00  0.00     0.024 C 
HETATM   22  C14 UNL     1       9.427  15.509 -32.365  1.00  0.00     0.114 C 
HETATM   23  N4  UNL     1       9.172  16.464 -33.385  1.00  0.00    -0.421 N 
HETATM   24  C15 UNL     1       7.957  16.304 -34.104  1.00  0.00     0.114 C 
ATOM     25  H4  UNL     1       9.823  17.221 -33.590  1.00  0.00     0.153 HD
HETATM   26  C16 UNL     1       7.057  15.240 -33.576  1.00  0.00     0.024 C 
ENDBRANCH  19  20
ENDBRANCH  18  19
ENDBRANCH   3  18
TORSDOF 8
ENDMDL
