MODEL 1
REMARK VINA RESULT: -7.391040442      0.000      0.000
REMARK  10 active torsions:
REMARK  status: ('A' for Active; 'I' for Inactive)
REMARK    1  A    between atoms: N1_1  and  C1_4 
REMARK    2  A    between atoms: C3_8  and  C4_9 
REMARK    3  A    between atoms: C4_9  and  C5_10 
REMARK    4  A    between atoms: C5_10  and  C6_11 
REMARK    5  A    between atoms: C6_11  and  C7_12 
REMARK    6  A    between atoms: C7_12  and  C8_13 
REMARK    7  A    between atoms: C8_13  and  N3_14 
REMARK    8  A    between atoms: N4_17  and  C11_18 
REMARK    9  A    between atoms: C11_18  and  C12_19 
REMARK   10  A    between atoms: C12_19  and  O1_20 
ROOT
HETATM    1  C5  UNL     1      10.335  15.415 -28.441  1.00  0.00     0.005 C 
ENDROOT
BRANCH   1   2
HETATM    2  C4  UNL     1      10.771  15.998 -29.754  1.00  0.00     0.046 C 
BRANCH   2   3
HETATM    3  C3  UNL     1      11.413  15.068 -30.695  1.00  0.00     0.026 A 
HETATM    4  C2  UNL     1      10.713  14.629 -31.834  1.00  0.00     0.118 A 
HETATM    5  N2  UNL     1      11.291  13.806 -32.724  1.00  0.00    -0.201 N 
HETATM    6  C1  UNL     1      12.552  13.358 -32.584  1.00  0.00     0.678 A 
ATOM      7  H2  UNL     1      10.753  13.509 -33.538  1.00  0.00     0.183 HD
HETATM    8  N5  UNL     1      13.241  13.761 -31.507  1.00  0.00    -0.156 N 
HETATM    9  C15 UNL     1      12.697  14.600 -30.569  1.00  0.00     0.267 A 
ATOM     10  H5  UNL     1      14.199  13.433 -31.382  1.00  0.00     0.187 HD
HETATM   11  O2  UNL     1      13.409  14.930 -29.576  1.00  0.00    -0.267 OA
BRANCH   6  12
HETATM   12  N1  UNL     1      13.046  12.562 -33.484  1.00  0.00    -0.234 N 
ATOM     13  H12 UNL     1      12.506  11.817 -33.923  1.00  0.00     0.174 HD
ATOM     14  H11 UNL     1      14.017  12.678 -33.773  1.00  0.00     0.174 HD
ENDBRANCH   6  12
ENDBRANCH   2   3
ENDBRANCH   1   2
BRANCH   1  15
HETATM   15  C6  UNL     1       9.247  14.423 -28.469  1.00  0.00     0.002 C 
BRANCH  15  16
HETATM   16  C7  UNL     1       7.997  14.862 -29.241  1.00  0.00     0.030 C 
BRANCH  16  17
HETATM   17  C8  UNL     1       7.247  15.834 -28.446  1.00  0.00     0.272 C 
BRANCH  17  18
HETATM   18  N3  UNL     1       7.431  17.212 -28.759  1.00  0.00     0.091 N 
HETATM   19  C9  UNL     1       6.382  17.773 -29.553  1.00  0.00     0.291 C 
HETATM   20  C10 UNL     1       5.158  17.939 -28.711  1.00  0.00     0.147 C 
HETATM   21  N4  UNL     1       5.420  18.865 -27.669  1.00  0.00    -0.407 N 
HETATM   22  C13 UNL     1       6.665  18.789 -27.006  1.00  0.00     0.147 C 
HETATM   23  C14 UNL     1       7.777  18.093 -27.701  1.00  0.00     0.291 C 
BRANCH  21  24
HETATM   24  C11 UNL     1       4.797  20.140 -27.763  1.00  0.00     0.143 C 
BRANCH  24  25
HETATM   25  C12 UNL     1       4.026  20.249 -29.068  1.00  0.00     0.183 C 
BRANCH  25  26
HETATM   26  O1  UNL     1       3.274  21.426 -29.125  1.00  0.00    -0.399 OA
ATOM     27  H1  UNL     1       2.435  21.285 -29.549  1.00  0.00     0.209 HD
ENDBRANCH  25  26
ENDBRANCH  24  25
ENDBRANCH  21  24
ENDBRANCH  17  18
ENDBRANCH  16  17
ENDBRANCH  15  16
ENDBRANCH   1  15
TORSDOF 10
ENDMDL
MODEL 2
REMARK VINA RESULT: -7.367922067      1.024      1.397
REMARK  10 active torsions:
REMARK  status: ('A' for Active; 'I' for Inactive)
REMARK    1  A    between atoms: N1_1  and  C1_4 
REMARK    2  A    between atoms: C3_8  and  C4_9 
REMARK    3  A    between atoms: C4_9  and  C5_10 
REMARK    4  A    between atoms: C5_10  and  C6_11 
REMARK    5  A    between atoms: C6_11  and  C7_12 
REMARK    6  A    between atoms: C7_12  and  C8_13 
REMARK    7  A    between atoms: C8_13  and  N3_14 
REMARK    8  A    between atoms: N4_17  and  C11_18 
REMARK    9  A    between atoms: C11_18  and  C12_19 
REMARK   10  A    between atoms: C12_19  and  O1_20 
ROOT
HETATM    1  C5  UNL     1      10.040  15.226 -28.394  1.00  0.00     0.005 C 
ENDROOT
BRANCH   1   2
HETATM    2  C4  UNL     1      10.820  15.816 -29.534  1.00  0.00     0.046 C 
BRANCH   2   3
HETATM    3  C3  UNL     1      11.386  14.859 -30.497  1.00  0.00     0.026 A 
HETATM    4  C2  UNL     1      12.422  13.994 -30.098  1.00  0.00     0.118 A 
HETATM    5  N2  UNL     1      12.931  13.089 -30.950  1.00  0.00    -0.201 N 
HETATM    6  C1  UNL     1      12.490  12.956 -32.214  1.00  0.00     0.678 A 
ATOM      7  H2  UNL     1      13.681  12.479 -30.625  1.00  0.00     0.183 HD
HETATM    8  N5  UNL     1      11.503  13.768 -32.619  1.00  0.00    -0.156 N 
HETATM    9  C15 UNL     1      10.950  14.709 -31.789  1.00  0.00     0.267 A 
ATOM     10  H5  UNL     1      11.154  13.683 -33.573  1.00  0.00     0.187 HD
HETATM   11  O2  UNL     1      10.027  15.442 -32.247  1.00  0.00    -0.267 OA
BRANCH   6  12
HETATM   12  N1  UNL     1      13.031  12.060 -32.983  1.00  0.00    -0.234 N 
ATOM     13  H12 UNL     1      14.007  12.094 -33.274  1.00  0.00     0.174 HD
ATOM     14  H11 UNL     1      12.463  11.281 -33.317  1.00  0.00     0.174 HD
ENDBRANCH   6  12
ENDBRANCH   2   3
ENDBRANCH   1   2
BRANCH   1  15
HETATM   15  C6  UNL     1       8.900  14.359 -28.733  1.00  0.00     0.002 C 
BRANCH  15  16
HETATM   16  C7  UNL     1       7.764  15.058 -29.491  1.00  0.00     0.030 C 
BRANCH  16  17
HETATM   17  C8  UNL     1       7.100  16.014 -28.604  1.00  0.00     0.272 C 
BRANCH  17  18
HETATM   18  N3  UNL     1       7.336  17.399 -28.846  1.00  0.00     0.091 N 
HETATM   19  C9  UNL     1       6.311  18.039 -29.612  1.00  0.00     0.291 C 
HETATM   20  C10 UNL     1       5.091  18.207 -28.764  1.00  0.00     0.147 C 
HETATM   21  N4  UNL     1       5.384  19.067 -27.675  1.00  0.00    -0.407 N 
HETATM   22  C13 UNL     1       6.623  18.911 -27.015  1.00  0.00     0.147 C 
HETATM   23  C14 UNL     1       7.711  18.210 -27.744  1.00  0.00     0.291 C 
BRANCH  21  24
HETATM   24  C11 UNL     1       4.809  20.368 -27.704  1.00  0.00     0.143 C 
BRANCH  24  25
HETATM   25  C12 UNL     1       3.475  20.332 -28.433  1.00  0.00     0.183 C 
BRANCH  25  26
HETATM   26  O1  UNL     1       3.310  21.449 -29.259  1.00  0.00    -0.399 OA
ATOM     27  H1  UNL     1       2.421  21.782 -29.221  1.00  0.00     0.209 HD
ENDBRANCH  25  26
ENDBRANCH  24  25
ENDBRANCH  21  24
ENDBRANCH  17  18
ENDBRANCH  16  17
ENDBRANCH  15  16
ENDBRANCH   1  15
TORSDOF 10
ENDMDL
MODEL 3
REMARK VINA RESULT: -7.271034075      2.101      2.751
REMARK  10 active torsions:
REMARK  status: ('A' for Active; 'I' for Inactive)
REMARK    1  A    between atoms: N1_1  and  C1_4 
REMARK    2  A    between atoms: C3_8  and  C4_9 
REMARK    3  A    between atoms: C4_9  and  C5_10 
REMARK    4  A    between atoms: C5_10  and  C6_11 
REMARK    5  A    between atoms: C6_11  and  C7_12 
REMARK    6  A    between atoms: C7_12  and  C8_13 
REMARK    7  A    between atoms: C8_13  and  N3_14 
REMARK    8  A    between atoms: N4_17  and  C11_18 
REMARK    9  A    between atoms: C11_18  and  C12_19 
REMARK   10  A    between atoms: C12_19  and  O1_20 
ROOT
HETATM    1  C5  UNL     1       9.980  14.119 -28.874  1.00  0.00     0.005 C 
ENDROOT
BRANCH   1   2
HETATM    2  C4  UNL     1      10.291  15.097 -29.970  1.00  0.00     0.046 C 
BRANCH   2   3
HETATM    3  C3  UNL     1       9.460  15.002 -31.179  1.00  0.00     0.026 A 
HETATM    4  C2  UNL     1       8.093  15.331 -31.117  1.00  0.00     0.118 A 
HETATM    5  N2  UNL     1       7.322  15.284 -32.216  1.00  0.00    -0.201 N 
HETATM    6  C1  UNL     1       7.799  14.926 -33.421  1.00  0.00     0.678 A 
ATOM      7  H2  UNL     1       6.336  15.530 -32.133  1.00  0.00     0.183 HD
HETATM    8  N5  UNL     1       9.099  14.607 -33.508  1.00  0.00    -0.156 N 
HETATM    9  C15 UNL     1       9.929  14.639 -32.417  1.00  0.00     0.267 A 
ATOM     10  H5  UNL     1       9.482  14.333 -34.413  1.00  0.00     0.187 HD
HETATM   11  O2  UNL     1      11.142  14.317 -32.578  1.00  0.00    -0.267 OA
BRANCH   6  12
HETATM   12  N1  UNL     1       6.995  14.901 -34.440  1.00  0.00    -0.234 N 
ATOM     13  H12 UNL     1       6.233  15.567 -34.564  1.00  0.00     0.174 HD
ATOM     14  H11 UNL     1       7.121  14.186 -35.158  1.00  0.00     0.174 HD
ENDBRANCH   6  12
ENDBRANCH   2   3
ENDBRANCH   1   2
BRANCH   1  15
HETATM   15  C6  UNL     1       9.290  14.638 -27.681  1.00  0.00     0.002 C 
BRANCH  15  16
HETATM   16  C7  UNL     1       9.379  16.157 -27.498  1.00  0.00     0.030 C 
BRANCH  16  17
HETATM   17  C8  UNL     1       8.039  16.740 -27.578  1.00  0.00     0.272 C 
BRANCH  17  18
HETATM   18  N3  UNL     1       7.952  18.146 -27.791  1.00  0.00     0.091 N 
HETATM   19  C9  UNL     1       7.027  18.523 -28.815  1.00  0.00     0.291 C 
HETATM   20  C10 UNL     1       5.631  18.328 -28.317  1.00  0.00     0.147 C 
HETATM   21  N4  UNL     1       5.393  19.189 -27.216  1.00  0.00    -0.407 N 
HETATM   22  C13 UNL     1       6.417  19.340 -26.253  1.00  0.00     0.147 C 
HETATM   23  C14 UNL     1       7.801  18.982 -26.654  1.00  0.00     0.291 C 
BRANCH  21  24
HETATM   24  C11 UNL     1       4.521  20.292 -27.432  1.00  0.00     0.143 C 
BRANCH  24  25
HETATM   25  C12 UNL     1       4.024  20.289 -28.868  1.00  0.00     0.183 C 
BRANCH  25  26
HETATM   26  O1  UNL     1       3.265  21.429 -29.152  1.00  0.00    -0.399 OA
ATOM     27  H1  UNL     1       2.449  21.436 -28.666  1.00  0.00     0.209 HD
ENDBRANCH  25  26
ENDBRANCH  24  25
ENDBRANCH  21  24
ENDBRANCH  17  18
ENDBRANCH  16  17
ENDBRANCH  15  16
ENDBRANCH   1  15
TORSDOF 10
ENDMDL
MODEL 4
REMARK VINA RESULT: -7.156299452      5.949      9.359
REMARK  10 active torsions:
REMARK  status: ('A' for Active; 'I' for Inactive)
REMARK    1  A    between atoms: N1_1  and  C1_4 
REMARK    2  A    between atoms: C3_8  and  C4_9 
REMARK    3  A    between atoms: C4_9  and  C5_10 
REMARK    4  A    between atoms: C5_10  and  C6_11 
REMARK    5  A    between atoms: C6_11  and  C7_12 
REMARK    6  A    between atoms: C7_12  and  C8_13 
REMARK    7  A    between atoms: C8_13  and  N3_14 
REMARK    8  A    between atoms: N4_17  and  C11_18 
REMARK    9  A    between atoms: C11_18  and  C12_19 
REMARK   10  A    between atoms: C12_19  and  O1_20 
ROOT
HETATM    1  C5  UNL     1       4.057  19.870 -25.678  1.00  0.00     0.005 C 
ENDROOT
BRANCH   1   2
HETATM    2  C4  UNL     1       4.995  20.497 -26.669  1.00  0.00     0.046 C 
BRANCH   2   3
HETATM    3  C3  UNL     1       5.206  19.756 -27.921  1.00  0.00     0.026 A 
HETATM    4  C2  UNL     1       6.187  18.749 -27.983  1.00  0.00     0.118 A 
HETATM    5  N2  UNL     1       6.374  18.037 -29.106  1.00  0.00    -0.201 N 
HETATM    6  C1  UNL     1       5.649  18.238 -30.221  1.00  0.00     0.678 A 
ATOM      7  H2  UNL     1       7.094  17.314 -29.113  1.00  0.00     0.183 HD
HETATM    8  N5  UNL     1       4.707  19.192 -30.189  1.00  0.00    -0.156 N 
HETATM    9  C15 UNL     1       4.477  19.947 -29.068  1.00  0.00     0.267 A 
ATOM     10  H5  UNL     1       4.146  19.361 -31.023  1.00  0.00     0.187 HD
HETATM   11  O2  UNL     1       3.575  20.833 -29.118  1.00  0.00    -0.267 OA
BRANCH   6  12
HETATM   12  N1  UNL     1       5.886  17.513 -31.271  1.00  0.00    -0.234 N 
ATOM     13  H12 UNL     1       6.238  16.557 -31.220  1.00  0.00     0.174 HD
ATOM     14  H11 UNL     1       5.715  17.905 -32.198  1.00  0.00     0.174 HD
ENDBRANCH   6  12
ENDBRANCH   2   3
ENDBRANCH   1   2
BRANCH   1  15
HETATM   15  C6  UNL     1       2.929  20.688 -25.204  1.00  0.00     0.002 C 
BRANCH  15  16
HETATM   16  C7  UNL     1       3.305  21.776 -24.191  1.00  0.00     0.030 C 
BRANCH  16  17
HETATM   17  C8  UNL     1       2.546  21.578 -22.955  1.00  0.00     0.272 C 
BRANCH  17  18
HETATM   18  N3  UNL     1       3.291  21.329 -21.766  1.00  0.00     0.091 N 
HETATM   19  C9  UNL     1       2.737  21.935 -20.595  1.00  0.00     0.291 C 
HETATM   20  C10 UNL     1       1.500  21.197 -20.194  1.00  0.00     0.147 C 
HETATM   21  N4  UNL     1       1.833  19.864 -19.844  1.00  0.00    -0.407 N 
HETATM   22  C13 UNL     1       2.773  19.178 -20.646  1.00  0.00     0.147 C 
HETATM   23  C14 UNL     1       3.680  19.991 -21.495  1.00  0.00     0.291 C 
BRANCH  21  24
HETATM   24  C11 UNL     1       1.763  19.519 -18.466  1.00  0.00     0.143 C 
BRANCH  24  25
HETATM   25  C12 UNL     1       2.892  18.566 -18.109  1.00  0.00     0.183 C 
BRANCH  25  26
HETATM   26  O1  UNL     1       2.497  17.642 -17.136  1.00  0.00    -0.399 OA
ATOM     27  H1  UNL     1       3.183  17.009 -16.957  1.00  0.00     0.209 HD
ENDBRANCH  25  26
ENDBRANCH  24  25
ENDBRANCH  21  24
ENDBRANCH  17  18
ENDBRANCH  16  17
ENDBRANCH  15  16
ENDBRANCH   1  15
TORSDOF 10
ENDMDL
MODEL 5
REMARK VINA RESULT: -7.149561586      2.757      5.381
REMARK  10 active torsions:
REMARK  status: ('A' for Active; 'I' for Inactive)
REMARK    1  A    between atoms: N1_1  and  C1_4 
REMARK    2  A    between atoms: C3_8  and  C4_9 
REMARK    3  A    between atoms: C4_9  and  C5_10 
REMARK    4  A    between atoms: C5_10  and  C6_11 
REMARK    5  A    between atoms: C6_11  and  C7_12 
REMARK    6  A    between atoms: C7_12  and  C8_13 
REMARK    7  A    between atoms: C8_13  and  N3_14 
REMARK    8  A    between atoms: N4_17  and  C11_18 
REMARK    9  A    between atoms: C11_18  and  C12_19 
REMARK   10  A    between atoms: C12_19  and  O1_20 
ROOT
HETATM    1  C5  UNL     1       5.965  16.661 -30.492  1.00  0.00     0.005 C 
ENDROOT
BRANCH   1   2
HETATM    2  C4  UNL     1       6.335  16.840 -31.937  1.00  0.00     0.046 C 
BRANCH   2   3
HETATM    3  C3  UNL     1       7.546  16.138 -32.388  1.00  0.00     0.026 A 
HETATM    4  C2  UNL     1       8.076  15.089 -31.615  1.00  0.00     0.118 A 
HETATM    5  N2  UNL     1       9.161  14.411 -32.023  1.00  0.00    -0.201 N 
HETATM    6  C1  UNL     1       9.797  14.689 -33.175  1.00  0.00     0.678 A 
ATOM      7  H2  UNL     1       9.516  13.656 -31.437  1.00  0.00     0.183 HD
HETATM    8  N5  UNL     1       9.313  15.685 -33.931  1.00  0.00    -0.156 N 
HETATM    9  C15 UNL     1       8.209  16.408 -33.559  1.00  0.00     0.267 A 
ATOM     10  H5  UNL     1       9.780  15.913 -34.809  1.00  0.00     0.187 HD
HETATM   11  O2  UNL     1       7.816  17.337 -34.322  1.00  0.00    -0.267 OA
BRANCH   6  12
HETATM   12  N1  UNL     1      10.843  13.994 -33.506  1.00  0.00    -0.234 N 
ATOM     13  H12 UNL     1      11.063  13.089 -33.091  1.00  0.00     0.174 HD
ATOM     14  H11 UNL     1      11.481  14.359 -34.214  1.00  0.00     0.174 HD
ENDBRANCH   6  12
ENDBRANCH   2   3
ENDBRANCH   1   2
BRANCH   1  15
HETATM   15  C6  UNL     1       5.960  17.862 -29.642  1.00  0.00     0.002 C 
BRANCH  15  16
HETATM   16  C7  UNL     1       6.758  17.731 -28.339  1.00  0.00     0.030 C 
BRANCH  16  17
HETATM   17  C8  UNL     1       7.565  16.511 -28.380  1.00  0.00     0.272 C 
BRANCH  17  18
HETATM   18  N3  UNL     1       8.687  16.443 -27.503  1.00  0.00     0.091 N 
HETATM   19  C9  UNL     1       9.634  15.428 -27.848  1.00  0.00     0.291 C 
HETATM   20  C10 UNL     1      10.384  15.847 -29.072  1.00  0.00     0.147 C 
HETATM   21  N4  UNL     1      11.128  17.023 -28.794  1.00  0.00    -0.407 N 
HETATM   22  C13 UNL     1      10.514  18.036 -28.024  1.00  0.00     0.147 C 
HETATM   23  C14 UNL     1       9.352  17.654 -27.181  1.00  0.00     0.291 C 
BRANCH  21  24
HETATM   24  C11 UNL     1      12.541  16.889 -28.704  1.00  0.00     0.143 C 
BRANCH  24  25
HETATM   25  C12 UNL     1      13.135  16.684 -30.089  1.00  0.00     0.183 C 
BRANCH  25  26
HETATM   26  O1  UNL     1      12.778  17.718 -30.960  1.00  0.00    -0.399 OA
ATOM     27  H1  UNL     1      11.922  17.573 -31.343  1.00  0.00     0.209 HD
ENDBRANCH  25  26
ENDBRANCH  24  25
ENDBRANCH  21  24
ENDBRANCH  17  18
ENDBRANCH  16  17
ENDBRANCH  15  16
ENDBRANCH   1  15
TORSDOF 10
ENDMDL
