MODEL 1
REMARK VINA RESULT: -6.512460249      0.000      0.000
REMARK  12 active torsions:
REMARK  status: ('A' for Active; 'I' for Inactive)
REMARK    1  A    between atoms: O1_1  and  C1_3 
REMARK    2  A    between atoms: C1_3  and  C2_4 
REMARK    3  A    between atoms: C2_4  and  O2_5 
REMARK    4  A    between atoms: O2_5  and  C3_6 
REMARK    5  A    between atoms: C3_6  and  C4_7 
REMARK    6  A    between atoms: C4_7  and  C5_8 
REMARK    7  A    between atoms: C5_8  and  N1_9 
REMARK    8  A    between atoms: N1_9  and  C6_11 
REMARK    9  A    between atoms: C6_11  and  N2_13 
REMARK   10  A    between atoms: N2_13  and  C7_15 
REMARK   11  A    between atoms: C7_15  and  C8_16 
REMARK   12  A    between atoms: C8_16  and  O3_17 
ROOT
HETATM    1  N2  UNL     1      10.148  15.232 -32.104  1.00  0.00    -0.363 N 
ATOM      2  H2  UNL     1      10.767  15.910 -32.547  1.00  0.00     0.162 HD
ENDROOT
BRANCH   1   3
HETATM    3  C6  UNL     1       8.795  15.445 -32.353  1.00  0.00     0.167 C 
HETATM    4  S1  UNL     1       8.199  16.109 -33.714  1.00  0.00    -0.041 SA
BRANCH   3   5
HETATM    5  N1  UNL     1       7.820  15.018 -31.389  1.00  0.00    -0.367 N 
ATOM      6  H1  UNL     1       7.984  14.151 -30.878  1.00  0.00     0.161 HD
BRANCH   5   7
HETATM    7  C5  UNL     1       6.627  15.759 -31.118  1.00  0.00     0.124 C 
BRANCH   7   8
HETATM    8  C4  UNL     1       6.964  16.850 -30.107  1.00  0.00     0.046 C 
BRANCH   8   9
HETATM    9  C3  UNL     1       6.149  16.439 -28.837  1.00  0.00     0.169 C 
BRANCH   9  10
HETATM   10  O2  UNL     1       5.065  17.254 -28.836  1.00  0.00    -0.389 OA
BRANCH  10  11
HETATM   11  C2  UNL     1       5.162  18.496 -28.288  1.00  0.00     0.193 C 
BRANCH  11  12
HETATM   12  C1  UNL     1       4.688  19.631 -29.133  1.00  0.00     0.190 C 
BRANCH  12  13
HETATM   13  O1  UNL     1       4.299  19.327 -30.406  1.00  0.00    -0.399 OA
ATOM     14  H1  UNL     1       3.437  19.623 -30.672  1.00  0.00     0.209 HD
ENDBRANCH  12  13
ENDBRANCH  11  12
ENDBRANCH  10  11
ENDBRANCH   9  10
ENDBRANCH   8   9
ENDBRANCH   7   8
ENDBRANCH   5   7
ENDBRANCH   3   5
ENDBRANCH   1   3
BRANCH   1  15
HETATM   15  C7  UNL     1      10.824  14.234 -31.339  1.00  0.00     0.183 C 
BRANCH  15  16
HETATM   16  C8  UNL     1      11.100  14.598 -29.932  1.00  0.00     0.156 C 
HETATM   17  C9  UNL     1      11.382  16.174 -29.898  1.00  0.00     0.142 C 
HETATM   18  C10 UNL     1      10.877  16.613 -28.682  1.00  0.00    -0.178 C 
HETATM   19  C11 UNL     1      10.296  16.962 -27.444  1.00  0.00     0.085 C 
HETATM   20  C12 UNL     1       9.579  15.651 -26.939  1.00  0.00     0.055 C 
HETATM   21  C13 UNL     1       9.339  14.716 -28.117  1.00  0.00     0.059 C 
HETATM   22  N3  UNL     1      10.318  14.165 -28.879  1.00  0.00    -0.370 N 
ATOM     23  H3  UNL     1      10.523  13.202 -28.612  1.00  0.00     0.161 HD
BRANCH  16  24
HETATM   24  O3  UNL     1      12.434  14.083 -29.677  1.00  0.00    -0.368 OA
ATOM     25  H3  UNL     1      12.313  13.432 -28.997  1.00  0.00     0.212 HD
ENDBRANCH  16  24
ENDBRANCH  15  16
ENDBRANCH   1  15
TORSDOF 12
ENDMDL
MODEL 2
REMARK VINA RESULT: -6.495469703      2.148      3.151
REMARK  12 active torsions:
REMARK  status: ('A' for Active; 'I' for Inactive)
REMARK    1  A    between atoms: O1_1  and  C1_3 
REMARK    2  A    between atoms: C1_3  and  C2_4 
REMARK    3  A    between atoms: C2_4  and  O2_5 
REMARK    4  A    between atoms: O2_5  and  C3_6 
REMARK    5  A    between atoms: C3_6  and  C4_7 
REMARK    6  A    between atoms: C4_7  and  C5_8 
REMARK    7  A    between atoms: C5_8  and  N1_9 
REMARK    8  A    between atoms: N1_9  and  C6_11 
REMARK    9  A    between atoms: C6_11  and  N2_13 
REMARK   10  A    between atoms: N2_13  and  C7_15 
REMARK   11  A    between atoms: C7_15  and  C8_16 
REMARK   12  A    between atoms: C8_16  and  O3_17 
ROOT
HETATM    1  N2  UNL     1       8.171  15.099 -31.277  1.00  0.00    -0.363 N 
ATOM      2  H2  UNL     1       7.889  14.153 -31.023  1.00  0.00     0.162 HD
ENDROOT
BRANCH   1   3
HETATM    3  C6  UNL     1       7.165  15.853 -31.876  1.00  0.00     0.167 C 
HETATM    4  S1  UNL     1       7.156  16.305 -33.439  1.00  0.00    -0.041 SA
BRANCH   3   5
HETATM    5  N1  UNL     1       6.014  16.238 -31.109  1.00  0.00    -0.367 N 
ATOM      6  H1  UNL     1       5.177  15.657 -31.159  1.00  0.00     0.161 HD
BRANCH   5   7
HETATM    7  C5  UNL     1       5.992  17.402 -30.280  1.00  0.00     0.124 C 
BRANCH   7   8
HETATM    8  C4  UNL     1       5.801  16.954 -28.834  1.00  0.00     0.046 C 
BRANCH   8   9
HETATM    9  C3  UNL     1       6.280  18.188 -28.002  1.00  0.00     0.169 C 
BRANCH   9  10
HETATM   10  O2  UNL     1       5.153  18.691 -27.437  1.00  0.00    -0.389 OA
BRANCH  10  11
HETATM   11  C2  UNL     1       4.788  19.975 -27.700  1.00  0.00     0.193 C 
BRANCH  11  12
HETATM   12  C1  UNL     1       4.137  20.221 -29.019  1.00  0.00     0.190 C 
BRANCH  12  13
HETATM   13  O1  UNL     1       3.388  21.358 -29.130  1.00  0.00    -0.399 OA
ATOM     14  H1  UNL     1       3.856  22.160 -29.326  1.00  0.00     0.209 HD
ENDBRANCH  12  13
ENDBRANCH  11  12
ENDBRANCH  10  11
ENDBRANCH   9  10
ENDBRANCH   8   9
ENDBRANCH   7   8
ENDBRANCH   5   7
ENDBRANCH   3   5
ENDBRANCH   1   3
BRANCH   1  15
HETATM   15  C7  UNL     1       9.526  15.413 -30.955  1.00  0.00     0.183 C 
BRANCH  15  16
HETATM   16  C8  UNL     1      10.463  14.270 -30.993  1.00  0.00     0.156 C 
HETATM   17  C9  UNL     1      10.847  14.024 -32.528  1.00  0.00     0.142 C 
HETATM   18  C10 UNL     1      12.166  13.591 -32.514  1.00  0.00    -0.178 C 
HETATM   19  C11 UNL     1      13.517  13.200 -32.393  1.00  0.00     0.085 C 
HETATM   20  C12 UNL     1      13.874  13.412 -30.872  1.00  0.00     0.055 C 
HETATM   21  C13 UNL     1      12.880  14.381 -30.245  1.00  0.00     0.059 C 
HETATM   22  N3  UNL     1      11.545  14.160 -30.140  1.00  0.00    -0.370 N 
ATOM     23  H3  UNL     1      11.276  13.836 -29.211  1.00  0.00     0.161 HD
BRANCH  16  24
HETATM   24  O3  UNL     1       9.632  13.107 -30.737  1.00  0.00    -0.368 OA
ATOM     25  H3  UNL     1      10.220  12.476 -30.340  1.00  0.00     0.212 HD
ENDBRANCH  16  24
ENDBRANCH  15  16
ENDBRANCH   1  15
TORSDOF 12
ENDMDL
MODEL 3
REMARK VINA RESULT: -6.484271184      2.241      6.031
REMARK  12 active torsions:
REMARK  status: ('A' for Active; 'I' for Inactive)
REMARK    1  A    between atoms: O1_1  and  C1_3 
REMARK    2  A    between atoms: C1_3  and  C2_4 
REMARK    3  A    between atoms: C2_4  and  O2_5 
REMARK    4  A    between atoms: O2_5  and  C3_6 
REMARK    5  A    between atoms: C3_6  and  C4_7 
REMARK    6  A    between atoms: C4_7  and  C5_8 
REMARK    7  A    between atoms: C5_8  and  N1_9 
REMARK    8  A    between atoms: N1_9  and  C6_11 
REMARK    9  A    between atoms: C6_11  and  N2_13 
REMARK   10  A    between atoms: N2_13  and  C7_15 
REMARK   11  A    between atoms: C7_15  and  C8_16 
REMARK   12  A    between atoms: C8_16  and  O3_17 
ROOT
HETATM    1  N2  UNL     1       5.891  16.755 -31.370  1.00  0.00    -0.363 N 
ATOM      2  H2  UNL     1       4.993  16.280 -31.280  1.00  0.00     0.162 HD
ENDROOT
BRANCH   1   3
HETATM    3  C6  UNL     1       6.856  16.028 -32.061  1.00  0.00     0.167 C 
HETATM    4  S1  UNL     1       7.169  16.186 -33.650  1.00  0.00    -0.041 SA
BRANCH   3   5
HETATM    5  N1  UNL     1       7.688  15.098 -31.352  1.00  0.00    -0.367 N 
ATOM      6  H1  UNL     1       7.632  14.109 -31.593  1.00  0.00     0.161 HD
BRANCH   5   7
HETATM    7  C5  UNL     1       8.592  15.502 -30.321  1.00  0.00     0.124 C 
BRANCH   7   8
HETATM    8  C4  UNL     1       8.556  14.450 -29.216  1.00  0.00     0.046 C 
BRANCH   8   9
HETATM    9  C3  UNL     1       9.996  13.840 -29.245  1.00  0.00     0.169 C 
BRANCH   9  10
HETATM   10  O2  UNL     1      10.080  13.189 -30.433  1.00  0.00    -0.389 OA
BRANCH  10  11
HETATM   11  C2  UNL     1      11.252  13.205 -31.123  1.00  0.00     0.193 C 
BRANCH  11  12
HETATM   12  C1  UNL     1      11.228  13.881 -32.452  1.00  0.00     0.190 C 
BRANCH  12  13
HETATM   13  O1  UNL     1      10.039  13.873 -33.124  1.00  0.00    -0.399 OA
ATOM     14  H1  UNL     1      10.081  13.747 -34.064  1.00  0.00     0.209 HD
ENDBRANCH  12  13
ENDBRANCH  11  12
ENDBRANCH  10  11
ENDBRANCH   9  10
ENDBRANCH   8   9
ENDBRANCH   7   8
ENDBRANCH   5   7
ENDBRANCH   3   5
ENDBRANCH   1   3
BRANCH   1  15
HETATM   15  C7  UNL     1       5.934  18.047 -30.763  1.00  0.00     0.183 C 
BRANCH  15  16
HETATM   16  C8  UNL     1       5.422  18.110 -29.378  1.00  0.00     0.156 C 
HETATM   17  C9  UNL     1       6.693  18.090 -28.403  1.00  0.00     0.142 C 
HETATM   18  C10 UNL     1       6.340  18.884 -27.320  1.00  0.00    -0.178 C 
HETATM   19  C11 UNL     1       5.899  19.742 -26.289  1.00  0.00     0.085 C 
HETATM   20  C12 UNL     1       4.527  20.328 -26.797  1.00  0.00     0.055 C 
HETATM   21  C13 UNL     1       4.440  20.186 -28.311  1.00  0.00     0.059 C 
HETATM   22  N3  UNL     1       4.448  19.004 -28.979  1.00  0.00    -0.370 N 
ATOM     23  H3  UNL     1       3.511  18.706 -29.251  1.00  0.00     0.161 HD
BRANCH  16  24
HETATM   24  O3  UNL     1       4.876  16.787 -29.130  1.00  0.00    -0.368 OA
ATOM     25  H3  UNL     1       3.967  16.942 -28.904  1.00  0.00     0.212 HD
ENDBRANCH  16  24
ENDBRANCH  15  16
ENDBRANCH   1  15
TORSDOF 12
ENDMDL
MODEL 4
REMARK VINA RESULT: -6.479606167      2.049      2.684
REMARK  12 active torsions:
REMARK  status: ('A' for Active; 'I' for Inactive)
REMARK    1  A    between atoms: O1_1  and  C1_3 
REMARK    2  A    between atoms: C1_3  and  C2_4 
REMARK    3  A    between atoms: C2_4  and  O2_5 
REMARK    4  A    between atoms: O2_5  and  C3_6 
REMARK    5  A    between atoms: C3_6  and  C4_7 
REMARK    6  A    between atoms: C4_7  and  C5_8 
REMARK    7  A    between atoms: C5_8  and  N1_9 
REMARK    8  A    between atoms: N1_9  and  C6_11 
REMARK    9  A    between atoms: C6_11  and  N2_13 
REMARK   10  A    between atoms: N2_13  and  C7_15 
REMARK   11  A    between atoms: C7_15  and  C8_16 
REMARK   12  A    between atoms: C8_16  and  O3_17 
ROOT
HETATM    1  N2  UNL     1       8.326  14.593 -32.962  1.00  0.00    -0.363 N 
ATOM      2  H2  UNL     1       7.885  13.735 -33.295  1.00  0.00     0.162 HD
ENDROOT
BRANCH   1   3
HETATM    3  C6  UNL     1       7.434  15.534 -32.457  1.00  0.00     0.167 C 
HETATM    4  S1  UNL     1       6.809  16.768 -33.314  1.00  0.00    -0.041 SA
BRANCH   3   5
HETATM    5  N1  UNL     1       6.968  15.416 -31.104  1.00  0.00    -0.367 N 
ATOM      6  H1  UNL     1       7.303  14.637 -30.538  1.00  0.00     0.161 HD
BRANCH   5   7
HETATM    7  C5  UNL     1       6.053  16.346 -30.519  1.00  0.00     0.124 C 
BRANCH   7   8
HETATM    8  C4  UNL     1       6.387  16.475 -29.036  1.00  0.00     0.046 C 
BRANCH   8   9
HETATM    9  C3  UNL     1       5.568  17.727 -28.583  1.00  0.00     0.169 C 
BRANCH   9  10
HETATM   10  O2  UNL     1       5.485  18.512 -29.687  1.00  0.00    -0.389 OA
BRANCH  10  11
HETATM   11  C2  UNL     1       5.298  19.852 -29.543  1.00  0.00     0.193 C 
BRANCH  11  12
HETATM   12  C1  UNL     1       4.084  20.273 -28.787  1.00  0.00     0.190 C 
BRANCH  12  13
HETATM   13  O1  UNL     1       3.418  21.369 -29.258  1.00  0.00    -0.399 OA
ATOM     14  H1  UNL     1       2.553  21.529 -28.899  1.00  0.00     0.209 HD
ENDBRANCH  12  13
ENDBRANCH  11  12
ENDBRANCH  10  11
ENDBRANCH   9  10
ENDBRANCH   8   9
ENDBRANCH   7   8
ENDBRANCH   5   7
ENDBRANCH   3   5
ENDBRANCH   1   3
BRANCH   1  15
HETATM   15  C7  UNL     1       9.747  14.612 -33.099  1.00  0.00     0.183 C 
BRANCH  15  16
HETATM   16  C8  UNL     1      10.503  14.442 -31.840  1.00  0.00     0.156 C 
HETATM   17  C9  UNL     1      11.801  13.568 -32.183  1.00  0.00     0.142 C 
HETATM   18  C10 UNL     1      12.799  14.044 -31.343  1.00  0.00    -0.178 C 
HETATM   19  C11 UNL     1      13.750  14.629 -30.479  1.00  0.00     0.085 C 
HETATM   20  C12 UNL     1      13.023  15.876 -29.846  1.00  0.00     0.055 C 
HETATM   21  C13 UNL     1      11.843  16.277 -30.721  1.00  0.00     0.059 C 
HETATM   22  N3  UNL     1      10.767  15.489 -30.978  1.00  0.00    -0.370 N 
ATOM     23  H3  UNL     1       9.964  15.727 -30.397  1.00  0.00     0.161 HD
BRANCH  16  24
HETATM   24  O3  UNL     1       9.729  13.480 -31.076  1.00  0.00    -0.368 OA
ATOM     25  H3  UNL     1       9.296  13.999 -30.408  1.00  0.00     0.212 HD
ENDBRANCH  16  24
ENDBRANCH  15  16
ENDBRANCH   1  15
TORSDOF 12
ENDMDL
MODEL 5
REMARK VINA RESULT: -6.463263409      2.137      3.171
REMARK  12 active torsions:
REMARK  status: ('A' for Active; 'I' for Inactive)
REMARK    1  A    between atoms: O1_1  and  C1_3 
REMARK    2  A    between atoms: C1_3  and  C2_4 
REMARK    3  A    between atoms: C2_4  and  O2_5 
REMARK    4  A    between atoms: O2_5  and  C3_6 
REMARK    5  A    between atoms: C3_6  and  C4_7 
REMARK    6  A    between atoms: C4_7  and  C5_8 
REMARK    7  A    between atoms: C5_8  and  N1_9 
REMARK    8  A    between atoms: N1_9  and  C6_11 
REMARK    9  A    between atoms: C6_11  and  N2_13 
REMARK   10  A    between atoms: N2_13  and  C7_15 
REMARK   11  A    between atoms: C7_15  and  C8_16 
REMARK   12  A    between atoms: C8_16  and  O3_17 
ROOT
HETATM    1  N2  UNL     1       8.818  14.654 -32.027  1.00  0.00    -0.363 N 
ATOM      2  H2  UNL     1       9.056  13.992 -32.765  1.00  0.00     0.162 HD
ENDROOT
BRANCH   1   3
HETATM    3  C6  UNL     1       7.747  15.490 -32.333  1.00  0.00     0.167 C 
HETATM    4  S1  UNL     1       7.693  16.488 -33.617  1.00  0.00    -0.041 SA
BRANCH   3   5
HETATM    5  N1  UNL     1       6.569  15.464 -31.514  1.00  0.00    -0.367 N 
ATOM      6  H1  UNL     1       6.100  14.572 -31.360  1.00  0.00     0.161 HD
BRANCH   5   7
HETATM    7  C5  UNL     1       6.025  16.638 -30.905  1.00  0.00     0.124 C 
BRANCH   7   8
HETATM    8  C4  UNL     1       6.325  16.582 -29.411  1.00  0.00     0.046 C 
BRANCH   8   9
HETATM    9  C3  UNL     1       5.441  17.727 -28.817  1.00  0.00     0.169 C 
BRANCH   9  10
HETATM   10  O2  UNL     1       6.133  18.869 -29.058  1.00  0.00    -0.389 OA
BRANCH  10  11
HETATM   11  C2  UNL     1       5.466  19.983 -29.464  1.00  0.00     0.193 C 
BRANCH  11  12
HETATM   12  C1  UNL     1       4.142  20.231 -28.824  1.00  0.00     0.190 C 
BRANCH  12  13
HETATM   13  O1  UNL     1       3.447  21.325 -29.255  1.00  0.00    -0.399 OA
ATOM     14  H1  UNL     1       2.677  21.566 -28.755  1.00  0.00     0.209 HD
ENDBRANCH  12  13
ENDBRANCH  11  12
ENDBRANCH  10  11
ENDBRANCH   9  10
ENDBRANCH   8   9
ENDBRANCH   7   8
ENDBRANCH   5   7
ENDBRANCH   3   5
ENDBRANCH   1   3
BRANCH   1  15
HETATM   15  C7  UNL     1       9.641  14.557 -30.865  1.00  0.00     0.183 C 
BRANCH  15  16
HETATM   16  C8  UNL     1      11.091  14.718 -31.104  1.00  0.00     0.156 C 
HETATM   17  C9  UNL     1      11.851  14.098 -29.838  1.00  0.00     0.142 C 
HETATM   18  C10 UNL     1      13.022  13.549 -30.343  1.00  0.00    -0.178 C 
HETATM   19  C11 UNL     1      14.160  12.988 -30.962  1.00  0.00     0.085 C 
HETATM   20  C12 UNL     1      13.911  13.151 -32.511  1.00  0.00     0.055 C 
HETATM   21  C13 UNL     1      12.423  13.352 -32.769  1.00  0.00     0.059 C 
HETATM   22  N3  UNL     1      11.692  14.398 -32.307  1.00  0.00    -0.370 N 
ATOM     23  H3  UNL     1      11.552  15.118 -33.015  1.00  0.00     0.161 HD
BRANCH  16  24
HETATM   24  O3  UNL     1      11.340  16.133 -30.897  1.00  0.00    -0.368 OA
ATOM     25  H3  UNL     1      11.851  16.171 -30.097  1.00  0.00     0.212 HD
ENDBRANCH  16  24
ENDBRANCH  15  16
ENDBRANCH   1  15
TORSDOF 12
ENDMDL
