MODEL 1
REMARK VINA RESULT: -5.641493558      0.000      0.000
REMARK  5 active torsions:
REMARK  status: ('A' for Active; 'I' for Inactive)
REMARK    1  A    between atoms: O1_2  and  C2_3 
REMARK    2  A    between atoms: C2_3  and  C3_5 
REMARK    3  A    between atoms: C3_5  and  S1_6 
REMARK    4  A    between atoms: S1_6  and  O3_7 
REMARK    5  A    between atoms: C6_16  and  N4_17 
REMARK       I    between atoms: N4_17  and  C7_19 
ROOT
HETATM    1  C3  UNL     1      14.566 -16.265   4.878  1.00  0.00     0.211 C 
HETATM    2  C4  UNL     1      15.825 -15.383   4.942  1.00  0.00     0.105 C 
HETATM    3  N1  UNL     1      16.615 -15.484   6.084  1.00  0.00    -0.342 N 
ATOM      4  H1  UNL     1      17.276 -14.734   6.282  1.00  0.00     0.167 HD
HETATM    5  C5  UNL     1      16.554 -16.462   6.889  1.00  0.00     0.193 C 
HETATM    6  N2  UNL     1      17.423 -16.496   8.043  1.00  0.00    -0.063 NA
HETATM    7  N3  UNL     1      15.549 -17.398   6.720  1.00  0.00    -0.318 N 
ATOM      8  H3  UNL     1      15.538 -18.183   7.370  1.00  0.00     0.170 HD
HETATM    9  C6  UNL     1      14.589 -17.375   5.786  1.00  0.00     0.124 C 
ENDROOT
BRANCH   1  10
HETATM   10  C2  UNL     1      14.427 -16.705   3.470  1.00  0.00     0.292 C 
HETATM   11  O2  UNL     1      15.451 -16.691   2.733  1.00  0.00    -0.262 OA
BRANCH  10  12
HETATM   12  O1  UNL     1      13.208 -17.134   2.943  1.00  0.00    -0.325 OA
HETATM   13  C1  UNL     1      13.178 -18.423   2.361  1.00  0.00     0.213 C 
ENDBRANCH  10  12
ENDBRANCH   1  10
BRANCH   1  14
HETATM   14  S1  UNL     1      13.245 -15.058   5.226  1.00  0.00     0.019 SA
BRANCH  14  15
HETATM   15  O3  UNL     1      11.709 -15.432   4.780  1.00  0.00    -0.328 OA
ATOM     16  H3  UNL     1      11.580 -15.993   4.024  1.00  0.00     0.227 HD
ENDBRANCH  14  15
ENDBRANCH   1  14
BRANCH   9  17
HETATM   17  N4  UNL     1      13.770 -18.497   5.869  1.00  0.00    -0.298 N 
HETATM   18  C7  UNL     1      14.013 -19.848   6.008  1.00  0.00     0.334 C 
HETATM   19  N5  UNL     1      12.829 -20.720   6.045  1.00  0.00    -0.040 NA
HETATM   20  O4  UNL     1      15.053 -20.522   6.112  1.00  0.00    -0.251 OA
ATOM     21  H4  UNL     1      12.777 -18.272   5.817  1.00  0.00     0.171 HD
ENDBRANCH   9  17
TORSDOF 5
ENDMDL
MODEL 2
REMARK VINA RESULT: -5.594171604      0.911      1.273
REMARK  5 active torsions:
REMARK  status: ('A' for Active; 'I' for Inactive)
REMARK    1  A    between atoms: O1_2  and  C2_3 
REMARK    2  A    between atoms: C2_3  and  C3_5 
REMARK    3  A    between atoms: C3_5  and  S1_6 
REMARK    4  A    between atoms: S1_6  and  O3_7 
REMARK    5  A    between atoms: C6_16  and  N4_17 
REMARK       I    between atoms: N4_17  and  C7_19 
ROOT
HETATM    1  C3  UNL     1      14.555 -16.236   4.822  1.00  0.00     0.211 C 
HETATM    2  C4  UNL     1      15.685 -15.222   5.063  1.00  0.00     0.105 C 
HETATM    3  N1  UNL     1      16.629 -15.539   6.036  1.00  0.00    -0.342 N 
ATOM      4  H1  UNL     1      17.208 -14.789   6.412  1.00  0.00     0.167 HD
HETATM    5  C5  UNL     1      16.805 -16.715   6.477  1.00  0.00     0.193 C 
HETATM    6  N2  UNL     1      17.820 -16.962   7.477  1.00  0.00    -0.063 NA
HETATM    7  N3  UNL     1      15.917 -17.706   6.097  1.00  0.00    -0.318 N 
ATOM      8  H3  UNL     1      16.097 -18.645   6.452  1.00  0.00     0.170 HD
HETATM    9  C6  UNL     1      14.845 -17.554   5.309  1.00  0.00     0.124 C 
ENDROOT
BRANCH   1  10
HETATM   10  C2  UNL     1      14.285 -16.234   3.365  1.00  0.00     0.292 C 
HETATM   11  O2  UNL     1      13.258 -16.838   2.945  1.00  0.00    -0.262 OA
BRANCH  10  12
HETATM   12  O1  UNL     1      15.121 -15.587   2.455  1.00  0.00    -0.325 OA
HETATM   13  C1  UNL     1      15.203 -16.138   1.155  1.00  0.00     0.213 C 
ENDBRANCH  10  12
ENDBRANCH   1  10
BRANCH   1  14
HETATM   14  S1  UNL     1      13.148 -15.437   5.659  1.00  0.00     0.019 SA
BRANCH  14  15
HETATM   15  O3  UNL     1      11.708 -15.364   4.870  1.00  0.00    -0.328 OA
ATOM     16  H3  UNL     1      11.323 -14.510   4.709  1.00  0.00     0.227 HD
ENDBRANCH  14  15
ENDBRANCH   1  14
BRANCH   9  17
HETATM   17  N4  UNL     1      14.198 -18.766   5.090  1.00  0.00    -0.298 N 
HETATM   18  C7  UNL     1      14.068 -19.926   5.826  1.00  0.00     0.334 C 
HETATM   19  N5  UNL     1      13.285 -21.005   5.205  1.00  0.00    -0.040 NA
HETATM   20  O4  UNL     1      14.482 -20.278   6.944  1.00  0.00    -0.251 OA
ATOM     21  H4  UNL     1      13.717 -18.806   4.192  1.00  0.00     0.171 HD
ENDBRANCH   9  17
TORSDOF 5
ENDMDL
MODEL 3
REMARK VINA RESULT: -5.571235195      2.887      4.754
REMARK  5 active torsions:
REMARK  status: ('A' for Active; 'I' for Inactive)
REMARK    1  A    between atoms: O1_2  and  C2_3 
REMARK    2  A    between atoms: C2_3  and  C3_5 
REMARK    3  A    between atoms: C3_5  and  S1_6 
REMARK    4  A    between atoms: S1_6  and  O3_7 
REMARK    5  A    between atoms: C6_16  and  N4_17 
REMARK       I    between atoms: N4_17  and  C7_19 
ROOT
HETATM    1  C3  UNL     1      11.822 -18.699   3.775  1.00  0.00     0.211 C 
HETATM    2  C4  UNL     1      11.404 -19.831   4.728  1.00  0.00     0.105 C 
HETATM    3  N1  UNL     1      12.384 -20.346   5.573  1.00  0.00    -0.342 N 
ATOM      4  H1  UNL     1      12.224 -21.258   5.999  1.00  0.00     0.167 HD
HETATM    5  C5  UNL     1      13.464 -19.738   5.838  1.00  0.00     0.193 C 
HETATM    6  N2  UNL     1      14.422 -20.336   6.740  1.00  0.00    -0.063 NA
HETATM    7  N3  UNL     1      13.764 -18.582   5.137  1.00  0.00    -0.318 N 
ATOM      8  H3  UNL     1      14.629 -18.104   5.387  1.00  0.00     0.170 HD
HETATM    9  C6  UNL     1      13.029 -18.029   4.164  1.00  0.00     0.124 C 
ENDROOT
BRANCH   1  10
HETATM   10  C2  UNL     1      10.674 -17.765   3.694  1.00  0.00     0.292 C 
HETATM   11  O2  UNL     1      10.422 -17.219   2.584  1.00  0.00    -0.262 OA
BRANCH  10  12
HETATM   12  O1  UNL     1       9.871 -17.478   4.798  1.00  0.00    -0.325 OA
HETATM   13  C1  UNL     1      10.021 -16.201   5.387  1.00  0.00     0.213 C 
ENDBRANCH  10  12
ENDBRANCH   1  10
BRANCH   1  14
HETATM   14  S1  UNL     1      11.949 -19.576   2.183  1.00  0.00     0.019 SA
BRANCH  14  15
HETATM   15  O3  UNL     1      12.132 -18.687   0.813  1.00  0.00    -0.328 OA
ATOM     16  H3  UNL     1      12.975 -18.700   0.374  1.00  0.00     0.227 HD
ENDBRANCH  14  15
ENDBRANCH   1  14
BRANCH   9  17
HETATM   17  N4  UNL     1      13.597 -16.843   3.708  1.00  0.00    -0.298 N 
HETATM   18  C7  UNL     1      14.895 -16.387   3.596  1.00  0.00     0.334 C 
HETATM   19  N5  UNL     1      15.061 -15.028   3.058  1.00  0.00    -0.040 NA
HETATM   20  O4  UNL     1      16.001 -16.889   3.860  1.00  0.00    -0.251 OA
ATOM     21  H4  UNL     1      12.906 -16.165   3.388  1.00  0.00     0.171 HD
ENDBRANCH   9  17
TORSDOF 5
ENDMDL
MODEL 4
REMARK VINA RESULT: -5.450567173      2.707      3.963
REMARK  5 active torsions:
REMARK  status: ('A' for Active; 'I' for Inactive)
REMARK    1  A    between atoms: O1_2  and  C2_3 
REMARK    2  A    between atoms: C2_3  and  C3_5 
REMARK    3  A    between atoms: C3_5  and  S1_6 
REMARK    4  A    between atoms: S1_6  and  O3_7 
REMARK    5  A    between atoms: C6_16  and  N4_17 
REMARK       I    between atoms: N4_17  and  C7_19 
ROOT
HETATM    1  C3  UNL     1      14.180 -15.698   5.201  1.00  0.00     0.211 C 
HETATM    2  C4  UNL     1      13.589 -14.280   5.132  1.00  0.00     0.105 C 
HETATM    3  N1  UNL     1      12.205 -14.162   5.223  1.00  0.00    -0.342 N 
ATOM      4  H1  UNL     1      11.771 -13.296   4.904  1.00  0.00     0.167 HD
HETATM    5  C5  UNL     1      11.457 -15.077   5.681  1.00  0.00     0.193 C 
HETATM    6  N2  UNL     1      10.028 -14.867   5.756  1.00  0.00    -0.063 NA
HETATM    7  N3  UNL     1      12.015 -16.313   5.960  1.00  0.00    -0.318 N 
ATOM      8  H3  UNL     1      11.393 -17.022   6.347  1.00  0.00     0.170 HD
HETATM    9  C6  UNL     1      13.292 -16.669   5.772  1.00  0.00     0.124 C 
ENDROOT
BRANCH   1  10
HETATM   10  C2  UNL     1      15.447 -15.595   5.962  1.00  0.00     0.292 C 
HETATM   11  O2  UNL     1      16.472 -15.164   5.363  1.00  0.00    -0.262 OA
BRANCH  10  12
HETATM   12  O1  UNL     1      15.538 -15.952   7.307  1.00  0.00    -0.325 OA
HETATM   13  C1  UNL     1      16.834 -16.182   7.825  1.00  0.00     0.213 C 
ENDBRANCH  10  12
ENDBRANCH   1  10
BRANCH   1  14
HETATM   14  S1  UNL     1      14.594 -16.017   3.455  1.00  0.00     0.019 SA
BRANCH  14  15
HETATM   15  O3  UNL     1      15.944 -16.892   3.119  1.00  0.00    -0.328 OA
ATOM     16  H3  UNL     1      15.844 -17.810   2.896  1.00  0.00     0.227 HD
ENDBRANCH  14  15
ENDBRANCH   1  14
BRANCH   9  17
HETATM   17  N4  UNL     1      13.526 -17.971   6.204  1.00  0.00    -0.298 N 
HETATM   18  C7  UNL     1      14.509 -18.903   5.939  1.00  0.00     0.334 C 
HETATM   19  N5  UNL     1      14.373 -20.201   6.618  1.00  0.00    -0.040 NA
HETATM   20  O4  UNL     1      15.526 -18.890   5.225  1.00  0.00    -0.251 OA
ATOM     21  H4  UNL     1      12.821 -18.308   6.858  1.00  0.00     0.171 HD
ENDBRANCH   9  17
TORSDOF 5
ENDMDL
MODEL 5
REMARK VINA RESULT: -5.391483856      2.540      3.874
REMARK  5 active torsions:
REMARK  status: ('A' for Active; 'I' for Inactive)
REMARK    1  A    between atoms: O1_2  and  C2_3 
REMARK    2  A    between atoms: C2_3  and  C3_5 
REMARK    3  A    between atoms: C3_5  and  S1_6 
REMARK    4  A    between atoms: S1_6  and  O3_7 
REMARK    5  A    between atoms: C6_16  and  N4_17 
REMARK       I    between atoms: N4_17  and  C7_19 
ROOT
HETATM    1  C3  UNL     1      14.273 -16.218   4.798  1.00  0.00     0.211 C 
HETATM    2  C4  UNL     1      13.311 -15.022   4.895  1.00  0.00     0.105 C 
HETATM    3  N1  UNL     1      11.947 -15.299   4.874  1.00  0.00    -0.342 N 
ATOM      4  H1  UNL     1      11.303 -14.540   4.655  1.00  0.00     0.167 HD
HETATM    5  C5  UNL     1      11.466 -16.447   5.114  1.00  0.00     0.193 C 
HETATM    6  N2  UNL     1      10.034 -16.645   5.089  1.00  0.00    -0.063 NA
HETATM    7  N3  UNL     1      12.335 -17.516   5.249  1.00  0.00    -0.318 N 
ATOM      8  H3  UNL     1      11.920 -18.422   5.462  1.00  0.00     0.170 HD
HETATM    9  C6  UNL     1      13.668 -17.477   5.127  1.00  0.00     0.124 C 
ENDROOT
BRANCH   1  10
HETATM   10  C2  UNL     1      15.424 -15.912   5.680  1.00  0.00     0.292 C 
HETATM   11  O2  UNL     1      16.327 -15.146   5.242  1.00  0.00    -0.262 OA
BRANCH  10  12
HETATM   12  O1  UNL     1      15.534 -16.437   6.967  1.00  0.00    -0.325 OA
HETATM   13  C1  UNL     1      16.821 -16.434   7.554  1.00  0.00     0.213 C 
ENDBRANCH  10  12
ENDBRANCH   1  10
BRANCH   1  14
HETATM   14  S1  UNL     1      14.840 -16.105   3.070  1.00  0.00     0.019 SA
BRANCH  14  15
HETATM   15  O3  UNL     1      15.234 -14.626   2.472  1.00  0.00    -0.328 OA
ATOM     16  H3  UNL     1      14.532 -14.043   2.206  1.00  0.00     0.227 HD
ENDBRANCH  14  15
ENDBRANCH   1  14
BRANCH   9  17
HETATM   17  N4  UNL     1      14.239 -18.722   5.373  1.00  0.00    -0.298 N 
HETATM   18  C7  UNL     1      13.762 -19.903   5.905  1.00  0.00     0.334 C 
HETATM   19  N5  UNL     1      14.727 -21.008   6.000  1.00  0.00    -0.040 NA
HETATM   20  O4  UNL     1      12.653 -20.255   6.341  1.00  0.00    -0.251 OA
ATOM     21  H4  UNL     1      15.220 -18.773   5.101  1.00  0.00     0.171 HD
ENDBRANCH   9  17
TORSDOF 5
ENDMDL
