MODEL 1
REMARK VINA RESULT: -6.394441907      0.000      0.000
REMARK  5 active torsions:
REMARK  status: ('A' for Active; 'I' for Inactive)
REMARK    1  A    between atoms: C2_2  and  N1_3 
REMARK    2  A    between atoms: C2_2  and  C3_6 
REMARK    3  A    between atoms: C4_7  and  O1_8 
REMARK    4  A    between atoms: C5_12  and  N3_13 
REMARK    5  A    between atoms: N3_13  and  C6_15 
ROOT
HETATM    1  C3  UNL     1      13.629 -19.027   0.750  1.00  0.00     0.105 A 
HETATM    2  C4  UNL     1      13.938 -19.838  -0.311  1.00  0.00     0.173 A 
HETATM    3  N2  UNL     1      14.927 -19.549  -1.184  1.00  0.00    -0.169 N 
ATOM      4  H2  UNL     1      15.120 -20.184  -1.959  1.00  0.00     0.186 HD
HETATM    5  C5  UNL     1      15.654 -18.437  -1.041  1.00  0.00     0.691 A 
HETATM    6  N7  UNL     1      15.400 -17.609  -0.029  1.00  0.00    -0.151 N 
HETATM    7  C7  UNL     1      16.217 -16.402   0.095  1.00  0.00     0.179 C 
HETATM    8  C8  UNL     1      14.409 -17.878   0.864  1.00  0.00     0.278 A 
HETATM    9  O2  UNL     1      14.223 -17.070   1.781  1.00  0.00    -0.266 OA
ENDROOT
BRANCH   5  10
HETATM   10  N3  UNL     1      16.589 -18.217  -1.913  1.00  0.00    -0.167 N 
ATOM     11  H3  UNL     1      16.408 -17.566  -2.677  1.00  0.00     0.186 HD
BRANCH  10  12
HETATM   12  C6  UNL     1      17.859 -18.853  -1.839  1.00  0.00     0.193 C 
HETATM   13  N4  UNL     1      18.433 -19.669  -2.618  1.00  0.00    -0.266 N 
HETATM   14  N5  UNL     1      19.662 -20.133  -2.313  1.00  0.00    -0.233 N 
ATOM     15  H4  UNL     1      17.969 -19.974  -3.472  1.00  0.00     0.190 HD
HETATM   16  N6  UNL     1      20.055 -20.030  -0.976  1.00  0.00    -0.043 NA
ATOM     17  H5  UNL     1      20.273 -20.539  -3.022  1.00  0.00     0.204 HD
HETATM   18  S1  UNL     1      19.041 -18.630  -0.500  1.00  0.00     0.040 SA
ENDBRANCH  10  12
ENDBRANCH   5  10
BRANCH   2  19
HETATM   19  O1  UNL     1      13.222 -21.008  -0.517  1.00  0.00    -0.345 OA
ATOM     20  H1  UNL     1      12.370 -20.974  -0.936  1.00  0.00     0.219 HD
ENDBRANCH   2  19
BRANCH   1  21
HETATM   21  C2  UNL     1      12.567 -19.323   1.699  1.00  0.00     0.019 C 
HETATM   22  C1  UNL     1      12.805 -20.400   2.720  1.00  0.00     0.068 C 
BRANCH  21  23
HETATM   23  N1  UNL     1      11.464 -18.737   1.716  1.00  0.00    -0.402 N 
ATOM     24  H12 UNL     1      10.566 -19.216   1.789  1.00  0.00     0.156 HD
ATOM     25  H11 UNL     1      11.464 -17.719   1.654  1.00  0.00     0.156 HD
ENDBRANCH  21  23
ENDBRANCH   1  21
TORSDOF 5
ENDMDL
MODEL 2
REMARK VINA RESULT: -6.388890006      2.144      3.342
REMARK  5 active torsions:
REMARK  status: ('A' for Active; 'I' for Inactive)
REMARK    1  A    between atoms: C2_2  and  N1_3 
REMARK    2  A    between atoms: C2_2  and  C3_6 
REMARK    3  A    between atoms: C4_7  and  O1_8 
REMARK    4  A    between atoms: C5_12  and  N3_13 
REMARK    5  A    between atoms: N3_13  and  C6_15 
ROOT
HETATM    1  C3  UNL     1      14.263 -16.868   2.470  1.00  0.00     0.105 A 
HETATM    2  C4  UNL     1      14.966 -16.301   1.440  1.00  0.00     0.173 A 
HETATM    3  N2  UNL     1      15.098 -16.896   0.235  1.00  0.00    -0.169 N 
ATOM      4  H2  UNL     1      15.632 -16.434  -0.503  1.00  0.00     0.186 HD
HETATM    5  C5  UNL     1      14.536 -18.084   0.001  1.00  0.00     0.691 A 
HETATM    6  N7  UNL     1      13.840 -18.686   0.964  1.00  0.00    -0.151 N 
HETATM    7  C7  UNL     1      13.238 -19.987   0.671  1.00  0.00     0.179 C 
HETATM    8  C8  UNL     1      13.693 -18.106   2.187  1.00  0.00     0.278 A 
HETATM    9  O2  UNL     1      13.035 -18.715   3.039  1.00  0.00    -0.266 OA
ENDROOT
BRANCH   5  10
HETATM   10  N3  UNL     1      14.700 -18.602  -1.177  1.00  0.00    -0.167 N 
ATOM     11  H3  UNL     1      13.876 -18.832  -1.734  1.00  0.00     0.186 HD
BRANCH  10  12
HETATM   12  C6  UNL     1      15.989 -18.862  -1.718  1.00  0.00     0.193 C 
HETATM   13  N4  UNL     1      16.359 -19.171  -2.889  1.00  0.00    -0.266 N 
HETATM   14  N5  UNL     1      17.668 -19.367  -3.146  1.00  0.00    -0.233 N 
ATOM     15  H4  UNL     1      15.670 -19.273  -3.633  1.00  0.00     0.190 HD
HETATM   16  N6  UNL     1      18.489 -19.635  -2.048  1.00  0.00    -0.043 NA
ATOM     17  H5  UNL     1      18.040 -19.323  -4.096  1.00  0.00     0.204 HD
HETATM   18  S1  UNL     1      17.523 -18.812  -0.780  1.00  0.00     0.040 SA
ENDBRANCH  10  12
ENDBRANCH   5  10
BRANCH   2  19
HETATM   19  O1  UNL     1      15.575 -15.066   1.615  1.00  0.00    -0.345 OA
ATOM     20  H1  UNL     1      15.649 -14.695   2.487  1.00  0.00     0.219 HD
ENDBRANCH   2  19
BRANCH   1  21
HETATM   21  C2  UNL     1      14.112 -16.240   3.774  1.00  0.00     0.019 C 
HETATM   22  C1  UNL     1      15.250 -16.343   4.750  1.00  0.00     0.068 C 
BRANCH  21  23
HETATM   23  N1  UNL     1      13.088 -15.620   4.135  1.00  0.00    -0.402 N 
ATOM     24  H12 UNL     1      12.558 -15.840   4.978  1.00  0.00     0.156 HD
ATOM     25  H11 UNL     1      12.768 -14.848   3.550  1.00  0.00     0.156 HD
ENDBRANCH  21  23
ENDBRANCH   1  21
TORSDOF 5
ENDMDL
MODEL 3
REMARK VINA RESULT: -6.225232974      7.931      8.862
REMARK  5 active torsions:
REMARK  status: ('A' for Active; 'I' for Inactive)
REMARK    1  A    between atoms: C2_2  and  N1_3 
REMARK    2  A    between atoms: C2_2  and  C3_6 
REMARK    3  A    between atoms: C4_7  and  O1_8 
REMARK    4  A    between atoms: C5_12  and  N3_13 
REMARK    5  A    between atoms: N3_13  and  C6_15 
ROOT
HETATM    1  C3  UNL     1      14.846 -13.511   5.884  1.00  0.00     0.105 A 
HETATM    2  C4  UNL     1      15.983 -14.125   5.426  1.00  0.00     0.173 A 
HETATM    3  N2  UNL     1      17.190 -13.519   5.432  1.00  0.00    -0.169 N 
ATOM      4  H2  UNL     1      18.008 -14.017   5.080  1.00  0.00     0.186 HD
HETATM    5  C5  UNL     1      17.320 -12.274   5.895  1.00  0.00     0.691 A 
HETATM    6  N7  UNL     1      16.251 -11.625   6.354  1.00  0.00    -0.151 N 
HETATM    7  C7  UNL     1      16.433 -10.261   6.853  1.00  0.00     0.179 C 
HETATM    8  C8  UNL     1      15.024 -12.213   6.357  1.00  0.00     0.278 A 
HETATM    9  O2  UNL     1      14.071 -11.558   6.797  1.00  0.00    -0.266 OA
ENDROOT
BRANCH   5  10
HETATM   10  N3  UNL     1      18.506 -11.748   5.874  1.00  0.00    -0.167 N 
ATOM     11  H3  UNL     1      19.024 -11.663   6.749  1.00  0.00     0.186 HD
BRANCH  10  12
HETATM   12  C6  UNL     1      19.109 -11.287   4.672  1.00  0.00     0.193 C 
HETATM   13  N4  UNL     1      19.666 -11.911   3.721  1.00  0.00    -0.266 N 
HETATM   14  N5  UNL     1      20.169 -11.226   2.675  1.00  0.00    -0.233 N 
ATOM     15  H4  UNL     1      19.735 -12.928   3.748  1.00  0.00     0.190 HD
HETATM   16  N6  UNL     1      20.429  -9.869   2.882  1.00  0.00    -0.043 NA
ATOM     17  H5  UNL     1      20.350 -11.676   1.776  1.00  0.00     0.204 HD
HETATM   18  S1  UNL     1      19.237  -9.559   4.186  1.00  0.00     0.040 SA
ENDBRANCH  10  12
ENDBRANCH   5  10
BRANCH   2  19
HETATM   19  O1  UNL     1      15.917 -15.420   4.932  1.00  0.00    -0.345 OA
ATOM     20  H1  UNL     1      16.676 -15.988   4.994  1.00  0.00     0.219 HD
ENDBRANCH   2  19
BRANCH   1  21
HETATM   21  C2  UNL     1      13.538 -14.149   5.884  1.00  0.00     0.019 C 
HETATM   22  C1  UNL     1      13.120 -14.915   7.108  1.00  0.00     0.068 C 
BRANCH  21  23
HETATM   23  N1  UNL     1      12.739 -14.100   4.925  1.00  0.00    -0.402 N 
ATOM     24  H12 UNL     1      11.725 -14.148   5.026  1.00  0.00     0.156 HD
ATOM     25  H11 UNL     1      13.127 -14.007   3.986  1.00  0.00     0.156 HD
ENDBRANCH  21  23
ENDBRANCH   1  21
TORSDOF 5
ENDMDL
MODEL 4
REMARK VINA RESULT: -6.180206126     11.628     13.635
REMARK  5 active torsions:
REMARK  status: ('A' for Active; 'I' for Inactive)
REMARK    1  A    between atoms: C2_2  and  N1_3 
REMARK    2  A    between atoms: C2_2  and  C3_6 
REMARK    3  A    between atoms: C4_7  and  O1_8 
REMARK    4  A    between atoms: C5_12  and  N3_13 
REMARK    5  A    between atoms: N3_13  and  C6_15 
ROOT
HETATM    1  C3  UNL     1      18.504 -10.192   5.382  1.00  0.00     0.105 A 
HETATM    2  C4  UNL     1      19.177  -9.041   5.062  1.00  0.00     0.173 A 
HETATM    3  N2  UNL     1      18.869  -7.843   5.603  1.00  0.00    -0.169 N 
ATOM      4  H2  UNL     1      19.398  -7.014   5.332  1.00  0.00     0.186 HD
HETATM    5  C5  UNL     1      17.876  -7.736   6.490  1.00  0.00     0.691 A 
HETATM    6  N7  UNL     1      17.186  -8.819   6.842  1.00  0.00    -0.151 N 
HETATM    7  C7  UNL     1      16.105  -8.662   7.816  1.00  0.00     0.179 C 
HETATM    8  C8  UNL     1      17.476 -10.037   6.310  1.00  0.00     0.278 A 
HETATM    9  O2  UNL     1      16.799 -11.004   6.677  1.00  0.00    -0.266 OA
ENDROOT
BRANCH   5  10
HETATM   10  N3  UNL     1      17.630  -6.557   6.973  1.00  0.00    -0.167 N 
ATOM     11  H3  UNL     1      16.666  -6.305   7.192  1.00  0.00     0.186 HD
BRANCH  10  12
HETATM   12  C6  UNL     1      18.660  -5.604   7.208  1.00  0.00     0.193 C 
HETATM   13  N4  UNL     1      18.928  -4.505   6.641  1.00  0.00    -0.266 N 
HETATM   14  N5  UNL     1      19.982  -3.775   7.061  1.00  0.00    -0.233 N 
ATOM     15  H4  UNL     1      18.350  -4.172   5.870  1.00  0.00     0.190 HD
HETATM   16  N6  UNL     1      20.958  -4.452   7.796  1.00  0.00    -0.043 NA
ATOM     17  H5  UNL     1      20.061  -2.779   6.853  1.00  0.00     0.204 HD
HETATM   18  S1  UNL     1      19.933  -5.761   8.470  1.00  0.00     0.040 SA
ENDBRANCH  10  12
ENDBRANCH   5  10
BRANCH   2  19
HETATM   19  O1  UNL     1      20.220  -9.083   4.147  1.00  0.00    -0.345 OA
ATOM     20  H1  UNL     1      20.956  -9.663   4.296  1.00  0.00     0.219 HD
ENDBRANCH   2  19
BRANCH   1  21
HETATM   21  C2  UNL     1      18.823 -11.490   4.808  1.00  0.00     0.019 C 
HETATM   22  C1  UNL     1      18.560 -11.704   3.343  1.00  0.00     0.068 C 
BRANCH  21  23
HETATM   23  N1  UNL     1      19.302 -12.442   5.460  1.00  0.00    -0.402 N 
ATOM     24  H12 UNL     1      19.993 -13.095   5.090  1.00  0.00     0.156 HD
ATOM     25  H11 UNL     1      18.981 -12.571   6.420  1.00  0.00     0.156 HD
ENDBRANCH  21  23
ENDBRANCH   1  21
TORSDOF 5
ENDMDL
MODEL 5
REMARK VINA RESULT: -5.918824547      9.543     11.715
REMARK  5 active torsions:
REMARK  status: ('A' for Active; 'I' for Inactive)
REMARK    1  A    between atoms: C2_2  and  N1_3 
REMARK    2  A    between atoms: C2_2  and  C3_6 
REMARK    3  A    between atoms: C4_7  and  O1_8 
REMARK    4  A    between atoms: C5_12  and  N3_13 
REMARK    5  A    between atoms: N3_13  and  C6_15 
ROOT
HETATM    1  C3  UNL     1      18.000  -8.599   6.011  1.00  0.00     0.105 A 
HETATM    2  C4  UNL     1      17.062  -9.362   6.657  1.00  0.00     0.173 A 
HETATM    3  N2  UNL     1      16.942 -10.692   6.458  1.00  0.00    -0.169 N 
ATOM      4  H2  UNL     1      16.228 -11.217   6.963  1.00  0.00     0.186 HD
HETATM    5  C5  UNL     1      17.753 -11.325   5.606  1.00  0.00     0.691 A 
HETATM    6  N7  UNL     1      18.685 -10.638   4.948  1.00  0.00    -0.151 N 
HETATM    7  C7  UNL     1      19.554 -11.366   4.022  1.00  0.00     0.179 C 
HETATM    8  C8  UNL     1      18.824  -9.296   5.130  1.00  0.00     0.278 A 
HETATM    9  O2  UNL     1      19.709  -8.716   4.490  1.00  0.00    -0.266 OA
ENDROOT
BRANCH   5  10
HETATM   10  N3  UNL     1      17.587 -12.604   5.460  1.00  0.00    -0.167 N 
ATOM     11  H3  UNL     1      18.076 -13.081   4.702  1.00  0.00     0.186 HD
BRANCH  10  12
HETATM   12  C6  UNL     1      16.747 -13.362   6.321  1.00  0.00     0.193 C 
HETATM   13  N4  UNL     1      16.971 -13.912   7.439  1.00  0.00    -0.266 N 
HETATM   14  N5  UNL     1      15.985 -14.587   8.062  1.00  0.00    -0.233 N 
ATOM     15  H4  UNL     1      17.895 -13.845   7.866  1.00  0.00     0.190 HD
HETATM   16  N6  UNL     1      14.913 -15.003   7.269  1.00  0.00    -0.043 NA
ATOM     17  H5  UNL     1      16.019 -14.783   9.063  1.00  0.00     0.204 HD
HETATM   18  S1  UNL     1      15.023 -13.755   5.986  1.00  0.00     0.040 SA
ENDBRANCH  10  12
ENDBRANCH   5  10
BRANCH   2  19
HETATM   19  O1  UNL     1      16.189  -8.767   7.556  1.00  0.00    -0.345 OA
ATOM     20  H1  UNL     1      15.321  -9.132   7.685  1.00  0.00     0.219 HD
ENDBRANCH   2  19
BRANCH   1  21
HETATM   21  C2  UNL     1      18.141  -7.166   6.213  1.00  0.00     0.019 C 
HETATM   22  C1  UNL     1      18.981  -6.689   7.365  1.00  0.00     0.068 C 
BRANCH  21  23
HETATM   23  N1  UNL     1      17.604  -6.303   5.486  1.00  0.00    -0.402 N 
ATOM     24  H12 UNL     1      17.242  -6.492   4.551  1.00  0.00     0.156 HD
ATOM     25  H11 UNL     1      17.524  -5.354   5.852  1.00  0.00     0.156 HD
ENDBRANCH  21  23
ENDBRANCH   1  21
TORSDOF 5
ENDMDL
