MODEL 1
REMARK VINA RESULT: -7.829680924      0.000      0.000
REMARK  8 active torsions:
REMARK  status: ('A' for Active; 'I' for Inactive)
REMARK    1  A    between atoms: C2_2  and  O1_3 
REMARK    2  A    between atoms: O1_3  and  C3_4 
REMARK    3  A    between atoms: C3_4  and  C4_6 
REMARK    4  A    between atoms: N1_12  and  C10_13 
REMARK    5  A    between atoms: C10_13  and  C11_14 
REMARK    6  A    between atoms: C13_18  and  C14_19 
REMARK    7  A    between atoms: C18_25  and  C19_26 
REMARK    8  A    between atoms: C19_26  and  C20_27 
REMARK       I    between atoms: C20_27  and  N4_29 
ROOT
HETATM    1  C4  UNL     1     -10.748   1.693  22.476  1.00  0.00     0.090 C 
HETATM    2  C5  UNL     1      -9.949   2.630  21.612  1.00  0.00     0.027 C 
HETATM    3  C6  UNL     1      -9.651   3.949  22.231  1.00  0.00     0.005 C 
HETATM    4  C7  UNL     1      -9.457   3.945  23.707  1.00  0.00     0.029 C 
HETATM    5  C8  UNL     1      -9.607   2.640  24.348  1.00  0.00    -0.001 C 
HETATM    6  C9  UNL     1     -10.189   1.581  23.827  1.00  0.00     0.023 C 
HETATM    7  N1  UNL     1     -10.232   0.397  24.611  1.00  0.00    -0.359 N 
HETATM    8  C16 UNL     1     -10.499  -0.856  23.902  1.00  0.00     0.196 C 
HETATM    9  C17 UNL     1      -9.777  -1.932  24.550  1.00  0.00     0.085 C 
HETATM   10  N3  UNL     1      -9.211  -2.806  25.066  1.00  0.00    -0.195 NA
HETATM   11  C18 UNL     1     -10.016  -0.698  22.502  1.00  0.00     0.033 C 
HETATM   12  C26 UNL     1     -10.781   0.360  21.738  1.00  0.00     0.034 C 
ENDROOT
BRANCH   7  13
HETATM   13  C10 UNL     1     -10.024   0.452  26.010  1.00  0.00     0.189 C 
BRANCH  13  14
HETATM   14  C11 UNL     1     -11.262   0.755  26.771  1.00  0.00     0.069 A 
HETATM   15  N2  UNL     1     -12.094   1.779  26.743  1.00  0.00    -0.361 N 
HETATM   16  C12 UNL     1     -13.124   1.803  27.527  1.00  0.00     0.103 A 
ATOM     17  H2  UNL     1     -11.925   2.555  26.103  1.00  0.00     0.165 HD
HETATM   18  C13 UNL     1     -13.303   0.730  28.371  1.00  0.00    -0.001 A 
HETATM   19  S1  UNL     1     -11.956  -0.243  27.967  1.00  0.00    -0.078 SA
BRANCH  18  20
HETATM   20  C14 UNL     1     -14.414   0.524  29.370  1.00  0.00     0.043 C 
HETATM   21  C15 UNL     1     -15.503   1.505  29.044  1.00  0.00     0.010 C 
ENDBRANCH  18  20
ENDBRANCH  13  14
ENDBRANCH   7  13
BRANCH  11  22
HETATM   22  C19 UNL     1      -9.861  -1.941  21.713  1.00  0.00     0.110 C 
BRANCH  22  23
HETATM   23  C20 UNL     1      -8.947  -1.882  20.578  1.00  0.00     0.220 C 
HETATM   24  O3  UNL     1      -9.323  -1.363  19.499  1.00  0.00    -0.273 OA
HETATM   25  N4  UNL     1      -7.625  -2.393  20.637  1.00  0.00    -0.352 N 
HETATM   26  C21 UNL     1      -7.142  -3.004  21.860  1.00  0.00     0.125 C 
HETATM   27  C25 UNL     1      -6.700  -2.345  19.524  1.00  0.00     0.125 C 
HETATM   28  C22 UNL     1      -5.676  -3.367  21.755  1.00  0.00     0.020 C 
HETATM   29  C23 UNL     1      -5.326  -4.105  20.508  1.00  0.00     0.003 C 
HETATM   30  C24 UNL     1      -6.194  -3.758  19.319  1.00  0.00     0.020 C 
ENDBRANCH  22  23
ENDBRANCH  11  22
BRANCH   1  31
HETATM   31  C3  UNL     1     -12.138   2.212  22.530  1.00  0.00     0.273 C 
HETATM   32  O2  UNL     1     -12.726   2.646  21.478  1.00  0.00    -0.264 OA
BRANCH  31  33
HETATM   33  O1  UNL     1     -12.896   2.271  23.685  1.00  0.00    -0.321 OA
BRANCH  33  34
HETATM   34  C2  UNL     1     -13.841   3.276  23.928  1.00  0.00     0.174 C 
HETATM   35  C1  UNL     1     -13.118   4.496  24.450  1.00  0.00     0.034 C 
ENDBRANCH  33  34
ENDBRANCH  31  33
ENDBRANCH   1  31
TORSDOF 8
ENDMDL
MODEL 2
REMARK VINA RESULT: -7.760546906      7.222     10.674
REMARK  8 active torsions:
REMARK  status: ('A' for Active; 'I' for Inactive)
REMARK    1  A    between atoms: C2_2  and  O1_3 
REMARK    2  A    between atoms: O1_3  and  C3_4 
REMARK    3  A    between atoms: C3_4  and  C4_6 
REMARK    4  A    between atoms: N1_12  and  C10_13 
REMARK    5  A    between atoms: C10_13  and  C11_14 
REMARK    6  A    between atoms: C13_18  and  C14_19 
REMARK    7  A    between atoms: C18_25  and  C19_26 
REMARK    8  A    between atoms: C19_26  and  C20_27 
REMARK       I    between atoms: C20_27  and  N4_29 
ROOT
HETATM    1  C4  UNL     1      -6.430  -6.182  24.568  1.00  0.00     0.090 C 
HETATM    2  C5  UNL     1      -7.589  -5.465  25.204  1.00  0.00     0.027 C 
HETATM    3  C6  UNL     1      -7.934  -5.929  26.574  1.00  0.00     0.005 C 
HETATM    4  C7  UNL     1      -6.792  -6.392  27.410  1.00  0.00     0.029 C 
HETATM    5  C8  UNL     1      -5.485  -6.345  26.756  1.00  0.00    -0.001 C 
HETATM    6  C9  UNL     1      -5.268  -6.250  25.461  1.00  0.00     0.023 C 
HETATM    7  N1  UNL     1      -3.919  -6.215  25.017  1.00  0.00    -0.359 N 
HETATM    8  C16 UNL     1      -3.682  -5.710  23.664  1.00  0.00     0.196 C 
HETATM    9  C17 UNL     1      -2.412  -5.012  23.634  1.00  0.00     0.085 C 
HETATM   10  N3  UNL     1      -1.391  -4.459  23.593  1.00  0.00    -0.195 NA
HETATM   11  C18 UNL     1      -4.783  -4.763  23.332  1.00  0.00     0.033 C 
HETATM   12  C26 UNL     1      -6.134  -5.441  23.270  1.00  0.00     0.034 C 
ENDROOT
BRANCH   7  13
HETATM   13  C10 UNL     1      -2.873  -6.655  25.862  1.00  0.00     0.189 C 
BRANCH  13  14
HETATM   14  C11 UNL     1      -2.584  -8.104  25.725  1.00  0.00     0.069 A 
HETATM   15  N2  UNL     1      -3.300  -9.114  25.269  1.00  0.00    -0.361 N 
HETATM   16  C12 UNL     1      -2.806 -10.310  25.257  1.00  0.00     0.103 A 
ATOM     17  H2  UNL     1      -4.246  -8.952  24.925  1.00  0.00     0.165 HD
HETATM   18  C13 UNL     1      -1.524 -10.472  25.733  1.00  0.00    -0.001 A 
HETATM   19  S1  UNL     1      -1.124  -8.867  26.169  1.00  0.00    -0.078 SA
BRANCH  18  20
HETATM   20  C14 UNL     1      -0.734 -11.753  25.824  1.00  0.00     0.043 C 
HETATM   21  C15 UNL     1      -1.494 -12.808  25.073  1.00  0.00     0.010 C 
ENDBRANCH  18  20
ENDBRANCH  13  14
ENDBRANCH   7  13
BRANCH  11  22
HETATM   22  C19 UNL     1      -4.560  -3.873  22.170  1.00  0.00     0.110 C 
BRANCH  22  23
HETATM   23  C20 UNL     1      -4.928  -4.405  20.863  1.00  0.00     0.220 C 
HETATM   24  O3  UNL     1      -4.324  -5.404  20.402  1.00  0.00    -0.273 OA
HETATM   25  N4  UNL     1      -5.958  -3.834  20.071  1.00  0.00    -0.352 N 
HETATM   26  C21 UNL     1      -6.685  -2.677  20.557  1.00  0.00     0.125 C 
HETATM   27  C25 UNL     1      -6.341  -4.345  18.771  1.00  0.00     0.125 C 
HETATM   28  C22 UNL     1      -7.818  -2.305  19.626  1.00  0.00     0.020 C 
HETATM   29  C23 UNL     1      -7.420  -2.235  18.190  1.00  0.00     0.003 C 
HETATM   30  C24 UNL     1      -6.295  -3.172  17.813  1.00  0.00     0.020 C 
ENDBRANCH  22  23
ENDBRANCH  11  22
BRANCH   1  31
HETATM   31  C3  UNL     1      -6.892  -7.548  24.211  1.00  0.00     0.273 C 
HETATM   32  O2  UNL     1      -6.058  -8.474  23.919  1.00  0.00    -0.264 OA
BRANCH  31  33
HETATM   33  O1  UNL     1      -8.221  -7.926  24.166  1.00  0.00    -0.321 OA
BRANCH  33  34
HETATM   34  C2  UNL     1      -8.686  -9.144  24.680  1.00  0.00     0.174 C 
HETATM   35  C1  UNL     1      -9.791  -8.854  25.669  1.00  0.00     0.034 C 
ENDBRANCH  33  34
ENDBRANCH  31  33
ENDBRANCH   1  31
TORSDOF 8
ENDMDL
MODEL 3
REMARK VINA RESULT: -7.636864792      0.741      1.301
REMARK  8 active torsions:
REMARK  status: ('A' for Active; 'I' for Inactive)
REMARK    1  A    between atoms: C2_2  and  O1_3 
REMARK    2  A    between atoms: O1_3  and  C3_4 
REMARK    3  A    between atoms: C3_4  and  C4_6 
REMARK    4  A    between atoms: N1_12  and  C10_13 
REMARK    5  A    between atoms: C10_13  and  C11_14 
REMARK    6  A    between atoms: C13_18  and  C14_19 
REMARK    7  A    between atoms: C18_25  and  C19_26 
REMARK    8  A    between atoms: C19_26  and  C20_27 
REMARK       I    between atoms: C20_27  and  N4_29 
ROOT
HETATM    1  C4  UNL     1     -10.734   1.677  22.458  1.00  0.00     0.090 C 
HETATM    2  C5  UNL     1      -9.950   2.594  21.559  1.00  0.00     0.027 C 
HETATM    3  C6  UNL     1      -9.684   3.944  22.124  1.00  0.00     0.005 C 
HETATM    4  C7  UNL     1      -9.500   4.007  23.599  1.00  0.00     0.029 C 
HETATM    5  C8  UNL     1      -9.626   2.727  24.295  1.00  0.00    -0.001 C 
HETATM    6  C9  UNL     1     -10.182   1.634  23.816  1.00  0.00     0.023 C 
HETATM    7  N1  UNL     1     -10.204   0.484  24.649  1.00  0.00    -0.359 N 
HETATM    8  C16 UNL     1     -10.440  -0.803  23.992  1.00  0.00     0.196 C 
HETATM    9  C17 UNL     1      -9.699  -1.835  24.688  1.00  0.00     0.085 C 
HETATM   10  N3  UNL     1      -9.118  -2.674  25.244  1.00  0.00    -0.195 NA
HETATM   11  C18 UNL     1      -9.952  -0.694  22.589  1.00  0.00     0.033 C 
HETATM   12  C26 UNL     1     -10.734   0.314  21.777  1.00  0.00     0.034 C 
ENDROOT
BRANCH   7  13
HETATM   13  C10 UNL     1     -10.007   0.603  26.045  1.00  0.00     0.189 C 
BRANCH  13  14
HETATM   14  C11 UNL     1     -11.255   0.912  26.786  1.00  0.00     0.069 A 
HETATM   15  N2  UNL     1     -12.148   1.876  26.660  1.00  0.00    -0.361 N 
HETATM   16  C12 UNL     1     -13.171   1.923  27.450  1.00  0.00     0.103 A 
ATOM     17  H2  UNL     1     -12.030   2.587  25.938  1.00  0.00     0.165 HD
HETATM   18  C13 UNL     1     -13.280   0.939  28.407  1.00  0.00    -0.001 A 
HETATM   19  S1  UNL     1     -11.879   0.009  28.092  1.00  0.00    -0.078 SA
BRANCH  18  20
HETATM   20  C14 UNL     1     -14.369   0.776  29.437  1.00  0.00     0.043 C 
HETATM   21  C15 UNL     1     -15.543   1.598  28.988  1.00  0.00     0.010 C 
ENDBRANCH  18  20
ENDBRANCH  13  14
ENDBRANCH   7  13
BRANCH  11  22
HETATM   22  C19 UNL     1      -9.765  -1.966  21.854  1.00  0.00     0.110 C 
BRANCH  22  23
HETATM   23  C20 UNL     1      -8.866  -1.928  20.707  1.00  0.00     0.220 C 
HETATM   24  O3  UNL     1      -9.258  -1.434  19.621  1.00  0.00    -0.273 OA
HETATM   25  N4  UNL     1      -7.542  -2.434  20.760  1.00  0.00    -0.352 N 
HETATM   26  C21 UNL     1      -7.040  -3.016  21.990  1.00  0.00     0.125 C 
HETATM   27  C25 UNL     1      -6.631  -2.407  19.634  1.00  0.00     0.125 C 
HETATM   28  C22 UNL     1      -5.575  -3.376  21.874  1.00  0.00     0.020 C 
HETATM   29  C23 UNL     1      -5.238  -4.140  20.638  1.00  0.00     0.003 C 
HETATM   30  C24 UNL     1      -6.122  -3.822  19.453  1.00  0.00     0.020 C 
ENDBRANCH  22  23
ENDBRANCH  11  22
BRANCH   1  31
HETATM   31  C3  UNL     1     -12.136   2.168  22.483  1.00  0.00     0.273 C 
HETATM   32  O2  UNL     1     -12.831   2.134  23.557  1.00  0.00    -0.264 OA
BRANCH  31  33
HETATM   33  O1  UNL     1     -12.791   2.689  21.382  1.00  0.00    -0.321 OA
BRANCH  33  34
HETATM   34  C2  UNL     1     -13.791   1.993  20.689  1.00  0.00     0.174 C 
HETATM   35  C1  UNL     1     -13.231   1.556  19.355  1.00  0.00     0.034 C 
ENDBRANCH  33  34
ENDBRANCH  31  33
ENDBRANCH   1  31
TORSDOF 8
ENDMDL
MODEL 4
REMARK VINA RESULT: -7.520055431      2.022      2.647
REMARK  8 active torsions:
REMARK  status: ('A' for Active; 'I' for Inactive)
REMARK    1  A    between atoms: C2_2  and  O1_3 
REMARK    2  A    between atoms: O1_3  and  C3_4 
REMARK    3  A    between atoms: C3_4  and  C4_6 
REMARK    4  A    between atoms: N1_12  and  C10_13 
REMARK    5  A    between atoms: C10_13  and  C11_14 
REMARK    6  A    between atoms: C13_18  and  C14_19 
REMARK    7  A    between atoms: C18_25  and  C19_26 
REMARK    8  A    between atoms: C19_26  and  C20_27 
REMARK       I    between atoms: C20_27  and  N4_29 
ROOT
HETATM    1  C4  UNL     1     -12.493   1.564  22.204  1.00  0.00     0.090 C 
HETATM    2  C5  UNL     1     -12.745   2.706  21.256  1.00  0.00     0.027 C 
HETATM    3  C6  UNL     1     -12.601   4.058  21.857  1.00  0.00     0.005 C 
HETATM    4  C7  UNL     1     -11.575   4.189  22.927  1.00  0.00     0.029 C 
HETATM    5  C8  UNL     1     -10.861   2.955  23.255  1.00  0.00    -0.001 C 
HETATM    6  C9  UNL     1     -11.240   1.733  22.947  1.00  0.00     0.023 C 
HETATM    7  N1  UNL     1     -10.404   0.659  23.353  1.00  0.00    -0.359 N 
HETATM    8  C16 UNL     1     -10.603  -0.624  22.678  1.00  0.00     0.196 C 
HETATM    9  C17 UNL     1      -9.328  -1.304  22.566  1.00  0.00     0.085 C 
HETATM   10  N3  UNL     1      -8.313  -1.865  22.479  1.00  0.00    -0.195 NA
HETATM   11  C18 UNL     1     -11.142  -0.344  21.318  1.00  0.00     0.033 C 
HETATM   12  C26 UNL     1     -12.511   0.298  21.356  1.00  0.00     0.034 C 
ENDROOT
BRANCH   7  13
HETATM   13  C10 UNL     1      -9.435   0.846  24.367  1.00  0.00     0.189 C 
BRANCH  13  14
HETATM   14  C11 UNL     1      -9.943   0.529  25.725  1.00  0.00     0.069 A 
HETATM   15  N2  UNL     1      -9.675   1.034  26.914  1.00  0.00    -0.361 N 
HETATM   16  C12 UNL     1     -10.268   0.571  27.967  1.00  0.00     0.103 A 
ATOM     17  H2  UNL     1      -8.998   1.792  27.004  1.00  0.00     0.165 HD
HETATM   18  C13 UNL     1     -11.172  -0.452  27.788  1.00  0.00    -0.001 A 
HETATM   19  S1  UNL     1     -11.097  -0.672  26.094  1.00  0.00    -0.078 SA
BRANCH  18  20
HETATM   20  C14 UNL     1     -11.983  -1.156  28.846  1.00  0.00     0.043 C 
HETATM   21  C15 UNL     1     -13.366  -0.571  28.820  1.00  0.00     0.010 C 
ENDBRANCH  18  20
ENDBRANCH  13  14
ENDBRANCH   7  13
BRANCH  11  22
HETATM   22  C19 UNL     1     -11.084  -1.456  20.342  1.00  0.00     0.110 C 
BRANCH  22  23
HETATM   23  C20 UNL     1     -10.817  -1.091  18.956  1.00  0.00     0.220 C 
HETATM   24  O3  UNL     1     -11.655  -0.410  18.315  1.00  0.00    -0.273 OA
HETATM   25  N4  UNL     1      -9.630  -1.479  18.281  1.00  0.00    -0.352 N 
HETATM   26  C21 UNL     1      -8.631  -2.268  18.975  1.00  0.00     0.125 C 
HETATM   27  C25 UNL     1      -9.343  -1.128  16.906  1.00  0.00     0.125 C 
HETATM   28  C22 UNL     1      -7.395  -2.465  18.126  1.00  0.00     0.020 C 
HETATM   29  C23 UNL     1      -7.685  -2.910  16.732  1.00  0.00     0.003 C 
HETATM   30  C24 UNL     1      -9.009  -2.420  16.189  1.00  0.00     0.020 C 
ENDBRANCH  22  23
ENDBRANCH  11  22
BRANCH   1  31
HETATM   31  C3  UNL     1     -13.647   1.498  23.138  1.00  0.00     0.273 C 
HETATM   32  O2  UNL     1     -14.850   1.459  22.703  1.00  0.00    -0.264 OA
BRANCH  31  33
HETATM   33  O1  UNL     1     -13.524   1.472  24.515  1.00  0.00    -0.321 OA
BRANCH  33  34
HETATM   34  C2  UNL     1     -13.978   2.509  25.341  1.00  0.00     0.174 C 
HETATM   35  C1  UNL     1     -13.041   2.625  26.521  1.00  0.00     0.034 C 
ENDBRANCH  33  34
ENDBRANCH  31  33
ENDBRANCH   1  31
TORSDOF 8
ENDMDL
MODEL 5
REMARK VINA RESULT: -7.449730982      2.680      3.435
REMARK  8 active torsions:
REMARK  status: ('A' for Active; 'I' for Inactive)
REMARK    1  A    between atoms: C2_2  and  O1_3 
REMARK    2  A    between atoms: O1_3  and  C3_4 
REMARK    3  A    between atoms: C3_4  and  C4_6 
REMARK    4  A    between atoms: N1_12  and  C10_13 
REMARK    5  A    between atoms: C10_13  and  C11_14 
REMARK    6  A    between atoms: C13_18  and  C14_19 
REMARK    7  A    between atoms: C18_25  and  C19_26 
REMARK    8  A    between atoms: C19_26  and  C20_27 
REMARK       I    between atoms: C20_27  and  N4_29 
ROOT
HETATM    1  C4  UNL     1     -10.520   0.830  21.980  1.00  0.00     0.090 C 
HETATM    2  C5  UNL     1      -9.995   2.188  21.600  1.00  0.00     0.027 C 
HETATM    3  C6  UNL     1     -10.116   3.223  22.661  1.00  0.00     0.005 C 
HETATM    4  C7  UNL     1      -9.984   2.737  24.062  1.00  0.00     0.029 C 
HETATM    5  C8  UNL     1      -9.773   1.296  24.201  1.00  0.00    -0.001 C 
HETATM    6  C9  UNL     1     -10.004   0.385  23.279  1.00  0.00     0.023 C 
HETATM    7  N1  UNL     1      -9.731  -0.970  23.606  1.00  0.00    -0.359 N 
HETATM    8  C16 UNL     1      -9.598  -1.905  22.488  1.00  0.00     0.196 C 
HETATM    9  C17 UNL     1      -8.619  -2.917  22.829  1.00  0.00     0.085 C 
HETATM   10  N3  UNL     1      -7.844  -3.742  23.095  1.00  0.00    -0.195 NA
HETATM   11  C18 UNL     1      -9.129  -1.134  21.303  1.00  0.00     0.033 C 
HETATM   12  C26 UNL     1     -10.138  -0.106  20.841  1.00  0.00     0.034 C 
ENDROOT
BRANCH   7  13
HETATM   13  C10 UNL     1      -9.601  -1.372  24.956  1.00  0.00     0.189 C 
BRANCH  13  14
HETATM   14  C11 UNL     1     -10.882  -1.825  25.555  1.00  0.00     0.069 A 
HETATM   15  N2  UNL     1     -12.102  -1.324  25.527  1.00  0.00    -0.361 N 
HETATM   16  C12 UNL     1     -13.067  -1.925  26.146  1.00  0.00     0.103 A 
ATOM     17  H2  UNL     1     -12.285  -0.460  25.017  1.00  0.00     0.165 HD
HETATM   18  C13 UNL     1     -12.763  -3.087  26.819  1.00  0.00    -0.001 A 
HETATM   19  S1  UNL     1     -11.087  -3.226  26.507  1.00  0.00    -0.078 SA
BRANCH  18  20
HETATM   20  C14 UNL     1     -13.702  -3.962  27.609  1.00  0.00     0.043 C 
HETATM   21  C15 UNL     1     -12.880  -5.038  28.258  1.00  0.00     0.010 C 
ENDBRANCH  18  20
ENDBRANCH  13  14
ENDBRANCH   7  13
BRANCH  11  22
HETATM   22  C19 UNL     1      -8.590  -1.923  20.172  1.00  0.00     0.110 C 
BRANCH  22  23
HETATM   23  C20 UNL     1      -9.392  -1.945  18.954  1.00  0.00     0.220 C 
HETATM   24  O3  UNL     1     -10.641  -1.842  19.025  1.00  0.00    -0.273 OA
HETATM   25  N4  UNL     1      -8.815  -2.080  17.665  1.00  0.00    -0.352 N 
HETATM   26  C21 UNL     1      -7.377  -2.204  17.527  1.00  0.00     0.125 C 
HETATM   27  C25 UNL     1      -9.590  -2.104  16.441  1.00  0.00     0.125 C 
HETATM   28  C22 UNL     1      -6.959  -2.209  16.073  1.00  0.00     0.020 C 
HETATM   29  C23 UNL     1      -7.750  -3.142  15.221  1.00  0.00     0.003 C 
HETATM   30  C24 UNL     1      -9.174  -3.350  15.688  1.00  0.00     0.020 C 
ENDBRANCH  22  23
ENDBRANCH  11  22
BRANCH   1  31
HETATM   31  C3  UNL     1     -12.003   0.918  22.013  1.00  0.00     0.273 C 
HETATM   32  O2  UNL     1     -12.670   0.488  23.018  1.00  0.00    -0.264 OA
BRANCH  31  33
HETATM   33  O1  UNL     1     -12.767   1.456  20.994  1.00  0.00    -0.321 OA
BRANCH  33  34
HETATM   34  C2  UNL     1     -14.005   0.927  20.607  1.00  0.00     0.174 C 
HETATM   35  C1  UNL     1     -13.758  -0.320  19.790  1.00  0.00     0.034 C 
ENDBRANCH  33  34
ENDBRANCH  31  33
ENDBRANCH   1  31
TORSDOF 8
ENDMDL
