MODEL 1
REMARK VINA RESULT: -8.269962241      0.000      0.000
REMARK  10 active torsions:
REMARK  status: ('A' for Active; 'I' for Inactive)
REMARK    1  A    between atoms: C2_2  and  C4_4 
REMARK    2  A    between atoms: C5_6  and  O2_7 
REMARK    3  A    between atoms: O2_7  and  C6_8 
REMARK    4  A    between atoms: C6_8  and  C7_10 
REMARK    5  A    between atoms: C8_11  and  C9_12 
REMARK    6  A    between atoms: C9_12  and  N1_13 
REMARK    7  A    between atoms: C20_25  and  O5_26 
REMARK    8  A    between atoms: C23_30  and  C24_31 
REMARK    9  A    between atoms: C24_31  and  C25_32 
REMARK   10  A    between atoms: C24_31  and  C27_34 
ROOT
HETATM    1  C4  UNL     1     -12.235   1.778  22.000  1.00  0.00     0.242 C 
HETATM    2  O1  UNL     1     -12.447   0.519  21.501  1.00  0.00    -0.314 OA
HETATM    3  C5  UNL     1     -11.249  -0.141  21.035  1.00  0.00     0.288 C 
HETATM    4  C15 UNL     1     -10.515  -0.272  22.271  1.00  0.00     0.060 C 
HETATM    5  C16 UNL     1     -11.450  -1.062  23.114  1.00  0.00     0.026 C 
HETATM    6  C17 UNL     1     -10.211   1.173  22.532  1.00  0.00     0.151 C 
HETATM    7  O4  UNL     1     -10.925   2.096  21.777  1.00  0.00    -0.339 OA
HETATM    8  C18 UNL     1     -10.118   1.507  23.965  1.00  0.00     0.065 C 
HETATM    9  C19 UNL     1     -11.464   1.837  24.379  1.00  0.00     0.021 C 
HETATM   10  C20 UNL     1     -12.424   1.958  23.469  1.00  0.00     0.109 C 
HETATM   11  C22 UNL     1      -9.317   0.451  24.565  1.00  0.00     0.179 C 
HETATM   12  O6  UNL     1      -9.132  -0.744  23.998  1.00  0.00    -0.384 OA
HETATM   13  C23 UNL     1      -9.232  -0.890  22.589  1.00  0.00     0.141 C 
ENDROOT
BRANCH   3  14
HETATM   14  O2  UNL     1     -10.915   0.597  19.977  1.00  0.00    -0.278 OA
BRANCH  14  15
HETATM   15  C6  UNL     1     -11.089   0.407  18.635  1.00  0.00     0.341 C 
HETATM   16  O3  UNL     1     -11.834   1.259  18.173  1.00  0.00    -0.249 OA
BRANCH  15  17
HETATM   17  C7  UNL     1     -10.506  -0.625  17.839  1.00  0.00     0.004 C 
HETATM   18  C8  UNL     1      -9.996  -1.482  17.159  1.00  0.00    -0.066 C 
BRANCH  18  19
HETATM   19  C9  UNL     1      -9.356  -2.503  16.326  1.00  0.00     0.366 C 
BRANCH  19  20
HETATM   20  N1  UNL     1      -7.950  -2.445  16.576  1.00  0.00     0.099 N 
HETATM   21  C10 UNL     1      -7.298  -3.513  15.862  1.00  0.00     0.273 C 
HETATM   22  C11 UNL     1      -5.821  -3.249  15.665  1.00  0.00     0.030 C 
HETATM   23  C12 UNL     1      -5.638  -2.112  14.695  1.00  0.00     0.003 C 
HETATM   24  C13 UNL     1      -6.943  -1.347  14.627  1.00  0.00     0.030 C 
HETATM   25  C14 UNL     1      -7.455  -1.189  16.040  1.00  0.00     0.273 C 
ENDBRANCH  19  20
ENDBRANCH  18  19
ENDBRANCH  15  17
ENDBRANCH  14  15
ENDBRANCH   3  14
BRANCH   1  26
HETATM   26  C2  UNL     1     -13.082   2.791  21.285  1.00  0.00    -0.025 C 
HETATM   27  C1  UNL     1     -14.015   2.376  20.440  1.00  0.00     0.020 C 
HETATM   28  C3  UNL     1     -12.904   4.252  21.499  1.00  0.00     0.049 C 
ENDBRANCH   1  26
BRANCH  13  29
HETATM   29  C24 UNL     1      -8.895  -2.286  22.333  1.00  0.00     0.015 C 
BRANCH  29  30
HETATM   30  C25 UNL     1      -8.562  -2.890  23.722  1.00  0.00     0.002 C 
HETATM   31  C26 UNL     1      -9.326  -4.186  23.895  1.00  0.00     0.005 C 
ENDBRANCH  29  30
BRANCH  29  32
HETATM   32  C27 UNL     1      -7.645  -2.526  21.526  1.00  0.00     0.002 C 
HETATM   33  C28 UNL     1      -7.807  -2.200  20.069  1.00  0.00     0.005 C 
ENDBRANCH  29  32
ENDBRANCH  13  29
BRANCH  10  34
HETATM   34  O5  UNL     1     -13.731   2.282  23.904  1.00  0.00    -0.355 OA
HETATM   35  C21 UNL     1     -13.940   3.183  24.970  1.00  0.00     0.209 C 
ENDBRANCH  10  34
TORSDOF 10
ENDMDL
MODEL 2
REMARK VINA RESULT: -8.020976492      2.227      5.289
REMARK  10 active torsions:
REMARK  status: ('A' for Active; 'I' for Inactive)
REMARK    1  A    between atoms: C2_2  and  C4_4 
REMARK    2  A    between atoms: C5_6  and  O2_7 
REMARK    3  A    between atoms: O2_7  and  C6_8 
REMARK    4  A    between atoms: C6_8  and  C7_10 
REMARK    5  A    between atoms: C8_11  and  C9_12 
REMARK    6  A    between atoms: C9_12  and  N1_13 
REMARK    7  A    between atoms: C20_25  and  O5_26 
REMARK    8  A    between atoms: C23_30  and  C24_31 
REMARK    9  A    between atoms: C24_31  and  C25_32 
REMARK   10  A    between atoms: C24_31  and  C27_34 
ROOT
HETATM    1  C4  UNL     1     -11.652   1.376  22.181  1.00  0.00     0.242 C 
HETATM    2  O1  UNL     1     -12.337   0.282  22.640  1.00  0.00    -0.314 OA
HETATM    3  C5  UNL     1     -12.192   0.046  24.058  1.00  0.00     0.288 C 
HETATM    4  C15 UNL     1     -12.828   1.224  24.594  1.00  0.00     0.060 C 
HETATM    5  C16 UNL     1     -14.197   1.135  24.022  1.00  0.00     0.026 C 
HETATM    6  C17 UNL     1     -11.834   2.260  24.164  1.00  0.00     0.151 C 
HETATM    7  O4  UNL     1     -10.900   1.857  23.216  1.00  0.00    -0.339 OA
HETATM    8  C18 UNL     1     -12.435   3.581  23.898  1.00  0.00     0.065 C 
HETATM    9  C19 UNL     1     -12.835   3.556  22.508  1.00  0.00     0.021 C 
HETATM   10  C20 UNL     1     -12.469   2.542  21.734  1.00  0.00     0.109 C 
HETATM   11  C22 UNL     1     -13.346   3.829  25.004  1.00  0.00     0.179 C 
HETATM   12  O6  UNL     1     -13.827   2.863  25.792  1.00  0.00    -0.384 OA
HETATM   13  C23 UNL     1     -13.105   1.653  25.962  1.00  0.00     0.141 C 
ENDROOT
BRANCH   3  14
HETATM   14  O2  UNL     1     -10.905  -0.288  24.156  1.00  0.00    -0.278 OA
BRANCH  14  15
HETATM   15  C6  UNL     1     -10.272  -1.498  24.197  1.00  0.00     0.341 C 
HETATM   16  O3  UNL     1     -10.830  -2.250  24.982  1.00  0.00    -0.249 OA
BRANCH  15  17
HETATM   17  C7  UNL     1      -9.118  -1.880  23.448  1.00  0.00     0.004 C 
HETATM   18  C8  UNL     1      -8.129  -2.205  22.836  1.00  0.00    -0.066 C 
BRANCH  18  19
HETATM   19  C9  UNL     1      -6.916  -2.601  22.118  1.00  0.00     0.366 C 
BRANCH  19  20
HETATM   20  N1  UNL     1      -7.319  -3.173  20.871  1.00  0.00     0.099 N 
HETATM   21  C10 UNL     1      -7.707  -2.117  19.970  1.00  0.00     0.273 C 
HETATM   22  C11 UNL     1      -7.675  -2.562  18.524  1.00  0.00     0.030 C 
HETATM   23  C12 UNL     1      -6.247  -2.783  18.099  1.00  0.00     0.003 C 
HETATM   24  C13 UNL     1      -5.409  -2.941  19.349  1.00  0.00     0.030 C 
HETATM   25  C14 UNL     1      -6.166  -3.843  20.296  1.00  0.00     0.273 C 
ENDBRANCH  19  20
ENDBRANCH  18  19
ENDBRANCH  15  17
ENDBRANCH  14  15
ENDBRANCH   3  14
BRANCH   1  26
HETATM   26  C2  UNL     1     -10.715   1.000  21.069  1.00  0.00    -0.025 C 
HETATM   27  C1  UNL     1      -9.690   1.793  20.789  1.00  0.00     0.020 C 
HETATM   28  C3  UNL     1     -10.903  -0.241  20.272  1.00  0.00     0.049 C 
ENDBRANCH   1  26
BRANCH  13  29
HETATM   29  C24 UNL     1     -13.880   0.888  26.933  1.00  0.00     0.015 C 
BRANCH  29  30
HETATM   30  C25 UNL     1     -14.128   1.859  28.116  1.00  0.00     0.002 C 
HETATM   31  C26 UNL     1     -15.424   1.483  28.803  1.00  0.00     0.005 C 
ENDBRANCH  29  30
BRANCH  29  32
HETATM   32  C27 UNL     1     -13.173  -0.283  27.567  1.00  0.00     0.002 C 
HETATM   33  C28 UNL     1     -13.646  -1.612  27.053  1.00  0.00     0.005 C 
ENDBRANCH  29  32
ENDBRANCH  13  29
BRANCH  10  34
HETATM   34  O5  UNL     1     -12.876   2.546  20.377  1.00  0.00    -0.355 OA
HETATM   35  C21 UNL     1     -14.041   1.863  19.966  1.00  0.00     0.209 C 
ENDBRANCH  10  34
TORSDOF 10
ENDMDL
MODEL 3
REMARK VINA RESULT: -7.928076562      1.655      3.874
REMARK  10 active torsions:
REMARK  status: ('A' for Active; 'I' for Inactive)
REMARK    1  A    between atoms: C2_2  and  C4_4 
REMARK    2  A    between atoms: C5_6  and  O2_7 
REMARK    3  A    between atoms: O2_7  and  C6_8 
REMARK    4  A    between atoms: C6_8  and  C7_10 
REMARK    5  A    between atoms: C8_11  and  C9_12 
REMARK    6  A    between atoms: C9_12  and  N1_13 
REMARK    7  A    between atoms: C20_25  and  O5_26 
REMARK    8  A    between atoms: C23_30  and  C24_31 
REMARK    9  A    between atoms: C24_31  and  C25_32 
REMARK   10  A    between atoms: C24_31  and  C27_34 
ROOT
HETATM    1  C4  UNL     1     -11.050   0.138  20.521  1.00  0.00     0.242 C 
HETATM    2  O1  UNL     1     -11.139  -0.908  21.402  1.00  0.00    -0.314 OA
HETATM    3  C5  UNL     1     -10.167  -0.864  22.471  1.00  0.00     0.288 C 
HETATM    4  C15 UNL     1     -10.580   0.333  23.161  1.00  0.00     0.060 C 
HETATM    5  C16 UNL     1     -11.987   0.022  23.526  1.00  0.00     0.026 C 
HETATM    6  C17 UNL     1     -10.218   1.354  22.126  1.00  0.00     0.151 C 
HETATM    7  O4  UNL     1      -9.942   0.866  20.854  1.00  0.00    -0.339 OA
HETATM    8  C18 UNL     1     -11.087   2.545  22.140  1.00  0.00     0.065 C 
HETATM    9  C19 UNL     1     -12.199   2.230  21.271  1.00  0.00     0.021 C 
HETATM   10  C20 UNL     1     -12.169   1.124  20.535  1.00  0.00     0.109 C 
HETATM   11  C22 UNL     1     -11.227   2.914  23.540  1.00  0.00     0.179 C 
HETATM   12  O6  UNL     1     -10.988   2.073  24.550  1.00  0.00    -0.384 OA
HETATM   13  C23 UNL     1     -10.096   0.982  24.376  1.00  0.00     0.141 C 
ENDROOT
BRANCH   3  14
HETATM   14  O2  UNL     1      -9.022  -1.061  21.818  1.00  0.00    -0.278 OA
BRANCH  14  15
HETATM   15  C6  UNL     1      -8.198  -2.146  21.719  1.00  0.00     0.341 C 
HETATM   16  O3  UNL     1      -8.070  -2.690  22.806  1.00  0.00    -0.249 OA
BRANCH  15  17
HETATM   17  C7  UNL     1      -7.551  -2.618  20.537  1.00  0.00     0.004 C 
HETATM   18  C8  UNL     1      -6.984  -3.023  19.551  1.00  0.00    -0.066 C 
BRANCH  18  19
HETATM   19  C9  UNL     1      -6.272  -3.518  18.371  1.00  0.00     0.366 C 
BRANCH  19  20
HETATM   20  N1  UNL     1      -7.127  -3.328  17.241  1.00  0.00     0.099 N 
HETATM   21  C10 UNL     1      -7.443  -1.928  17.117  1.00  0.00     0.273 C 
HETATM   22  C11 UNL     1      -7.913  -1.571  15.723  1.00  0.00     0.030 C 
HETATM   23  C12 UNL     1      -6.760  -1.684  14.761  1.00  0.00     0.003 C 
HETATM   24  C13 UNL     1      -5.695  -2.542  15.410  1.00  0.00     0.030 C 
HETATM   25  C14 UNL     1      -6.388  -3.721  16.054  1.00  0.00     0.273 C 
ENDBRANCH  19  20
ENDBRANCH  18  19
ENDBRANCH  15  17
ENDBRANCH  14  15
ENDBRANCH   3  14
BRANCH   1  26
HETATM   26  C2  UNL     1     -10.870  -0.355  19.114  1.00  0.00    -0.025 C 
HETATM   27  C1  UNL     1     -10.692  -1.651  18.899  1.00  0.00     0.020 C 
HETATM   28  C3  UNL     1     -10.886   0.571  17.951  1.00  0.00     0.049 C 
ENDBRANCH   1  26
BRANCH  13  29
HETATM   29  C24 UNL     1     -10.022   0.346  25.686  1.00  0.00     0.015 C 
BRANCH  29  30
HETATM   30  C25 UNL     1      -9.108   1.265  26.538  1.00  0.00     0.002 C 
HETATM   31  C26 UNL     1      -9.273   0.911  28.000  1.00  0.00     0.005 C 
ENDBRANCH  29  30
BRANCH  29  32
HETATM   32  C27 UNL     1      -9.332  -0.993  25.733  1.00  0.00     0.002 C 
HETATM   33  C28 UNL     1     -10.263  -2.130  26.040  1.00  0.00     0.005 C 
ENDBRANCH  29  32
ENDBRANCH  13  29
BRANCH  10  34
HETATM   34  O5  UNL     1     -13.272   0.842  19.693  1.00  0.00    -0.355 OA
HETATM   35  C21 UNL     1     -14.223  -0.140  20.047  1.00  0.00     0.209 C 
ENDBRANCH  10  34
TORSDOF 10
ENDMDL
MODEL 4
REMARK VINA RESULT: -7.862597588      2.943      5.676
REMARK  10 active torsions:
REMARK  status: ('A' for Active; 'I' for Inactive)
REMARK    1  A    between atoms: C2_2  and  C4_4 
REMARK    2  A    between atoms: C5_6  and  O2_7 
REMARK    3  A    between atoms: O2_7  and  C6_8 
REMARK    4  A    between atoms: C6_8  and  C7_10 
REMARK    5  A    between atoms: C8_11  and  C9_12 
REMARK    6  A    between atoms: C9_12  and  N1_13 
REMARK    7  A    between atoms: C20_25  and  O5_26 
REMARK    8  A    between atoms: C23_30  and  C24_31 
REMARK    9  A    between atoms: C24_31  and  C25_32 
REMARK   10  A    between atoms: C24_31  and  C27_34 
ROOT
HETATM    1  C4  UNL     1     -11.737   1.495  22.222  1.00  0.00     0.242 C 
HETATM    2  O1  UNL     1     -12.394   0.386  22.687  1.00  0.00    -0.314 OA
HETATM    3  C5  UNL     1     -12.259   0.173  24.110  1.00  0.00     0.288 C 
HETATM    4  C15 UNL     1     -12.937   1.338  24.623  1.00  0.00     0.060 C 
HETATM    5  C16 UNL     1     -14.296   1.201  24.035  1.00  0.00     0.026 C 
HETATM    6  C17 UNL     1     -11.970   2.398  24.191  1.00  0.00     0.151 C 
HETATM    7  O4  UNL     1     -11.012   2.012  23.259  1.00  0.00    -0.339 OA
HETATM    8  C18 UNL     1     -12.607   3.697  23.900  1.00  0.00     0.065 C 
HETATM    9  C19 UNL     1     -12.989   3.642  22.506  1.00  0.00     0.021 C 
HETATM   10  C20 UNL     1     -12.583   2.629  21.749  1.00  0.00     0.109 C 
HETATM   11  C22 UNL     1     -13.538   3.931  24.992  1.00  0.00     0.179 C 
HETATM   12  O6  UNL     1     -14.000   2.962  25.786  1.00  0.00    -0.384 OA
HETATM   13  C23 UNL     1     -13.244   1.776  25.981  1.00  0.00     0.141 C 
ENDROOT
BRANCH   3  14
HETATM   14  O2  UNL     1     -10.964  -0.120  24.228  1.00  0.00    -0.278 OA
BRANCH  14  15
HETATM   15  C6  UNL     1     -10.286  -1.306  24.200  1.00  0.00     0.341 C 
HETATM   16  O3  UNL     1     -10.587  -1.997  25.162  1.00  0.00    -0.249 OA
BRANCH  15  17
HETATM   17  C7  UNL     1      -9.348  -1.726  23.210  1.00  0.00     0.004 C 
HETATM   18  C8  UNL     1      -8.572  -2.089  22.358  1.00  0.00    -0.066 C 
BRANCH  18  19
HETATM   19  C9  UNL     1      -7.654  -2.538  21.309  1.00  0.00     0.366 C 
BRANCH  19  20
HETATM   20  N1  UNL     1      -6.428  -2.915  21.941  1.00  0.00     0.099 N 
HETATM   21  C10 UNL     1      -6.603  -4.189  22.590  1.00  0.00     0.273 C 
HETATM   22  C11 UNL     1      -5.283  -4.882  22.851  1.00  0.00     0.030 C 
HETATM   23  C12 UNL     1      -4.677  -5.315  21.543  1.00  0.00     0.003 C 
HETATM   24  C13 UNL     1      -5.336  -4.517  20.438  1.00  0.00     0.030 C 
HETATM   25  C14 UNL     1      -5.427  -3.082  20.903  1.00  0.00     0.273 C 
ENDBRANCH  19  20
ENDBRANCH  18  19
ENDBRANCH  15  17
ENDBRANCH  14  15
ENDBRANCH   3  14
BRANCH   1  26
HETATM   26  C2  UNL     1     -10.775   1.133  21.127  1.00  0.00    -0.025 C 
HETATM   27  C1  UNL     1      -9.723   1.908  20.905  1.00  0.00     0.020 C 
HETATM   28  C3  UNL     1     -10.969  -0.075  20.280  1.00  0.00     0.049 C 
ENDBRANCH   1  26
BRANCH  13  29
HETATM   29  C24 UNL     1     -14.008   1.001  26.952  1.00  0.00     0.015 C 
BRANCH  29  30
HETATM   30  C25 UNL     1     -14.266   1.967  28.137  1.00  0.00     0.002 C 
HETATM   31  C26 UNL     1     -15.571   1.594  28.806  1.00  0.00     0.005 C 
ENDBRANCH  29  30
BRANCH  29  32
HETATM   32  C27 UNL     1     -13.285  -0.161  27.585  1.00  0.00     0.002 C 
HETATM   33  C28 UNL     1     -13.666  -1.489  26.996  1.00  0.00     0.005 C 
ENDBRANCH  29  32
ENDBRANCH  13  29
BRANCH  10  34
HETATM   34  O5  UNL     1     -12.973   2.603  20.388  1.00  0.00    -0.355 OA
HETATM   35  C21 UNL     1     -14.093   1.855  19.968  1.00  0.00     0.209 C 
ENDBRANCH  10  34
TORSDOF 10
ENDMDL
MODEL 5
REMARK VINA RESULT: -7.833902886      1.559      4.228
REMARK  10 active torsions:
REMARK  status: ('A' for Active; 'I' for Inactive)
REMARK    1  A    between atoms: C2_2  and  C4_4 
REMARK    2  A    between atoms: C5_6  and  O2_7 
REMARK    3  A    between atoms: O2_7  and  C6_8 
REMARK    4  A    between atoms: C6_8  and  C7_10 
REMARK    5  A    between atoms: C8_11  and  C9_12 
REMARK    6  A    between atoms: C9_12  and  N1_13 
REMARK    7  A    between atoms: C20_25  and  O5_26 
REMARK    8  A    between atoms: C23_30  and  C24_31 
REMARK    9  A    between atoms: C24_31  and  C25_32 
REMARK   10  A    between atoms: C24_31  and  C27_34 
ROOT
HETATM    1  C4  UNL     1     -11.348   0.140  20.482  1.00  0.00     0.242 C 
HETATM    2  O1  UNL     1     -11.468  -0.793  21.479  1.00  0.00    -0.314 OA
HETATM    3  C5  UNL     1     -10.638  -0.533  22.633  1.00  0.00     0.288 C 
HETATM    4  C15 UNL     1     -11.217   0.700  23.109  1.00  0.00     0.060 C 
HETATM    5  C16 UNL     1     -12.631   0.315  23.354  1.00  0.00     0.026 C 
HETATM    6  C17 UNL     1     -10.806   1.613  21.994  1.00  0.00     0.151 C 
HETATM    7  O4  UNL     1     -10.344   0.997  20.836  1.00  0.00    -0.339 OA
HETATM    8  C18 UNL     1     -11.754   2.717  21.754  1.00  0.00     0.065 C 
HETATM    9  C19 UNL     1     -12.727   2.201  20.816  1.00  0.00     0.021 C 
HETATM   10  C20 UNL     1     -12.529   1.020  20.241  1.00  0.00     0.109 C 
HETATM   11  C22 UNL     1     -12.087   3.242  23.068  1.00  0.00     0.179 C 
HETATM   12  O6  UNL     1     -11.913   2.556  24.201  1.00  0.00    -0.384 OA
HETATM   13  C23 UNL     1     -10.930   1.534  24.273  1.00  0.00     0.141 C 
ENDROOT
BRANCH   3  14
HETATM   14  O2  UNL     1      -9.411  -0.708  22.143  1.00  0.00    -0.278 OA
BRANCH  14  15
HETATM   15  C6  UNL     1      -8.597  -1.803  22.082  1.00  0.00     0.341 C 
HETATM   16  O3  UNL     1      -8.582  -2.390  23.155  1.00  0.00    -0.249 OA
BRANCH  15  17
HETATM   17  C7  UNL     1      -7.845  -2.243  20.951  1.00  0.00     0.004 C 
HETATM   18  C8  UNL     1      -7.190  -2.619  20.009  1.00  0.00    -0.066 C 
BRANCH  18  19
HETATM   19  C9  UNL     1      -6.374  -3.081  18.884  1.00  0.00     0.366 C 
BRANCH  19  20
HETATM   20  N1  UNL     1      -7.240  -3.237  17.758  1.00  0.00     0.099 N 
HETATM   21  C10 UNL     1      -7.667  -1.936  17.306  1.00  0.00     0.273 C 
HETATM   22  C11 UNL     1      -8.163  -1.964  15.876  1.00  0.00     0.030 C 
HETATM   23  C12 UNL     1      -7.004  -2.215  14.948  1.00  0.00     0.003 C 
HETATM   24  C13 UNL     1      -5.874  -2.806  15.765  1.00  0.00     0.030 C 
HETATM   25  C14 UNL     1      -6.471  -3.845  16.686  1.00  0.00     0.273 C 
ENDBRANCH  19  20
ENDBRANCH  18  19
ENDBRANCH  15  17
ENDBRANCH  14  15
ENDBRANCH   3  14
BRANCH   1  26
HETATM   26  C2  UNL     1     -10.965  -0.505  19.182  1.00  0.00    -0.025 C 
HETATM   27  C1  UNL     1     -10.862  -1.825  19.119  1.00  0.00     0.020 C 
HETATM   28  C3  UNL     1     -10.696   0.296  17.958  1.00  0.00     0.049 C 
ENDBRANCH   1  26
BRANCH  13  29
HETATM   29  C24 UNL     1     -10.970   1.073  25.656  1.00  0.00     0.015 C 
BRANCH  29  30
HETATM   30  C25 UNL     1     -11.837   2.113  26.411  1.00  0.00     0.002 C 
HETATM   31  C26 UNL     1     -12.780   1.388  27.347  1.00  0.00     0.005 C 
ENDBRANCH  29  30
BRANCH  29  32
HETATM   32  C27 UNL     1      -9.657   1.092  26.397  1.00  0.00     0.002 C 
HETATM   33  C28 UNL     1      -8.565   1.805  25.651  1.00  0.00     0.005 C 
ENDBRANCH  29  32
ENDBRANCH  13  29
BRANCH  10  34
HETATM   34  O5  UNL     1     -13.498   0.541  19.328  1.00  0.00    -0.355 OA
HETATM   35  C21 UNL     1     -14.421  -0.458  19.705  1.00  0.00     0.209 C 
ENDBRANCH  10  34
TORSDOF 10
ENDMDL
