MODEL 1
REMARK VINA RESULT: -5.563620737      0.000      0.000
REMARK  4 active torsions:
REMARK  status: ('A' for Active; 'I' for Inactive)
REMARK    1  A    between atoms: N1_1  and  C1_4 
REMARK    2  A    between atoms: C4_9  and  N3_10 
REMARK    3  A    between atoms: N3_10  and  N4_12 
REMARK    4  A    between atoms: N4_12  and  C5_14 
ROOT
HETATM    1  C1  UNL     1     -51.165 -64.289 -44.432  1.00  0.00     0.677 A 
HETATM    2  N2  UNL     1     -50.195 -65.208 -44.512  1.00  0.00    -0.202 N 
ATOM      3  H2  UNL     1     -50.296 -65.966 -45.186  1.00  0.00     0.183 HD
HETATM    4  C2  UNL     1     -49.092 -65.176 -43.744  1.00  0.00     0.110 A 
HETATM    5  C3  UNL     1     -48.989 -64.132 -42.843  1.00  0.00     0.068 A 
HETATM    6  C4  UNL     1     -49.968 -63.167 -42.733  1.00  0.00     0.136 A 
HETATM    7  N5  UNL     1     -51.035 -63.289 -43.548  1.00  0.00    -0.176 N 
ATOM      8  H5  UNL     1     -51.775 -62.590 -43.490  1.00  0.00     0.186 HD
ENDROOT
BRANCH   6   9
HETATM    9  N3  UNL     1     -49.830 -62.212 -41.879  1.00  0.00    -0.283 N 
ATOM     10  H3  UNL     1     -50.446 -62.184 -41.067  1.00  0.00     0.188 HD
BRANCH   9  11
HETATM   11  N4  UNL     1     -48.864 -61.212 -42.026  1.00  0.00    -0.276 N 
ATOM     12  H4  UNL     1     -47.889 -61.377 -41.778  1.00  0.00     0.189 HD
BRANCH  11  13
HETATM   13  C5  UNL     1     -49.289 -59.968 -42.530  1.00  0.00     0.368 C 
HETATM   14  O1  UNL     1     -49.635 -59.042 -41.776  1.00  0.00    -0.282 OA
ENDBRANCH  11  13
ENDBRANCH   9  11
ENDBRANCH   6   9
BRANCH   1  15
HETATM   15  N1  UNL     1     -52.209 -64.364 -45.195  1.00  0.00    -0.234 N 
ATOM     16  H12 UNL     1     -52.108 -64.440 -46.208  1.00  0.00     0.174 HD
ATOM     17  H11 UNL     1     -53.148 -64.349 -44.795  1.00  0.00     0.174 HD
ENDBRANCH   1  15
TORSDOF 4
ENDMDL
MODEL 2
REMARK VINA RESULT: -5.326658143      1.986      3.952
REMARK  4 active torsions:
REMARK  status: ('A' for Active; 'I' for Inactive)
REMARK    1  A    between atoms: N1_1  and  C1_4 
REMARK    2  A    between atoms: C4_9  and  N3_10 
REMARK    3  A    between atoms: N3_10  and  N4_12 
REMARK    4  A    between atoms: N4_12  and  C5_14 
ROOT
HETATM    1  C1  UNL     1     -49.126 -61.798 -42.202  1.00  0.00     0.677 A 
HETATM    2  N2  UNL     1     -47.972 -62.448 -42.012  1.00  0.00    -0.202 N 
ATOM      3  H2  UNL     1     -47.153 -61.913 -41.723  1.00  0.00     0.183 HD
HETATM    4  C2  UNL     1     -47.841 -63.775 -42.185  1.00  0.00     0.110 A 
HETATM    5  C3  UNL     1     -48.973 -64.467 -42.576  1.00  0.00     0.068 A 
HETATM    6  C4  UNL     1     -50.180 -63.831 -42.781  1.00  0.00     0.136 A 
HETATM    7  N5  UNL     1     -50.205 -62.498 -42.581  1.00  0.00    -0.176 N 
ATOM      8  H5  UNL     1     -51.084 -62.001 -42.724  1.00  0.00     0.186 HD
ENDROOT
BRANCH   6   9
HETATM    9  N3  UNL     1     -51.209 -64.517 -43.145  1.00  0.00    -0.283 N 
ATOM     10  H3  UNL     1     -51.908 -64.764 -42.445  1.00  0.00     0.188 HD
BRANCH   9  11
HETATM   11  N4  UNL     1     -51.400 -64.933 -44.465  1.00  0.00    -0.276 N 
ATOM     12  H4  UNL     1     -51.318 -65.915 -44.728  1.00  0.00     0.189 HD
BRANCH  11  13
HETATM   13  C5  UNL     1     -51.712 -63.945 -45.419  1.00  0.00     0.368 C 
HETATM   14  O1  UNL     1     -51.853 -62.752 -45.100  1.00  0.00    -0.282 OA
ENDBRANCH  11  13
ENDBRANCH   9  11
ENDBRANCH   6   9
BRANCH   1  15
HETATM   15  N1  UNL     1     -49.200 -60.518 -42.021  1.00  0.00    -0.234 N 
ATOM     16  H12 UNL     1     -48.548 -59.888 -42.491  1.00  0.00     0.174 HD
ATOM     17  H11 UNL     1     -49.911 -60.119 -41.408  1.00  0.00     0.174 HD
ENDBRANCH   1  15
TORSDOF 4
ENDMDL
MODEL 3
REMARK VINA RESULT: -4.713942063      1.004      1.876
REMARK  4 active torsions:
REMARK  status: ('A' for Active; 'I' for Inactive)
REMARK    1  A    between atoms: N1_1  and  C1_4 
REMARK    2  A    between atoms: C4_9  and  N3_10 
REMARK    3  A    between atoms: N3_10  and  N4_12 
REMARK    4  A    between atoms: N4_12  and  C5_14 
ROOT
HETATM    1  C1  UNL     1     -49.604 -65.135 -44.068  1.00  0.00     0.677 A 
HETATM    2  N2  UNL     1     -50.485 -64.856 -45.037  1.00  0.00    -0.202 N 
ATOM      3  H2  UNL     1     -50.607 -65.531 -45.792  1.00  0.00     0.183 HD
HETATM    4  C2  UNL     1     -51.216 -63.729 -45.060  1.00  0.00     0.110 A 
HETATM    5  C3  UNL     1     -51.024 -62.840 -44.019  1.00  0.00     0.068 A 
HETATM    6  C4  UNL     1     -50.126 -63.092 -43.003  1.00  0.00     0.136 A 
HETATM    7  N5  UNL     1     -49.441 -64.251 -43.072  1.00  0.00    -0.176 N 
ATOM      8  H5  UNL     1     -48.770 -64.466 -42.335  1.00  0.00     0.186 HD
ENDROOT
BRANCH   6   9
HETATM    9  N3  UNL     1     -49.980 -62.234 -42.052  1.00  0.00    -0.283 N 
ATOM     10  H3  UNL     1     -50.644 -62.239 -41.278  1.00  0.00     0.188 HD
BRANCH   9  11
HETATM   11  N4  UNL     1     -48.942 -61.298 -42.043  1.00  0.00    -0.276 N 
ATOM     12  H4  UNL     1     -48.017 -61.536 -41.687  1.00  0.00     0.189 HD
BRANCH  11  13
HETATM   13  C5  UNL     1     -49.224 -60.012 -42.545  1.00  0.00     0.368 C 
HETATM   14  O1  UNL     1     -49.531 -59.071 -41.793  1.00  0.00    -0.282 OA
ENDBRANCH  11  13
ENDBRANCH   9  11
ENDBRANCH   6   9
BRANCH   1  15
HETATM   15  N1  UNL     1     -48.923 -66.236 -44.091  1.00  0.00    -0.234 N 
ATOM     16  H12 UNL     1     -48.793 -66.784 -43.241  1.00  0.00     0.174 HD
ATOM     17  H11 UNL     1     -48.508 -66.573 -44.960  1.00  0.00     0.174 HD
ENDBRANCH   1  15
TORSDOF 4
ENDMDL
MODEL 4
REMARK VINA RESULT: -4.321587401      7.608      8.645
REMARK  4 active torsions:
REMARK  status: ('A' for Active; 'I' for Inactive)
REMARK    1  A    between atoms: N1_1  and  C1_4 
REMARK    2  A    between atoms: C4_9  and  N3_10 
REMARK    3  A    between atoms: N3_10  and  N4_12 
REMARK    4  A    between atoms: N4_12  and  C5_14 
ROOT
HETATM    1  C1  UNL     1     -57.561 -62.395 -45.256  1.00  0.00     0.677 A 
HETATM    2  N2  UNL     1     -58.661 -62.334 -44.497  1.00  0.00    -0.202 N 
ATOM      3  H2  UNL     1     -59.314 -61.565 -44.647  1.00  0.00     0.183 HD
HETATM    4  C2  UNL     1     -58.947 -63.240 -43.547  1.00  0.00     0.110 A 
HETATM    5  C3  UNL     1     -58.039 -64.269 -43.374  1.00  0.00     0.068 A 
HETATM    6  C4  UNL     1     -56.894 -64.365 -44.137  1.00  0.00     0.136 A 
HETATM    7  N5  UNL     1     -56.700 -63.406 -45.064  1.00  0.00    -0.176 N 
ATOM      8  H5  UNL     1     -55.863 -63.451 -45.644  1.00  0.00     0.186 HD
ENDROOT
BRANCH   6   9
HETATM    9  N3  UNL     1     -56.077 -65.342 -43.941  1.00  0.00    -0.283 N 
ATOM     10  H3  UNL     1     -55.159 -65.313 -44.385  1.00  0.00     0.188 HD
BRANCH   9  11
HETATM   11  N4  UNL     1     -56.402 -66.440 -43.141  1.00  0.00    -0.276 N 
ATOM     12  H4  UNL     1     -56.434 -66.364 -42.124  1.00  0.00     0.189 HD
BRANCH  11  13
HETATM   13  C5  UNL     1     -56.686 -67.657 -43.792  1.00  0.00     0.368 C 
HETATM   14  O1  UNL     1     -56.938 -67.702 -45.008  1.00  0.00    -0.282 OA
ENDBRANCH  11  13
ENDBRANCH   9  11
ENDBRANCH   6   9
BRANCH   1  15
HETATM   15  N1  UNL     1     -57.331 -61.496 -46.160  1.00  0.00    -0.234 N 
ATOM     16  H12 UNL     1     -57.260 -61.756 -47.144  1.00  0.00     0.174 HD
ATOM     17  H11 UNL     1     -57.219 -60.515 -45.902  1.00  0.00     0.174 HD
ENDBRANCH   1  15
TORSDOF 4
ENDMDL
MODEL 5
REMARK VINA RESULT: -4.264848621      7.197      8.543
REMARK  4 active torsions:
REMARK  status: ('A' for Active; 'I' for Inactive)
REMARK    1  A    between atoms: N1_1  and  C1_4 
REMARK    2  A    between atoms: C4_9  and  N3_10 
REMARK    3  A    between atoms: N3_10  and  N4_12 
REMARK    4  A    between atoms: N4_12  and  C5_14 
ROOT
HETATM    1  C1  UNL     1     -58.466 -63.712 -43.315  1.00  0.00     0.677 A 
HETATM    2  N2  UNL     1     -58.732 -62.624 -44.048  1.00  0.00    -0.202 N 
ATOM      3  H2  UNL     1     -59.565 -62.080 -43.827  1.00  0.00     0.183 HD
HETATM    4  C2  UNL     1     -57.951 -62.216 -45.063  1.00  0.00     0.110 A 
HETATM    5  C3  UNL     1     -56.829 -62.979 -45.332  1.00  0.00     0.068 A 
HETATM    6  C4  UNL     1     -56.522 -64.105 -44.598  1.00  0.00     0.136 A 
HETATM    7  N5  UNL     1     -57.370 -64.430 -43.602  1.00  0.00    -0.176 N 
ATOM      8  H5  UNL     1     -57.168 -65.257 -43.041  1.00  0.00     0.186 HD
ENDROOT
BRANCH   6   9
HETATM    9  N3  UNL     1     -55.466 -64.786 -44.885  1.00  0.00    -0.283 N 
ATOM     10  H3  UNL     1     -54.551 -64.358 -44.742  1.00  0.00     0.188 HD
BRANCH   9  11
HETATM   11  N4  UNL     1     -55.529 -66.089 -45.385  1.00  0.00    -0.276 N 
ATOM     12  H4  UNL     1     -54.781 -66.472 -45.964  1.00  0.00     0.189 HD
BRANCH  11  13
HETATM   13  C5  UNL     1     -56.664 -66.855 -45.058  1.00  0.00     0.368 C 
HETATM   14  O1  UNL     1     -56.673 -67.624 -44.081  1.00  0.00    -0.282 OA
ENDBRANCH  11  13
ENDBRANCH   9  11
ENDBRANCH   6   9
BRANCH   1  15
HETATM   15  N1  UNL     1     -59.250 -64.063 -42.347  1.00  0.00    -0.234 N 
ATOM     16  H12 UNL     1     -59.898 -63.392 -41.933  1.00  0.00     0.174 HD
ATOM     17  H11 UNL     1     -59.234 -65.017 -41.983  1.00  0.00     0.174 HD
ENDBRANCH   1  15
TORSDOF 4
ENDMDL
