MODEL 1
REMARK VINA RESULT: -4.499672000      0.000      0.000
REMARK  2 active torsions:
REMARK  status: ('A' for Active; 'I' for Inactive)
REMARK       I    between atoms: C2_2  and  N1_4 
REMARK       I    between atoms: C3_6  and  N3_8 
REMARK    1  A    between atoms: N3_8  and  O2_10 
REMARK    2  A    between atoms: O2_10  and  C4_11 
ROOT
HETATM    1  C1  UNL     1     -57.877 -64.413 -38.900  1.00  0.00     0.117 C 
HETATM    2  C2  UNL     1     -56.965 -64.585 -37.761  1.00  0.00     0.220 C 
HETATM    3  O1  UNL     1     -56.513 -65.712 -37.499  1.00  0.00    -0.274 OA
HETATM    4  N1  UNL     1     -56.609 -63.475 -36.977  1.00  0.00    -0.300 N 
ATOM      5  H1  UNL     1     -57.350 -62.980 -36.482  1.00  0.00     0.171 HD
HETATM    6  C3  UNL     1     -55.408 -63.049 -36.848  1.00  0.00     0.215 C 
HETATM    7  N2  UNL     1     -55.109 -61.927 -36.045  1.00  0.00    -0.061 NA
HETATM    8  N3  UNL     1     -54.373 -63.726 -37.528  1.00  0.00    -0.229 N 
ATOM      9  H3  UNL     1     -54.541 -64.169 -38.431  1.00  0.00     0.197 HD
ENDROOT
BRANCH   8  10
HETATM   10  O2  UNL     1     -53.117 -63.772 -36.932  1.00  0.00    -0.202 OA
BRANCH  10  11
HETATM   11  C4  UNL     1     -52.701 -64.882 -36.217  1.00  0.00     0.249 C 
HETATM   12  N4  UNL     1     -53.531 -65.841 -36.061  1.00  0.00    -0.366 N 
ATOM     13  H42 UNL     1     -54.474 -65.799 -36.447  1.00  0.00     0.159 HD
ATOM     14  H41 UNL     1     -53.224 -66.660 -35.534  1.00  0.00     0.159 HD
HETATM   15  N5  UNL     1     -51.383 -64.941 -35.676  1.00  0.00    -0.055 NA
ENDBRANCH  10  11
ENDBRANCH   8  10
TORSDOF 2
ENDMDL
MODEL 2
REMARK VINA RESULT: -4.226271139      2.100      3.816
REMARK  2 active torsions:
REMARK  status: ('A' for Active; 'I' for Inactive)
REMARK       I    between atoms: C2_2  and  N1_4 
REMARK       I    between atoms: C3_6  and  N3_8 
REMARK    1  A    between atoms: N3_8  and  O2_10 
REMARK    2  A    between atoms: O2_10  and  C4_11 
ROOT
HETATM    1  C1  UNL     1     -55.305 -66.824 -36.836  1.00  0.00     0.117 C 
HETATM    2  C2  UNL     1     -55.469 -65.465 -37.368  1.00  0.00     0.220 C 
HETATM    3  O1  UNL     1     -56.610 -65.011 -37.556  1.00  0.00    -0.274 OA
HETATM    4  N1  UNL     1     -54.336 -64.687 -37.661  1.00  0.00    -0.300 N 
ATOM      5  H1  UNL     1     -53.688 -65.030 -38.368  1.00  0.00     0.171 HD
HETATM    6  C3  UNL     1     -54.070 -63.572 -37.090  1.00  0.00     0.215 C 
HETATM    7  N2  UNL     1     -52.916 -62.831 -37.425  1.00  0.00    -0.061 NA
HETATM    8  N3  UNL     1     -54.961 -63.085 -36.108  1.00  0.00    -0.229 N 
ATOM      9  H3  UNL     1     -55.478 -63.725 -35.506  1.00  0.00     0.197 HD
ENDROOT
BRANCH   8  10
HETATM   10  O2  UNL     1     -55.113 -61.707 -35.986  1.00  0.00    -0.202 OA
BRANCH  10  11
HETATM   11  C4  UNL     1     -56.221 -61.058 -36.501  1.00  0.00     0.249 C 
HETATM   12  N4  UNL     1     -57.047 -61.741 -37.198  1.00  0.00    -0.366 N 
ATOM     13  H42 UNL     1     -56.901 -62.734 -37.375  1.00  0.00     0.159 HD
ATOM     14  H41 UNL     1     -57.864 -61.262 -37.578  1.00  0.00     0.159 HD
HETATM   15  N5  UNL     1     -56.425 -59.668 -36.254  1.00  0.00    -0.055 NA
ENDBRANCH  10  11
ENDBRANCH   8  10
TORSDOF 2
ENDMDL
MODEL 3
REMARK VINA RESULT: -4.214978916      5.964      7.710
REMARK  2 active torsions:
REMARK  status: ('A' for Active; 'I' for Inactive)
REMARK       I    between atoms: C2_2  and  N1_4 
REMARK       I    between atoms: C3_6  and  N3_8 
REMARK    1  A    between atoms: N3_8  and  O2_10 
REMARK    2  A    between atoms: O2_10  and  C4_11 
ROOT
HETATM    1  C1  UNL     1     -57.737 -64.441 -39.140  1.00  0.00     0.117 C 
HETATM    2  C2  UNL     1     -58.643 -63.911 -40.168  1.00  0.00     0.220 C 
HETATM    3  O1  UNL     1     -59.036 -62.735 -40.096  1.00  0.00    -0.274 OA
HETATM    4  N1  UNL     1     -59.058 -64.737 -41.226  1.00  0.00    -0.300 N 
ATOM      5  H1  UNL     1     -59.589 -65.578 -40.999  1.00  0.00     0.171 HD
HETATM    6  C3  UNL     1     -58.808 -64.496 -42.458  1.00  0.00     0.215 C 
HETATM    7  N2  UNL     1     -59.251 -65.363 -43.481  1.00  0.00    -0.061 NA
HETATM    8  N3  UNL     1     -58.073 -63.336 -42.786  1.00  0.00    -0.229 N 
ATOM      9  H3  UNL     1     -57.355 -62.975 -42.158  1.00  0.00     0.197 HD
ENDROOT
BRANCH   8  10
HETATM   10  O2  UNL     1     -58.358 -62.697 -43.989  1.00  0.00    -0.202 OA
BRANCH  10  11
HETATM   11  C4  UNL     1     -57.423 -62.633 -45.008  1.00  0.00     0.249 C 
HETATM   12  N4  UNL     1     -57.687 -61.897 -46.019  1.00  0.00    -0.366 N 
ATOM     13  H42 UNL     1     -58.558 -61.369 -46.082  1.00  0.00     0.159 HD
ATOM     14  H41 UNL     1     -56.997 -61.850 -46.770  1.00  0.00     0.159 HD
HETATM   15  N5  UNL     1     -56.207 -63.371 -44.920  1.00  0.00    -0.055 NA
ENDBRANCH  10  11
ENDBRANCH   8  10
TORSDOF 2
ENDMDL
MODEL 4
REMARK VINA RESULT: -3.957158950      8.099      8.759
REMARK  2 active torsions:
REMARK  status: ('A' for Active; 'I' for Inactive)
REMARK       I    between atoms: C2_2  and  N1_4 
REMARK       I    between atoms: C3_6  and  N3_8 
REMARK    1  A    between atoms: N3_8  and  O2_10 
REMARK    2  A    between atoms: O2_10  and  C4_11 
ROOT
HETATM    1  C1  UNL     1     -52.926 -64.398 -45.371  1.00  0.00     0.117 C 
HETATM    2  C2  UNL     1     -51.563 -63.972 -45.028  1.00  0.00     0.220 C 
HETATM    3  O1  UNL     1     -51.365 -62.820 -44.607  1.00  0.00    -0.274 OA
HETATM    4  N1  UNL     1     -50.492 -64.869 -45.178  1.00  0.00    -0.300 N 
ATOM      5  H1  UNL     1     -50.291 -65.225 -46.112  1.00  0.00     0.171 HD
HETATM    6  C3  UNL     1     -49.754 -65.267 -44.209  1.00  0.00     0.215 C 
HETATM    7  N2  UNL     1     -48.690 -66.170 -44.418  1.00  0.00    -0.061 NA
HETATM    8  N3  UNL     1     -50.022 -64.781 -42.911  1.00  0.00    -0.229 N 
ATOM      9  H3  UNL     1     -50.975 -64.562 -42.619  1.00  0.00     0.197 HD
ENDROOT
BRANCH   8  10
HETATM   10  O2  UNL     1     -48.950 -64.609 -42.040  1.00  0.00    -0.202 OA
BRANCH  10  11
HETATM   11  C4  UNL     1     -48.206 -63.443 -42.038  1.00  0.00     0.249 C 
HETATM   12  N4  UNL     1     -48.812 -62.343 -42.279  1.00  0.00    -0.366 N 
ATOM     13  H42 UNL     1     -49.814 -62.317 -42.469  1.00  0.00     0.159 HD
ATOM     14  H41 UNL     1     -48.263 -61.483 -42.277  1.00  0.00     0.159 HD
HETATM   15  N5  UNL     1     -46.805 -63.479 -41.773  1.00  0.00    -0.055 NA
ENDBRANCH  10  11
ENDBRANCH   8  10
TORSDOF 2
ENDMDL
MODEL 5
REMARK VINA RESULT: -3.929272275      2.281      2.825
REMARK  2 active torsions:
REMARK  status: ('A' for Active; 'I' for Inactive)
REMARK       I    between atoms: C2_2  and  N1_4 
REMARK       I    between atoms: C3_6  and  N3_8 
REMARK    1  A    between atoms: N3_8  and  O2_10 
REMARK    2  A    between atoms: O2_10  and  C4_11 
ROOT
HETATM    1  C1  UNL     1     -55.831 -66.733 -36.045  1.00  0.00     0.117 C 
HETATM    2  C2  UNL     1     -54.748 -65.741 -36.064  1.00  0.00     0.220 C 
HETATM    3  O1  UNL     1     -53.608 -66.081 -36.422  1.00  0.00    -0.274 OA
HETATM    4  N1  UNL     1     -55.007 -64.416 -35.676  1.00  0.00    -0.300 N 
ATOM      5  H1  UNL     1     -55.327 -64.248 -34.722  1.00  0.00     0.171 HD
HETATM    6  C3  UNL     1     -54.866 -63.406 -36.451  1.00  0.00     0.215 C 
HETATM    7  N2  UNL     1     -55.142 -62.094 -36.007  1.00  0.00    -0.061 NA
HETATM    8  N3  UNL     1     -54.425 -63.625 -37.774  1.00  0.00    -0.229 N 
ATOM      9  H3  UNL     1     -54.673 -64.478 -38.276  1.00  0.00     0.197 HD
ENDROOT
BRANCH   8  10
HETATM   10  O2  UNL     1     -53.640 -62.644 -38.374  1.00  0.00    -0.202 OA
BRANCH  10  11
HETATM   11  C4  UNL     1     -52.259 -62.681 -38.297  1.00  0.00     0.249 C 
HETATM   12  N4  UNL     1     -51.590 -62.265 -39.304  1.00  0.00    -0.366 N 
ATOM     13  H42 UNL     1     -52.052 -61.915 -40.143  1.00  0.00     0.159 HD
ATOM     14  H41 UNL     1     -50.571 -62.292 -39.246  1.00  0.00     0.159 HD
HETATM   15  N5  UNL     1     -51.613 -63.170 -37.124  1.00  0.00    -0.055 NA
ENDBRANCH  10  11
ENDBRANCH   8  10
TORSDOF 2
ENDMDL
