MODEL 1
REMARK VINA RESULT: -4.119212081      0.000      0.000
REMARK  4 active torsions:
REMARK  status: ('A' for Active; 'I' for Inactive)
REMARK       I    between atoms: C2_2  and  N1_4 
REMARK    1  A    between atoms: N1_4  and  N2_6 
REMARK    2  A    between atoms: N2_6  and  C3_8 
REMARK    3  A    between atoms: C3_8  and  N3_10 
REMARK    4  A    between atoms: N3_10  and  N4_12 
ROOT
HETATM    1  N2  UNL     1     -50.265 -62.635 -42.050  1.00  0.00    -0.273 N 
ATOM      2  H2  UNL     1     -50.581 -63.012 -41.157  1.00  0.00     0.189 HD
ENDROOT
BRANCH   1   3
HETATM    3  N1  UNL     1     -50.968 -62.910 -43.213  1.00  0.00    -0.268 N 
HETATM    4  C2  UNL     1     -50.732 -64.087 -43.960  1.00  0.00     0.232 C 
HETATM    5  C1  UNL     1     -51.535 -64.302 -45.199  1.00  0.00     0.119 C 
HETATM    6  O1  UNL     1     -49.865 -64.889 -43.550  1.00  0.00    -0.272 OA
ATOM      7  H1  UNL     1     -51.672 -62.248 -43.536  1.00  0.00     0.190 HD
ENDBRANCH   1   3
BRANCH   1   8
HETATM    8  C3  UNL     1     -49.104 -61.827 -42.113  1.00  0.00     0.205 C 
HETATM    9  S1  UNL     1     -49.262 -60.219 -42.344  1.00  0.00    -0.038 SA
BRANCH   8  10
HETATM   10  N3  UNL     1     -47.795 -62.355 -41.982  1.00  0.00    -0.282 N 
ATOM     11  H3  UNL     1     -47.025 -61.759 -41.679  1.00  0.00     0.189 HD
BRANCH  10  12
HETATM   12  N4  UNL     1     -47.575 -63.695 -42.272  1.00  0.00    -0.343 N 
ATOM     13  H42 UNL     1     -48.289 -64.384 -42.035  1.00  0.00     0.176 HD
ATOM     14  H41 UNL     1     -46.700 -63.970 -42.718  1.00  0.00     0.176 HD
ENDBRANCH  10  12
ENDBRANCH   8  10
ENDBRANCH   1   8
TORSDOF 4
ENDMDL
MODEL 2
REMARK VINA RESULT: -4.057592598      2.196      2.330
REMARK  4 active torsions:
REMARK  status: ('A' for Active; 'I' for Inactive)
REMARK       I    between atoms: C2_2  and  N1_4 
REMARK    1  A    between atoms: N1_4  and  N2_6 
REMARK    2  A    between atoms: N2_6  and  C3_8 
REMARK    3  A    between atoms: C3_8  and  N3_10 
REMARK    4  A    between atoms: N3_10  and  N4_12 
ROOT
HETATM    1  N2  UNL     1     -50.292 -63.864 -42.267  1.00  0.00    -0.273 N 
ATOM      2  H2  UNL     1     -50.797 -63.653 -41.406  1.00  0.00     0.189 HD
ENDROOT
BRANCH   1   3
HETATM    3  N1  UNL     1     -50.959 -64.420 -43.348  1.00  0.00    -0.268 N 
HETATM    4  C2  UNL     1     -51.357 -63.638 -44.455  1.00  0.00     0.232 C 
HETATM    5  C1  UNL     1     -52.069 -64.319 -45.575  1.00  0.00     0.119 C 
HETATM    6  O1  UNL     1     -51.095 -62.415 -44.444  1.00  0.00    -0.272 OA
ATOM      7  H1  UNL     1     -51.166 -65.419 -43.343  1.00  0.00     0.190 HD
ENDBRANCH   1   3
BRANCH   1   8
HETATM    8  C3  UNL     1     -48.907 -63.594 -42.367  1.00  0.00     0.205 C 
HETATM    9  S1  UNL     1     -47.888 -64.793 -42.800  1.00  0.00    -0.038 SA
BRANCH   8  10
HETATM   10  N3  UNL     1     -48.355 -62.314 -42.107  1.00  0.00    -0.282 N 
ATOM     11  H3  UNL     1     -47.398 -62.223 -41.767  1.00  0.00     0.189 HD
BRANCH  10  12
HETATM   12  N4  UNL     1     -49.135 -61.185 -42.322  1.00  0.00    -0.343 N 
ATOM     13  H42 UNL     1     -49.437 -60.957 -43.270  1.00  0.00     0.176 HD
ATOM     14  H41 UNL     1     -49.395 -60.602 -41.526  1.00  0.00     0.176 HD
ENDBRANCH  10  12
ENDBRANCH   8  10
ENDBRANCH   1   8
TORSDOF 4
ENDMDL
MODEL 3
REMARK VINA RESULT: -3.857462834      7.651      8.345
REMARK  4 active torsions:
REMARK  status: ('A' for Active; 'I' for Inactive)
REMARK       I    between atoms: C2_2  and  N1_4 
REMARK    1  A    between atoms: N1_4  and  N2_6 
REMARK    2  A    between atoms: N2_6  and  C3_8 
REMARK    3  A    between atoms: C3_8  and  N3_10 
REMARK    4  A    between atoms: N3_10  and  N4_12 
ROOT
HETATM    1  N2  UNL     1     -57.589 -64.646 -43.267  1.00  0.00    -0.273 N 
ATOM      2  H2  UNL     1     -57.583 -64.619 -42.247  1.00  0.00     0.189 HD
ENDROOT
BRANCH   1   3
HETATM    3  N1  UNL     1     -58.464 -63.842 -43.981  1.00  0.00    -0.268 N 
HETATM    4  C2  UNL     1     -58.061 -62.596 -44.511  1.00  0.00     0.232 C 
HETATM    5  C1  UNL     1     -59.069 -61.796 -45.266  1.00  0.00     0.119 C 
HETATM    6  O1  UNL     1     -56.883 -62.222 -44.321  1.00  0.00    -0.272 OA
ATOM      7  H1  UNL     1     -59.423 -64.159 -44.128  1.00  0.00     0.190 HD
ENDBRANCH   1   3
BRANCH   1   8
HETATM    8  C3  UNL     1     -56.705 -65.504 -43.964  1.00  0.00     0.205 C 
HETATM    9  S1  UNL     1     -56.920 -67.119 -43.869  1.00  0.00    -0.038 SA
BRANCH   8  10
HETATM   10  N3  UNL     1     -55.629 -65.021 -44.750  1.00  0.00    -0.282 N 
ATOM     11  H3  UNL     1     -55.211 -64.112 -44.551  1.00  0.00     0.189 HD
BRANCH  10  12
HETATM   12  N4  UNL     1     -55.153 -65.801 -45.796  1.00  0.00    -0.343 N 
ATOM     13  H42 UNL     1     -54.152 -65.821 -45.991  1.00  0.00     0.176 HD
ATOM     14  H41 UNL     1     -55.815 -66.342 -46.353  1.00  0.00     0.176 HD
ENDBRANCH  10  12
ENDBRANCH   8  10
ENDBRANCH   1   8
TORSDOF 4
ENDMDL
MODEL 4
REMARK VINA RESULT: -3.550266677      8.182      8.645
REMARK  4 active torsions:
REMARK  status: ('A' for Active; 'I' for Inactive)
REMARK       I    between atoms: C2_2  and  N1_4 
REMARK    1  A    between atoms: N1_4  and  N2_6 
REMARK    2  A    between atoms: N2_6  and  C3_8 
REMARK    3  A    between atoms: C3_8  and  N3_10 
REMARK    4  A    between atoms: N3_10  and  N4_12 
ROOT
HETATM    1  N2  UNL     1     -55.423 -64.660 -38.284  1.00  0.00    -0.273 N 
ATOM      2  H2  UNL     1     -55.286 -64.919 -39.261  1.00  0.00     0.189 HD
ENDROOT
BRANCH   1   3
HETATM    3  N1  UNL     1     -54.727 -65.319 -37.282  1.00  0.00    -0.268 N 
HETATM    4  C2  UNL     1     -53.523 -64.803 -36.752  1.00  0.00     0.232 C 
HETATM    5  C1  UNL     1     -52.841 -65.579 -35.676  1.00  0.00     0.119 C 
HETATM    6  O1  UNL     1     -53.087 -63.723 -37.209  1.00  0.00    -0.272 OA
ATOM      7  H1  UNL     1     -55.094 -66.199 -36.919  1.00  0.00     0.190 HD
ENDBRANCH   1   3
BRANCH   1   8
HETATM    8  C3  UNL     1     -56.324 -63.624 -37.939  1.00  0.00     0.205 C 
HETATM    9  S1  UNL     1     -57.906 -63.974 -37.745  1.00  0.00    -0.038 SA
BRANCH   8  10
HETATM   10  N3  UNL     1     -55.912 -62.280 -37.752  1.00  0.00    -0.282 N 
ATOM     11  H3  UNL     1     -55.906 -61.628 -38.536  1.00  0.00     0.189 HD
BRANCH  10  12
HETATM   12  N4  UNL     1     -55.517 -61.865 -36.488  1.00  0.00    -0.343 N 
ATOM     13  H42 UNL     1     -55.604 -62.505 -35.699  1.00  0.00     0.176 HD
ATOM     14  H41 UNL     1     -55.144 -60.923 -36.369  1.00  0.00     0.176 HD
ENDBRANCH  10  12
ENDBRANCH   8  10
ENDBRANCH   1   8
TORSDOF 4
ENDMDL
MODEL 5
REMARK VINA RESULT: -3.495027746      7.517      8.427
REMARK  4 active torsions:
REMARK  status: ('A' for Active; 'I' for Inactive)
REMARK       I    between atoms: C2_2  and  N1_4 
REMARK    1  A    between atoms: N1_4  and  N2_6 
REMARK    2  A    between atoms: N2_6  and  C3_8 
REMARK    3  A    between atoms: C3_8  and  N3_10 
REMARK    4  A    between atoms: N3_10  and  N4_12 
ROOT
HETATM    1  N2  UNL     1     -56.835 -62.892 -44.301  1.00  0.00    -0.273 N 
ATOM      2  H2  UNL     1     -56.306 -62.281 -43.679  1.00  0.00     0.189 HD
ENDROOT
BRANCH   1   3
HETATM    3  N1  UNL     1     -56.175 -63.738 -45.178  1.00  0.00    -0.268 N 
HETATM    4  C2  UNL     1     -56.039 -65.120 -44.914  1.00  0.00     0.232 C 
HETATM    5  C1  UNL     1     -55.312 -65.956 -45.913  1.00  0.00     0.119 C 
HETATM    6  O1  UNL     1     -56.532 -65.575 -43.858  1.00  0.00    -0.272 OA
ATOM      7  H1  UNL     1     -55.777 -63.354 -46.035  1.00  0.00     0.190 HD
ENDBRANCH   1   3
BRANCH   1   8
HETATM    8  C3  UNL     1     -58.251 -62.882 -44.276  1.00  0.00     0.205 C 
HETATM    9  S1  UNL     1     -59.064 -62.024 -45.401  1.00  0.00    -0.038 SA
BRANCH   8  10
HETATM   10  N3  UNL     1     -59.005 -63.593 -43.308  1.00  0.00    -0.282 N 
ATOM     11  H3  UNL     1     -59.362 -63.116 -42.480  1.00  0.00     0.189 HD
BRANCH  10  12
HETATM   12  N4  UNL     1     -59.250 -64.946 -43.502  1.00  0.00    -0.343 N 
ATOM     13  H42 UNL     1     -59.362 -65.305 -44.450  1.00  0.00     0.176 HD
ATOM     14  H41 UNL     1     -59.314 -65.560 -42.690  1.00  0.00     0.176 HD
ENDBRANCH  10  12
ENDBRANCH   8  10
ENDBRANCH   1   8
TORSDOF 4
ENDMDL
