MODEL 1
REMARK VINA RESULT: -6.994984166      0.000      0.000
REMARK  8 active torsions:
REMARK  status: ('A' for Active; 'I' for Inactive)
REMARK    1  A    between atoms: N1_1  and  C1_4 
REMARK    2  A    between atoms: C2_7  and  O1_8 
REMARK    3  A    between atoms: O1_8  and  C3_9 
REMARK    4  A    between atoms: C3_9  and  C4_10 
REMARK    5  A    between atoms: C8_14  and  N3_15 
REMARK    6  A    between atoms: C11_18  and  C12_19 
REMARK    7  A    between atoms: C12_19  and  C13_20 
REMARK    8  A    between atoms: C13_20  and  N4_21 
ROOT
HETATM    1  C1  UNL     1     -19.389  13.071  23.996  1.00  0.00     0.679 A 
HETATM    2  N2  UNL     1     -19.396  14.370  24.377  1.00  0.00    -0.171 N 
ATOM      3  H2  UNL     1     -20.189  14.960  24.127  1.00  0.00     0.186 HD
HETATM    4  C2  UNL     1     -18.367  14.902  25.086  1.00  0.00     0.161 A 
HETATM    5  C7  UNL     1     -17.320  14.068  25.401  1.00  0.00     0.105 A 
HETATM    6  C8  UNL     1     -17.276  12.750  25.034  1.00  0.00     0.123 A 
HETATM    7  N5  UNL     1     -18.342  12.298  24.329  1.00  0.00    -0.177 N 
ATOM      8  H5  UNL     1     -18.349  11.320  24.035  1.00  0.00     0.185 HD
ENDROOT
BRANCH   6   9
HETATM    9  N3  UNL     1     -16.243  11.835  25.327  1.00  0.00    -0.361 N 
HETATM   10  C9  UNL     1     -15.480  11.927  26.580  1.00  0.00     0.125 C 
HETATM   11  C10 UNL     1     -15.575  10.509  27.159  1.00  0.00     0.030 C 
HETATM   12  C11 UNL     1     -14.574   9.660  26.379  1.00  0.00     0.063 C 
HETATM   13  C14 UNL     1     -14.575  10.101  24.958  1.00  0.00     0.263 C 
HETATM   14  F1  UNL     1     -14.361   8.958  24.183  1.00  0.00    -0.204 F 
HETATM   15  F2  UNL     1     -13.541  10.953  24.628  1.00  0.00    -0.204 F 
HETATM   16  C15 UNL     1     -15.844  10.738  24.469  1.00  0.00     0.203 C 
BRANCH  12  17
HETATM   17  C12 UNL     1     -13.273   9.784  27.098  1.00  0.00     0.038 C 
BRANCH  17  18
HETATM   18  C13 UNL     1     -12.279   8.705  26.850  1.00  0.00     0.230 C 
BRANCH  18  19
HETATM   19  N4  UNL     1     -11.279   8.556  27.850  1.00  0.00    -0.079 N 
ATOM     20  H43 UNL     1     -11.245   9.389  28.439  1.00  0.00     0.274 HD
ATOM     21  H42 UNL     1     -11.573   7.861  28.538  1.00  0.00     0.274 HD
ATOM     22  H41 UNL     1     -10.346   8.333  27.505  1.00  0.00     0.274 HD
ENDBRANCH  18  19
ENDBRANCH  17  18
ENDBRANCH  12  17
ENDBRANCH   6   9
BRANCH   4  23
HETATM   23  O1  UNL     1     -18.403  16.253  25.461  1.00  0.00    -0.335 OA
BRANCH  23  24
HETATM   24  C3  UNL     1     -17.391  16.754  26.315  1.00  0.00     0.182 C 
BRANCH  24  25
HETATM   25  C4  UNL     1     -16.650  17.906  25.704  1.00  0.00     0.010 A 
HETATM   26  C5  UNL     1     -15.103  17.838  25.916  1.00  0.00     0.007 A 
HETATM   27  C6  UNL     1     -15.733  17.783  24.572  1.00  0.00     0.007 A 
ENDBRANCH  24  25
ENDBRANCH  23  24
ENDBRANCH   4  23
BRANCH   1  28
HETATM   28  N1  UNL     1     -20.341  12.520  23.324  1.00  0.00    -0.234 N 
ATOM     29  H12 UNL     1     -21.210  13.045  23.228  1.00  0.00     0.174 HD
ATOM     30  H11 UNL     1     -20.266  11.599  22.890  1.00  0.00     0.174 HD
ENDBRANCH   1  28
TORSDOF 8
ENDMDL
MODEL 2
REMARK VINA RESULT: -6.981983896      3.667      6.189
REMARK  8 active torsions:
REMARK  status: ('A' for Active; 'I' for Inactive)
REMARK    1  A    between atoms: N1_1  and  C1_4 
REMARK    2  A    between atoms: C2_7  and  O1_8 
REMARK    3  A    between atoms: O1_8  and  C3_9 
REMARK    4  A    between atoms: C3_9  and  C4_10 
REMARK    5  A    between atoms: C8_14  and  N3_15 
REMARK    6  A    between atoms: C11_18  and  C12_19 
REMARK    7  A    between atoms: C12_19  and  C13_20 
REMARK    8  A    between atoms: C13_20  and  N4_21 
ROOT
HETATM    1  C1  UNL     1     -12.553  14.333  28.127  1.00  0.00     0.679 A 
HETATM    2  N2  UNL     1     -12.355  15.637  28.433  1.00  0.00    -0.171 N 
ATOM      3  H2  UNL     1     -11.610  15.890  29.082  1.00  0.00     0.186 HD
HETATM    4  C2  UNL     1     -13.127  16.614  27.893  1.00  0.00     0.161 A 
HETATM    5  C7  UNL     1     -14.117  16.225  27.022  1.00  0.00     0.105 A 
HETATM    6  C8  UNL     1     -14.350  14.918  26.687  1.00  0.00     0.123 A 
HETATM    7  N5  UNL     1     -13.535  14.005  27.271  1.00  0.00    -0.177 N 
ATOM      8  H5  UNL     1     -13.675  13.019  27.049  1.00  0.00     0.185 HD
ENDROOT
BRANCH   6   9
HETATM    9  N3  UNL     1     -15.339  14.446  25.798  1.00  0.00    -0.361 N 
HETATM   10  C9  UNL     1     -15.556  13.006  25.600  1.00  0.00     0.125 C 
HETATM   11  C10 UNL     1     -17.064  12.839  25.826  1.00  0.00     0.030 C 
HETATM   12  C11 UNL     1     -17.744  13.319  24.546  1.00  0.00     0.063 C 
HETATM   13  C14 UNL     1     -16.993  14.487  24.012  1.00  0.00     0.263 C 
HETATM   14  F1  UNL     1     -17.936  15.343  23.436  1.00  0.00    -0.204 F 
HETATM   15  F2  UNL     1     -16.119  14.181  22.989  1.00  0.00    -0.204 F 
HETATM   16  C15 UNL     1     -16.223  15.291  25.022  1.00  0.00     0.203 C 
BRANCH  12  17
HETATM   17  C12 UNL     1     -17.825  12.132  23.646  1.00  0.00     0.038 C 
BRANCH  17  18
HETATM   18  C13 UNL     1     -19.193  11.655  23.309  1.00  0.00     0.230 C 
BRANCH  18  19
HETATM   19  N4  UNL     1     -20.223  12.630  23.419  1.00  0.00    -0.079 N 
ATOM     20  H43 UNL     1     -19.874  13.453  23.911  1.00  0.00     0.274 HD
ATOM     21  H42 UNL     1     -20.420  13.037  22.505  1.00  0.00     0.274 HD
ATOM     22  H41 UNL     1     -21.088  12.305  23.851  1.00  0.00     0.274 HD
ENDBRANCH  18  19
ENDBRANCH  17  18
ENDBRANCH  12  17
ENDBRANCH   6   9
BRANCH   4  23
HETATM   23  O1  UNL     1     -12.898  17.955  28.234  1.00  0.00    -0.335 OA
BRANCH  23  24
HETATM   24  C3  UNL     1     -12.824  18.922  27.202  1.00  0.00     0.182 C 
BRANCH  24  25
HETATM   25  C4  UNL     1     -11.425  19.106  26.694  1.00  0.00     0.010 A 
HETATM   26  C5  UNL     1     -11.356  19.742  25.268  1.00  0.00     0.007 A 
HETATM   27  C6  UNL     1     -10.798  20.407  26.473  1.00  0.00     0.007 A 
ENDBRANCH  24  25
ENDBRANCH  23  24
ENDBRANCH   4  23
BRANCH   1  28
HETATM   28  N1  UNL     1     -11.847  13.371  28.613  1.00  0.00    -0.234 N 
ATOM     29  H12 UNL     1     -11.226  13.593  29.391  1.00  0.00     0.174 HD
ATOM     30  H11 UNL     1     -11.881  12.413  28.263  1.00  0.00     0.174 HD
ENDBRANCH   1  28
TORSDOF 8
ENDMDL
MODEL 3
REMARK VINA RESULT: -6.956743600      3.591      6.101
REMARK  8 active torsions:
REMARK  status: ('A' for Active; 'I' for Inactive)
REMARK    1  A    between atoms: N1_1  and  C1_4 
REMARK    2  A    between atoms: C2_7  and  O1_8 
REMARK    3  A    between atoms: O1_8  and  C3_9 
REMARK    4  A    between atoms: C3_9  and  C4_10 
REMARK    5  A    between atoms: C8_14  and  N3_15 
REMARK    6  A    between atoms: C11_18  and  C12_19 
REMARK    7  A    between atoms: C12_19  and  C13_20 
REMARK    8  A    between atoms: C13_20  and  N4_21 
ROOT
HETATM    1  C1  UNL     1     -12.235  14.292  28.148  1.00  0.00     0.679 A 
HETATM    2  N2  UNL     1     -12.173  15.617  28.416  1.00  0.00    -0.171 N 
ATOM      3  H2  UNL     1     -11.392  15.982  28.961  1.00  0.00     0.186 HD
HETATM    4  C2  UNL     1     -13.131  16.472  27.973  1.00  0.00     0.161 A 
HETATM    5  C7  UNL     1     -14.164  15.936  27.241  1.00  0.00     0.105 A 
HETATM    6  C8  UNL     1     -14.263  14.602  26.950  1.00  0.00     0.123 A 
HETATM    7  N5  UNL     1     -13.266  13.818  27.430  1.00  0.00    -0.177 N 
ATOM      8  H5  UNL     1     -13.301  12.817  27.235  1.00  0.00     0.185 HD
ENDROOT
BRANCH   6   9
HETATM    9  N3  UNL     1     -15.285  13.982  26.201  1.00  0.00    -0.361 N 
HETATM   10  C9  UNL     1     -15.665  14.485  24.873  1.00  0.00     0.125 C 
HETATM   11  C10 UNL     1     -15.597  13.235  23.986  1.00  0.00     0.030 C 
HETATM   12  C11 UNL     1     -16.871  12.441  24.269  1.00  0.00     0.063 C 
HETATM   13  C14 UNL     1     -17.198  12.556  25.715  1.00  0.00     0.263 C 
HETATM   14  F1  UNL     1     -17.756  11.334  26.100  1.00  0.00    -0.204 F 
HETATM   15  F2  UNL     1     -18.166  13.496  26.005  1.00  0.00    -0.204 F 
HETATM   16  C15 UNL     1     -16.037  12.822  26.632  1.00  0.00     0.203 C 
BRANCH  12  17
HETATM   17  C12 UNL     1     -17.902  12.960  23.325  1.00  0.00     0.038 C 
BRANCH  17  18
HETATM   18  C13 UNL     1     -19.127  12.130  23.168  1.00  0.00     0.230 C 
BRANCH  18  19
HETATM   19  N4  UNL     1     -20.319  12.695  23.700  1.00  0.00    -0.079 N 
ATOM     20  H43 UNL     1     -20.353  13.695  23.497  1.00  0.00     0.274 HD
ATOM     21  H42 UNL     1     -21.127  12.375  23.166  1.00  0.00     0.274 HD
ATOM     22  H41 UNL     1     -20.471  12.535  24.695  1.00  0.00     0.274 HD
ENDBRANCH  18  19
ENDBRANCH  17  18
ENDBRANCH  12  17
ENDBRANCH   6   9
BRANCH   4  23
HETATM   23  O1  UNL     1     -13.040  17.840  28.271  1.00  0.00    -0.335 OA
BRANCH  23  24
HETATM   24  C3  UNL     1     -12.990  18.771  27.207  1.00  0.00     0.182 C 
BRANCH  24  25
HETATM   25  C4  UNL     1     -11.590  19.017  26.731  1.00  0.00     0.010 A 
HETATM   26  C5  UNL     1     -11.516  19.664  25.310  1.00  0.00     0.007 A 
HETATM   27  C6  UNL     1     -11.013  20.344  26.530  1.00  0.00     0.007 A 
ENDBRANCH  24  25
ENDBRANCH  23  24
ENDBRANCH   4  23
BRANCH   1  28
HETATM   28  N1  UNL     1     -11.351  13.442  28.545  1.00  0.00    -0.234 N 
ATOM     29  H12 UNL     1     -11.676  12.503  28.776  1.00  0.00     0.174 HD
ATOM     30  H11 UNL     1     -10.359  13.660  28.637  1.00  0.00     0.174 HD
ENDBRANCH   1  28
TORSDOF 8
ENDMDL
MODEL 4
REMARK VINA RESULT: -6.945694706      4.030      6.783
REMARK  8 active torsions:
REMARK  status: ('A' for Active; 'I' for Inactive)
REMARK    1  A    between atoms: N1_1  and  C1_4 
REMARK    2  A    between atoms: C2_7  and  O1_8 
REMARK    3  A    between atoms: O1_8  and  C3_9 
REMARK    4  A    between atoms: C3_9  and  C4_10 
REMARK    5  A    between atoms: C8_14  and  N3_15 
REMARK    6  A    between atoms: C11_18  and  C12_19 
REMARK    7  A    between atoms: C12_19  and  C13_20 
REMARK    8  A    between atoms: C13_20  and  N4_21 
ROOT
HETATM    1  C1  UNL     1     -17.830  14.826  23.352  1.00  0.00     0.679 A 
HETATM    2  N2  UNL     1     -18.347  13.726  23.947  1.00  0.00    -0.171 N 
ATOM      3  H2  UNL     1     -19.075  13.195  23.471  1.00  0.00     0.186 HD
HETATM    4  C2  UNL     1     -17.914  13.315  25.167  1.00  0.00     0.161 A 
HETATM    5  C7  UNL     1     -16.930  14.061  25.771  1.00  0.00     0.105 A 
HETATM    6  C8  UNL     1     -16.383  15.180  25.202  1.00  0.00     0.123 A 
HETATM    7  N5  UNL     1     -16.871  15.522  23.984  1.00  0.00    -0.177 N 
ATOM      8  H5  UNL     1     -16.490  16.349  23.525  1.00  0.00     0.185 HD
ENDROOT
BRANCH   6   9
HETATM    9  N3  UNL     1     -15.368  15.988  25.756  1.00  0.00    -0.361 N 
HETATM   10  C9  UNL     1     -14.303  16.553  24.915  1.00  0.00     0.125 C 
HETATM   11  C10 UNL     1     -14.333  18.048  25.259  1.00  0.00     0.030 C 
HETATM   12  C11 UNL     1     -13.621  18.192  26.602  1.00  0.00     0.063 C 
HETATM   13  C14 UNL     1     -13.961  17.020  27.454  1.00  0.00     0.263 C 
HETATM   14  F1  UNL     1     -14.025  17.485  28.771  1.00  0.00    -0.204 F 
HETATM   15  F2  UNL     1     -12.996  16.033  27.472  1.00  0.00    -0.204 F 
HETATM   16  C15 UNL     1     -15.271  16.349  27.156  1.00  0.00     0.203 C 
BRANCH  12  17
HETATM   17  C12 UNL     1     -12.173  18.371  26.290  1.00  0.00     0.038 C 
BRANCH  17  18
HETATM   18  C13 UNL     1     -11.756  19.735  25.868  1.00  0.00     0.230 C 
BRANCH  18  19
HETATM   19  N4  UNL     1     -10.909  20.423  26.780  1.00  0.00    -0.079 N 
ATOM     20  H43 UNL     1     -11.317  21.326  27.023  1.00  0.00     0.274 HD
ATOM     21  H42 UNL     1     -10.932  19.965  27.692  1.00  0.00     0.274 HD
ATOM     22  H41 UNL     1      -9.945  20.546  26.474  1.00  0.00     0.274 HD
ENDBRANCH  18  19
ENDBRANCH  17  18
ENDBRANCH  12  17
ENDBRANCH   6   9
BRANCH   4  23
HETATM   23  O1  UNL     1     -18.473  12.172  25.759  1.00  0.00    -0.335 OA
BRANCH  23  24
HETATM   24  C3  UNL     1     -19.562  11.533  25.119  1.00  0.00     0.182 C 
BRANCH  24  25
HETATM   25  C4  UNL     1     -19.193  10.183  24.581  1.00  0.00     0.010 A 
HETATM   26  C5  UNL     1     -19.430  10.035  23.043  1.00  0.00     0.007 A 
HETATM   27  C6  UNL     1     -18.083   9.942  23.661  1.00  0.00     0.007 A 
ENDBRANCH  24  25
ENDBRANCH  23  24
ENDBRANCH   4  23
BRANCH   1  28
HETATM   28  N1  UNL     1     -18.207  15.256  22.197  1.00  0.00    -0.234 N 
ATOM     29  H12 UNL     1     -19.201  15.194  21.976  1.00  0.00     0.174 HD
ATOM     30  H11 UNL     1     -17.569  15.649  21.505  1.00  0.00     0.174 HD
ENDBRANCH   1  28
TORSDOF 8
ENDMDL
MODEL 5
REMARK VINA RESULT: -6.891424621      3.460      6.590
REMARK  8 active torsions:
REMARK  status: ('A' for Active; 'I' for Inactive)
REMARK    1  A    between atoms: N1_1  and  C1_4 
REMARK    2  A    between atoms: C2_7  and  O1_8 
REMARK    3  A    between atoms: O1_8  and  C3_9 
REMARK    4  A    between atoms: C3_9  and  C4_10 
REMARK    5  A    between atoms: C8_14  and  N3_15 
REMARK    6  A    between atoms: C11_18  and  C12_19 
REMARK    7  A    between atoms: C12_19  and  C13_20 
REMARK    8  A    between atoms: C13_20  and  N4_21 
ROOT
HETATM    1  C1  UNL     1     -19.206  12.511  23.713  1.00  0.00     0.679 A 
HETATM    2  N2  UNL     1     -18.454  11.389  23.628  1.00  0.00    -0.171 N 
ATOM      3  H2  UNL     1     -18.877  10.528  23.282  1.00  0.00     0.186 HD
HETATM    4  C2  UNL     1     -17.147  11.387  23.995  1.00  0.00     0.161 A 
HETATM    5  C7  UNL     1     -16.619  12.571  24.455  1.00  0.00     0.105 A 
HETATM    6  C8  UNL     1     -17.347  13.726  24.556  1.00  0.00     0.123 A 
HETATM    7  N5  UNL     1     -18.644  13.642  24.170  1.00  0.00    -0.177 N 
ATOM      8  H5  UNL     1     -19.222  14.481  24.229  1.00  0.00     0.185 HD
ENDROOT
BRANCH   6   9
HETATM    9  N3  UNL     1     -16.873  14.975  25.009  1.00  0.00    -0.361 N 
HETATM   10  C9  UNL     1     -15.434  15.240  25.139  1.00  0.00     0.125 C 
HETATM   11  C10 UNL     1     -15.240  16.546  24.358  1.00  0.00     0.030 C 
HETATM   12  C11 UNL     1     -15.731  17.668  25.271  1.00  0.00     0.063 C 
HETATM   13  C14 UNL     1     -16.919  17.187  26.026  1.00  0.00     0.263 C 
HETATM   14  F1  UNL     1     -17.770  18.285  26.180  1.00  0.00    -0.204 F 
HETATM   15  F2  UNL     1     -16.643  16.768  27.311  1.00  0.00    -0.204 F 
HETATM   16  C15 UNL     1     -17.717  16.096  25.370  1.00  0.00     0.203 C 
BRANCH  12  17
HETATM   17  C12 UNL     1     -14.558  18.077  26.095  1.00  0.00     0.038 C 
BRANCH  17  18
HETATM   18  C13 UNL     1     -13.279  18.284  25.363  1.00  0.00     0.230 C 
BRANCH  18  19
HETATM   19  N4  UNL     1     -12.573  19.473  25.694  1.00  0.00    -0.079 N 
ATOM     20  H43 UNL     1     -13.223  20.256  25.775  1.00  0.00     0.274 HD
ATOM     21  H42 UNL     1     -12.233  19.423  26.655  1.00  0.00     0.274 HD
ATOM     22  H41 UNL     1     -11.809  19.717  25.065  1.00  0.00     0.274 HD
ENDBRANCH  18  19
ENDBRANCH  17  18
ENDBRANCH  12  17
ENDBRANCH   6   9
BRANCH   4  23
HETATM   23  O1  UNL     1     -16.395  10.206  23.898  1.00  0.00    -0.335 OA
BRANCH  23  24
HETATM   24  C3  UNL     1     -15.125  10.150  24.519  1.00  0.00     0.182 C 
BRANCH  24  25
HETATM   25  C4  UNL     1     -15.172   9.463  25.851  1.00  0.00     0.010 A 
HETATM   26  C5  UNL     1     -14.145  10.030  26.884  1.00  0.00     0.007 A 
HETATM   27  C6  UNL     1     -15.614  10.102  27.088  1.00  0.00     0.007 A 
ENDBRANCH  24  25
ENDBRANCH  23  24
ENDBRANCH   4  23
BRANCH   1  28
HETATM   28  N1  UNL     1     -20.449  12.563  23.377  1.00  0.00    -0.234 N 
ATOM     29  H12 UNL     1     -21.133  12.665  24.127  1.00  0.00     0.174 HD
ATOM     30  H11 UNL     1     -20.776  12.510  22.412  1.00  0.00     0.174 HD
ENDBRANCH   1  28
TORSDOF 8
ENDMDL
