MODEL 1
REMARK VINA RESULT: -7.026183869      0.000      0.000
REMARK  10 active torsions:
REMARK  status: ('A' for Active; 'I' for Inactive)
REMARK    1  A    between atoms: C2_2  and  C3_5 
REMARK    2  A    between atoms: C3_5  and  C4_6 
REMARK    3  A    between atoms: C4_6  and  C5_7 
REMARK    4  A    between atoms: C5_7  and  N1_8 
REMARK    5  A    between atoms: N1_8  and  C6_10 
REMARK    6  A    between atoms: C9_17  and  N4_18 
REMARK    7  A    between atoms: N4_18  and  C10_20 
REMARK    8  A    between atoms: C10_20  and  C11_21 
REMARK    9  A    between atoms: C11_21  and  C12_22 
REMARK   10  A    between atoms: C12_22  and  N5_23 
ROOT
HETATM    1  C6  UNL     1     -16.810  16.055  24.214  1.00  0.00     0.131 A 
HETATM    2  N2  UNL     1     -17.654  16.367  25.214  1.00  0.00    -0.337 N 
ATOM      3  H2  UNL     1     -18.609  16.008  25.199  1.00  0.00     0.168 HD
HETATM    4  C7  UNL     1     -17.248  17.156  26.248  1.00  0.00     0.182 A 
HETATM    5  N3  UNL     1     -16.007  17.664  26.330  1.00  0.00    -0.347 N 
ATOM      6  H3  UNL     1     -15.739  18.253  27.119  1.00  0.00     0.167 HD
HETATM    7  C8  UNL     1     -15.109  17.379  25.340  1.00  0.00     0.108 A 
HETATM    8  C9  UNL     1     -13.820  17.891  25.402  1.00  0.00     0.131 A 
HETATM    9  N6  UNL     1     -12.944  17.606  24.427  1.00  0.00    -0.337 N 
ATOM     10  H6  UNL     1     -11.991  17.970  24.452  1.00  0.00     0.168 HD
HETATM   11  C13 UNL     1     -13.361  16.827  23.416  1.00  0.00     0.182 A 
HETATM   12  N7  UNL     1     -14.607  16.322  23.340  1.00  0.00    -0.347 N 
ATOM     13  H7  UNL     1     -14.858  15.736  22.545  1.00  0.00     0.167 HD
HETATM   14  C14 UNL     1     -15.536  16.576  24.299  1.00  0.00     0.108 A 
ENDROOT
BRANCH   1  15
HETATM   15  N1  UNL     1     -17.158  15.315  23.227  1.00  0.00    -0.374 N 
ATOM     16  H1  UNL     1     -16.518  15.269  22.435  1.00  0.00     0.161 HD
BRANCH  15  17
HETATM   17  C5  UNL     1     -18.354  14.552  23.136  1.00  0.00     0.121 C 
BRANCH  17  18
HETATM   18  C4  UNL     1     -18.085  13.090  23.353  1.00  0.00     0.025 C 
BRANCH  18  19
HETATM   19  C3  UNL     1     -19.372  12.292  23.296  1.00  0.00     0.080 C 
BRANCH  19  20
HETATM   20  C2  UNL     1     -19.066  10.863  23.671  1.00  0.00     0.240 C 
HETATM   21  C1  UNL     1     -17.573  10.680  23.928  1.00  0.00     0.090 C 
HETATM   22  F1  UNL     1     -19.771  10.571  24.823  1.00  0.00    -0.207 F 
HETATM   23  F2  UNL     1     -19.396  10.014  22.629  1.00  0.00    -0.207 F 
ENDBRANCH  19  20
ENDBRANCH  18  19
ENDBRANCH  17  18
ENDBRANCH  15  17
ENDBRANCH   1  15
BRANCH   8  24
HETATM   24  N4  UNL     1     -13.463  18.625  26.374  1.00  0.00    -0.374 N 
ATOM     25  H4  UNL     1     -14.194  19.158  26.845  1.00  0.00     0.161 HD
BRANCH  24  26
HETATM   26  C10 UNL     1     -12.133  18.772  26.867  1.00  0.00     0.123 C 
BRANCH  26  27
HETATM   27  C11 UNL     1     -11.482  20.062  26.499  1.00  0.00     0.047 C 
BRANCH  27  28
HETATM   28  C12 UNL     1     -10.127  19.884  25.858  1.00  0.00     0.231 C 
BRANCH  28  29
HETATM   29  N5  UNL     1      -9.211  20.931  26.182  1.00  0.00    -0.079 N 
ATOM     30  H53 UNL     1      -8.604  21.141  25.389  1.00  0.00     0.274 HD
ATOM     31  H52 UNL     1      -9.696  21.825  26.264  1.00  0.00     0.274 HD
ATOM     32  H51 UNL     1      -8.661  20.737  27.019  1.00  0.00     0.274 HD
ENDBRANCH  28  29
ENDBRANCH  27  28
ENDBRANCH  26  27
ENDBRANCH  24  26
ENDBRANCH   8  24
TORSDOF 10
ENDMDL
MODEL 2
REMARK VINA RESULT: -6.782489216      1.034      1.262
REMARK  10 active torsions:
REMARK  status: ('A' for Active; 'I' for Inactive)
REMARK    1  A    between atoms: C2_2  and  C3_5 
REMARK    2  A    between atoms: C3_5  and  C4_6 
REMARK    3  A    between atoms: C4_6  and  C5_7 
REMARK    4  A    between atoms: C5_7  and  N1_8 
REMARK    5  A    between atoms: N1_8  and  C6_10 
REMARK    6  A    between atoms: C9_17  and  N4_18 
REMARK    7  A    between atoms: N4_18  and  C10_20 
REMARK    8  A    between atoms: C10_20  and  C11_21 
REMARK    9  A    between atoms: C11_21  and  C12_22 
REMARK   10  A    between atoms: C12_22  and  N5_23 
ROOT
HETATM    1  C6  UNL     1     -16.816  16.033  24.116  1.00  0.00     0.131 A 
HETATM    2  N2  UNL     1     -17.674  16.295  25.119  1.00  0.00    -0.337 N 
ATOM      3  H2  UNL     1     -18.623  15.925  25.079  1.00  0.00     0.168 HD
HETATM    4  C7  UNL     1     -17.288  17.048  26.186  1.00  0.00     0.182 A 
HETATM    5  N3  UNL     1     -16.055  17.568  26.301  1.00  0.00    -0.347 N 
ATOM      6  H3  UNL     1     -15.802  18.128  27.115  1.00  0.00     0.167 HD
HETATM    7  C8  UNL     1     -15.144  17.333  25.310  1.00  0.00     0.108 A 
HETATM    8  C9  UNL     1     -13.862  17.858  25.405  1.00  0.00     0.131 A 
HETATM    9  N6  UNL     1     -12.973  17.623  24.427  1.00  0.00    -0.337 N 
ATOM     10  H6  UNL     1     -12.025  17.998  24.476  1.00  0.00     0.168 HD
HETATM   11  C13 UNL     1     -13.371  16.879  23.383  1.00  0.00     0.182 A 
HETATM   12  N7  UNL     1     -14.608  16.362  23.275  1.00  0.00    -0.347 N 
ATOM     13  H7  UNL     1     -14.845  15.804  22.455  1.00  0.00     0.167 HD
HETATM   14  C14 UNL     1     -15.550  16.566  24.233  1.00  0.00     0.108 A 
ENDROOT
BRANCH   1  15
HETATM   15  N1  UNL     1     -17.146  15.328  23.097  1.00  0.00    -0.374 N 
ATOM     16  H1  UNL     1     -16.466  15.264  22.340  1.00  0.00     0.161 HD
BRANCH  15  17
HETATM   17  C5  UNL     1     -18.370  14.627  22.926  1.00  0.00     0.121 C 
BRANCH  17  18
HETATM   18  C4  UNL     1     -18.253  13.204  23.395  1.00  0.00     0.025 C 
BRANCH  18  19
HETATM   19  C3  UNL     1     -19.587  12.693  23.899  1.00  0.00     0.080 C 
BRANCH  19  20
HETATM   20  C2  UNL     1     -19.502  12.529  25.397  1.00  0.00     0.240 C 
HETATM   21  C1  UNL     1     -18.060  12.677  25.875  1.00  0.00     0.090 C 
HETATM   22  F1  UNL     1     -20.281  13.513  25.973  1.00  0.00    -0.207 F 
HETATM   23  F2  UNL     1     -19.912  11.258  25.763  1.00  0.00    -0.207 F 
ENDBRANCH  19  20
ENDBRANCH  18  19
ENDBRANCH  17  18
ENDBRANCH  15  17
ENDBRANCH   1  15
BRANCH   8  24
HETATM   24  N4  UNL     1     -13.524  18.558  26.408  1.00  0.00    -0.374 N 
ATOM     25  H4  UNL     1     -14.269  19.047  26.904  1.00  0.00     0.161 HD
BRANCH  24  26
HETATM   26  C10 UNL     1     -12.197  18.724  26.904  1.00  0.00     0.123 C 
BRANCH  26  27
HETATM   27  C11 UNL     1     -11.541  19.996  26.487  1.00  0.00     0.047 C 
BRANCH  27  28
HETATM   28  C12 UNL     1     -10.134  19.801  25.975  1.00  0.00     0.231 C 
BRANCH  28  29
HETATM   29  N5  UNL     1      -9.302  20.944  26.174  1.00  0.00    -0.079 N 
ATOM     30  H53 UNL     1      -8.689  21.092  25.371  1.00  0.00     0.274 HD
ATOM     31  H52 UNL     1      -9.848  21.804  26.129  1.00  0.00     0.274 HD
ATOM     32  H51 UNL     1      -8.762  20.901  27.039  1.00  0.00     0.274 HD
ENDBRANCH  28  29
ENDBRANCH  27  28
ENDBRANCH  26  27
ENDBRANCH  24  26
ENDBRANCH   8  24
TORSDOF 10
ENDMDL
MODEL 3
REMARK VINA RESULT: -6.749623482      5.642      8.134
REMARK  10 active torsions:
REMARK  status: ('A' for Active; 'I' for Inactive)
REMARK    1  A    between atoms: C2_2  and  C3_5 
REMARK    2  A    between atoms: C3_5  and  C4_6 
REMARK    3  A    between atoms: C4_6  and  C5_7 
REMARK    4  A    between atoms: C5_7  and  N1_8 
REMARK    5  A    between atoms: N1_8  and  C6_10 
REMARK    6  A    between atoms: C9_17  and  N4_18 
REMARK    7  A    between atoms: N4_18  and  C10_20 
REMARK    8  A    between atoms: C10_20  and  C11_21 
REMARK    9  A    between atoms: C11_21  and  C12_22 
REMARK   10  A    between atoms: C12_22  and  N5_23 
ROOT
HETATM    1  C6  UNL     1     -18.667  11.368  25.390  1.00  0.00     0.131 A 
HETATM    2  N2  UNL     1     -19.405  10.844  24.394  1.00  0.00    -0.337 N 
ATOM      3  H2  UNL     1     -20.381  11.121  24.291  1.00  0.00     0.168 HD
HETATM    4  C7  UNL     1     -18.863   9.949  23.522  1.00  0.00     0.182 A 
HETATM    5  N3  UNL     1     -17.586   9.539  23.602  1.00  0.00    -0.347 N 
ATOM      6  H3  UNL     1     -17.214   8.866  22.932  1.00  0.00     0.167 HD
HETATM    7  C8  UNL     1     -16.792  10.039  24.596  1.00  0.00     0.108 A 
HETATM    8  C9  UNL     1     -15.469   9.633  24.700  1.00  0.00     0.131 A 
HETATM    9  N6  UNL     1     -14.695  10.128  25.678  1.00  0.00    -0.337 N 
ATOM     10  H6  UNL     1     -13.720   9.845  25.772  1.00  0.00     0.168 HD
HETATM   11  C13 UNL     1     -15.246  11.010  26.528  1.00  0.00     0.182 A 
HETATM   12  N7  UNL     1     -16.527  11.415  26.442  1.00  0.00    -0.347 N 
ATOM     13  H7  UNL     1     -16.882  12.088  27.120  1.00  0.00     0.167 HD
HETATM   14  C14 UNL     1     -17.357  10.947  25.472  1.00  0.00     0.108 A 
ENDROOT
BRANCH   1  15
HETATM   15  N1  UNL     1     -19.145  12.212  26.228  1.00  0.00    -0.374 N 
ATOM     16  H1  UNL     1     -19.213  11.912  27.200  1.00  0.00     0.161 HD
BRANCH  15  17
HETATM   17  C5  UNL     1     -19.589  13.528  25.927  1.00  0.00     0.121 C 
BRANCH  17  18
HETATM   18  C4  UNL     1     -18.465  14.374  25.399  1.00  0.00     0.025 C 
BRANCH  18  19
HETATM   19  C3  UNL     1     -18.873  15.069  24.115  1.00  0.00     0.080 C 
BRANCH  19  20
HETATM   20  C2  UNL     1     -18.232  14.346  22.955  1.00  0.00     0.240 C 
HETATM   21  C1  UNL     1     -16.833  13.861  23.328  1.00  0.00     0.090 C 
HETATM   22  F1  UNL     1     -19.028  13.260  22.645  1.00  0.00    -0.207 F 
HETATM   23  F2  UNL     1     -18.080  15.205  21.881  1.00  0.00    -0.207 F 
ENDBRANCH  19  20
ENDBRANCH  18  19
ENDBRANCH  17  18
ENDBRANCH  15  17
ENDBRANCH   1  15
BRANCH   8  24
HETATM   24  N4  UNL     1     -14.984   8.797  23.877  1.00  0.00    -0.374 N 
ATOM     25  H4  UNL     1     -15.599   8.468  23.132  1.00  0.00     0.161 HD
BRANCH  24  26
HETATM   26  C10 UNL     1     -13.656   8.275  23.898  1.00  0.00     0.123 C 
BRANCH  26  27
HETATM   27  C11 UNL     1     -13.468   7.044  23.078  1.00  0.00     0.047 C 
BRANCH  27  28
HETATM   28  C12 UNL     1     -12.568   6.023  23.733  1.00  0.00     0.231 C 
BRANCH  28  29
HETATM   29  N5  UNL     1     -13.085   4.694  23.665  1.00  0.00    -0.079 N 
ATOM     30  H53 UNL     1     -13.526   4.521  22.761  1.00  0.00     0.274 HD
ATOM     31  H52 UNL     1     -12.329   4.011  23.616  1.00  0.00     0.274 HD
ATOM     32  H51 UNL     1     -13.725   4.474  24.429  1.00  0.00     0.274 HD
ENDBRANCH  28  29
ENDBRANCH  27  28
ENDBRANCH  26  27
ENDBRANCH  24  26
ENDBRANCH   8  24
TORSDOF 10
ENDMDL
MODEL 4
REMARK VINA RESULT: -6.748162001      1.511      2.008
REMARK  10 active torsions:
REMARK  status: ('A' for Active; 'I' for Inactive)
REMARK    1  A    between atoms: C2_2  and  C3_5 
REMARK    2  A    between atoms: C3_5  and  C4_6 
REMARK    3  A    between atoms: C4_6  and  C5_7 
REMARK    4  A    between atoms: C5_7  and  N1_8 
REMARK    5  A    between atoms: N1_8  and  C6_10 
REMARK    6  A    between atoms: C9_17  and  N4_18 
REMARK    7  A    between atoms: N4_18  and  C10_20 
REMARK    8  A    between atoms: C10_20  and  C11_21 
REMARK    9  A    between atoms: C11_21  and  C12_22 
REMARK   10  A    between atoms: C12_22  and  N5_23 
ROOT
HETATM    1  C6  UNL     1     -16.986  15.762  24.042  1.00  0.00     0.131 A 
HETATM    2  N2  UNL     1     -17.918  16.038  24.971  1.00  0.00    -0.337 N 
ATOM      3  H2  UNL     1     -18.847  15.625  24.892  1.00  0.00     0.168 HD
HETATM    4  C7  UNL     1     -17.635  16.864  26.017  1.00  0.00     0.182 A 
HETATM    5  N3  UNL     1     -16.435  17.443  26.182  1.00  0.00    -0.347 N 
ATOM      6  H3  UNL     1     -16.260  18.058  26.977  1.00  0.00     0.167 HD
HETATM    7  C8  UNL     1     -15.451  17.197  25.266  1.00  0.00     0.108 A 
HETATM    8  C9  UNL     1     -14.201  17.783  25.413  1.00  0.00     0.131 A 
HETATM    9  N6  UNL     1     -13.240  17.537  24.509  1.00  0.00    -0.337 N 
ATOM     10  H6  UNL     1     -12.314  17.956  24.598  1.00  0.00     0.168 HD
HETATM   11  C13 UNL     1     -13.537  16.720  23.485  1.00  0.00     0.182 A 
HETATM   12  N7  UNL     1     -14.742  16.144  23.327  1.00  0.00    -0.347 N 
ATOM     13  H7  UNL     1     -14.900  15.533  22.526  1.00  0.00     0.167 HD
HETATM   14  C14 UNL     1     -15.753  16.357  24.210  1.00  0.00     0.108 A 
ENDROOT
BRANCH   1  15
HETATM   15  N1  UNL     1     -17.217  14.990  23.046  1.00  0.00    -0.374 N 
ATOM     16  H1  UNL     1     -16.515  14.965  22.307  1.00  0.00     0.161 HD
BRANCH  15  17
HETATM   17  C5  UNL     1     -18.362  14.164  22.876  1.00  0.00     0.121 C 
BRANCH  17  18
HETATM   18  C4  UNL     1     -18.087  12.754  23.317  1.00  0.00     0.025 C 
BRANCH  18  19
HETATM   19  C3  UNL     1     -19.360  11.933  23.316  1.00  0.00     0.080 C 
BRANCH  19  20
HETATM   20  C2  UNL     1     -19.006  10.501  23.634  1.00  0.00     0.240 C 
HETATM   21  C1  UNL     1     -17.512  10.364  23.916  1.00  0.00     0.090 C 
HETATM   22  F1  UNL     1     -19.722  10.131  24.756  1.00  0.00    -0.207 F 
HETATM   23  F2  UNL     1     -19.281   9.688  22.548  1.00  0.00    -0.207 F 
ENDBRANCH  19  20
ENDBRANCH  18  19
ENDBRANCH  17  18
ENDBRANCH  15  17
ENDBRANCH   1  15
BRANCH   8  24
HETATM   24  N4  UNL     1     -13.960  18.551  26.395  1.00  0.00    -0.374 N 
ATOM     25  H4  UNL     1     -14.476  19.429  26.435  1.00  0.00     0.161 HD
BRANCH  24  26
HETATM   26  C10 UNL     1     -13.031  18.296  27.447  1.00  0.00     0.123 C 
BRANCH  26  27
HETATM   27  C11 UNL     1     -13.556  17.411  28.527  1.00  0.00     0.047 C 
BRANCH  27  28
HETATM   28  C12 UNL     1     -13.344  15.942  28.249  1.00  0.00     0.231 C 
BRANCH  28  29
HETATM   29  N5  UNL     1     -11.976  15.545  28.348  1.00  0.00    -0.079 N 
ATOM     30  H53 UNL     1     -11.842  14.891  29.119  1.00  0.00     0.274 HD
ATOM     31  H52 UNL     1     -11.715  14.940  27.569  1.00  0.00     0.274 HD
ATOM     32  H51 UNL     1     -11.334  16.335  28.426  1.00  0.00     0.274 HD
ENDBRANCH  28  29
ENDBRANCH  27  28
ENDBRANCH  26  27
ENDBRANCH  24  26
ENDBRANCH   8  24
TORSDOF 10
ENDMDL
MODEL 5
REMARK VINA RESULT: -6.714163358      1.629      2.179
REMARK  10 active torsions:
REMARK  status: ('A' for Active; 'I' for Inactive)
REMARK    1  A    between atoms: C2_2  and  C3_5 
REMARK    2  A    between atoms: C3_5  and  C4_6 
REMARK    3  A    between atoms: C4_6  and  C5_7 
REMARK    4  A    between atoms: C5_7  and  N1_8 
REMARK    5  A    between atoms: N1_8  and  C6_10 
REMARK    6  A    between atoms: C9_17  and  N4_18 
REMARK    7  A    between atoms: N4_18  and  C10_20 
REMARK    8  A    between atoms: C10_20  and  C11_21 
REMARK    9  A    between atoms: C11_21  and  C12_22 
REMARK   10  A    between atoms: C12_22  and  N5_23 
ROOT
HETATM    1  C6  UNL     1     -16.424  15.851  25.092  1.00  0.00     0.131 A 
HETATM    2  N2  UNL     1     -16.493  16.824  24.165  1.00  0.00    -0.337 N 
ATOM      3  H2  UNL     1     -17.140  16.730  23.383  1.00  0.00     0.168 HD
HETATM    4  C7  UNL     1     -15.708  17.934  24.261  1.00  0.00     0.182 A 
HETATM    5  N3  UNL     1     -14.833  18.120  25.264  1.00  0.00    -0.347 N 
ATOM      6  H3  UNL     1     -14.261  18.964  25.302  1.00  0.00     0.167 HD
HETATM    7  C8  UNL     1     -14.723  17.163  26.232  1.00  0.00     0.108 A 
HETATM    8  C9  UNL     1     -13.828  17.332  27.279  1.00  0.00     0.131 A 
HETATM    9  N6  UNL     1     -13.725  16.387  28.226  1.00  0.00    -0.337 N 
ATOM     10  H6  UNL     1     -13.075  16.491  29.005  1.00  0.00     0.168 HD
HETATM   11  C13 UNL     1     -14.507  15.301  28.116  1.00  0.00     0.182 A 
HETATM   12  N7  UNL     1     -15.380  15.120  27.108  1.00  0.00    -0.347 N 
ATOM     13  H7  UNL     1     -15.945  14.271  27.085  1.00  0.00     0.167 HD
HETATM   14  C14 UNL     1     -15.527  16.043  26.121  1.00  0.00     0.108 A 
ENDROOT
BRANCH   1  15
HETATM   15  N1  UNL     1     -17.148  14.795  25.033  1.00  0.00    -0.374 N 
ATOM     16  H1  UNL     1     -16.806  13.971  25.526  1.00  0.00     0.161 HD
BRANCH  15  17
HETATM   17  C5  UNL     1     -18.384  14.666  24.343  1.00  0.00     0.121 C 
BRANCH  17  18
HETATM   18  C4  UNL     1     -18.244  13.783  23.135  1.00  0.00     0.025 C 
BRANCH  18  19
HETATM   19  C3  UNL     1     -19.245  12.646  23.182  1.00  0.00     0.080 C 
BRANCH  19  20
HETATM   20  C2  UNL     1     -18.567  11.436  23.776  1.00  0.00     0.240 C 
HETATM   21  C1  UNL     1     -19.171  10.150  23.217  1.00  0.00     0.090 C 
HETATM   22  F1  UNL     1     -17.228  11.499  23.443  1.00  0.00    -0.207 F 
HETATM   23  F2  UNL     1     -18.764  11.403  25.146  1.00  0.00    -0.207 F 
ENDBRANCH  19  20
ENDBRANCH  18  19
ENDBRANCH  17  18
ENDBRANCH  15  17
ENDBRANCH   1  15
BRANCH   8  24
HETATM   24  N4  UNL     1     -13.105  18.373  27.348  1.00  0.00    -0.374 N 
ATOM     25  H4  UNL     1     -13.536  19.211  27.738  1.00  0.00     0.161 HD
BRANCH  24  26
HETATM   26  C10 UNL     1     -11.745  18.477  26.930  1.00  0.00     0.123 C 
BRANCH  26  27
HETATM   27  C11 UNL     1     -11.320  19.860  26.567  1.00  0.00     0.047 C 
BRANCH  27  28
HETATM   28  C12 UNL     1     -10.040  19.898  25.766  1.00  0.00     0.231 C 
BRANCH  28  29
HETATM   29  N5  UNL     1      -9.177  20.972  26.141  1.00  0.00    -0.079 N 
ATOM     30  H53 UNL     1      -9.708  21.830  26.290  1.00  0.00     0.274 HD
ATOM     31  H52 UNL     1      -8.813  20.834  27.084  1.00  0.00     0.274 HD
ATOM     32  H51 UNL     1      -8.417  21.126  25.477  1.00  0.00     0.274 HD
ENDBRANCH  28  29
ENDBRANCH  27  28
ENDBRANCH  26  27
ENDBRANCH  24  26
ENDBRANCH   8  24
TORSDOF 10
ENDMDL
