MODEL 1
REMARK VINA RESULT: -6.897711772      0.000      0.000
REMARK  7 active torsions:
REMARK  status: ('A' for Active; 'I' for Inactive)
REMARK    1  A    between atoms: C2_2  and  C3_3 
REMARK    2  A    between atoms: C4_6  and  N2_7 
REMARK    3  A    between atoms: C5_12  and  N4_13 
REMARK    4  A    between atoms: N4_13  and  C7_15 
REMARK    5  A    between atoms: C7_15  and  C8_16 
REMARK    6  A    between atoms: C8_16  and  N5_17 
REMARK    7  A    between atoms: C12_21  and  C13_22 
ROOT
HETATM    1  C3  UNL     1     -12.672   8.038  24.585  1.00  0.00     0.054 A 
HETATM    2  N1  UNL     1     -11.751   7.931  25.557  1.00  0.00    -0.194 N 
ATOM      3  H1  UNL     1     -10.963   7.295  25.434  1.00  0.00     0.184 HD
HETATM    4  C4  UNL     1     -11.853   8.649  26.690  1.00  0.00     0.677 A 
HETATM    5  N3  UNL     1     -12.882   9.487  26.866  1.00  0.00    -0.175 N 
ATOM      6  H3  UNL     1     -12.932  10.017  27.736  1.00  0.00     0.186 HD
HETATM    7  C5  UNL     1     -13.840   9.664  25.969  1.00  0.00     0.145 A 
HETATM    8  C15 UNL     1     -13.730   8.918  24.800  1.00  0.00     0.113 A 
HETATM    9  N6  UNL     1     -14.724   9.066  23.806  1.00  0.00    -0.096 NA
ENDROOT
BRANCH   7  10
HETATM   10  N4  UNL     1     -14.919  10.556  26.197  1.00  0.00    -0.368 N 
HETATM   11  C6  UNL     1     -15.885  10.171  27.220  1.00  0.00     0.151 C 
BRANCH  10  12
HETATM   12  C7  UNL     1     -15.151  11.787  25.509  1.00  0.00     0.143 C 
BRANCH  12  13
HETATM   13  C8  UNL     1     -16.591  12.297  25.655  1.00  0.00     0.137 C 
BRANCH  13  14
HETATM   14  N5  UNL     1     -17.100  12.536  24.410  1.00  0.00    -0.401 N 
HETATM   15  C9  UNL     1     -16.838  13.760  23.732  1.00  0.00     0.117 C 
HETATM   16  C10 UNL     1     -18.180  14.092  23.099  1.00  0.00     0.022 C 
HETATM   17  C11 UNL     1     -18.928  12.774  23.086  1.00  0.00     0.032 C 
HETATM   18  C12 UNL     1     -17.861  11.757  23.582  1.00  0.00     0.151 C 
BRANCH  18  19
HETATM   19  C13 UNL     1     -18.527  10.517  24.057  1.00  0.00     0.259 C 
HETATM   20  C14 UNL     1     -19.421   9.877  23.042  1.00  0.00     0.092 C 
HETATM   21  F1  UNL     1     -19.326  10.899  25.150  1.00  0.00    -0.204 F 
HETATM   22  F2  UNL     1     -17.630   9.604  24.593  1.00  0.00    -0.204 F 
ENDBRANCH  18  19
ENDBRANCH  13  14
ENDBRANCH  12  13
ENDBRANCH  10  12
ENDBRANCH   7  10
BRANCH   4  23
HETATM   23  N2  UNL     1     -10.955   8.523  27.598  1.00  0.00    -0.234 N 
ATOM     24  H22 UNL     1     -10.976   7.731  28.240  1.00  0.00     0.174 HD
ATOM     25  H21 UNL     1     -10.217   9.224  27.672  1.00  0.00     0.174 HD
ENDBRANCH   4  23
BRANCH   1  26
HETATM   26  C2  UNL     1     -12.605   7.272  23.322  1.00  0.00     0.055 C 
HETATM   27  C1  UNL     1     -12.761   5.812  23.652  1.00  0.00     0.011 C 
ENDBRANCH   1  26
TORSDOF 7
ENDMDL
MODEL 2
REMARK VINA RESULT: -6.742123676      1.990      2.762
REMARK  7 active torsions:
REMARK  status: ('A' for Active; 'I' for Inactive)
REMARK    1  A    between atoms: C2_2  and  C3_3 
REMARK    2  A    between atoms: C4_6  and  N2_7 
REMARK    3  A    between atoms: C5_12  and  N4_13 
REMARK    4  A    between atoms: N4_13  and  C7_15 
REMARK    5  A    between atoms: C7_15  and  C8_16 
REMARK    6  A    between atoms: C8_16  and  N5_17 
REMARK    7  A    between atoms: C12_21  and  C13_22 
ROOT
HETATM    1  C3  UNL     1     -12.203   7.315  24.391  1.00  0.00     0.054 A 
HETATM    2  N1  UNL     1     -11.786   7.260  25.667  1.00  0.00    -0.194 N 
ATOM      3  H1  UNL     1     -11.273   6.441  25.993  1.00  0.00     0.184 HD
HETATM    4  C4  UNL     1     -12.035   8.269  26.521  1.00  0.00     0.677 A 
HETATM    5  N3  UNL     1     -12.708   9.350  26.108  1.00  0.00    -0.175 N 
ATOM      6  H3  UNL     1     -12.882  10.098  26.780  1.00  0.00     0.186 HD
HETATM    7  C5  UNL     1     -13.160   9.501  24.873  1.00  0.00     0.145 A 
HETATM    8  C15 UNL     1     -12.900   8.454  23.994  1.00  0.00     0.113 A 
HETATM    9  N6  UNL     1     -13.358   8.558  22.661  1.00  0.00    -0.096 NA
ENDROOT
BRANCH   7  10
HETATM   10  N4  UNL     1     -13.875  10.660  24.476  1.00  0.00    -0.368 N 
HETATM   11  C6  UNL     1     -13.084  11.844  24.163  1.00  0.00     0.151 C 
BRANCH  10  12
HETATM   12  C7  UNL     1     -15.295  10.774  24.368  1.00  0.00     0.143 C 
BRANCH  12  13
HETATM   13  C8  UNL     1     -15.749  12.126  23.800  1.00  0.00     0.137 C 
BRANCH  13  14
HETATM   14  N5  UNL     1     -17.101  12.239  23.965  1.00  0.00    -0.401 N 
HETATM   15  C9  UNL     1     -17.896  11.111  24.313  1.00  0.00     0.117 C 
HETATM   16  C10 UNL     1     -19.133  11.289  23.447  1.00  0.00     0.022 C 
HETATM   17  C11 UNL     1     -19.118  12.754  23.061  1.00  0.00     0.032 C 
HETATM   18  C12 UNL     1     -17.930  13.324  23.887  1.00  0.00     0.151 C 
BRANCH  18  19
HETATM   19  C13 UNL     1     -17.486  14.618  23.307  1.00  0.00     0.259 C 
HETATM   20  C14 UNL     1     -17.530  15.764  24.267  1.00  0.00     0.092 C 
HETATM   21  F1  UNL     1     -18.381  14.902  22.260  1.00  0.00    -0.204 F 
HETATM   22  F2  UNL     1     -16.251  14.524  22.682  1.00  0.00    -0.204 F 
ENDBRANCH  18  19
ENDBRANCH  13  14
ENDBRANCH  12  13
ENDBRANCH  10  12
ENDBRANCH   7  10
BRANCH   4  23
HETATM   23  N2  UNL     1     -11.622   8.184  27.733  1.00  0.00    -0.234 N 
ATOM     24  H22 UNL     1     -10.785   8.686  28.031  1.00  0.00     0.174 HD
ATOM     25  H21 UNL     1     -12.138   7.609  28.399  1.00  0.00     0.174 HD
ENDBRANCH   4  23
BRANCH   1  26
HETATM   26  C2  UNL     1     -11.954   6.234  23.413  1.00  0.00     0.055 C 
HETATM   27  C1  UNL     1     -12.827   5.064  23.778  1.00  0.00     0.011 C 
ENDBRANCH   1  26
TORSDOF 7
ENDMDL
MODEL 3
REMARK VINA RESULT: -6.737941639      4.208      6.450
REMARK  7 active torsions:
REMARK  status: ('A' for Active; 'I' for Inactive)
REMARK    1  A    between atoms: C2_2  and  C3_3 
REMARK    2  A    between atoms: C4_6  and  N2_7 
REMARK    3  A    between atoms: C5_12  and  N4_13 
REMARK    4  A    between atoms: N4_13  and  C7_15 
REMARK    5  A    between atoms: C7_15  and  C8_16 
REMARK    6  A    between atoms: C8_16  and  N5_17 
REMARK    7  A    between atoms: C12_21  and  C13_22 
ROOT
HETATM    1  C3  UNL     1     -18.330  11.129  24.529  1.00  0.00     0.054 A 
HETATM    2  N1  UNL     1     -19.401  11.857  24.889  1.00  0.00    -0.194 N 
ATOM      3  H1  UNL     1     -20.337  11.483  24.733  1.00  0.00     0.184 HD
HETATM    4  C4  UNL     1     -19.256  13.070  25.452  1.00  0.00     0.677 A 
HETATM    5  N3  UNL     1     -18.033  13.573  25.662  1.00  0.00    -0.175 N 
ATOM      6  H3  UNL     1     -17.956  14.496  26.090  1.00  0.00     0.186 HD
HETATM    7  C5  UNL     1     -16.917  12.935  25.343  1.00  0.00     0.145 A 
HETATM    8  C15 UNL     1     -17.073  11.681  24.761  1.00  0.00     0.113 A 
HETATM    9  N6  UNL     1     -15.916  10.953  24.400  1.00  0.00    -0.096 NA
ENDROOT
BRANCH   7  10
HETATM   10  N4  UNL     1     -15.640  13.506  25.576  1.00  0.00    -0.368 N 
HETATM   11  C6  UNL     1     -15.086  13.353  26.917  1.00  0.00     0.151 C 
BRANCH  10  12
HETATM   12  C7  UNL     1     -14.855  14.225  24.623  1.00  0.00     0.143 C 
BRANCH  12  13
HETATM   13  C8  UNL     1     -15.667  15.263  23.834  1.00  0.00     0.137 C 
BRANCH  13  14
HETATM   14  N5  UNL     1     -15.154  16.504  24.086  1.00  0.00    -0.401 N 
HETATM   15  C9  UNL     1     -13.891  16.898  23.560  1.00  0.00     0.117 C 
HETATM   16  C10 UNL     1     -13.260  17.650  24.722  1.00  0.00     0.022 C 
HETATM   17  C11 UNL     1     -14.428  18.016  25.615  1.00  0.00     0.032 C 
HETATM   18  C12 UNL     1     -15.663  17.565  24.785  1.00  0.00     0.151 C 
BRANCH  18  19
HETATM   19  C13 UNL     1     -16.847  17.431  25.673  1.00  0.00     0.259 C 
HETATM   20  C14 UNL     1     -16.574  16.697  26.947  1.00  0.00     0.092 C 
HETATM   21  F1  UNL     1     -17.795  16.688  24.946  1.00  0.00    -0.204 F 
HETATM   22  F2  UNL     1     -17.475  18.645  25.909  1.00  0.00    -0.204 F 
ENDBRANCH  18  19
ENDBRANCH  13  14
ENDBRANCH  12  13
ENDBRANCH  10  12
ENDBRANCH   7  10
BRANCH   4  23
HETATM   23  N2  UNL     1     -20.300  13.738  25.784  1.00  0.00    -0.234 N 
ATOM     24  H22 UNL     1     -21.030  13.308  26.352  1.00  0.00     0.174 HD
ATOM     25  H21 UNL     1     -20.394  14.705  25.475  1.00  0.00     0.174 HD
ENDBRANCH   4  23
BRANCH   1  26
HETATM   26  C2  UNL     1     -18.436   9.791  23.908  1.00  0.00     0.055 C 
HETATM   27  C1  UNL     1     -19.529   9.840  22.875  1.00  0.00     0.011 C 
ENDBRANCH   1  26
TORSDOF 7
ENDMDL
MODEL 4
REMARK VINA RESULT: -6.707292971      1.535      2.360
REMARK  7 active torsions:
REMARK  status: ('A' for Active; 'I' for Inactive)
REMARK    1  A    between atoms: C2_2  and  C3_3 
REMARK    2  A    between atoms: C4_6  and  N2_7 
REMARK    3  A    between atoms: C5_12  and  N4_13 
REMARK    4  A    between atoms: N4_13  and  C7_15 
REMARK    5  A    between atoms: C7_15  and  C8_16 
REMARK    6  A    between atoms: C8_16  and  N5_17 
REMARK    7  A    between atoms: C12_21  and  C13_22 
ROOT
HETATM    1  C3  UNL     1     -12.645   7.558  24.315  1.00  0.00     0.054 A 
HETATM    2  N1  UNL     1     -11.976   7.436  25.473  1.00  0.00    -0.194 N 
ATOM      3  H1  UNL     1     -11.352   6.642  25.611  1.00  0.00     0.184 HD
HETATM    4  C4  UNL     1     -12.117   8.347  26.454  1.00  0.00     0.677 A 
HETATM    5  N3  UNL     1     -12.933   9.395  26.287  1.00  0.00    -0.175 N 
ATOM      6  H3  UNL     1     -13.019  10.067  27.049  1.00  0.00     0.186 HD
HETATM    7  C5  UNL     1     -13.635   9.605  25.184  1.00  0.00     0.145 A 
HETATM    8  C15 UNL     1     -13.486   8.660  24.174  1.00  0.00     0.113 A 
HETATM    9  N6  UNL     1     -14.211   8.832  22.973  1.00  0.00    -0.096 NA
ENDROOT
BRANCH   7  10
HETATM   10  N4  UNL     1     -14.495  10.725  25.049  1.00  0.00    -0.368 N 
HETATM   11  C6  UNL     1     -13.963  11.879  24.334  1.00  0.00     0.151 C 
BRANCH  10  12
HETATM   12  C7  UNL     1     -15.826  10.828  25.560  1.00  0.00     0.143 C 
BRANCH  12  13
HETATM   13  C8  UNL     1     -16.297  12.280  25.724  1.00  0.00     0.137 C 
BRANCH  13  14
HETATM   14  N5  UNL     1     -17.661  12.307  25.665  1.00  0.00    -0.401 N 
HETATM   15  C9  UNL     1     -18.453  11.671  26.663  1.00  0.00     0.117 C 
HETATM   16  C10 UNL     1     -19.566  11.026  25.851  1.00  0.00     0.022 C 
HETATM   17  C11 UNL     1     -19.554  11.771  24.532  1.00  0.00     0.032 C 
HETATM   18  C12 UNL     1     -18.513  12.902  24.775  1.00  0.00     0.151 C 
BRANCH  18  19
HETATM   19  C13 UNL     1     -18.044  13.444  23.474  1.00  0.00     0.259 C 
HETATM   20  C14 UNL     1     -17.755  14.911  23.493  1.00  0.00     0.092 C 
HETATM   21  F1  UNL     1     -19.091  13.225  22.561  1.00  0.00    -0.204 F 
HETATM   22  F2  UNL     1     -16.980  12.723  22.950  1.00  0.00    -0.204 F 
ENDBRANCH  18  19
ENDBRANCH  13  14
ENDBRANCH  12  13
ENDBRANCH  10  12
ENDBRANCH   7  10
BRANCH   4  23
HETATM   23  N2  UNL     1     -11.462   8.200  27.547  1.00  0.00    -0.234 N 
ATOM     24  H22 UNL     1     -10.619   8.747  27.723  1.00  0.00     0.174 HD
ATOM     25  H21 UNL     1     -11.792   7.531  28.242  1.00  0.00     0.174 HD
ENDBRANCH   4  23
BRANCH   1  26
HETATM   26  C2  UNL     1     -12.525   6.586  23.207  1.00  0.00     0.055 C 
HETATM   27  C1  UNL     1     -12.812   5.214  23.755  1.00  0.00     0.011 C 
ENDBRANCH   1  26
TORSDOF 7
ENDMDL
MODEL 5
REMARK VINA RESULT: -6.676915942      3.724      6.142
REMARK  7 active torsions:
REMARK  status: ('A' for Active; 'I' for Inactive)
REMARK    1  A    between atoms: C2_2  and  C3_3 
REMARK    2  A    between atoms: C4_6  and  N2_7 
REMARK    3  A    between atoms: C5_12  and  N4_13 
REMARK    4  A    between atoms: N4_13  and  C7_15 
REMARK    5  A    between atoms: C7_15  and  C8_16 
REMARK    6  A    between atoms: C8_16  and  N5_17 
REMARK    7  A    between atoms: C12_21  and  C13_22 
ROOT
HETATM    1  C3  UNL     1     -17.058  10.442  24.616  1.00  0.00     0.054 A 
HETATM    2  N1  UNL     1     -17.819   9.717  23.778  1.00  0.00    -0.194 N 
ATOM      3  H1  UNL     1     -17.513   8.783  23.503  1.00  0.00     0.184 HD
HETATM    4  C4  UNL     1     -18.977  10.204  23.298  1.00  0.00     0.677 A 
HETATM    5  N3  UNL     1     -19.391  11.428  23.651  1.00  0.00    -0.175 N 
ATOM      6  H3  UNL     1     -20.273  11.769  23.269  1.00  0.00     0.186 HD
HETATM    7  C5  UNL     1     -18.714  12.219  24.469  1.00  0.00     0.145 A 
HETATM    8  C15 UNL     1     -17.517  11.710  24.962  1.00  0.00     0.113 A 
HETATM    9  N6  UNL     1     -16.751  12.510  25.841  1.00  0.00    -0.096 NA
ENDROOT
BRANCH   7  10
HETATM   10  N4  UNL     1     -19.184  13.513  24.812  1.00  0.00    -0.368 N 
HETATM   11  C6  UNL     1     -20.010  13.615  26.010  1.00  0.00     0.151 C 
BRANCH  10  12
HETATM   12  C7  UNL     1     -18.931  14.717  24.087  1.00  0.00     0.143 C 
BRANCH  12  13
HETATM   13  C8  UNL     1     -18.089  15.730  24.876  1.00  0.00     0.137 C 
BRANCH  13  14
HETATM   14  N5  UNL     1     -16.858  15.825  24.292  1.00  0.00    -0.401 N 
HETATM   15  C9  UNL     1     -16.522  15.041  23.152  1.00  0.00     0.117 C 
HETATM   16  C10 UNL     1     -15.092  14.613  23.444  1.00  0.00     0.022 C 
HETATM   17  C11 UNL     1     -14.608  15.599  24.487  1.00  0.00     0.032 C 
HETATM   18  C12 UNL     1     -15.780  16.616  24.584  1.00  0.00     0.151 C 
BRANCH  18  19
HETATM   19  C13 UNL     1     -15.683  17.380  25.854  1.00  0.00     0.259 C 
HETATM   20  C14 UNL     1     -14.354  18.030  26.076  1.00  0.00     0.092 C 
HETATM   21  F1  UNL     1     -15.880  16.445  26.886  1.00  0.00    -0.204 F 
HETATM   22  F2  UNL     1     -16.724  18.284  26.012  1.00  0.00    -0.204 F 
ENDBRANCH  18  19
ENDBRANCH  13  14
ENDBRANCH  12  13
ENDBRANCH  10  12
ENDBRANCH   7  10
BRANCH   4  23
HETATM   23  N2  UNL     1     -19.680   9.485  22.501  1.00  0.00    -0.234 N 
ATOM     24  H22 UNL     1     -19.291   8.636  22.091  1.00  0.00     0.174 HD
ATOM     25  H21 UNL     1     -20.634   9.770  22.279  1.00  0.00     0.174 HD
ENDBRANCH   4  23
BRANCH   1  26
HETATM   26  C2  UNL     1     -15.778   9.952  25.171  1.00  0.00     0.055 C 
HETATM   27  C1  UNL     1     -15.050   9.208  24.084  1.00  0.00     0.011 C 
ENDBRANCH   1  26
TORSDOF 7
ENDMDL
