MODEL 1
REMARK VINA RESULT: -9.270406715      0.000      0.000
REMARK  6 active torsions:
REMARK  status: ('A' for Active; 'I' for Inactive)
REMARK    1  A    between atoms: C4_5  and  N1_6 
REMARK    2  A    between atoms: N1_6  and  C5_8 
REMARK    3  A    between atoms: C9_13  and  N3_14 
REMARK    4  A    between atoms: N3_14  and  C10_16 
REMARK    5  A    between atoms: C16_24  and  O1_25 
REMARK    6  A    between atoms: O1_25  and  C17_26 
ROOT
HETATM    1  C5  UNL     1      28.910   7.327  -2.101  1.00  0.00     0.038 A 
HETATM    2  C6  UNL     1      28.502   8.489  -2.696  1.00  0.00     0.054 A 
HETATM    3  C7  UNL     1      27.203   8.940  -2.647  1.00  0.00     0.075 A 
HETATM    4  C8  UNL     1      26.868  10.191  -3.333  1.00  0.00     0.102 C 
HETATM    5  N2  UNL     1      26.621  11.176  -3.894  1.00  0.00    -0.191 NA
HETATM    6  C9  UNL     1      26.250   8.208  -1.974  1.00  0.00     0.083 A 
HETATM    7  C16 UNL     1      26.610   7.029  -1.360  1.00  0.00     0.099 A 
HETATM    8  C22 UNL     1      27.966   6.600  -1.436  1.00  0.00     0.068 A 
ENDROOT
BRANCH   6   9
HETATM    9  N3  UNL     1      24.920   8.698  -1.937  1.00  0.00    -0.382 N 
ATOM     10  H3  UNL     1      24.560   8.972  -1.023  1.00  0.00     0.160 HD
BRANCH   9  11
HETATM   11  C10 UNL     1      24.034   8.848  -3.040  1.00  0.00     0.082 C 
HETATM   12  C11 UNL     1      23.911   7.525  -3.808  1.00  0.00     0.031 C 
HETATM   13  C12 UNL     1      22.899   7.654  -4.909  1.00  0.00     0.081 C 
HETATM   14  C13 UNL     1      22.542   9.059  -5.262  1.00  0.00     0.243 C 
HETATM   15  F1  UNL     1      21.429   8.991  -6.112  1.00  0.00    -0.206 F 
HETATM   16  F2  UNL     1      23.532   9.683  -6.020  1.00  0.00    -0.206 F 
HETATM   17  C14 UNL     1      22.125   9.902  -4.090  1.00  0.00     0.081 C 
HETATM   18  C15 UNL     1      22.667   9.351  -2.777  1.00  0.00     0.031 C 
ENDBRANCH   9  11
ENDBRANCH   6   9
BRANCH   1  19
HETATM   19  N1  UNL     1      30.275   6.934  -2.199  1.00  0.00    -0.336 N 
ATOM     20  H1  UNL     1      30.762   6.463  -1.437  1.00  0.00     0.168 HD
BRANCH  19  21
HETATM   21  C4  UNL     1      30.867   7.221  -3.339  1.00  0.00     0.149 A 
HETATM   22  S1  UNL     1      31.268   6.189  -4.636  1.00  0.00    -0.064 SA
HETATM   23  C3  UNL     1      31.982   7.351  -5.665  1.00  0.00     0.077 A 
HETATM   24  C2  UNL     1      31.864   8.497  -4.925  1.00  0.00     0.014 A 
HETATM   25  C1  UNL     1      32.392   9.802  -5.492  1.00  0.00     0.068 C 
HETATM   26  N4  UNL     1      31.300   8.411  -3.757  1.00  0.00    -0.340 N 
ATOM     27  H4  UNL     1      31.190   9.239  -3.171  1.00  0.00     0.167 HD
ENDBRANCH  19  21
ENDBRANCH   1  19
BRANCH   7  28
HETATM   28  O1  UNL     1      25.823   6.181  -0.673  1.00  0.00    -0.344 OA
BRANCH  28  29
HETATM   29  C17 UNL     1      24.940   5.185  -0.808  1.00  0.00     0.129 C 
HETATM   30  C18 UNL     1      25.025   4.092   0.249  1.00  0.00     0.032 C 
HETATM   31  C19 UNL     1      25.742   2.925  -0.388  1.00  0.00     0.002 C 
HETATM   32  C20 UNL     1      26.181   3.426  -1.723  1.00  0.00     0.002 C 
HETATM   33  C21 UNL     1      25.090   4.390  -2.112  1.00  0.00     0.032 C 
ENDBRANCH  28  29
ENDBRANCH   7  28
TORSDOF 6
ENDMDL
MODEL 2
REMARK VINA RESULT: -9.087198704      2.578      3.143
REMARK  6 active torsions:
REMARK  status: ('A' for Active; 'I' for Inactive)
REMARK    1  A    between atoms: C4_5  and  N1_6 
REMARK    2  A    between atoms: N1_6  and  C5_8 
REMARK    3  A    between atoms: C9_13  and  N3_14 
REMARK    4  A    between atoms: N3_14  and  C10_16 
REMARK    5  A    between atoms: C16_24  and  O1_25 
REMARK    6  A    between atoms: O1_25  and  C17_26 
ROOT
HETATM    1  C5  UNL     1      29.837   7.551  -4.639  1.00  0.00     0.038 A 
HETATM    2  C6  UNL     1      29.378   8.839  -4.624  1.00  0.00     0.054 A 
HETATM    3  C7  UNL     1      28.077   9.174  -4.922  1.00  0.00     0.075 A 
HETATM    4  C8  UNL     1      27.692  10.587  -4.892  1.00  0.00     0.102 C 
HETATM    5  N2  UNL     1      27.411  11.713  -4.876  1.00  0.00    -0.191 NA
HETATM    6  C9  UNL     1      27.176   8.187  -5.254  1.00  0.00     0.083 A 
HETATM    7  C16 UNL     1      27.590   6.874  -5.285  1.00  0.00     0.099 A 
HETATM    8  C22 UNL     1      28.945   6.572  -4.969  1.00  0.00     0.068 A 
ENDROOT
BRANCH   6   9
HETATM    9  N3  UNL     1      25.841   8.560  -5.553  1.00  0.00    -0.382 N 
ATOM     10  H3  UNL     1      25.657   8.870  -6.507  1.00  0.00     0.160 HD
BRANCH   9  11
HETATM   11  C10 UNL     1      24.731   8.549  -4.663  1.00  0.00     0.082 C 
HETATM   12  C11 UNL     1      24.020   9.909  -4.683  1.00  0.00     0.031 C 
HETATM   13  C12 UNL     1      22.789   9.866  -3.824  1.00  0.00     0.081 C 
HETATM   14  C13 UNL     1      22.736   8.716  -2.874  1.00  0.00     0.243 C 
HETATM   15  F1  UNL     1      21.439   8.693  -2.342  1.00  0.00    -0.206 F 
HETATM   16  F2  UNL     1      23.570   8.900  -1.772  1.00  0.00    -0.206 F 
HETATM   17  C14 UNL     1      22.951   7.375  -3.517  1.00  0.00     0.081 C 
HETATM   18  C15 UNL     1      23.705   7.496  -4.835  1.00  0.00     0.031 C 
ENDBRANCH   9  11
ENDBRANCH   6   9
BRANCH   1  19
HETATM   19  N1  UNL     1      31.199   7.292  -4.316  1.00  0.00    -0.336 N 
ATOM     20  H1  UNL     1      31.573   7.434  -3.377  1.00  0.00     0.168 HD
BRANCH  19  21
HETATM   21  C4  UNL     1      31.945   6.856  -5.309  1.00  0.00     0.149 A 
HETATM   22  S1  UNL     1      32.039   5.293  -5.984  1.00  0.00    -0.064 SA
HETATM   23  C3  UNL     1      33.213   5.612  -7.184  1.00  0.00     0.077 A 
HETATM   24  C2  UNL     1      33.467   6.942  -6.986  1.00  0.00     0.014 A 
HETATM   25  C1  UNL     1      34.485   7.641  -7.870  1.00  0.00     0.068 C 
HETATM   26  N4  UNL     1      32.820   7.552  -6.038  1.00  0.00    -0.340 N 
ATOM     27  H4  UNL     1      32.977   8.543  -5.855  1.00  0.00     0.167 HD
ENDBRANCH  19  21
ENDBRANCH   1  19
BRANCH   7  28
HETATM   28  O1  UNL     1      26.863   5.785  -5.595  1.00  0.00    -0.344 OA
BRANCH  28  29
HETATM   29  C17 UNL     1      26.071   4.838  -5.078  1.00  0.00     0.129 C 
HETATM   30  C18 UNL     1      26.057   4.761  -3.557  1.00  0.00     0.032 C 
HETATM   31  C19 UNL     1      26.930   3.590  -3.173  1.00  0.00     0.002 C 
HETATM   32  C20 UNL     1      27.539   3.127  -4.454  1.00  0.00     0.002 C 
HETATM   33  C21 UNL     1      26.465   3.409  -5.473  1.00  0.00     0.032 C 
ENDBRANCH  28  29
ENDBRANCH   7  28
TORSDOF 6
ENDMDL
MODEL 3
REMARK VINA RESULT: -8.976230563      4.319      6.803
REMARK  6 active torsions:
REMARK  status: ('A' for Active; 'I' for Inactive)
REMARK    1  A    between atoms: C4_5  and  N1_6 
REMARK    2  A    between atoms: N1_6  and  C5_8 
REMARK    3  A    between atoms: C9_13  and  N3_14 
REMARK    4  A    between atoms: N3_14  and  C10_16 
REMARK    5  A    between atoms: C16_24  and  O1_25 
REMARK    6  A    between atoms: O1_25  and  C17_26 
ROOT
HETATM    1  C5  UNL     1      23.772   6.581  -4.228  1.00  0.00     0.038 A 
HETATM    2  C6  UNL     1      24.157   6.056  -5.430  1.00  0.00     0.054 A 
HETATM    3  C7  UNL     1      24.785   4.838  -5.549  1.00  0.00     0.075 A 
HETATM    4  C8  UNL     1      25.170   4.374  -6.884  1.00  0.00     0.102 C 
HETATM    5  N2  UNL     1      25.480   4.032  -7.949  1.00  0.00    -0.191 NA
HETATM    6  C9  UNL     1      25.051   4.093  -4.422  1.00  0.00     0.083 A 
HETATM    7  C16 UNL     1      24.685   4.580  -3.186  1.00  0.00     0.099 A 
HETATM    8  C22 UNL     1      24.036   5.844  -3.110  1.00  0.00     0.068 A 
ENDROOT
BRANCH   6   9
HETATM    9  N3  UNL     1      25.696   2.840  -4.574  1.00  0.00    -0.382 N 
ATOM     10  H3  UNL     1      25.104   2.048  -4.824  1.00  0.00     0.160 HD
BRANCH   9  11
HETATM   11  C10 UNL     1      27.084   2.569  -4.414  1.00  0.00     0.082 C 
HETATM   12  C11 UNL     1      27.894   3.870  -4.505  1.00  0.00     0.031 C 
HETATM   13  C12 UNL     1      29.345   3.600  -4.234  1.00  0.00     0.081 C 
HETATM   14  C13 UNL     1      29.737   2.162  -4.326  1.00  0.00     0.243 C 
HETATM   15  F1  UNL     1      31.037   2.065  -3.813  1.00  0.00    -0.206 F 
HETATM   16  F2  UNL     1      29.841   1.724  -5.646  1.00  0.00    -0.206 F 
HETATM   17  C14 UNL     1      28.887   1.238  -3.499  1.00  0.00     0.081 C 
HETATM   18  C15 UNL     1      27.522   1.844  -3.200  1.00  0.00     0.031 C 
ENDBRANCH   9  11
ENDBRANCH   6   9
BRANCH   1  19
HETATM   19  N1  UNL     1      23.125   7.849  -4.194  1.00  0.00    -0.336 N 
ATOM     20  H1  UNL     1      22.109   7.942  -4.179  1.00  0.00     0.168 HD
BRANCH  19  21
HETATM   21  C4  UNL     1      23.925   8.894  -4.186  1.00  0.00     0.149 A 
HETATM   22  S1  UNL     1      23.669  10.455  -4.822  1.00  0.00    -0.064 SA
HETATM   23  C3  UNL     1      25.167  11.151  -4.382  1.00  0.00     0.077 A 
HETATM   24  C2  UNL     1      25.791  10.107  -3.754  1.00  0.00     0.014 A 
HETATM   25  C1  UNL     1      27.189  10.307  -3.196  1.00  0.00     0.068 C 
HETATM   26  N4  UNL     1      25.150   8.979  -3.664  1.00  0.00    -0.340 N 
ATOM     27  H4  UNL     1      25.576   8.174  -3.204  1.00  0.00     0.167 HD
ENDBRANCH  19  21
ENDBRANCH   1  19
BRANCH   7  28
HETATM   28  O1  UNL     1      24.870   4.004  -1.984  1.00  0.00    -0.344 OA
BRANCH  28  29
HETATM   29  C17 UNL     1      25.767   3.814  -1.010  1.00  0.00     0.129 C 
HETATM   30  C18 UNL     1      25.229   3.951   0.408  1.00  0.00     0.032 C 
HETATM   31  C19 UNL     1      25.662   5.310   0.908  1.00  0.00     0.002 C 
HETATM   32  C20 UNL     1      26.294   5.970  -0.272  1.00  0.00     0.002 C 
HETATM   33  C21 UNL     1      26.923   4.823  -1.020  1.00  0.00     0.032 C 
ENDBRANCH  28  29
ENDBRANCH   7  28
TORSDOF 6
ENDMDL
MODEL 4
REMARK VINA RESULT: -8.947928816      3.761      5.138
REMARK  6 active torsions:
REMARK  status: ('A' for Active; 'I' for Inactive)
REMARK    1  A    between atoms: C4_5  and  N1_6 
REMARK    2  A    between atoms: N1_6  and  C5_8 
REMARK    3  A    between atoms: C9_13  and  N3_14 
REMARK    4  A    between atoms: N3_14  and  C10_16 
REMARK    5  A    between atoms: C16_24  and  O1_25 
REMARK    6  A    between atoms: O1_25  and  C17_26 
ROOT
HETATM    1  C5  UNL     1      27.561   2.587  -3.574  1.00  0.00     0.038 A 
HETATM    2  C6  UNL     1      26.980   2.846  -4.784  1.00  0.00     0.054 A 
HETATM    3  C7  UNL     1      26.402   4.056  -5.093  1.00  0.00     0.075 A 
HETATM    4  C8  UNL     1      25.791   4.225  -6.414  1.00  0.00     0.102 C 
HETATM    5  N2  UNL     1      25.301   4.334  -7.460  1.00  0.00    -0.191 NA
HETATM    6  C9  UNL     1      26.395   5.068  -4.159  1.00  0.00     0.083 A 
HETATM    7  C16 UNL     1      26.966   4.855  -2.924  1.00  0.00     0.099 A 
HETATM    8  C22 UNL     1      27.554   3.589  -2.648  1.00  0.00     0.068 A 
ENDROOT
BRANCH   6   9
HETATM    9  N3  UNL     1      25.795   6.306  -4.506  1.00  0.00    -0.382 N 
ATOM     10  H3  UNL     1      26.196   6.799  -5.304  1.00  0.00     0.160 HD
BRANCH   9  11
HETATM   11  C10 UNL     1      24.694   6.932  -3.859  1.00  0.00     0.082 C 
HETATM   12  C11 UNL     1      24.099   8.024  -4.759  1.00  0.00     0.031 C 
HETATM   13  C12 UNL     1      22.875   8.614  -4.122  1.00  0.00     0.081 C 
HETATM   14  C13 UNL     1      22.731   8.322  -2.665  1.00  0.00     0.243 C 
HETATM   15  F1  UNL     1      21.440   8.728  -2.298  1.00  0.00    -0.206 F 
HETATM   16  F2  UNL     1      23.584   9.098  -1.882  1.00  0.00    -0.206 F 
HETATM   17  C14 UNL     1      22.829   6.863  -2.317  1.00  0.00     0.081 C 
HETATM   18  C15 UNL     1      23.582   6.078  -3.384  1.00  0.00     0.031 C 
ENDBRANCH   9  11
ENDBRANCH   6   9
BRANCH   1  19
HETATM   19  N1  UNL     1      28.138   1.307  -3.337  1.00  0.00    -0.336 N 
ATOM     20  H1  UNL     1      27.727   0.636  -2.688  1.00  0.00     0.168 HD
BRANCH  19  21
HETATM   21  C4  UNL     1      29.239   1.047  -4.011  1.00  0.00     0.149 A 
HETATM   22  S1  UNL     1      29.468   0.008  -5.344  1.00  0.00    -0.064 SA
HETATM   23  C3  UNL     1      31.141   0.270  -5.577  1.00  0.00     0.077 A 
HETATM   24  C2  UNL     1      31.428   1.168  -4.584  1.00  0.00     0.014 A 
HETATM   25  C1  UNL     1      32.851   1.676  -4.435  1.00  0.00     0.068 C 
HETATM   26  N4  UNL     1      30.458   1.548  -3.807  1.00  0.00    -0.340 N 
ATOM     27  H4  UNL     1      30.626   2.216  -3.054  1.00  0.00     0.167 HD
ENDBRANCH  19  21
ENDBRANCH   1  19
BRANCH   7  28
HETATM   28  O1  UNL     1      27.044   5.714  -1.891  1.00  0.00    -0.344 OA
BRANCH  28  29
HETATM   29  C17 UNL     1      27.777   6.705  -1.370  1.00  0.00     0.129 C 
HETATM   30  C18 UNL     1      27.117   8.077  -1.379  1.00  0.00     0.032 C 
HETATM   31  C19 UNL     1      27.730   8.848  -2.525  1.00  0.00     0.002 C 
HETATM   32  C20 UNL     1      28.600   7.861  -3.229  1.00  0.00     0.002 C 
HETATM   33  C21 UNL     1      29.090   6.970  -2.117  1.00  0.00     0.032 C 
ENDBRANCH  28  29
ENDBRANCH   7  28
TORSDOF 6
ENDMDL
MODEL 5
REMARK VINA RESULT: -8.902227510      3.300      5.504
REMARK  6 active torsions:
REMARK  status: ('A' for Active; 'I' for Inactive)
REMARK    1  A    between atoms: C4_5  and  N1_6 
REMARK    2  A    between atoms: N1_6  and  C5_8 
REMARK    3  A    between atoms: C9_13  and  N3_14 
REMARK    4  A    between atoms: N3_14  and  C10_16 
REMARK    5  A    between atoms: C16_24  and  O1_25 
REMARK    6  A    between atoms: O1_25  and  C17_26 
ROOT
HETATM    1  C5  UNL     1      27.463   3.364  -4.279  1.00  0.00     0.038 A 
HETATM    2  C6  UNL     1      26.416   3.246  -3.408  1.00  0.00     0.054 A 
HETATM    3  C7  UNL     1      25.900   4.312  -2.707  1.00  0.00     0.075 A 
HETATM    4  C8  UNL     1      24.786   4.073  -1.785  1.00  0.00     0.102 C 
HETATM    5  N2  UNL     1      23.914   3.861  -1.050  1.00  0.00    -0.191 NA
HETATM    6  C9  UNL     1      26.445   5.566  -2.872  1.00  0.00     0.083 A 
HETATM    7  C16 UNL     1      27.503   5.737  -3.737  1.00  0.00     0.099 A 
HETATM    8  C22 UNL     1      28.004   4.606  -4.442  1.00  0.00     0.068 A 
ENDROOT
BRANCH   6   9
HETATM    9  N3  UNL     1      25.892   6.647  -2.140  1.00  0.00    -0.382 N 
ATOM     10  H3  UNL     1      26.194   6.744  -1.170  1.00  0.00     0.160 HD
BRANCH   9  11
HETATM   11  C10 UNL     1      24.959   7.611  -2.614  1.00  0.00     0.082 C 
HETATM   12  C11 UNL     1      23.783   7.739  -1.636  1.00  0.00     0.031 C 
HETATM   13  C12 UNL     1      22.851   8.829  -2.082  1.00  0.00     0.081 C 
HETATM   14  C13 UNL     1      23.033   9.259  -3.499  1.00  0.00     0.243 C 
HETATM   15  F1  UNL     1      22.272  10.424  -3.668  1.00  0.00    -0.206 F 
HETATM   16  F2  UNL     1      22.493   8.347  -4.405  1.00  0.00    -0.206 F 
HETATM   17  C14 UNL     1      24.447   9.625  -3.855  1.00  0.00     0.081 C 
HETATM   18  C15 UNL     1      25.452   8.975  -2.913  1.00  0.00     0.031 C 
ENDBRANCH   9  11
ENDBRANCH   6   9
BRANCH   1  19
HETATM   19  N1  UNL     1      27.934   2.209  -4.965  1.00  0.00    -0.336 N 
ATOM     20  H1  UNL     1      27.457   1.829  -5.783  1.00  0.00     0.168 HD
BRANCH  19  21
HETATM   21  C4  UNL     1      29.025   1.662  -4.473  1.00  0.00     0.149 A 
HETATM   22  S1  UNL     1      30.652   1.907  -4.921  1.00  0.00    -0.064 SA
HETATM   23  C3  UNL     1      31.381   0.838  -3.805  1.00  0.00     0.077 A 
HETATM   24  C2  UNL     1      30.294   0.344  -3.135  1.00  0.00     0.014 A 
HETATM   25  C1  UNL     1      30.506  -0.671  -2.026  1.00  0.00     0.068 C 
HETATM   26  N4  UNL     1      29.117   0.770  -3.485  1.00  0.00    -0.340 N 
ATOM     27  H4  UNL     1      28.279   0.429  -3.013  1.00  0.00     0.167 HD
ENDBRANCH  19  21
ENDBRANCH   1  19
BRANCH   7  28
HETATM   28  O1  UNL     1      28.166   6.874  -4.017  1.00  0.00    -0.344 OA
BRANCH  28  29
HETATM   29  C17 UNL     1      28.964   7.810  -3.491  1.00  0.00     0.129 C 
HETATM   30  C18 UNL     1      30.141   8.227  -4.362  1.00  0.00     0.032 C 
HETATM   31  C19 UNL     1      31.362   7.532  -3.806  1.00  0.00     0.002 C 
HETATM   32  C20 UNL     1      30.837   6.626  -2.742  1.00  0.00     0.002 C 
HETATM   33  C21 UNL     1      29.656   7.382  -2.190  1.00  0.00     0.032 C 
ENDBRANCH  28  29
ENDBRANCH   7  28
TORSDOF 6
ENDMDL
