MODEL 1
REMARK VINA RESULT: -7.979871215      0.000      0.000
REMARK  7 active torsions:
REMARK  status: ('A' for Active; 'I' for Inactive)
REMARK    1  A    between atoms: C2_2  and  C3_3 
REMARK    2  A    between atoms: C2_2  and  C5_5 
REMARK    3  A    between atoms: C9_9  and  O1_10 
REMARK    4  A    between atoms: C10_12  and  O2_13 
REMARK    5  A    between atoms: C14_18  and  O3_19 
REMARK    6  A    between atoms: C15_21  and  O4_22 
REMARK    7  A    between atoms: C17_24  and  O5_25 
ROOT
HETATM    1  C5  UNL     1      31.346   5.499  -5.114  1.00  0.00     0.006 A 
HETATM    2  C6  UNL     1      30.202   4.664  -5.096  1.00  0.00     0.026 A 
HETATM    3  C7  UNL     1      29.003   5.103  -4.734  1.00  0.00    -0.004 A 
HETATM    4  C8  UNL     1      28.903   6.469  -4.352  1.00  0.00     0.022 A 
HETATM    5  C9  UNL     1      29.937   7.334  -4.350  1.00  0.00     0.111 A 
HETATM    6  C10 UNL     1      31.159   6.819  -4.736  1.00  0.00     0.113 A 
HETATM    7  C12 UNL     1      27.673   7.076  -3.849  1.00  0.00     0.011 A 
HETATM    8  C13 UNL     1      27.919   7.844  -2.765  1.00  0.00     0.082 A 
HETATM    9 CL1  UNL     1      29.415   7.667  -1.898  1.00  0.00    -0.080 Cl
HETATM   10  C14 UNL     1      26.865   8.558  -2.244  1.00  0.00     0.124 A 
HETATM   11  C15 UNL     1      25.591   8.455  -2.843  1.00  0.00     0.137 A 
HETATM   12  C17 UNL     1      25.404   7.639  -3.951  1.00  0.00     0.111 A 
HETATM   13  C19 UNL     1      26.417   6.926  -4.490  1.00  0.00    -0.009 A 
HETATM   14  C20 UNL     1      26.121   6.021  -5.625  1.00  0.00     0.046 C 
HETATM   15  C21 UNL     1      26.723   4.701  -5.685  1.00  0.00     0.053 C 
HETATM   16  C22 UNL     1      27.817   4.199  -4.835  1.00  0.00     0.128 C 
HETATM   17  C23 UNL     1      27.376   3.733  -3.466  1.00  0.00     0.057 C 
HETATM   18  F1  UNL     1      28.324   3.046  -5.465  1.00  0.00    -0.238 F 
ENDROOT
BRANCH   1  19
HETATM   19  C2  UNL     1      32.601   4.911  -5.544  1.00  0.00    -0.055 C 
HETATM   20  C1  UNL     1      33.338   4.172  -4.769  1.00  0.00     0.020 C 
BRANCH  19  21
HETATM   21  C3  UNL     1      33.061   5.202  -6.925  1.00  0.00     0.034 C 
HETATM   22  C4  UNL     1      34.489   5.720  -6.935  1.00  0.00     0.010 C 
ENDBRANCH  19  21
ENDBRANCH   1  19
BRANCH   6  23
HETATM   23  O2  UNL     1      32.285   7.659  -4.758  1.00  0.00    -0.352 OA
HETATM   24  C11 UNL     1      32.465   8.619  -5.784  1.00  0.00     0.210 C 
ENDBRANCH   6  23
BRANCH   5  25
HETATM   25  O1  UNL     1      29.755   8.629  -4.012  1.00  0.00    -0.357 OA
ATOM     26  H1  UNL     1      30.215   9.321  -4.472  1.00  0.00     0.217 HD
ENDBRANCH   5  25
BRANCH  10  27
HETATM   27  O3  UNL     1      27.035   9.362  -1.156  1.00  0.00    -0.356 OA
ATOM     28  H3  UNL     1      27.090  10.305  -1.252  1.00  0.00     0.218 HD
ENDBRANCH  10  27
BRANCH  12  29
HETATM   29  O5  UNL     1      24.141   7.518  -4.563  1.00  0.00    -0.352 OA
HETATM   30  C18 UNL     1      23.788   8.611  -5.423  1.00  0.00     0.210 C 
ENDBRANCH  12  29
BRANCH  11  31
HETATM   31  O4  UNL     1      24.506   9.159  -2.348  1.00  0.00    -0.351 OA
HETATM   32  C16 UNL     1      23.482   8.600  -1.573  1.00  0.00     0.210 C 
ENDBRANCH  11  31
TORSDOF 7
ENDMDL
MODEL 2
REMARK VINA RESULT: -7.920032983      2.658      3.965
REMARK  7 active torsions:
REMARK  status: ('A' for Active; 'I' for Inactive)
REMARK    1  A    between atoms: C2_2  and  C3_3 
REMARK    2  A    between atoms: C2_2  and  C5_5 
REMARK    3  A    between atoms: C9_9  and  O1_10 
REMARK    4  A    between atoms: C10_12  and  O2_13 
REMARK    5  A    between atoms: C14_18  and  O3_19 
REMARK    6  A    between atoms: C15_21  and  O4_22 
REMARK    7  A    between atoms: C17_24  and  O5_25 
ROOT
HETATM    1  C5  UNL     1      29.337   1.811  -4.735  1.00  0.00     0.006 A 
HETATM    2  C6  UNL     1      28.002   2.200  -4.468  1.00  0.00     0.026 A 
HETATM    3  C7  UNL     1      27.586   3.455  -4.588  1.00  0.00    -0.004 A 
HETATM    4  C8  UNL     1      28.548   4.419  -4.999  1.00  0.00     0.022 A 
HETATM    5  C9  UNL     1      29.834   4.132  -5.282  1.00  0.00     0.111 A 
HETATM    6  C10 UNL     1      30.207   2.810  -5.139  1.00  0.00     0.113 A 
HETATM    7  C12 UNL     1      28.265   5.848  -5.093  1.00  0.00     0.011 A 
HETATM    8  C13 UNL     1      29.263   6.578  -4.548  1.00  0.00     0.082 A 
HETATM    9 CL1  UNL     1      30.413   5.819  -3.488  1.00  0.00    -0.080 Cl
HETATM   10  C14 UNL     1      29.177   7.947  -4.656  1.00  0.00     0.124 A 
HETATM   11  C15 UNL     1      28.068   8.525  -5.309  1.00  0.00     0.137 A 
HETATM   12  C17 UNL     1      27.070   7.717  -5.840  1.00  0.00     0.111 A 
HETATM   13  C19 UNL     1      27.124   6.370  -5.755  1.00  0.00    -0.009 A 
HETATM   14  C20 UNL     1      25.985   5.582  -6.279  1.00  0.00     0.046 C 
HETATM   15  C21 UNL     1      25.488   4.433  -5.541  1.00  0.00     0.053 C 
HETATM   16  C22 UNL     1      26.141   3.783  -4.390  1.00  0.00     0.128 C 
HETATM   17  C23 UNL     1      25.924   4.491  -3.073  1.00  0.00     0.057 C 
HETATM   18  F1  UNL     1      25.527   2.526  -4.234  1.00  0.00    -0.238 F 
ENDROOT
BRANCH   1  19
HETATM   19  C2  UNL     1      29.671   0.407  -4.584  1.00  0.00    -0.055 C 
HETATM   20  C1  UNL     1      29.707  -0.422  -5.585  1.00  0.00     0.020 C 
BRANCH  19  21
HETATM   21  C3  UNL     1      29.953  -0.091  -3.215  1.00  0.00     0.034 C 
HETATM   22  C4  UNL     1      31.276   0.441  -2.694  1.00  0.00     0.010 C 
ENDBRANCH  19  21
ENDBRANCH   1  19
BRANCH   6  23
HETATM   23  O2  UNL     1      31.533   2.435  -5.415  1.00  0.00    -0.352 OA
HETATM   24  C11 UNL     1      31.974   2.221  -6.744  1.00  0.00     0.210 C 
ENDBRANCH   6  23
BRANCH   5  25
HETATM   25  O1  UNL     1      30.680   5.096  -5.706  1.00  0.00    -0.357 OA
ATOM     26  H1  UNL     1      31.209   5.586  -5.088  1.00  0.00     0.217 HD
ENDBRANCH   5  25
BRANCH  10  27
HETATM   27  O3  UNL     1      30.149   8.751  -4.138  1.00  0.00    -0.356 OA
ATOM     28  H3  UNL     1      29.989   9.675  -3.991  1.00  0.00     0.218 HD
ENDBRANCH  10  27
BRANCH  12  29
HETATM   29  O5  UNL     1      25.952   8.272  -6.492  1.00  0.00    -0.352 OA
HETATM   30  C18 UNL     1      24.842   8.562  -5.629  1.00  0.00     0.210 C 
ENDBRANCH  12  29
BRANCH  11  31
HETATM   31  O4  UNL     1      27.947   9.898  -5.438  1.00  0.00    -0.351 OA
HETATM   32  C16 UNL     1      27.494  10.754  -4.427  1.00  0.00     0.210 C 
ENDBRANCH  11  31
TORSDOF 7
ENDMDL
MODEL 3
REMARK VINA RESULT: -7.890374604      0.439      1.025
REMARK  7 active torsions:
REMARK  status: ('A' for Active; 'I' for Inactive)
REMARK    1  A    between atoms: C2_2  and  C3_3 
REMARK    2  A    between atoms: C2_2  and  C5_5 
REMARK    3  A    between atoms: C9_9  and  O1_10 
REMARK    4  A    between atoms: C10_12  and  O2_13 
REMARK    5  A    between atoms: C14_18  and  O3_19 
REMARK    6  A    between atoms: C15_21  and  O4_22 
REMARK    7  A    between atoms: C17_24  and  O5_25 
ROOT
HETATM    1  C5  UNL     1      31.169   5.350  -5.030  1.00  0.00     0.006 A 
HETATM    2  C6  UNL     1      30.005   4.543  -5.044  1.00  0.00     0.026 A 
HETATM    3  C7  UNL     1      28.804   5.017  -4.734  1.00  0.00    -0.004 A 
HETATM    4  C8  UNL     1      28.724   6.392  -4.377  1.00  0.00     0.022 A 
HETATM    5  C9  UNL     1      29.779   7.230  -4.348  1.00  0.00     0.111 A 
HETATM    6  C10 UNL     1      31.001   6.679  -4.679  1.00  0.00     0.113 A 
HETATM    7  C12 UNL     1      27.492   7.036  -3.929  1.00  0.00     0.011 A 
HETATM    8  C13 UNL     1      27.715   7.815  -2.848  1.00  0.00     0.082 A 
HETATM    9 CL1  UNL     1      29.172   7.614  -1.922  1.00  0.00    -0.080 Cl
HETATM   10  C14 UNL     1      26.660   8.562  -2.379  1.00  0.00     0.124 A 
HETATM   11  C15 UNL     1      25.408   8.481  -3.025  1.00  0.00     0.137 A 
HETATM   12  C17 UNL     1      25.243   7.653  -4.127  1.00  0.00     0.111 A 
HETATM   13  C19 UNL     1      26.257   6.907  -4.617  1.00  0.00    -0.009 A 
HETATM   14  C20 UNL     1      25.981   5.992  -5.748  1.00  0.00     0.046 C 
HETATM   15  C21 UNL     1      26.552   4.657  -5.766  1.00  0.00     0.053 C 
HETATM   16  C22 UNL     1      27.601   4.141  -4.867  1.00  0.00     0.128 C 
HETATM   17  C23 UNL     1      27.096   3.708  -3.510  1.00  0.00     0.057 C 
HETATM   18  F1  UNL     1      28.101   2.967  -5.461  1.00  0.00    -0.238 F 
ENDROOT
BRANCH   1  19
HETATM   19  C2  UNL     1      32.424   4.724  -5.403  1.00  0.00    -0.055 C 
HETATM   20  C1  UNL     1      32.884   4.731  -6.619  1.00  0.00     0.020 C 
BRANCH  19  21
HETATM   21  C3  UNL     1      33.189   4.026  -4.339  1.00  0.00     0.034 C 
HETATM   22  C4  UNL     1      33.136   2.519  -4.518  1.00  0.00     0.010 C 
ENDBRANCH  19  21
ENDBRANCH   1  19
BRANCH   6  23
HETATM   23  O2  UNL     1      32.148   7.491  -4.670  1.00  0.00    -0.352 OA
HETATM   24  C11 UNL     1      32.487   8.295  -5.786  1.00  0.00     0.210 C 
ENDBRANCH   6  23
BRANCH   5  25
HETATM   25  O1  UNL     1      29.617   8.535  -4.036  1.00  0.00    -0.357 OA
ATOM     26  H1  UNL     1      29.689   8.832  -3.137  1.00  0.00     0.217 HD
ENDBRANCH   5  25
BRANCH  10  27
HETATM   27  O3  UNL     1      26.809   9.379  -1.297  1.00  0.00    -0.356 OA
ATOM     28  H3  UNL     1      26.280  10.161  -1.201  1.00  0.00     0.218 HD
ENDBRANCH  10  27
BRANCH  12  29
HETATM   29  O5  UNL     1      24.001   7.553  -4.785  1.00  0.00    -0.352 OA
HETATM   30  C18 UNL     1      23.656   8.696  -5.582  1.00  0.00     0.210 C 
ENDBRANCH  12  29
BRANCH  11  31
HETATM   31  O4  UNL     1      24.323   9.219  -2.582  1.00  0.00    -0.351 OA
HETATM   32  C16 UNL     1      23.331   8.735  -1.721  1.00  0.00     0.210 C 
ENDBRANCH  11  31
TORSDOF 7
ENDMDL
MODEL 4
REMARK VINA RESULT: -7.833376689      2.750      4.048
REMARK  7 active torsions:
REMARK  status: ('A' for Active; 'I' for Inactive)
REMARK    1  A    between atoms: C2_2  and  C3_3 
REMARK    2  A    between atoms: C2_2  and  C5_5 
REMARK    3  A    between atoms: C9_9  and  O1_10 
REMARK    4  A    between atoms: C10_12  and  O2_13 
REMARK    5  A    between atoms: C14_18  and  O3_19 
REMARK    6  A    between atoms: C15_21  and  O4_22 
REMARK    7  A    between atoms: C17_24  and  O5_25 
ROOT
HETATM    1  C5  UNL     1      30.795   7.584  -4.816  1.00  0.00     0.006 A 
HETATM    2  C6  UNL     1      29.513   8.099  -5.124  1.00  0.00     0.026 A 
HETATM    3  C7  UNL     1      28.399   7.606  -4.596  1.00  0.00    -0.004 A 
HETATM    4  C8  UNL     1      28.539   6.516  -3.692  1.00  0.00     0.022 A 
HETATM    5  C9  UNL     1      29.721   5.974  -3.337  1.00  0.00     0.111 A 
HETATM    6  C10 UNL     1      30.843   6.529  -3.919  1.00  0.00     0.113 A 
HETATM    7  C12 UNL     1      27.406   5.813  -3.098  1.00  0.00     0.011 A 
HETATM    8  C13 UNL     1      27.584   4.475  -3.146  1.00  0.00     0.082 A 
HETATM    9 CL1  UNL     1      28.776   3.798  -4.216  1.00  0.00    -0.080 Cl
HETATM   10  C14 UNL     1      26.639   3.688  -2.531  1.00  0.00     0.124 A 
HETATM   11  C15 UNL     1      25.535   4.295  -1.895  1.00  0.00     0.137 A 
HETATM   12  C17 UNL     1      25.406   5.678  -1.890  1.00  0.00     0.111 A 
HETATM   13  C19 UNL     1      26.317   6.481  -2.481  1.00  0.00    -0.009 A 
HETATM   14  C20 UNL     1      26.069   7.942  -2.497  1.00  0.00     0.046 C 
HETATM   15  C21 UNL     1      26.347   8.718  -3.693  1.00  0.00     0.053 C 
HETATM   16  C22 UNL     1      27.086   8.259  -4.883  1.00  0.00     0.128 C 
HETATM   17  C23 UNL     1      26.265   7.424  -5.838  1.00  0.00     0.057 C 
HETATM   18  F1  UNL     1      27.434   9.411  -5.613  1.00  0.00    -0.238 F 
ENDROOT
BRANCH   1  19
HETATM   19  C2  UNL     1      31.942   8.215  -5.443  1.00  0.00    -0.055 C 
HETATM   20  C1  UNL     1      32.653   7.635  -6.364  1.00  0.00     0.020 C 
BRANCH  19  21
HETATM   21  C3  UNL     1      32.320   9.574  -4.978  1.00  0.00     0.034 C 
HETATM   22  C4  UNL     1      32.661  10.482  -6.146  1.00  0.00     0.010 C 
ENDBRANCH  19  21
ENDBRANCH   1  19
BRANCH   6  23
HETATM   23  O2  UNL     1      32.111   6.015  -3.600  1.00  0.00    -0.352 OA
HETATM   24  C11 UNL     1      32.536   4.754  -4.085  1.00  0.00     0.210 C 
ENDBRANCH   6  23
BRANCH   5  25
HETATM   25  O1  UNL     1      29.777   4.964  -2.440  1.00  0.00    -0.357 OA
ATOM     26  H1  UNL     1      29.345   4.137  -2.613  1.00  0.00     0.217 HD
ENDBRANCH   5  25
BRANCH  10  27
HETATM   27  O3  UNL     1      26.753   2.329  -2.530  1.00  0.00    -0.356 OA
ATOM     28  H3  UNL     1      26.394   1.809  -3.239  1.00  0.00     0.218 HD
ENDBRANCH  10  27
BRANCH  12  29
HETATM   29  O5  UNL     1      24.311   6.306  -1.264  1.00  0.00    -0.352 OA
HETATM   30  C18 UNL     1      23.098   6.289  -2.031  1.00  0.00     0.210 C 
ENDBRANCH  12  29
BRANCH  11  31
HETATM   31  O4  UNL     1      24.563   3.537  -1.265  1.00  0.00    -0.351 OA
HETATM   32  C16 UNL     1      24.607   3.147   0.079  1.00  0.00     0.210 C 
ENDBRANCH  11  31
TORSDOF 7
ENDMDL
MODEL 5
REMARK VINA RESULT: -7.746922196      1.438      1.919
REMARK  7 active torsions:
REMARK  status: ('A' for Active; 'I' for Inactive)
REMARK    1  A    between atoms: C2_2  and  C3_3 
REMARK    2  A    between atoms: C2_2  and  C5_5 
REMARK    3  A    between atoms: C9_9  and  O1_10 
REMARK    4  A    between atoms: C10_12  and  O2_13 
REMARK    5  A    between atoms: C14_18  and  O3_19 
REMARK    6  A    between atoms: C15_21  and  O4_22 
REMARK    7  A    between atoms: C17_24  and  O5_25 
ROOT
HETATM    1  C5  UNL     1      30.931   4.297  -5.172  1.00  0.00     0.006 A 
HETATM    2  C6  UNL     1      29.589   3.849  -5.113  1.00  0.00     0.026 A 
HETATM    3  C7  UNL     1      28.567   4.677  -4.932  1.00  0.00    -0.004 A 
HETATM    4  C8  UNL     1      28.872   6.059  -4.793  1.00  0.00     0.022 A 
HETATM    5  C9  UNL     1      30.118   6.570  -4.847  1.00  0.00     0.111 A 
HETATM    6  C10 UNL     1      31.139   5.660  -5.037  1.00  0.00     0.113 A 
HETATM    7  C12 UNL     1      27.868   7.080  -4.503  1.00  0.00     0.011 A 
HETATM    8  C13 UNL     1      28.299   7.929  -3.546  1.00  0.00     0.082 A 
HETATM    9 CL1  UNL     1      29.644   7.486  -2.537  1.00  0.00    -0.080 Cl
HETATM   10  C14 UNL     1      27.494   9.002  -3.242  1.00  0.00     0.124 A 
HETATM   11  C15 UNL     1      26.268   9.166  -3.922  1.00  0.00     0.137 A 
HETATM   12  C17 UNL     1      25.879   8.250  -4.891  1.00  0.00     0.111 A 
HETATM   13  C19 UNL     1      26.646   7.187  -5.216  1.00  0.00    -0.009 A 
HETATM   14  C20 UNL     1      26.126   6.215  -6.205  1.00  0.00     0.046 C 
HETATM   15  C21 UNL     1      26.303   4.789  -5.994  1.00  0.00     0.053 C 
HETATM   16  C22 UNL     1      27.167   4.155  -4.982  1.00  0.00     0.128 C 
HETATM   17  C23 UNL     1      26.564   4.099  -3.597  1.00  0.00     0.057 C 
HETATM   18  F1  UNL     1      27.322   2.810  -5.367  1.00  0.00    -0.238 F 
ENDROOT
BRANCH   1  19
HETATM   19  C2  UNL     1      31.963   3.300  -5.390  1.00  0.00    -0.055 C 
HETATM   20  C1  UNL     1      32.300   2.878  -6.573  1.00  0.00     0.020 C 
BRANCH  19  21
HETATM   21  C3  UNL     1      32.632   2.727  -4.195  1.00  0.00     0.034 C 
HETATM   22  C4  UNL     1      32.083   1.352  -3.860  1.00  0.00     0.010 C 
ENDBRANCH  19  21
ENDBRANCH   1  19
BRANCH   6  23
HETATM   23  O2  UNL     1      32.467   6.116  -5.102  1.00  0.00    -0.352 OA
HETATM   24  C11 UNL     1      33.010   6.622  -6.308  1.00  0.00     0.210 C 
ENDBRANCH   6  23
BRANCH   5  25
HETATM   25  O1  UNL     1      30.325   7.901  -4.746  1.00  0.00    -0.357 OA
ATOM     26  H1  UNL     1      30.420   8.315  -3.896  1.00  0.00     0.217 HD
ENDBRANCH   5  25
BRANCH  10  27
HETATM   27  O3  UNL     1      27.865   9.908  -2.292  1.00  0.00    -0.356 OA
ATOM     28  H3  UNL     1      28.124  10.788  -2.535  1.00  0.00     0.218 HD
ENDBRANCH  10  27
BRANCH  12  29
HETATM   29  O5  UNL     1      24.658   8.392  -5.579  1.00  0.00    -0.352 OA
HETATM   30  C18 UNL     1      23.507   7.938  -4.850  1.00  0.00     0.210 C 
ENDBRANCH  12  29
BRANCH  11  31
HETATM   31  O4  UNL     1      25.432  10.234  -3.645  1.00  0.00    -0.351 OA
HETATM   32  C16 UNL     1      25.485  11.474  -4.292  1.00  0.00     0.210 C 
ENDBRANCH  11  31
TORSDOF 7
ENDMDL
