MODEL 1
REMARK VINA RESULT: -8.682920232      0.000      0.000
REMARK  5 active torsions:
REMARK  status: ('A' for Active; 'I' for Inactive)
REMARK    1  A    between atoms: C2_3  and  C3_4 
REMARK    2  A    between atoms: C7_9  and  O1_10 
REMARK    3  A    between atoms: O1_10  and  C8_11 
REMARK    4  A    between atoms: C8_11  and  C9_12 
REMARK    5  A    between atoms: C9_12  and  C10_13 
ROOT
HETATM    1  C3  UNL     1      24.451   5.284  -3.154  1.00  0.00     0.034 A 
HETATM    2  C4  UNL     1      24.001   5.495  -1.873  1.00  0.00     0.019 A 
HETATM    3  C5  UNL     1      23.103   6.530  -1.572  1.00  0.00     0.030 A 
HETATM    4  C6  UNL     1      22.665   7.349  -2.578  1.00  0.00     0.081 A 
HETATM    5  N2  UNL     1      21.760   8.405  -2.322  1.00  0.00    -0.099 NA
HETATM    6  C7  UNL     1      23.089   7.183  -3.895  1.00  0.00     0.115 A 
HETATM    7  C19 UNL     1      23.961   6.164  -4.145  1.00  0.00     0.083 A 
HETATM    8 CL1  UNL     1      24.527   5.823  -5.789  1.00  0.00    -0.080 Cl
ENDROOT
BRANCH   6   9
HETATM    9  O1  UNL     1      22.620   8.020  -4.831  1.00  0.00    -0.347 OA
BRANCH   9  10
HETATM   10  C8  UNL     1      23.237   9.026  -5.580  1.00  0.00     0.176 C 
BRANCH  10  11
HETATM   11  C9  UNL     1      23.890  10.070  -4.778  1.00  0.00     0.032 C 
BRANCH  11  12
HETATM   12  C10 UNL     1      25.387  10.011  -4.720  1.00  0.00    -0.006 C 
HETATM   13  C11 UNL     1      26.041   8.890  -5.434  1.00  0.00     0.042 C 
HETATM   14  C12 UNL     1      27.521   9.082  -5.452  1.00  0.00     0.174 C 
HETATM   15  F1  UNL     1      28.082   7.820  -5.703  1.00  0.00    -0.249 F 
HETATM   16  C13 UNL     1      28.159   9.614  -4.234  1.00  0.00     0.020 C 
HETATM   17  C14 UNL     1      28.462   8.618  -3.166  1.00  0.00     0.007 C 
HETATM   18  C18 UNL     1      27.373  10.724  -3.541  1.00  0.00     0.012 C 
HETATM   19  C15 UNL     1      27.388   8.369  -2.180  1.00  0.00     0.001 C 
HETATM   20  C16 UNL     1      26.027   8.858  -2.557  1.00  0.00     0.005 C 
HETATM   21  C17 UNL     1      25.978  10.112  -3.342  1.00  0.00    -0.010 C 
ENDBRANCH  11  12
ENDBRANCH  10  11
ENDBRANCH   9  10
ENDBRANCH   6   9
BRANCH   1  22
HETATM   22  C2  UNL     1      25.347   4.222  -3.564  1.00  0.00     0.136 A 
HETATM   23  N1  UNL     1      26.639   4.037  -3.305  1.00  0.00    -0.311 N 
HETATM   24  C1  UNL     1      27.567   4.832  -2.543  1.00  0.00     0.160 C 
HETATM   25  C20 UNL     1      27.034   2.858  -3.890  1.00  0.00     0.194 A 
HETATM   26  N4  UNL     1      25.977   2.335  -4.501  1.00  0.00    -0.274 N 
HETATM   27  S1  UNL     1      28.505   2.166  -3.883  1.00  0.00    -0.039 SA
HETATM   28  N3  UNL     1      24.988   3.148  -4.299  1.00  0.00    -0.282 N 
ATOM     29  H4  UNL     1      25.949   1.462  -5.027  1.00  0.00     0.189 HD
ATOM     30  H3  UNL     1      24.045   2.994  -4.657  1.00  0.00     0.188 HD
ENDBRANCH   1  22
TORSDOF 5
ENDMDL
MODEL 2
REMARK VINA RESULT: -8.673428563      3.869      6.727
REMARK  5 active torsions:
REMARK  status: ('A' for Active; 'I' for Inactive)
REMARK    1  A    between atoms: C2_3  and  C3_4 
REMARK    2  A    between atoms: C7_9  and  O1_10 
REMARK    3  A    between atoms: O1_10  and  C8_11 
REMARK    4  A    between atoms: C8_11  and  C9_12 
REMARK    5  A    between atoms: C9_12  and  C10_13 
ROOT
HETATM    1  C3  UNL     1      26.760   9.781  -4.439  1.00  0.00     0.034 A 
HETATM    2  C4  UNL     1      27.777   9.940  -5.349  1.00  0.00     0.019 A 
HETATM    3  C5  UNL     1      29.041   9.367  -5.145  1.00  0.00     0.030 A 
HETATM    4  C6  UNL     1      29.267   8.633  -4.011  1.00  0.00     0.081 A 
HETATM    5  N2  UNL     1      30.525   8.036  -3.761  1.00  0.00    -0.099 NA
HETATM    6  C7  UNL     1      28.273   8.440  -3.053  1.00  0.00     0.115 A 
HETATM    7  C19 UNL     1      27.058   9.012  -3.292  1.00  0.00     0.083 A 
HETATM    8 CL1  UNL     1      25.703   8.790  -2.171  1.00  0.00    -0.080 Cl
ENDROOT
BRANCH   6   9
HETATM    9  O1  UNL     1      28.561   7.709  -1.967  1.00  0.00    -0.347 OA
BRANCH   9  10
HETATM   10  C8  UNL     1      28.148   6.438  -1.558  1.00  0.00     0.176 C 
BRANCH  10  11
HETATM   11  C9  UNL     1      28.532   5.350  -2.468  1.00  0.00     0.032 C 
BRANCH  11  12
HETATM   12  C10 UNL     1      27.406   4.664  -3.183  1.00  0.00    -0.006 C 
HETATM   13  C11 UNL     1      27.763   3.511  -4.042  1.00  0.00     0.042 C 
HETATM   14  C12 UNL     1      26.529   2.820  -4.518  1.00  0.00     0.174 C 
HETATM   15  F1  UNL     1      26.901   2.078  -5.649  1.00  0.00    -0.249 F 
HETATM   16  C13 UNL     1      25.377   3.658  -4.899  1.00  0.00     0.020 C 
HETATM   17  C14 UNL     1      25.404   4.216  -6.282  1.00  0.00     0.007 C 
HETATM   18  C18 UNL     1      25.133   4.855  -3.983  1.00  0.00     0.012 C 
HETATM   19  C15 UNL     1      26.076   5.524  -6.446  1.00  0.00     0.001 C 
HETATM   20  C16 UNL     1      26.945   5.961  -5.310  1.00  0.00     0.005 C 
HETATM   21  C17 UNL     1      26.492   5.573  -3.955  1.00  0.00    -0.010 C 
ENDBRANCH  11  12
ENDBRANCH  10  11
ENDBRANCH   9  10
ENDBRANCH   6   9
BRANCH   1  22
HETATM   22  C2  UNL     1      25.416  10.302  -4.584  1.00  0.00     0.136 A 
HETATM   23  N1  UNL     1      24.314   9.724  -5.055  1.00  0.00    -0.311 N 
HETATM   24  C1  UNL     1      24.099   8.400  -5.579  1.00  0.00     0.160 C 
HETATM   25  C20 UNL     1      23.278  10.621  -4.956  1.00  0.00     0.194 A 
HETATM   26  N4  UNL     1      23.759  11.738  -4.423  1.00  0.00    -0.274 N 
HETATM   27  S1  UNL     1      21.723  10.425  -5.389  1.00  0.00    -0.039 SA
HETATM   28  N3  UNL     1      25.020  11.537  -4.207  1.00  0.00    -0.282 N 
ATOM     29  H4  UNL     1      23.236  12.591  -4.223  1.00  0.00     0.189 HD
ATOM     30  H3  UNL     1      25.644  12.233  -3.799  1.00  0.00     0.188 HD
ENDBRANCH   1  22
TORSDOF 5
ENDMDL
MODEL 3
REMARK VINA RESULT: -8.641638870      3.201      5.252
REMARK  5 active torsions:
REMARK  status: ('A' for Active; 'I' for Inactive)
REMARK    1  A    between atoms: C2_3  and  C3_4 
REMARK    2  A    between atoms: C7_9  and  O1_10 
REMARK    3  A    between atoms: O1_10  and  C8_11 
REMARK    4  A    between atoms: C8_11  and  C9_12 
REMARK    5  A    between atoms: C9_12  and  C10_13 
ROOT
HETATM    1  C3  UNL     1      26.754   8.617  -5.182  1.00  0.00     0.034 A 
HETATM    2  C4  UNL     1      26.095   8.059  -6.251  1.00  0.00     0.019 A 
HETATM    3  C5  UNL     1      24.699   7.929  -6.267  1.00  0.00     0.030 A 
HETATM    4  C6  UNL     1      23.975   8.367  -5.191  1.00  0.00     0.081 A 
HETATM    5  N2  UNL     1      22.565   8.257  -5.161  1.00  0.00    -0.099 NA
HETATM    6  C7  UNL     1      24.589   8.940  -4.078  1.00  0.00     0.115 A 
HETATM    7  C19 UNL     1      25.948   9.050  -4.105  1.00  0.00     0.083 A 
HETATM    8 CL1  UNL     1      26.834   9.811  -2.771  1.00  0.00    -0.080 Cl
ENDROOT
BRANCH   6   9
HETATM    9  O1  UNL     1      23.820   9.350  -3.060  1.00  0.00    -0.347 OA
BRANCH   9  10
HETATM   10  C8  UNL     1      23.574   8.807  -1.796  1.00  0.00     0.176 C 
BRANCH  10  11
HETATM   11  C9  UNL     1      23.122   7.409  -1.809  1.00  0.00     0.032 C 
BRANCH  11  12
HETATM   12  C10 UNL     1      24.132   6.388  -1.379  1.00  0.00    -0.006 C 
HETATM   13  C11 UNL     1      25.515   6.870  -1.152  1.00  0.00     0.042 C 
HETATM   14  C12 UNL     1      26.343   5.791  -0.540  1.00  0.00     0.174 C 
HETATM   15  F1  UNL     1      27.683   6.133  -0.784  1.00  0.00    -0.249 F 
HETATM   16  C13 UNL     1      26.144   4.413  -1.027  1.00  0.00     0.020 C 
HETATM   17  C14 UNL     1      26.876   4.048  -2.274  1.00  0.00     0.007 C 
HETATM   18  C18 UNL     1      24.688   4.038  -1.288  1.00  0.00     0.012 C 
HETATM   19  C15 UNL     1      26.175   4.321  -3.548  1.00  0.00     0.001 C 
HETATM   20  C16 UNL     1      24.996   5.237  -3.463  1.00  0.00     0.005 C 
HETATM   21  C17 UNL     1      24.189   5.149  -2.225  1.00  0.00    -0.010 C 
ENDBRANCH  11  12
ENDBRANCH  10  11
ENDBRANCH   9  10
ENDBRANCH   6   9
BRANCH   1  22
HETATM   22  C2  UNL     1      28.184   8.826  -5.094  1.00  0.00     0.136 A 
HETATM   23  N1  UNL     1      29.151   8.006  -4.689  1.00  0.00    -0.311 N 
HETATM   24  C1  UNL     1      29.091   6.652  -4.201  1.00  0.00     0.160 C 
HETATM   25  C20 UNL     1      30.355   8.655  -4.824  1.00  0.00     0.194 A 
HETATM   26  N4  UNL     1      30.109   9.866  -5.310  1.00  0.00    -0.274 N 
HETATM   27  S1  UNL     1      31.846   8.110  -4.472  1.00  0.00    -0.039 SA
HETATM   28  N3  UNL     1      28.826   9.954  -5.467  1.00  0.00    -0.282 N 
ATOM     29  H4  UNL     1      30.798  10.588  -5.520  1.00  0.00     0.189 HD
ATOM     30  H3  UNL     1      28.354  10.782  -5.830  1.00  0.00     0.188 HD
ENDBRANCH   1  22
TORSDOF 5
ENDMDL
MODEL 4
REMARK VINA RESULT: -8.593315783      3.608      6.365
REMARK  5 active torsions:
REMARK  status: ('A' for Active; 'I' for Inactive)
REMARK    1  A    between atoms: C2_3  and  C3_4 
REMARK    2  A    between atoms: C7_9  and  O1_10 
REMARK    3  A    between atoms: O1_10  and  C8_11 
REMARK    4  A    between atoms: C8_11  and  C9_12 
REMARK    5  A    between atoms: C9_12  and  C10_13 
ROOT
HETATM    1  C3  UNL     1      25.952   9.420  -3.695  1.00  0.00     0.034 A 
HETATM    2  C4  UNL     1      27.189   9.403  -4.294  1.00  0.00     0.019 A 
HETATM    3  C5  UNL     1      28.288   8.772  -3.690  1.00  0.00     0.030 A 
HETATM    4  C6  UNL     1      28.124   8.162  -2.476  1.00  0.00     0.081 A 
HETATM    5  N2  UNL     1      29.202   7.514  -1.829  1.00  0.00    -0.099 NA
HETATM    6  C7  UNL     1      26.893   8.150  -1.822  1.00  0.00     0.115 A 
HETATM    7  C19 UNL     1      25.850   8.772  -2.445  1.00  0.00     0.083 A 
HETATM    8 CL1  UNL     1      24.227   8.774  -1.734  1.00  0.00    -0.080 Cl
ENDROOT
BRANCH   6   9
HETATM    9  O1  UNL     1      26.802   7.532  -0.636  1.00  0.00    -0.347 OA
BRANCH   9  10
HETATM   10  C8  UNL     1      26.596   6.193  -0.292  1.00  0.00     0.176 C 
BRANCH  10  11
HETATM   11  C9  UNL     1      25.589   5.501  -1.108  1.00  0.00     0.032 C 
BRANCH  11  12
HETATM   12  C10 UNL     1      25.950   5.277  -2.546  1.00  0.00    -0.006 C 
HETATM   13  C11 UNL     1      24.861   4.834  -3.448  1.00  0.00     0.042 C 
HETATM   14  C12 UNL     1      25.327   4.850  -4.865  1.00  0.00     0.174 C 
HETATM   15  F1  UNL     1      24.458   4.008  -5.578  1.00  0.00    -0.249 F 
HETATM   16  C13 UNL     1      26.703   4.399  -5.141  1.00  0.00     0.020 C 
HETATM   17  C14 UNL     1      26.896   2.924  -5.263  1.00  0.00     0.007 C 
HETATM   18  C18 UNL     1      27.738   4.859  -4.118  1.00  0.00     0.012 C 
HETATM   19  C15 UNL     1      27.187   2.197  -4.008  1.00  0.00     0.001 C 
HETATM   20  C16 UNL     1      26.909   2.940  -2.740  1.00  0.00     0.005 C 
HETATM   21  C17 UNL     1      27.149   4.401  -2.774  1.00  0.00    -0.010 C 
ENDBRANCH  11  12
ENDBRANCH  10  11
ENDBRANCH   9  10
ENDBRANCH   6   9
BRANCH   1  22
HETATM   22  C2  UNL     1      24.757  10.012  -4.260  1.00  0.00     0.136 A 
HETATM   23  N1  UNL     1      23.707   9.440  -4.845  1.00  0.00    -0.311 N 
HETATM   24  C1  UNL     1      23.421   8.055  -5.115  1.00  0.00     0.160 C 
HETATM   25  C20 UNL     1      22.810  10.425  -5.184  1.00  0.00     0.194 A 
HETATM   26  N4  UNL     1      23.323  11.589  -4.801  1.00  0.00    -0.274 N 
HETATM   27  S1  UNL     1      21.369  10.274  -5.921  1.00  0.00    -0.039 SA
HETATM   28  N3  UNL     1      24.470  11.331  -4.256  1.00  0.00    -0.282 N 
ATOM     29  H4  UNL     1      22.896  12.508  -4.913  1.00  0.00     0.189 HD
ATOM     30  H3  UNL     1      25.087  12.045  -3.868  1.00  0.00     0.188 HD
ENDBRANCH   1  22
TORSDOF 5
ENDMDL
MODEL 5
REMARK VINA RESULT: -8.505461730      3.441      5.695
REMARK  5 active torsions:
REMARK  status: ('A' for Active; 'I' for Inactive)
REMARK    1  A    between atoms: C2_3  and  C3_4 
REMARK    2  A    between atoms: C7_9  and  O1_10 
REMARK    3  A    between atoms: O1_10  and  C8_11 
REMARK    4  A    between atoms: C8_11  and  C9_12 
REMARK    5  A    between atoms: C9_12  and  C10_13 
ROOT
HETATM    1  C3  UNL     1      25.773   6.993  -2.055  1.00  0.00     0.034 A 
HETATM    2  C4  UNL     1      25.996   6.671  -0.738  1.00  0.00     0.019 A 
HETATM    3  C5  UNL     1      25.952   5.343  -0.289  1.00  0.00     0.030 A 
HETATM    4  C6  UNL     1      25.680   4.343  -1.185  1.00  0.00     0.081 A 
HETATM    5  N2  UNL     1      25.625   2.989  -0.780  1.00  0.00    -0.099 NA
HETATM    6  C7  UNL     1      25.443   4.611  -2.532  1.00  0.00     0.115 A 
HETATM    7  C19 UNL     1      25.498   5.916  -2.927  1.00  0.00     0.083 A 
HETATM    8 CL1  UNL     1      25.268   6.372  -4.624  1.00  0.00    -0.080 Cl
ENDROOT
BRANCH   6   9
HETATM    9  O1  UNL     1      25.184   3.586  -3.355  1.00  0.00    -0.347 OA
BRANCH   9  10
HETATM   10  C8  UNL     1      25.900   3.040  -4.424  1.00  0.00     0.176 C 
BRANCH  10  11
HETATM   11  C9  UNL     1      27.242   2.554  -4.075  1.00  0.00     0.032 C 
BRANCH  11  12
HETATM   12  C10 UNL     1      28.390   3.305  -4.680  1.00  0.00    -0.006 C 
HETATM   13  C11 UNL     1      29.713   2.638  -4.653  1.00  0.00     0.042 C 
HETATM   14  C12 UNL     1      30.698   3.414  -5.463  1.00  0.00     0.174 C 
HETATM   15  F1  UNL     1      31.972   3.017  -5.026  1.00  0.00    -0.249 F 
HETATM   16  C13 UNL     1      30.644   4.885  -5.384  1.00  0.00     0.020 C 
HETATM   17  C14 UNL     1      31.350   5.505  -4.226  1.00  0.00     0.007 C 
HETATM   18  C18 UNL     1      29.233   5.467  -5.356  1.00  0.00     0.012 C 
HETATM   19  C15 UNL     1      30.557   5.670  -2.988  1.00  0.00     0.001 C 
HETATM   20  C16 UNL     1      29.281   4.894  -2.920  1.00  0.00     0.005 C 
HETATM   21  C17 UNL     1      28.554   4.718  -4.198  1.00  0.00    -0.010 C 
ENDBRANCH  11  12
ENDBRANCH  10  11
ENDBRANCH   9  10
ENDBRANCH   6   9
BRANCH   1  22
HETATM   22  C2  UNL     1      25.834   8.328  -2.614  1.00  0.00     0.136 A 
HETATM   23  N1  UNL     1      26.860   8.997  -3.136  1.00  0.00    -0.311 N 
HETATM   24  C1  UNL     1      28.238   8.617  -3.309  1.00  0.00     0.160 C 
HETATM   25  C20 UNL     1      26.406  10.222  -3.562  1.00  0.00     0.194 A 
HETATM   26  N4  UNL     1      25.107  10.287  -3.296  1.00  0.00    -0.274 N 
HETATM   27  S1  UNL     1      27.244  11.423  -4.270  1.00  0.00    -0.039 SA
HETATM   28  N3  UNL     1      24.782   9.164  -2.738  1.00  0.00    -0.282 N 
ATOM     29  H4  UNL     1      24.485  11.071  -3.493  1.00  0.00     0.189 HD
ATOM     30  H3  UNL     1      23.837   8.937  -2.428  1.00  0.00     0.188 HD
ENDBRANCH   1  22
TORSDOF 5
ENDMDL
