MODEL 1
REMARK VINA RESULT: -8.937162991      0.000      0.000
REMARK  7 active torsions:
REMARK  status: ('A' for Active; 'I' for Inactive)
REMARK    1  A    between atoms: N1_4  and  O1_6 
REMARK    2  A    between atoms: O1_6  and  C4_7 
REMARK    3  A    between atoms: C4_7  and  C5_8 
REMARK    4  A    between atoms: C12_16  and  O3_17 
REMARK    5  A    between atoms: C13_19  and  O4_20 
REMARK    6  A    between atoms: C17_25  and  C18_26 
REMARK    7  A    between atoms: C18_26  and  C19_27 
ROOT
HETATM    1  C1  UNL     1      26.092   3.293  -1.102  1.00  0.00     0.021 C 
HETATM    2  C2  UNL     1      26.030   4.482  -1.656  1.00  0.00    -0.034 C 
HETATM    3  C3  UNL     1      27.122   5.007  -2.464  1.00  0.00     0.071 C 
HETATM    4  N1  UNL     1      27.898   4.295  -3.148  1.00  0.00    -0.265 N 
ATOM      5  H1  UNL     1      28.563   4.916  -3.610  1.00  0.00     0.194 HD
HETATM    6  C10 UNL     1      27.281   6.465  -2.470  1.00  0.00     0.002 A 
HETATM    7  C11 UNL     1      28.308   7.049  -3.230  1.00  0.00     0.053 A 
HETATM    8  C12 UNL     1      28.501   8.412  -3.278  1.00  0.00     0.099 A 
HETATM    9  C13 UNL     1      27.627   9.174  -2.535  1.00  0.00     0.099 A 
HETATM   10  C14 UNL     1      26.617   8.648  -1.783  1.00  0.00     0.047 A 
HETATM   11  C15 UNL     1      26.439   7.241  -1.751  1.00  0.00    -0.042 A 
HETATM   12  C16 UNL     1      25.359   6.684  -0.939  1.00  0.00     0.049 C 
HETATM   13  C17 UNL     1      24.800   5.361  -1.445  1.00  0.00     0.025 C 
ENDROOT
BRANCH   4  14
HETATM   14  O1  UNL     1      28.169   3.142  -3.479  1.00  0.00    -0.275 OA
BRANCH  14  15
HETATM   15  C4  UNL     1      28.474   1.927  -3.907  1.00  0.00     0.242 C 
BRANCH  15  16
HETATM   16  C5  UNL     1      29.669   1.873  -4.808  1.00  0.00    -0.001 A 
HETATM   17  C6  UNL     1      30.463   2.913  -5.240  1.00  0.00     0.036 A 
HETATM   18  C7  UNL     1      31.427   2.373  -6.044  1.00  0.00     0.142 A 
HETATM   19  O2  UNL     1      31.227   1.080  -6.094  1.00  0.00    -0.327 OA
HETATM   20  C8  UNL     1      30.184   0.731  -5.370  1.00  0.00     0.057 A 
HETATM   21  C9  UNL     1      29.668  -0.651  -5.197  1.00  0.00     0.077 C 
ENDBRANCH  15  16
ENDBRANCH  14  15
ENDBRANCH   4  14
BRANCH  13  22
HETATM   22  C18 UNL     1      24.131   5.415  -2.753  1.00  0.00     0.014 C 
BRANCH  22  23
HETATM   23  C19 UNL     1      23.983   6.670  -3.485  1.00  0.00    -0.008 C 
HETATM   24  C20 UNL     1      24.485   6.695  -4.898  1.00  0.00     0.005 C 
HETATM   25  C21 UNL     1      24.057   8.033  -5.527  1.00  0.00     0.006 C 
HETATM   26  C22 UNL     1      24.071   9.138  -4.499  1.00  0.00     0.079 C 
HETATM   27  C23 UNL     1      22.932   8.883  -3.509  1.00  0.00     0.244 C 
HETATM   28  F1  UNL     1      21.824   9.580  -3.886  1.00  0.00    -0.206 F 
HETATM   29  F2  UNL     1      23.390   9.318  -2.278  1.00  0.00    -0.206 F 
HETATM   30  C24 UNL     1      22.650   7.364  -3.442  1.00  0.00     0.083 C 
ENDBRANCH  22  23
ENDBRANCH  13  22
BRANCH   8  31
HETATM   31  O3  UNL     1      29.522   8.979  -4.035  1.00  0.00    -0.358 OA
ATOM     32  H3  UNL     1      29.803   9.877  -3.902  1.00  0.00     0.217 HD
ENDBRANCH   8  31
BRANCH   9  33
HETATM   33  O4  UNL     1      27.807  10.549  -2.572  1.00  0.00    -0.358 OA
ATOM     34  H4  UNL     1      27.332  11.026  -3.242  1.00  0.00     0.217 HD
ENDBRANCH   9  33
TORSDOF 7
ENDMDL
MODEL 2
REMARK VINA RESULT: -8.905909184      3.566      6.181
REMARK  7 active torsions:
REMARK  status: ('A' for Active; 'I' for Inactive)
REMARK    1  A    between atoms: N1_4  and  O1_6 
REMARK    2  A    between atoms: O1_6  and  C4_7 
REMARK    3  A    between atoms: C4_7  and  C5_8 
REMARK    4  A    between atoms: C12_16  and  O3_17 
REMARK    5  A    between atoms: C13_19  and  O4_20 
REMARK    6  A    between atoms: C17_25  and  C18_26 
REMARK    7  A    between atoms: C18_26  and  C19_27 
ROOT
HETATM    1  C1  UNL     1      29.011   7.358  -2.042  1.00  0.00     0.021 C 
HETATM    2  C2  UNL     1      27.731   7.180  -2.272  1.00  0.00    -0.034 C 
HETATM    3  C3  UNL     1      26.947   8.151  -3.023  1.00  0.00     0.071 C 
HETATM    4  N1  UNL     1      27.413   8.879  -3.934  1.00  0.00    -0.265 N 
ATOM      5  H1  UNL     1      26.652   9.460  -4.286  1.00  0.00     0.194 HD
HETATM    6  C10 UNL     1      25.524   8.242  -2.678  1.00  0.00     0.002 A 
HETATM    7  C11 UNL     1      24.700   9.151  -3.362  1.00  0.00     0.053 A 
HETATM    8  C12 UNL     1      23.356   9.275  -3.085  1.00  0.00     0.099 A 
HETATM    9  C13 UNL     1      22.864   8.454  -2.095  1.00  0.00     0.099 A 
HETATM   10  C14 UNL     1      23.629   7.558  -1.407  1.00  0.00     0.047 A 
HETATM   11  C15 UNL     1      25.010   7.449  -1.711  1.00  0.00    -0.042 A 
HETATM   12  C16 UNL     1      25.825   6.492  -0.966  1.00  0.00     0.049 C 
HETATM   13  C17 UNL     1      27.021   5.942  -1.731  1.00  0.00     0.025 C 
ENDROOT
BRANCH   4  14
HETATM   14  O1  UNL     1      28.427   9.165  -4.567  1.00  0.00    -0.275 OA
BRANCH  14  15
HETATM   15  C4  UNL     1      29.480   9.531  -5.281  1.00  0.00     0.242 C 
BRANCH  15  16
HETATM   16  C5  UNL     1      30.644   8.592  -5.189  1.00  0.00    -0.001 A 
HETATM   17  C6  UNL     1      30.628   7.221  -5.056  1.00  0.00     0.036 A 
HETATM   18  C7  UNL     1      31.931   6.808  -5.015  1.00  0.00     0.142 A 
HETATM   19  O2  UNL     1      32.689   7.870  -5.118  1.00  0.00    -0.327 OA
HETATM   20  C8  UNL     1      31.965   8.965  -5.224  1.00  0.00     0.057 A 
HETATM   21  C9  UNL     1      32.491  10.347  -5.359  1.00  0.00     0.077 C 
ENDBRANCH  15  16
ENDBRANCH  14  15
ENDBRANCH   4  14
BRANCH  13  22
HETATM   22  C18 UNL     1      26.696   5.131  -2.915  1.00  0.00     0.014 C 
BRANCH  22  23
HETATM   23  C19 UNL     1      27.595   4.086  -3.396  1.00  0.00    -0.008 C 
HETATM   24  C20 UNL     1      27.025   2.704  -3.521  1.00  0.00     0.005 C 
HETATM   25  C21 UNL     1      28.075   1.822  -4.217  1.00  0.00     0.006 C 
HETATM   26  C22 UNL     1      29.472   2.236  -3.823  1.00  0.00     0.079 C 
HETATM   27  C23 UNL     1      29.756   3.605  -4.443  1.00  0.00     0.244 C 
HETATM   28  F1  UNL     1      30.402   3.451  -5.633  1.00  0.00    -0.206 F 
HETATM   29  F2  UNL     1      30.555   4.278  -3.536  1.00  0.00    -0.206 F 
HETATM   30  C24 UNL     1      28.424   4.369  -4.617  1.00  0.00     0.083 C 
ENDBRANCH  22  23
ENDBRANCH  13  22
BRANCH   8  31
HETATM   31  O3  UNL     1      22.550  10.180  -3.769  1.00  0.00    -0.358 OA
ATOM     32  H3  UNL     1      21.738   9.911  -4.184  1.00  0.00     0.217 HD
ENDBRANCH   8  31
BRANCH   9  33
HETATM   33  O4  UNL     1      21.512   8.566  -1.803  1.00  0.00    -0.358 OA
ATOM     34  H4  UNL     1      20.925   7.979  -2.265  1.00  0.00     0.217 HD
ENDBRANCH   9  33
TORSDOF 7
ENDMDL
MODEL 3
REMARK VINA RESULT: -8.779864621      3.547      6.976
REMARK  7 active torsions:
REMARK  status: ('A' for Active; 'I' for Inactive)
REMARK    1  A    between atoms: N1_4  and  O1_6 
REMARK    2  A    between atoms: O1_6  and  C4_7 
REMARK    3  A    between atoms: C4_7  and  C5_8 
REMARK    4  A    between atoms: C12_16  and  O3_17 
REMARK    5  A    between atoms: C13_19  and  O4_20 
REMARK    6  A    between atoms: C17_25  and  C18_26 
REMARK    7  A    between atoms: C18_26  and  C19_27 
ROOT
HETATM    1  C1  UNL     1      25.761   6.606  -5.025  1.00  0.00     0.021 C 
HETATM    2  C2  UNL     1      27.016   6.742  -4.666  1.00  0.00    -0.034 C 
HETATM    3  C3  UNL     1      27.707   8.020  -4.770  1.00  0.00     0.071 C 
HETATM    4  N1  UNL     1      27.144   9.137  -4.660  1.00  0.00    -0.265 N 
ATOM      5  H1  UNL     1      27.857   9.857  -4.775  1.00  0.00     0.194 HD
HETATM    6  C10 UNL     1      29.155   7.957  -5.000  1.00  0.00     0.002 A 
HETATM    7  C11 UNL     1      29.893   9.147  -5.107  1.00  0.00     0.053 A 
HETATM    8  C12 UNL     1      31.255   9.150  -5.317  1.00  0.00     0.099 A 
HETATM    9  C13 UNL     1      31.854   7.914  -5.417  1.00  0.00     0.099 A 
HETATM   10  C14 UNL     1      31.174   6.735  -5.320  1.00  0.00     0.047 A 
HETATM   11  C15 UNL     1      29.773   6.759  -5.103  1.00  0.00    -0.042 A 
HETATM   12  C16 UNL     1      29.050   5.493  -5.005  1.00  0.00     0.049 C 
HETATM   13  C17 UNL     1      27.797   5.539  -4.142  1.00  0.00     0.025 C 
ENDROOT
BRANCH   4  14
HETATM   14  O1  UNL     1      26.069   9.701  -4.466  1.00  0.00    -0.275 OA
BRANCH  14  15
HETATM   15  C4  UNL     1      24.895  10.298  -4.333  1.00  0.00     0.242 C 
BRANCH  15  16
HETATM   16  C5  UNL     1      23.914   9.547  -3.485  1.00  0.00    -0.001 A 
HETATM   17  C6  UNL     1      24.165   8.742  -2.396  1.00  0.00     0.036 A 
HETATM   18  C7  UNL     1      22.958   8.278  -1.954  1.00  0.00     0.142 A 
HETATM   19  O2  UNL     1      22.030   8.775  -2.733  1.00  0.00    -0.327 OA
HETATM   20  C8  UNL     1      22.553   9.543  -3.667  1.00  0.00     0.057 A 
HETATM   21  C9  UNL     1      21.798  10.269  -4.720  1.00  0.00     0.077 C 
ENDBRANCH  15  16
ENDBRANCH  14  15
ENDBRANCH   4  14
BRANCH  13  22
HETATM   22  C18 UNL     1      28.022   5.813  -2.714  1.00  0.00     0.014 C 
BRANCH  22  23
HETATM   23  C19 UNL     1      27.020   5.482  -1.705  1.00  0.00    -0.008 C 
HETATM   24  C20 UNL     1      26.589   6.588  -0.788  1.00  0.00     0.005 C 
HETATM   25  C21 UNL     1      25.408   6.071   0.051  1.00  0.00     0.006 C 
HETATM   26  C22 UNL     1      25.567   4.601   0.354  1.00  0.00     0.079 C 
HETATM   27  C23 UNL     1      25.383   3.824  -0.952  1.00  0.00     0.244 C 
HETATM   28  F1  UNL     1      24.090   3.411  -1.068  1.00  0.00    -0.206 F 
HETATM   29  F2  UNL     1      26.239   2.740  -0.875  1.00  0.00    -0.206 F 
HETATM   30  C24 UNL     1      25.799   4.722  -2.139  1.00  0.00     0.083 C 
ENDBRANCH  22  23
ENDBRANCH  13  22
BRANCH   8  31
HETATM   31  O3  UNL     1      31.976  10.336  -5.420  1.00  0.00    -0.358 OA
ATOM     32  H3  UNL     1      32.558  10.629  -4.729  1.00  0.00     0.217 HD
ENDBRANCH   8  31
BRANCH   9  33
HETATM   33  O4  UNL     1      33.225   7.898  -5.628  1.00  0.00    -0.358 OA
ATOM     34  H4  UNL     1      33.593   7.101  -5.991  1.00  0.00     0.217 HD
ENDBRANCH   9  33
TORSDOF 7
ENDMDL
MODEL 4
REMARK VINA RESULT: -8.685958540      3.208      5.378
REMARK  7 active torsions:
REMARK  status: ('A' for Active; 'I' for Inactive)
REMARK    1  A    between atoms: N1_4  and  O1_6 
REMARK    2  A    between atoms: O1_6  and  C4_7 
REMARK    3  A    between atoms: C4_7  and  C5_8 
REMARK    4  A    between atoms: C12_16  and  O3_17 
REMARK    5  A    between atoms: C13_19  and  O4_20 
REMARK    6  A    between atoms: C17_25  and  C18_26 
REMARK    7  A    between atoms: C18_26  and  C19_27 
ROOT
HETATM    1  C1  UNL     1      27.031   9.504  -1.915  1.00  0.00     0.021 C 
HETATM    2  C2  UNL     1      27.670   9.089  -2.984  1.00  0.00    -0.034 C 
HETATM    3  C3  UNL     1      28.568   7.944  -2.942  1.00  0.00     0.071 C 
HETATM    4  N1  UNL     1      28.430   6.968  -2.164  1.00  0.00    -0.265 N 
ATOM      5  H1  UNL     1      29.192   6.315  -2.346  1.00  0.00     0.194 HD
HETATM    6  C10 UNL     1      29.682   7.958  -3.896  1.00  0.00     0.002 A 
HETATM    7  C11 UNL     1      30.589   6.885  -3.921  1.00  0.00     0.053 A 
HETATM    8  C12 UNL     1      31.650   6.841  -4.799  1.00  0.00     0.099 A 
HETATM    9  C13 UNL     1      31.772   7.914  -5.655  1.00  0.00     0.099 A 
HETATM   10  C14 UNL     1      30.914   8.975  -5.664  1.00  0.00     0.047 A 
HETATM   11  C15 UNL     1      29.830   8.996  -4.750  1.00  0.00    -0.042 A 
HETATM   12  C16 UNL     1      28.918  10.137  -4.761  1.00  0.00     0.049 C 
HETATM   13  C17 UNL     1      27.498   9.823  -4.312  1.00  0.00     0.025 C 
ENDROOT
BRANCH   4  14
HETATM   14  O1  UNL     1      27.733   6.491  -1.270  1.00  0.00    -0.275 OA
BRANCH  14  15
HETATM   15  C4  UNL     1      26.921   6.006  -0.344  1.00  0.00     0.242 C 
BRANCH  15  16
HETATM   16  C5  UNL     1      25.501   5.844  -0.793  1.00  0.00    -0.001 A 
HETATM   17  C6  UNL     1      24.698   6.760  -1.435  1.00  0.00     0.036 A 
HETATM   18  C7  UNL     1      23.488   6.158  -1.638  1.00  0.00     0.142 A 
HETATM   19  O2  UNL     1      23.557   4.946  -1.147  1.00  0.00    -0.327 OA
HETATM   20  C8  UNL     1      24.744   4.710  -0.628  1.00  0.00     0.057 A 
HETATM   21  C9  UNL     1      25.176   3.443   0.015  1.00  0.00     0.077 C 
ENDBRANCH  15  16
ENDBRANCH  14  15
ENDBRANCH   4  14
BRANCH  13  22
HETATM   22  C18 UNL     1      26.751   8.895  -5.176  1.00  0.00     0.014 C 
BRANCH  22  23
HETATM   23  C19 UNL     1      25.295   8.811  -5.129  1.00  0.00    -0.008 C 
HETATM   24  C20 UNL     1      24.692   7.438  -5.178  1.00  0.00     0.005 C 
HETATM   25  C21 UNL     1      23.181   7.577  -4.925  1.00  0.00     0.006 C 
HETATM   26  C22 UNL     1      22.653   8.862  -5.515  1.00  0.00     0.079 C 
HETATM   27  C23 UNL     1      23.213  10.027  -4.697  1.00  0.00     0.244 C 
HETATM   28  F1  UNL     1      22.321  10.389  -3.734  1.00  0.00    -0.206 F 
HETATM   29  F2  UNL     1      23.414  11.062  -5.593  1.00  0.00    -0.206 F 
HETATM   30  C24 UNL     1      24.569   9.610  -4.084  1.00  0.00     0.083 C 
ENDBRANCH  22  23
ENDBRANCH  13  22
BRANCH   8  31
HETATM   31  O3  UNL     1      32.543   5.773  -4.815  1.00  0.00    -0.358 OA
ATOM     32  H3  UNL     1      32.345   4.964  -5.272  1.00  0.00     0.217 HD
ENDBRANCH   8  31
BRANCH   9  33
HETATM   33  O4  UNL     1      32.835   7.886  -6.546  1.00  0.00    -0.358 OA
ATOM     34  H4  UNL     1      32.658   7.542  -7.414  1.00  0.00     0.217 HD
ENDBRANCH   9  33
TORSDOF 7
ENDMDL
MODEL 5
REMARK VINA RESULT: -8.671510650      0.899      1.318
REMARK  7 active torsions:
REMARK  status: ('A' for Active; 'I' for Inactive)
REMARK    1  A    between atoms: N1_4  and  O1_6 
REMARK    2  A    between atoms: O1_6  and  C4_7 
REMARK    3  A    between atoms: C4_7  and  C5_8 
REMARK    4  A    between atoms: C12_16  and  O3_17 
REMARK    5  A    between atoms: C13_19  and  O4_20 
REMARK    6  A    between atoms: C17_25  and  C18_26 
REMARK    7  A    between atoms: C18_26  and  C19_27 
ROOT
HETATM    1  C1  UNL     1      26.333   3.126  -1.743  1.00  0.00     0.021 C 
HETATM    2  C2  UNL     1      26.168   4.377  -2.105  1.00  0.00    -0.034 C 
HETATM    3  C3  UNL     1      27.109   5.046  -2.993  1.00  0.00     0.071 C 
HETATM    4  N1  UNL     1      27.773   4.463  -3.885  1.00  0.00    -0.265 N 
ATOM      5  H1  UNL     1      28.348   5.163  -4.352  1.00  0.00     0.194 HD
HETATM    6  C10 UNL     1      27.249   6.495  -2.816  1.00  0.00     0.002 A 
HETATM    7  C11 UNL     1      28.134   7.213  -3.637  1.00  0.00     0.053 A 
HETATM    8  C12 UNL     1      28.302   8.576  -3.521  1.00  0.00     0.099 A 
HETATM    9  C13 UNL     1      27.550   9.197  -2.548  1.00  0.00     0.099 A 
HETATM   10  C14 UNL     1      26.681   8.537  -1.729  1.00  0.00     0.047 A 
HETATM   11  C15 UNL     1      26.526   7.135  -1.869  1.00  0.00    -0.042 A 
HETATM   12  C16 UNL     1      25.597   6.434  -0.986  1.00  0.00     0.049 C 
HETATM   13  C17 UNL     1      24.979   5.176  -1.580  1.00  0.00     0.025 C 
ENDROOT
BRANCH   4  14
HETATM   14  O1  UNL     1      28.001   3.376  -4.415  1.00  0.00    -0.275 OA
BRANCH  14  15
HETATM   15  C4  UNL     1      28.247   2.176  -4.915  1.00  0.00     0.242 C 
BRANCH  15  16
HETATM   16  C5  UNL     1      29.423   1.481  -4.300  1.00  0.00    -0.001 A 
HETATM   17  C6  UNL     1      29.432   0.556  -3.279  1.00  0.00     0.036 A 
HETATM   18  C7  UNL     1      30.737   0.209  -3.065  1.00  0.00     0.142 A 
HETATM   19  O2  UNL     1      31.473   0.886  -3.910  1.00  0.00    -0.327 OA
HETATM   20  C8  UNL     1      30.732   1.663  -4.672  1.00  0.00     0.057 A 
HETATM   21  C9  UNL     1      31.231   2.568  -5.739  1.00  0.00     0.077 C 
ENDBRANCH  15  16
ENDBRANCH  14  15
ENDBRANCH   4  14
BRANCH  13  22
HETATM   22  C18 UNL     1      24.107   5.389  -2.745  1.00  0.00     0.014 C 
BRANCH  22  23
HETATM   23  C19 UNL     1      23.803   6.728  -3.239  1.00  0.00    -0.008 C 
HETATM   24  C20 UNL     1      24.042   6.985  -4.697  1.00  0.00     0.005 C 
HETATM   25  C21 UNL     1      23.481   8.379  -5.029  1.00  0.00     0.006 C 
HETATM   26  C22 UNL     1      23.656   9.320  -3.862  1.00  0.00     0.079 C 
HETATM   27  C23 UNL     1      22.720   8.868  -2.739  1.00  0.00     0.244 C 
HETATM   28  F1  UNL     1      21.548   9.559  -2.806  1.00  0.00    -0.206 F 
HETATM   29  F2  UNL     1      23.382   9.139  -1.556  1.00  0.00    -0.206 F 
HETATM   30  C24 UNL     1      22.486   7.344  -2.858  1.00  0.00     0.083 C 
ENDBRANCH  22  23
ENDBRANCH  13  22
BRANCH   8  31
HETATM   31  O3  UNL     1      29.181   9.277  -4.341  1.00  0.00    -0.358 OA
ATOM     32  H3  UNL     1      29.527  10.126  -4.092  1.00  0.00     0.217 HD
ENDBRANCH   8  31
BRANCH   9  33
HETATM   33  O4  UNL     1      27.707  10.569  -2.417  1.00  0.00    -0.358 OA
ATOM     34  H4  UNL     1      27.117  11.117  -2.920  1.00  0.00     0.217 HD
ENDBRANCH   9  33
TORSDOF 7
ENDMDL
