MODEL 1
REMARK VINA RESULT: -8.641025690      0.000      0.000
REMARK  15 active torsions:
REMARK  status: ('A' for Active; 'I' for Inactive)
REMARK    1  A    between atoms: N2_4  and  N3_6 
REMARK    2  A    between atoms: C1_13  and  C2_14 
REMARK    3  A    between atoms: C2_14  and  N7_15 
REMARK    4  A    between atoms: C2_14  and  C10_29 
REMARK    5  A    between atoms: N7_15  and  N8_17 
REMARK    6  A    between atoms: N8_17  and  C3_18 
REMARK    7  A    between atoms: C5_20  and  C6_21 
REMARK    8  A    between atoms: C10_29  and  C11_30 
REMARK    9  A    between atoms: C10_29  and  N10_44 
REMARK   10  A    between atoms: C11_30  and  C12_32 
REMARK   11  A    between atoms: C13_33  and  C14_34 
REMARK   12  A    between atoms: C17_37  and  O3_38 
REMARK   13  A    between atoms: C18_40  and  O4_41 
REMARK   14  A    between atoms: N10_44  and  N11_45 
REMARK   15  A    between atoms: N10_44  and  O5_48 
ROOT
HETATM    1  C2  UNL     1      26.263 -20.880 -41.046  1.00  0.00     0.139 C 
ENDROOT
BRANCH   1   2
HETATM    2  C1  UNL     1      25.516 -21.547 -40.038  1.00  0.00     0.195 A 
HETATM    3  N3  UNL     1      25.003 -21.461 -38.885  1.00  0.00    -0.146 N 
HETATM    4  N4  UNL     1      24.394 -22.597 -38.504  1.00  0.00    -0.204 N 
HETATM    5  N5  UNL     1      24.519 -23.466 -39.466  1.00  0.00    -0.225 N 
ATOM      6  H4  UNL     1      23.915 -22.751 -37.616  1.00  0.00     0.212 HD
HETATM    7  N6  UNL     1      25.183 -22.908 -40.424  1.00  0.00    -0.265 N 
ATOM      8  H5  UNL     1      24.157 -24.419 -39.463  1.00  0.00     0.210 HD
ATOM      9  H6  UNL     1      25.433 -23.352 -41.308  1.00  0.00     0.190 HD
BRANCH   3  10
HETATM   10  N2  UNL     1      24.872 -20.368 -37.989  1.00  0.00    -0.225 N 
HETATM   11  N1  UNL     1      24.070 -19.550 -37.938  1.00  0.00    -0.329 N 
ATOM     12  H12 UNL     1      23.348 -19.636 -38.654  1.00  0.00     0.178 HD
ATOM     13  H11 UNL     1      23.976 -18.765 -37.294  1.00  0.00     0.178 HD
ATOM     14  H2  UNL     1      25.604 -20.300 -37.282  1.00  0.00     0.210 HD
ENDBRANCH   3  10
ENDBRANCH   1   2
BRANCH   1  15
HETATM   15  N7  UNL     1      26.867 -20.342 -41.856  1.00  0.00    -0.227 N 
ATOM     16  H7  UNL     1      27.860 -20.243 -41.646  1.00  0.00     0.202 HD
BRANCH  15  17
HETATM   17  N8  UNL     1      26.511 -19.841 -42.987  1.00  0.00    -0.297 NA
BRANCH  17  18
HETATM   18  C3  UNL     1      26.069 -19.257 -43.934  1.00  0.00     0.266 A 
HETATM   19  C4  UNL     1      24.921 -18.424 -43.969  1.00  0.00     0.108 A 
HETATM   20  C5  UNL     1      24.777 -17.961 -45.246  1.00  0.00     0.077 A 
HETATM   21  N9  UNL     1      25.783 -18.485 -45.935  1.00  0.00    -0.257 N 
HETATM   22  O1  UNL     1      26.534 -19.228 -45.203  1.00  0.00    -0.202 OA
ATOM     23  H9  UNL     1      25.943 -18.318 -46.928  1.00  0.00     0.195 HD
BRANCH  20  24
HETATM   24  C6  UNL     1      23.719 -17.073 -45.764  1.00  0.00     0.033 A 
HETATM   25  C7  UNL     1      22.375 -17.318 -45.703  1.00  0.00     0.021 A 
HETATM   26  C8  UNL     1      21.561 -16.400 -46.230  1.00  0.00     0.008 A 
HETATM   27  C9  UNL     1      22.133 -15.290 -46.790  1.00  0.00     0.050 A 
HETATM   28  S1  UNL     1      23.814 -15.580 -46.553  1.00  0.00    -0.100 SA
ENDBRANCH  20  24
ENDBRANCH  17  18
ENDBRANCH  15  17
ENDBRANCH   1  15
BRANCH   1  29
HETATM   29  C10 UNL     1      27.893 -21.177 -40.272  1.00  0.00     0.141 C 
BRANCH  29  30
HETATM   30  C11 UNL     1      28.288 -19.946 -39.756  1.00  0.00     0.199 C 
HETATM   31  O2  UNL     1      27.471 -19.253 -39.031  1.00  0.00    -0.286 OA
BRANCH  30  32
HETATM   32  C12 UNL     1      29.596 -19.333 -39.961  1.00  0.00     0.058 C 
HETATM   33  C13 UNL     1      30.144 -18.656 -40.872  1.00  0.00     0.015 C 
BRANCH  33  34
HETATM   34  C14 UNL     1      29.808 -18.139 -42.174  1.00  0.00    -0.033 A 
HETATM   35  C15 UNL     1      30.308 -18.754 -43.323  1.00  0.00     0.014 A 
HETATM   36  C16 UNL     1      29.968 -18.411 -44.606  1.00  0.00     0.040 A 
HETATM   37  C17 UNL     1      29.039 -17.354 -44.744  1.00  0.00     0.098 A 
HETATM   38  C18 UNL     1      28.536 -16.744 -43.679  1.00  0.00     0.099 A 
HETATM   39  C19 UNL     1      28.917 -17.133 -42.376  1.00  0.00     0.050 A 
BRANCH  37  40
HETATM   40  O3  UNL     1      28.682 -16.991 -46.051  1.00  0.00    -0.358 OA
ATOM     41  H3  UNL     1      27.783 -17.155 -46.312  1.00  0.00     0.217 HD
ENDBRANCH  37  40
BRANCH  38  42
HETATM   42  O4  UNL     1      27.596 -15.682 -43.769  1.00  0.00    -0.358 OA
ATOM     43  H4  UNL     1      27.852 -14.771 -43.850  1.00  0.00     0.217 HD
ENDBRANCH  38  42
ENDBRANCH  33  34
ENDBRANCH  30  32
ENDBRANCH  29  30
BRANCH  29  44
HETATM   44  N10 UNL     1      28.362 -22.225 -40.923  1.00  0.00    -0.071 NA
BRANCH  44  45
HETATM   45  N11 UNL     1      29.665 -22.157 -41.460  1.00  0.00    -0.336 NA
ATOM     46 2H11 UNL     1      30.256 -22.367 -40.656  1.00  0.00     0.173 HD
ATOM     47 1H11 UNL     1      29.948 -21.305 -41.945  1.00  0.00     0.173 HD
ENDBRANCH  44  45
BRANCH  44  48
HETATM   48  O5  UNL     1      28.408 -23.390 -40.121  1.00  0.00    -0.289 OA
ATOM     49  H5  UNL     1      28.955 -24.070 -40.494  1.00  0.00     0.239 HD
ENDBRANCH  44  48
ENDBRANCH  29  44
ENDBRANCH   1  29
TORSDOF 15
ENDMDL
MODEL 2
REMARK VINA RESULT: -8.506878625      1.401      1.957
REMARK  15 active torsions:
REMARK  status: ('A' for Active; 'I' for Inactive)
REMARK    1  A    between atoms: N2_4  and  N3_6 
REMARK    2  A    between atoms: C1_13  and  C2_14 
REMARK    3  A    between atoms: C2_14  and  N7_15 
REMARK    4  A    between atoms: C2_14  and  C10_29 
REMARK    5  A    between atoms: N7_15  and  N8_17 
REMARK    6  A    between atoms: N8_17  and  C3_18 
REMARK    7  A    between atoms: C5_20  and  C6_21 
REMARK    8  A    between atoms: C10_29  and  C11_30 
REMARK    9  A    between atoms: C10_29  and  N10_44 
REMARK   10  A    between atoms: C11_30  and  C12_32 
REMARK   11  A    between atoms: C13_33  and  C14_34 
REMARK   12  A    between atoms: C17_37  and  O3_38 
REMARK   13  A    between atoms: C18_40  and  O4_41 
REMARK   14  A    between atoms: N10_44  and  N11_45 
REMARK   15  A    between atoms: N10_44  and  O5_48 
ROOT
HETATM    1  C2  UNL     1      25.734 -20.711 -41.462  1.00  0.00     0.139 C 
ENDROOT
BRANCH   1   2
HETATM    2  C1  UNL     1      25.351 -21.702 -40.517  1.00  0.00     0.195 A 
HETATM    3  N3  UNL     1      25.027 -21.934 -39.316  1.00  0.00    -0.146 N 
HETATM    4  N4  UNL     1      24.791 -23.237 -39.088  1.00  0.00    -0.204 N 
HETATM    5  N5  UNL     1      24.971 -23.883 -40.204  1.00  0.00    -0.225 N 
ATOM      6  H4  UNL     1      24.517 -23.649 -38.195  1.00  0.00     0.212 HD
HETATM    7  N6  UNL     1      25.310 -23.028 -41.112  1.00  0.00    -0.265 N 
ATOM      8  H5  UNL     1      24.863 -24.888 -40.339  1.00  0.00     0.210 HD
ATOM      9  H6  UNL     1      25.515 -23.247 -42.086  1.00  0.00     0.190 HD
BRANCH   3  10
HETATM   10  N2  UNL     1      24.776 -21.067 -38.221  1.00  0.00    -0.225 N 
HETATM   11  N1  UNL     1      24.367 -19.995 -38.211  1.00  0.00    -0.329 N 
ATOM     12  H12 UNL     1      24.156 -19.625 -39.138  1.00  0.00     0.178 HD
ATOM     13  H11 UNL     1      24.186 -19.372 -37.424  1.00  0.00     0.178 HD
ATOM     14  H2  UNL     1      24.993 -21.456 -37.304  1.00  0.00     0.210 HD
ENDBRANCH   3  10
ENDBRANCH   1   2
BRANCH   1  15
HETATM   15  N7  UNL     1      26.044 -19.913 -42.221  1.00  0.00    -0.227 N 
ATOM     16  H7  UNL     1      26.938 -19.465 -42.021  1.00  0.00     0.202 HD
BRANCH  15  17
HETATM   17  N8  UNL     1      25.460 -19.481 -43.283  1.00  0.00    -0.297 NA
BRANCH  17  18
HETATM   18  C3  UNL     1      25.083 -18.986 -44.306  1.00  0.00     0.266 A 
HETATM   19  C4  UNL     1      24.432 -17.736 -44.466  1.00  0.00     0.108 A 
HETATM   20  C5  UNL     1      24.176 -17.562 -45.797  1.00  0.00     0.077 A 
HETATM   21  N9  UNL     1      24.650 -18.646 -46.399  1.00  0.00    -0.257 N 
HETATM   22  O1  UNL     1      25.173 -19.472 -45.565  1.00  0.00    -0.202 OA
ATOM     23  H9  UNL     1      24.605 -18.805 -47.405  1.00  0.00     0.195 HD
BRANCH  20  24
HETATM   24  C6  UNL     1      23.504 -16.417 -46.438  1.00  0.00     0.033 A 
HETATM   25  C7  UNL     1      22.279 -16.451 -47.043  1.00  0.00     0.021 A 
HETATM   26  C8  UNL     1      21.827 -15.314 -47.578  1.00  0.00     0.008 A 
HETATM   27  C9  UNL     1      22.625 -14.206 -47.480  1.00  0.00     0.050 A 
HETATM   28  S1  UNL     1      23.995 -14.810 -46.632  1.00  0.00    -0.100 SA
ENDBRANCH  20  24
ENDBRANCH  17  18
ENDBRANCH  15  17
ENDBRANCH   1  15
BRANCH   1  29
HETATM   29  C10 UNL     1      27.343 -20.343 -40.676  1.00  0.00     0.141 C 
BRANCH  29  30
HETATM   30  C11 UNL     1      28.175 -21.405 -41.020  1.00  0.00     0.199 C 
HETATM   31  O2  UNL     1      28.082 -22.532 -40.393  1.00  0.00    -0.286 OA
BRANCH  30  32
HETATM   32  C12 UNL     1      29.189 -21.368 -42.068  1.00  0.00     0.058 C 
HETATM   33  C13 UNL     1      29.572 -20.527 -42.926  1.00  0.00     0.015 C 
BRANCH  33  34
HETATM   34  C14 UNL     1      29.231 -19.193 -43.347  1.00  0.00    -0.033 A 
HETATM   35  C15 UNL     1      28.702 -18.973 -44.620  1.00  0.00     0.014 A 
HETATM   36  C16 UNL     1      28.246 -17.766 -45.082  1.00  0.00     0.040 A 
HETATM   37  C17 UNL     1      28.329 -16.681 -44.177  1.00  0.00     0.098 A 
HETATM   38  C18 UNL     1      28.821 -16.846 -42.957  1.00  0.00     0.099 A 
HETATM   39  C19 UNL     1      29.279 -18.111 -42.527  1.00  0.00     0.050 A 
BRANCH  37  40
HETATM   40  O3  UNL     1      27.867 -15.438 -44.635  1.00  0.00    -0.358 OA
ATOM     41  H3  UNL     1      27.439 -14.879 -43.999  1.00  0.00     0.217 HD
ENDBRANCH  37  40
BRANCH  38  42
HETATM   42  O4  UNL     1      28.919 -15.787 -42.013  1.00  0.00    -0.358 OA
ATOM     43  H4  UNL     1      29.576 -15.104 -42.068  1.00  0.00     0.217 HD
ENDBRANCH  38  42
ENDBRANCH  33  34
ENDBRANCH  30  32
ENDBRANCH  29  30
BRANCH  29  44
HETATM   44  N10 UNL     1      27.024 -19.566 -39.659  1.00  0.00    -0.071 NA
BRANCH  44  45
HETATM   45  N11 UNL     1      27.477 -19.923 -38.370  1.00  0.00    -0.336 NA
ATOM     46 2H11 UNL     1      28.447 -19.610 -38.373  1.00  0.00     0.173 HD
ATOM     47 1H11 UNL     1      27.377 -20.893 -38.070  1.00  0.00     0.173 HD
ENDBRANCH  44  45
BRANCH  44  48
HETATM   48  O5  UNL     1      27.503 -18.243 -39.810  1.00  0.00    -0.289 OA
ATOM     49  H5  UNL     1      27.015 -17.748 -40.456  1.00  0.00     0.239 HD
ENDBRANCH  44  48
ENDBRANCH  29  44
ENDBRANCH   1  29
TORSDOF 15
ENDMDL
MODEL 3
REMARK VINA RESULT: -8.175689702      1.596      2.285
REMARK  15 active torsions:
REMARK  status: ('A' for Active; 'I' for Inactive)
REMARK    1  A    between atoms: N2_4  and  N3_6 
REMARK    2  A    between atoms: C1_13  and  C2_14 
REMARK    3  A    between atoms: C2_14  and  N7_15 
REMARK    4  A    between atoms: C2_14  and  C10_29 
REMARK    5  A    between atoms: N7_15  and  N8_17 
REMARK    6  A    between atoms: N8_17  and  C3_18 
REMARK    7  A    between atoms: C5_20  and  C6_21 
REMARK    8  A    between atoms: C10_29  and  C11_30 
REMARK    9  A    between atoms: C10_29  and  N10_44 
REMARK   10  A    between atoms: C11_30  and  C12_32 
REMARK   11  A    between atoms: C13_33  and  C14_34 
REMARK   12  A    between atoms: C17_37  and  O3_38 
REMARK   13  A    between atoms: C18_40  and  O4_41 
REMARK   14  A    between atoms: N10_44  and  N11_45 
REMARK   15  A    between atoms: N10_44  and  O5_48 
ROOT
HETATM    1  C2  UNL     1      25.952 -21.021 -41.250  1.00  0.00     0.139 C 
ENDROOT
BRANCH   1   2
HETATM    2  C1  UNL     1      25.306 -21.701 -40.182  1.00  0.00     0.195 A 
HETATM    3  N3  UNL     1      24.927 -21.636 -38.977  1.00  0.00    -0.146 N 
HETATM    4  N4  UNL     1      24.335 -22.768 -38.559  1.00  0.00    -0.204 N 
HETATM    5  N5  UNL     1      24.329 -23.612 -39.551  1.00  0.00    -0.225 N 
ATOM      6  H4  UNL     1      23.955 -22.937 -37.628  1.00  0.00     0.212 HD
HETATM    7  N6  UNL     1      24.896 -23.042 -40.564  1.00  0.00    -0.265 N 
ATOM      8  H5  UNL     1      23.946 -24.556 -39.533  1.00  0.00     0.210 HD
ATOM      9  H6  UNL     1      25.034 -23.465 -41.482  1.00  0.00     0.190 HD
BRANCH   3  10
HETATM   10  N2  UNL     1      24.925 -20.566 -38.043  1.00  0.00    -0.225 N 
HETATM   11  N1  UNL     1      24.282 -19.618 -38.013  1.00  0.00    -0.329 N 
ATOM     12  H12 UNL     1      23.613 -19.548 -38.780  1.00  0.00     0.178 HD
ATOM     13  H11 UNL     1      24.281 -18.850 -37.342  1.00  0.00     0.178 HD
ATOM     14  H2  UNL     1      25.601 -20.655 -37.284  1.00  0.00     0.210 HD
ENDBRANCH   3  10
ENDBRANCH   1   2
BRANCH   1  15
HETATM   15  N7  UNL     1      26.475 -20.474 -42.108  1.00  0.00    -0.227 N 
ATOM     16  H7  UNL     1      27.485 -20.386 -42.000  1.00  0.00     0.202 HD
BRANCH  15  17
HETATM   17  N8  UNL     1      26.009 -19.949 -43.187  1.00  0.00    -0.297 NA
BRANCH  17  18
HETATM   18  C3  UNL     1      25.634 -19.292 -44.116  1.00  0.00     0.266 A 
HETATM   19  C4  UNL     1      24.523 -18.412 -44.152  1.00  0.00     0.108 A 
HETATM   20  C5  UNL     1      24.456 -17.870 -45.405  1.00  0.00     0.077 A 
HETATM   21  N9  UNL     1      25.472 -18.396 -46.078  1.00  0.00    -0.257 N 
HETATM   22  O1  UNL     1      26.158 -19.211 -45.360  1.00  0.00    -0.202 OA
ATOM     23  H9  UNL     1      25.683 -18.179 -47.052  1.00  0.00     0.195 HD
BRANCH  20  24
HETATM   24  C6  UNL     1      23.459 -16.910 -45.914  1.00  0.00     0.033 A 
HETATM   25  C7  UNL     1      22.103 -17.077 -45.878  1.00  0.00     0.021 A 
HETATM   26  C8  UNL     1      21.351 -16.101 -46.393  1.00  0.00     0.008 A 
HETATM   27  C9  UNL     1      21.995 -15.013 -46.916  1.00  0.00     0.050 A 
HETATM   28  S1  UNL     1      23.652 -15.405 -46.663  1.00  0.00    -0.100 SA
ENDBRANCH  20  24
ENDBRANCH  17  18
ENDBRANCH  15  17
ENDBRANCH   1  15
BRANCH   1  29
HETATM   29  C10 UNL     1      27.526 -20.765 -40.358  1.00  0.00     0.141 C 
BRANCH  29  30
HETATM   30  C11 UNL     1      28.044 -22.040 -40.145  1.00  0.00     0.199 C 
HETATM   31  O2  UNL     1      27.581 -22.777 -39.188  1.00  0.00    -0.286 OA
BRANCH  30  32
HETATM   32  C12 UNL     1      29.107 -22.653 -40.934  1.00  0.00     0.058 C 
HETATM   33  C13 UNL     1      29.945 -22.254 -41.786  1.00  0.00     0.015 C 
BRANCH  33  34
HETATM   34  C14 UNL     1      30.300 -21.025 -42.447  1.00  0.00    -0.033 A 
HETATM   35  C15 UNL     1      29.605 -20.613 -43.585  1.00  0.00     0.014 A 
HETATM   36  C16 UNL     1      29.790 -19.416 -44.226  1.00  0.00     0.040 A 
HETATM   37  C17 UNL     1      30.763 -18.554 -43.668  1.00  0.00     0.098 A 
HETATM   38  C18 UNL     1      31.445 -18.903 -42.586  1.00  0.00     0.099 A 
HETATM   39  C19 UNL     1      31.219 -20.150 -41.960  1.00  0.00     0.050 A 
BRANCH  37  40
HETATM   40  O3  UNL     1      30.964 -17.325 -44.314  1.00  0.00    -0.358 OA
ATOM     41  H3  UNL     1      31.824 -17.171 -44.687  1.00  0.00     0.217 HD
ENDBRANCH  37  40
BRANCH  38  42
HETATM   42  O4  UNL     1      32.428 -18.069 -41.988  1.00  0.00    -0.358 OA
ATOM     43  H4  UNL     1      33.328 -18.033 -42.289  1.00  0.00     0.217 HD
ENDBRANCH  38  42
ENDBRANCH  33  34
ENDBRANCH  30  32
ENDBRANCH  29  30
BRANCH  29  44
HETATM   44  N10 UNL     1      27.359 -19.603 -39.756  1.00  0.00    -0.071 NA
BRANCH  44  45
HETATM   45  N11 UNL     1      27.649 -19.509 -38.377  1.00  0.00    -0.336 NA
ATOM     46 2H11 UNL     1      28.294 -20.284 -38.225  1.00  0.00     0.173 HD
ATOM     47 1H11 UNL     1      26.873 -19.508 -37.716  1.00  0.00     0.173 HD
ENDBRANCH  44  45
BRANCH  44  48
HETATM   48  O5  UNL     1      28.155 -18.576 -40.318  1.00  0.00    -0.289 OA
ATOM     49  H5  UNL     1      28.251 -18.661 -41.259  1.00  0.00     0.239 HD
ENDBRANCH  44  48
ENDBRANCH  29  44
ENDBRANCH   1  29
TORSDOF 15
ENDMDL
MODEL 4
REMARK VINA RESULT: -7.871451845      4.618      9.623
REMARK  15 active torsions:
REMARK  status: ('A' for Active; 'I' for Inactive)
REMARK    1  A    between atoms: N2_4  and  N3_6 
REMARK    2  A    between atoms: C1_13  and  C2_14 
REMARK    3  A    between atoms: C2_14  and  N7_15 
REMARK    4  A    between atoms: C2_14  and  C10_29 
REMARK    5  A    between atoms: N7_15  and  N8_17 
REMARK    6  A    between atoms: N8_17  and  C3_18 
REMARK    7  A    between atoms: C5_20  and  C6_21 
REMARK    8  A    between atoms: C10_29  and  C11_30 
REMARK    9  A    between atoms: C10_29  and  N10_44 
REMARK   10  A    between atoms: C11_30  and  C12_32 
REMARK   11  A    between atoms: C13_33  and  C14_34 
REMARK   12  A    between atoms: C17_37  and  O3_38 
REMARK   13  A    between atoms: C18_40  and  O4_41 
REMARK   14  A    between atoms: N10_44  and  N11_45 
REMARK   15  A    between atoms: N10_44  and  O5_48 
ROOT
HETATM    1  C2  UNL     1      24.627 -15.897 -46.375  1.00  0.00     0.139 C 
ENDROOT
BRANCH   1   2
HETATM    2  C1  UNL     1      24.976 -14.538 -46.600  1.00  0.00     0.195 A 
HETATM    3  N3  UNL     1      24.867 -13.544 -47.375  1.00  0.00    -0.146 N 
HETATM    4  N4  UNL     1      25.542 -12.468 -46.933  1.00  0.00    -0.204 N 
HETATM    5  N5  UNL     1      26.117 -12.785 -45.809  1.00  0.00    -0.225 N 
ATOM      6  H4  UNL     1      25.593 -11.561 -47.398  1.00  0.00     0.212 HD
HETATM    7  N6  UNL     1      25.824 -14.015 -45.542  1.00  0.00    -0.265 N 
ATOM      8  H5  UNL     1      26.698 -12.171 -45.239  1.00  0.00     0.210 HD
ATOM      9  H6  UNL     1      26.136 -14.534 -44.721  1.00  0.00     0.190 HD
BRANCH   3  10
HETATM   10  N2  UNL     1      24.093 -13.340 -48.547  1.00  0.00    -0.225 N 
HETATM   11  N1  UNL     1      24.097 -12.465 -49.288  1.00  0.00    -0.329 N 
ATOM     12  H12 UNL     1      24.765 -11.730 -49.055  1.00  0.00     0.178 HD
ATOM     13  H11 UNL     1      23.540 -12.319 -50.130  1.00  0.00     0.178 HD
ATOM     14  H2  UNL     1      23.432 -14.086 -48.762  1.00  0.00     0.210 HD
ENDBRANCH   3  10
ENDBRANCH   1   2
BRANCH   1  15
HETATM   15  N7  UNL     1      24.343 -16.991 -46.192  1.00  0.00    -0.227 N 
ATOM     16  H7  UNL     1      23.562 -17.324 -46.757  1.00  0.00     0.202 HD
BRANCH  15  17
HETATM   17  N8  UNL     1      24.839 -17.874 -45.398  1.00  0.00    -0.297 NA
BRANCH  17  18
HETATM   18  C3  UNL     1      25.344 -18.546 -44.545  1.00  0.00     0.266 A 
HETATM   19  C4  UNL     1      26.723 -18.835 -44.384  1.00  0.00     0.108 A 
HETATM   20  C5  UNL     1      26.859 -19.637 -43.286  1.00  0.00     0.077 A 
HETATM   21  N9  UNL     1      25.631 -19.815 -42.816  1.00  0.00    -0.257 N 
HETATM   22  O1  UNL     1      24.750 -19.199 -43.521  1.00  0.00    -0.202 OA
ATOM     23  H9  UNL     1      25.411 -20.374 -41.992  1.00  0.00     0.195 HD
BRANCH  20  24
HETATM   24  C6  UNL     1      28.106 -20.202 -42.738  1.00  0.00     0.033 A 
HETATM   25  C7  UNL     1      29.250 -20.442 -43.447  1.00  0.00     0.021 A 
HETATM   26  C8  UNL     1      30.284 -20.964 -42.783  1.00  0.00     0.008 A 
HETATM   27  C9  UNL     1      30.119 -21.218 -41.449  1.00  0.00     0.050 A 
HETATM   28  S1  UNL     1      28.498 -20.710 -41.172  1.00  0.00    -0.100 SA
ENDBRANCH  20  24
ENDBRANCH  17  18
ENDBRANCH  15  17
ENDBRANCH   1  15
BRANCH   1  29
HETATM   29  C10 UNL     1      22.826 -15.598 -46.298  1.00  0.00     0.141 C 
BRANCH  29  30
HETATM   30  C11 UNL     1      22.485 -15.729 -44.954  1.00  0.00     0.199 C 
HETATM   31  O2  UNL     1      22.132 -16.881 -44.483  1.00  0.00    -0.286 OA
BRANCH  30  32
HETATM   32  C12 UNL     1      22.487 -14.643 -43.980  1.00  0.00     0.058 C 
HETATM   33  C13 UNL     1      22.140 -13.432 -43.977  1.00  0.00     0.015 C 
BRANCH  33  34
HETATM   34  C14 UNL     1      21.583 -12.473 -44.896  1.00  0.00    -0.033 A 
HETATM   35  C15 UNL     1      20.327 -11.916 -44.653  1.00  0.00     0.014 A 
HETATM   36  C16 UNL     1      19.751 -10.922 -45.402  1.00  0.00     0.040 A 
HETATM   37  C17 UNL     1      20.513 -10.445 -46.494  1.00  0.00     0.098 A 
HETATM   38  C18 UNL     1      21.713 -10.943 -46.759  1.00  0.00     0.099 A 
HETATM   39  C19 UNL     1      22.264 -11.968 -45.958  1.00  0.00     0.050 A 
BRANCH  37  40
HETATM   40  O3  UNL     1      19.938  -9.428 -47.271  1.00  0.00    -0.358 OA
ATOM     41  H3  UNL     1      19.389  -9.700 -47.996  1.00  0.00     0.217 HD
ENDBRANCH  37  40
BRANCH  38  42
HETATM   42  O4  UNL     1      22.516 -10.491 -47.842  1.00  0.00    -0.358 OA
ATOM     43  H4  UNL     1      22.493 -10.889 -48.704  1.00  0.00     0.217 HD
ENDBRANCH  38  42
ENDBRANCH  33  34
ENDBRANCH  30  32
ENDBRANCH  29  30
BRANCH  29  44
HETATM   44  N10 UNL     1      22.404 -15.913 -47.508  1.00  0.00    -0.071 NA
BRANCH  44  45
HETATM   45  N11 UNL     1      21.440 -16.936 -47.640  1.00  0.00    -0.336 NA
ATOM     46 2H11 UNL     1      22.005 -17.759 -47.849  1.00  0.00     0.173 HD
ATOM     47 1H11 UNL     1      20.678 -16.803 -48.304  1.00  0.00     0.173 HD
ENDBRANCH  44  45
BRANCH  44  48
HETATM   48  O5  UNL     1      21.804 -14.822 -48.179  1.00  0.00    -0.289 OA
ATOM     49  H5  UNL     1      21.493 -15.051 -49.047  1.00  0.00     0.239 HD
ENDBRANCH  44  48
ENDBRANCH  29  44
ENDBRANCH   1  29
TORSDOF 15
ENDMDL
MODEL 5
REMARK VINA RESULT: -7.834565977      4.571      9.543
REMARK  15 active torsions:
REMARK  status: ('A' for Active; 'I' for Inactive)
REMARK    1  A    between atoms: N2_4  and  N3_6 
REMARK    2  A    between atoms: C1_13  and  C2_14 
REMARK    3  A    between atoms: C2_14  and  N7_15 
REMARK    4  A    between atoms: C2_14  and  C10_29 
REMARK    5  A    between atoms: N7_15  and  N8_17 
REMARK    6  A    between atoms: N8_17  and  C3_18 
REMARK    7  A    between atoms: C5_20  and  C6_21 
REMARK    8  A    between atoms: C10_29  and  C11_30 
REMARK    9  A    between atoms: C10_29  and  N10_44 
REMARK   10  A    between atoms: C11_30  and  C12_32 
REMARK   11  A    between atoms: C13_33  and  C14_34 
REMARK   12  A    between atoms: C17_37  and  O3_38 
REMARK   13  A    between atoms: C18_40  and  O4_41 
REMARK   14  A    between atoms: N10_44  and  N11_45 
REMARK   15  A    between atoms: N10_44  and  O5_48 
ROOT
HETATM    1  C2  UNL     1      24.597 -15.845 -46.517  1.00  0.00     0.139 C 
ENDROOT
BRANCH   1   2
HETATM    2  C1  UNL     1      24.913 -14.470 -46.688  1.00  0.00     0.195 A 
HETATM    3  N3  UNL     1      24.782 -13.450 -47.424  1.00  0.00    -0.146 N 
HETATM    4  N4  UNL     1      25.427 -12.375 -46.938  1.00  0.00    -0.204 N 
HETATM    5  N5  UNL     1      26.006 -12.721 -45.824  1.00  0.00    -0.225 N 
ATOM      6  H4  UNL     1      25.457 -11.450 -47.366  1.00  0.00     0.212 HD
HETATM    7  N6  UNL     1      25.743 -13.967 -45.606  1.00  0.00    -0.265 N 
ATOM      8  H5  UNL     1      26.569 -12.115 -45.228  1.00  0.00     0.210 HD
ATOM      9  H6  UNL     1      26.065 -14.510 -44.804  1.00  0.00     0.190 HD
BRANCH   3  10
HETATM   10  N2  UNL     1      24.007 -13.220 -48.591  1.00  0.00    -0.225 N 
HETATM   11  N1  UNL     1      24.104 -12.403 -49.389  1.00  0.00    -0.329 N 
ATOM     12  H12 UNL     1      24.868 -11.749 -49.219  1.00  0.00     0.178 HD
ATOM     13  H11 UNL     1      23.547 -12.238 -50.228  1.00  0.00     0.178 HD
ATOM     14  H2  UNL     1      23.247 -13.884 -48.742  1.00  0.00     0.210 HD
ENDBRANCH   3  10
ENDBRANCH   1   2
BRANCH   1  15
HETATM   15  N7  UNL     1      24.341 -16.952 -46.378  1.00  0.00    -0.227 N 
ATOM     16  H7  UNL     1      23.483 -17.248 -46.843  1.00  0.00     0.202 HD
BRANCH  15  17
HETATM   17  N8  UNL     1      24.947 -17.889 -45.737  1.00  0.00    -0.297 NA
BRANCH  17  18
HETATM   18  C3  UNL     1      25.552 -18.624 -45.010  1.00  0.00     0.266 A 
HETATM   19  C4  UNL     1      25.111 -19.166 -43.777  1.00  0.00     0.108 A 
HETATM   20  C5  UNL     1      26.113 -19.950 -43.279  1.00  0.00     0.077 A 
HETATM   21  N9  UNL     1      27.097 -19.882 -44.166  1.00  0.00    -0.257 N 
HETATM   22  O1  UNL     1      26.797 -19.129 -45.164  1.00  0.00    -0.202 OA
ATOM     23  H9  UNL     1      27.988 -20.369 -44.069  1.00  0.00     0.195 HD
BRANCH  20  24
HETATM   24  C6  UNL     1      26.114 -20.708 -42.014  1.00  0.00     0.033 A 
HETATM   25  C7  UNL     1      25.072 -21.449 -41.530  1.00  0.00     0.021 A 
HETATM   26  C8  UNL     1      25.251 -22.066 -40.359  1.00  0.00     0.008 A 
HETATM   27  C9  UNL     1      26.459 -21.908 -39.736  1.00  0.00     0.050 A 
HETATM   28  S1  UNL     1      27.309 -20.886 -40.830  1.00  0.00    -0.100 SA
ENDBRANCH  20  24
ENDBRANCH  17  18
ENDBRANCH  15  17
ENDBRANCH   1  15
BRANCH   1  29
HETATM   29  C10 UNL     1      22.794 -15.587 -46.365  1.00  0.00     0.141 C 
BRANCH  29  30
HETATM   30  C11 UNL     1      22.506 -15.766 -45.015  1.00  0.00     0.199 C 
HETATM   31  O2  UNL     1      22.205 -16.941 -44.566  1.00  0.00    -0.286 OA
BRANCH  30  32
HETATM   32  C12 UNL     1      22.511 -14.708 -44.011  1.00  0.00     0.058 C 
HETATM   33  C13 UNL     1      22.138 -13.505 -43.963  1.00  0.00     0.015 C 
BRANCH  33  34
HETATM   34  C14 UNL     1      21.536 -12.534 -44.839  1.00  0.00    -0.033 A 
HETATM   35  C15 UNL     1      20.290 -11.987 -44.531  1.00  0.00     0.014 A 
HETATM   36  C16 UNL     1      19.677 -10.983 -45.236  1.00  0.00     0.040 A 
HETATM   37  C17 UNL     1      20.387 -10.483 -46.353  1.00  0.00     0.098 A 
HETATM   38  C18 UNL     1      21.576 -10.971 -46.680  1.00  0.00     0.099 A 
HETATM   39  C19 UNL     1      22.167 -12.007 -45.922  1.00  0.00     0.050 A 
BRANCH  37  40
HETATM   40  O3  UNL     1      19.774  -9.456 -47.085  1.00  0.00    -0.358 OA
ATOM     41  H3  UNL     1      20.255  -8.641 -47.166  1.00  0.00     0.217 HD
ENDBRANCH  37  40
BRANCH  38  42
HETATM   42  O4  UNL     1      22.328 -10.496 -47.789  1.00  0.00    -0.358 OA
ATOM     43  H4  UNL     1      22.360 -10.949 -48.624  1.00  0.00     0.217 HD
ENDBRANCH  38  42
ENDBRANCH  33  34
ENDBRANCH  30  32
ENDBRANCH  29  30
BRANCH  29  44
HETATM   44  N10 UNL     1      22.335 -15.875 -47.568  1.00  0.00    -0.071 NA
BRANCH  44  45
HETATM   45  N11 UNL     1      21.375 -16.902 -47.696  1.00  0.00    -0.336 NA
ATOM     46 2H11 UNL     1      21.643 -17.359 -48.567  1.00  0.00     0.173 HD
ATOM     47 1H11 UNL     1      20.387 -16.651 -47.670  1.00  0.00     0.173 HD
ENDBRANCH  44  45
BRANCH  44  48
HETATM   48  O5  UNL     1      21.704 -14.771 -48.191  1.00  0.00    -0.289 OA
ATOM     49  H5  UNL     1      22.108 -14.537 -49.018  1.00  0.00     0.239 HD
ENDBRANCH  44  48
ENDBRANCH  29  44
ENDBRANCH   1  29
TORSDOF 15
ENDMDL
