MODEL 1
REMARK VINA RESULT: -8.952729143      0.000      0.000
REMARK  13 active torsions:
REMARK  status: ('A' for Active; 'I' for Inactive)
REMARK    1  A    between atoms: N1_2  and  N2_3 
REMARK    2  A    between atoms: N1_2  and  C2_6 
REMARK    3  A    between atoms: C2_6  and  O1_7 
REMARK    4  A    between atoms: C2_6  and  N3_9 
REMARK    5  A    between atoms: N3_9  and  N4_10 
REMARK       I    between atoms: N4_10  and  C3_11 
REMARK    6  A    between atoms: C3_11  and  C4_13 
REMARK    7  A    between atoms: N7_17  and  C5_18 
REMARK    8  A    between atoms: C7_28  and  C8_29 
REMARK    9  A    between atoms: C8_29  and  S1_30 
REMARK   10  A    between atoms: S1_30  and  C9_31 
REMARK   11  A    between atoms: C9_31  and  C10_32 
REMARK   12  A    between atoms: C11_37  and  C12_38 
REMARK   13  A    between atoms: C15_41  and  O4_42 
ROOT
HETATM    1  C4  UNL     1      26.766 -17.496 -45.290  1.00  0.00     0.157 A 
HETATM    2  N5  UNL     1      26.351 -18.772 -45.588  1.00  0.00    -0.276 N 
ATOM      3  H5  UNL     1      26.959 -19.590 -45.629  1.00  0.00     0.184 HD
HETATM    4  N6  UNL     1      25.043 -18.782 -45.813  1.00  0.00    -0.013 NA
HETATM    5  N7  UNL     1      24.612 -17.512 -45.668  1.00  0.00    -0.220 N 
HETATM    6  C7  UNL     1      25.693 -16.748 -45.325  1.00  0.00     0.078 A 
ENDROOT
BRANCH   6   7
HETATM    7  C8  UNL     1      25.657 -15.289 -45.039  1.00  0.00     0.140 C 
BRANCH   7   8
HETATM    8  S1  UNL     1      25.995 -14.396 -46.663  1.00  0.00    -0.132 SA
BRANCH   8   9
HETATM    9  C9  UNL     1      24.957 -12.979 -46.834  1.00  0.00     0.095 C 
BRANCH   9  10
HETATM   10  C10 UNL     1      23.483 -13.076 -46.914  1.00  0.00     0.127 A 
HETATM   11  N11 UNL     1      22.546 -13.586 -47.672  1.00  0.00    -0.283 N 
HETATM   12  N12 UNL     1      21.328 -13.141 -47.264  1.00  0.00    -0.283 N 
ATOM     13  H11 UNL     1      22.705 -14.223 -48.452  1.00  0.00     0.188 HD
HETATM   14  C11 UNL     1      21.471 -12.325 -46.220  1.00  0.00     0.132 A 
ATOM     15  H12 UNL     1      20.438 -13.394 -47.693  1.00  0.00     0.188 HD
HETATM   16  N13 UNL     1      22.781 -12.290 -46.012  1.00  0.00    -0.325 N 
ATOM     17  H13 UNL     1      23.223 -11.745 -45.271  1.00  0.00     0.169 HD
BRANCH  14  18
HETATM   18  C12 UNL     1      20.448 -11.668 -45.382  1.00  0.00     0.009 A 
HETATM   19  C13 UNL     1      19.767 -10.557 -45.693  1.00  0.00     0.018 A 
HETATM   20  C14 UNL     1      18.703 -10.123 -44.886  1.00  0.00     0.037 A 
HETATM   21  C15 UNL     1      18.307 -10.812 -43.757  1.00  0.00     0.065 A 
HETATM   22  C16 UNL     1      19.017 -11.950 -43.441  1.00  0.00     0.037 A 
HETATM   23  C17 UNL     1      20.044 -12.355 -44.221  1.00  0.00     0.018 A 
BRANCH  21  24
HETATM   24  O4  UNL     1      17.257 -10.433 -42.954  1.00  0.00    -0.361 OA
ATOM     25  H4  UNL     1      16.372 -10.767 -43.043  1.00  0.00     0.217 HD
ENDBRANCH  21  24
ENDBRANCH  14  18
ENDBRANCH   9  10
ENDBRANCH   8   9
ENDBRANCH   7   8
ENDBRANCH   6   7
BRANCH   1  26
HETATM   26  C3  UNL     1      28.317 -17.196 -45.325  1.00  0.00     0.380 C 
HETATM   27  N4  UNL     1      28.616 -17.429 -43.965  1.00  0.00    -0.198 NA
HETATM   28  O2  UNL     1      28.802 -16.911 -46.300  1.00  0.00    -0.246 OA
BRANCH  27  29
HETATM   29  N3  UNL     1      28.941 -17.615 -42.806  1.00  0.00    -0.197 NA
BRANCH  29  30
HETATM   30  C2  UNL     1      29.368 -17.769 -41.489  1.00  0.00     0.350 C 
BRANCH  30  31
HETATM   31  N1  UNL     1      28.935 -18.409 -40.369  1.00  0.00    -0.253 N 
HETATM   32  C1  UNL     1      29.856 -19.446 -39.774  1.00  0.00     0.182 C 
BRANCH  31  33
HETATM   33  N2  UNL     1      27.776 -18.205 -39.652  1.00  0.00    -0.339 N 
ATOM     34  H22 UNL     1      27.324 -17.326 -39.404  1.00  0.00     0.177 HD
ATOM     35  H21 UNL     1      27.351 -19.061 -39.295  1.00  0.00     0.177 HD
ENDBRANCH  31  33
ENDBRANCH  30  31
BRANCH  30  36
HETATM   36  O1  UNL     1      30.542 -17.110 -41.292  1.00  0.00    -0.318 OA
ATOM     37  H1  UNL     1      30.414 -16.230 -40.957  1.00  0.00     0.222 HD
ENDBRANCH  30  36
ENDBRANCH  29  30
ENDBRANCH  27  29
ENDBRANCH   1  26
BRANCH   5  38
HETATM   38  C5  UNL     1      23.397 -17.100 -46.240  1.00  0.00     0.193 A 
HETATM   39  N8  UNL     1      22.820 -16.960 -47.413  1.00  0.00    -0.221 N 
HETATM   40  O3  UNL     1      21.589 -16.482 -47.247  1.00  0.00    -0.153 OA
ATOM     41  H8  UNL     1      23.249 -17.184 -48.311  1.00  0.00     0.198 HD
HETATM   42  N9  UNL     1      21.293 -16.287 -46.003  1.00  0.00    -0.222 N 
HETATM   43  C6  UNL     1      22.367 -16.654 -45.340  1.00  0.00     0.169 A 
ATOM     44  H9  UNL     1      20.418 -15.928 -45.621  1.00  0.00     0.198 HD
HETATM   45  N10 UNL     1      22.553 -16.631 -44.050  1.00  0.00    -0.381 N 
ATOM     46 2H10 UNL     1      23.386 -16.915 -43.536  1.00  0.00     0.157 HD
ATOM     47 1H10 UNL     1      21.823 -16.314 -43.412  1.00  0.00     0.157 HD
ENDBRANCH   5  38
TORSDOF 13
ENDMDL
MODEL 2
REMARK VINA RESULT: -8.795099391      3.139      6.555
REMARK  13 active torsions:
REMARK  status: ('A' for Active; 'I' for Inactive)
REMARK    1  A    between atoms: N1_2  and  N2_3 
REMARK    2  A    between atoms: N1_2  and  C2_6 
REMARK    3  A    between atoms: C2_6  and  O1_7 
REMARK    4  A    between atoms: C2_6  and  N3_9 
REMARK    5  A    between atoms: N3_9  and  N4_10 
REMARK       I    between atoms: N4_10  and  C3_11 
REMARK    6  A    between atoms: C3_11  and  C4_13 
REMARK    7  A    between atoms: N7_17  and  C5_18 
REMARK    8  A    between atoms: C7_28  and  C8_29 
REMARK    9  A    between atoms: C8_29  and  S1_30 
REMARK   10  A    between atoms: S1_30  and  C9_31 
REMARK   11  A    between atoms: C9_31  and  C10_32 
REMARK   12  A    between atoms: C11_37  and  C12_38 
REMARK   13  A    between atoms: C15_41  and  O4_42 
ROOT
HETATM    1  C4  UNL     1      28.705 -18.629 -40.611  1.00  0.00     0.157 A 
HETATM    2  N5  UNL     1      28.000 -18.298 -39.478  1.00  0.00    -0.276 N 
ATOM      3  H5  UNL     1      28.093 -17.421 -38.966  1.00  0.00     0.184 HD
HETATM    4  N6  UNL     1      27.180 -19.289 -39.149  1.00  0.00    -0.013 NA
HETATM    5  N7  UNL     1      27.359 -20.264 -40.065  1.00  0.00    -0.220 N 
HETATM    6  C7  UNL     1      28.289 -19.817 -40.964  1.00  0.00     0.078 A 
ENDROOT
BRANCH   6   7
HETATM    7  C8  UNL     1      28.759 -20.569 -42.157  1.00  0.00     0.140 C 
BRANCH   7   8
HETATM    8  S1  UNL     1      27.942 -19.788 -43.664  1.00  0.00    -0.132 SA
BRANCH   8   9
HETATM    9  C9  UNL     1      26.207 -19.590 -43.415  1.00  0.00     0.095 C 
BRANCH   9  10
HETATM   10  C10 UNL     1      25.326 -18.946 -44.414  1.00  0.00     0.127 A 
HETATM   11  N11 UNL     1      25.002 -19.036 -45.678  1.00  0.00    -0.283 N 
HETATM   12  N12 UNL     1      24.224 -17.978 -46.032  1.00  0.00    -0.283 N 
ATOM     13  H11 UNL     1      25.290 -19.786 -46.305  1.00  0.00     0.188 HD
HETATM   14  C11 UNL     1      24.035 -17.183 -44.979  1.00  0.00     0.132 A 
ATOM     15  H12 UNL     1      23.843 -17.818 -46.964  1.00  0.00     0.188 HD
HETATM   16  N13 UNL     1      24.706 -17.776 -44.000  1.00  0.00    -0.325 N 
ATOM     17  H13 UNL     1      24.760 -17.412 -43.048  1.00  0.00     0.169 HD
BRANCH  14  18
HETATM   18  C12 UNL     1      23.202 -15.972 -44.841  1.00  0.00     0.009 A 
HETATM   19  C13 UNL     1      23.358 -15.006 -43.927  1.00  0.00     0.018 A 
HETATM   20  C14 UNL     1      22.605 -13.824 -44.003  1.00  0.00     0.037 A 
HETATM   21  C15 UNL     1      21.686 -13.599 -45.009  1.00  0.00     0.065 A 
HETATM   22  C16 UNL     1      21.527 -14.601 -45.941  1.00  0.00     0.037 A 
HETATM   23  C17 UNL     1      22.253 -15.738 -45.856  1.00  0.00     0.018 A 
BRANCH  21  24
HETATM   24  O4  UNL     1      20.945 -12.447 -45.131  1.00  0.00    -0.361 OA
ATOM     25  H4  UNL     1      20.551 -12.152 -45.944  1.00  0.00     0.217 HD
ENDBRANCH  21  24
ENDBRANCH  14  18
ENDBRANCH   9  10
ENDBRANCH   8   9
ENDBRANCH   7   8
ENDBRANCH   6   7
BRANCH   1  26
HETATM   26  C3  UNL     1      29.967 -17.752 -40.978  1.00  0.00     0.380 C 
HETATM   27  N4  UNL     1      29.416 -17.009 -42.044  1.00  0.00    -0.198 NA
HETATM   28  O2  UNL     1      30.915 -17.874 -40.382  1.00  0.00    -0.246 OA
BRANCH  27  29
HETATM   29  N3  UNL     1      29.002 -16.335 -42.971  1.00  0.00    -0.197 NA
BRANCH  29  30
HETATM   30  C2  UNL     1      28.490 -15.630 -44.057  1.00  0.00     0.350 C 
BRANCH  30  31
HETATM   31  N1  UNL     1      28.982 -14.879 -45.080  1.00  0.00    -0.253 N 
HETATM   32  C1  UNL     1      28.288 -13.569 -45.363  1.00  0.00     0.182 C 
BRANCH  31  33
HETATM   33  N2  UNL     1      30.080 -15.120 -45.877  1.00  0.00    -0.339 N 
ATOM     34  H22 UNL     1      30.851 -14.494 -46.108  1.00  0.00     0.177 HD
ATOM     35  H21 UNL     1      30.081 -16.039 -46.319  1.00  0.00     0.177 HD
ENDBRANCH  31  33
ENDBRANCH  30  31
BRANCH  30  36
HETATM   36  O1  UNL     1      27.136 -15.750 -44.103  1.00  0.00    -0.318 OA
ATOM     37  H1  UNL     1      26.702 -15.235 -43.432  1.00  0.00     0.222 HD
ENDBRANCH  30  36
ENDBRANCH  29  30
ENDBRANCH  27  29
ENDBRANCH   1  26
BRANCH   5  38
HETATM   38  C5  UNL     1      26.981 -21.587 -39.783  1.00  0.00     0.193 A 
HETATM   39  N8  UNL     1      27.497 -22.734 -39.401  1.00  0.00    -0.221 N 
HETATM   40  O3  UNL     1      26.536 -23.652 -39.333  1.00  0.00    -0.153 OA
ATOM     41  H8  UNL     1      28.482 -22.895 -39.188  1.00  0.00     0.198 HD
HETATM   42  N9  UNL     1      25.375 -23.182 -39.654  1.00  0.00    -0.222 N 
HETATM   43  C6  UNL     1      25.589 -21.917 -39.936  1.00  0.00     0.169 A 
ATOM     44  H9  UNL     1      24.487 -23.685 -39.682  1.00  0.00     0.198 HD
HETATM   45  N10 UNL     1      24.717 -21.028 -40.320  1.00  0.00    -0.381 N 
ATOM     46 2H10 UNL     1      24.883 -20.046 -40.539  1.00  0.00     0.157 HD
ATOM     47 1H10 UNL     1      23.730 -21.262 -40.429  1.00  0.00     0.157 HD
ENDBRANCH   5  38
TORSDOF 13
ENDMDL
MODEL 3
REMARK VINA RESULT: -8.779305928      2.028      2.939
REMARK  13 active torsions:
REMARK  status: ('A' for Active; 'I' for Inactive)
REMARK    1  A    between atoms: N1_2  and  N2_3 
REMARK    2  A    between atoms: N1_2  and  C2_6 
REMARK    3  A    between atoms: C2_6  and  O1_7 
REMARK    4  A    between atoms: C2_6  and  N3_9 
REMARK    5  A    between atoms: N3_9  and  N4_10 
REMARK       I    between atoms: N4_10  and  C3_11 
REMARK    6  A    between atoms: C3_11  and  C4_13 
REMARK    7  A    between atoms: N7_17  and  C5_18 
REMARK    8  A    between atoms: C7_28  and  C8_29 
REMARK    9  A    between atoms: C8_29  and  S1_30 
REMARK   10  A    between atoms: S1_30  and  C9_31 
REMARK   11  A    between atoms: C9_31  and  C10_32 
REMARK   12  A    between atoms: C11_37  and  C12_38 
REMARK   13  A    between atoms: C15_41  and  O4_42 
ROOT
HETATM    1  C4  UNL     1      27.028 -17.371 -45.147  1.00  0.00     0.157 A 
HETATM    2  N5  UNL     1      27.954 -16.411 -44.815  1.00  0.00    -0.276 N 
ATOM      3  H5  UNL     1      28.853 -16.594 -44.370  1.00  0.00     0.184 HD
HETATM    4  N6  UNL     1      27.505 -15.210 -45.161  1.00  0.00    -0.013 NA
HETATM    5  N7  UNL     1      26.286 -15.392 -45.710  1.00  0.00    -0.220 N 
HETATM    6  C7  UNL     1      26.030 -16.736 -45.706  1.00  0.00     0.078 A 
ENDROOT
BRANCH   6   7
HETATM    7  C8  UNL     1      24.805 -17.379 -46.249  1.00  0.00     0.140 C 
BRANCH   7   8
HETATM    8  S1  UNL     1      23.464 -17.220 -44.936  1.00  0.00    -0.132 SA
BRANCH   8   9
HETATM    9  C9  UNL     1      21.907 -16.817 -45.664  1.00  0.00     0.095 C 
BRANCH   9  10
HETATM   10  C10 UNL     1      21.675 -15.555 -46.400  1.00  0.00     0.127 A 
HETATM   11  N11 UNL     1      21.989 -14.975 -47.530  1.00  0.00    -0.283 N 
HETATM   12  N12 UNL     1      21.574 -13.681 -47.516  1.00  0.00    -0.283 N 
ATOM     13  H11 UNL     1      22.474 -15.426 -48.305  1.00  0.00     0.188 HD
HETATM   14  C11 UNL     1      20.976 -13.410 -46.356  1.00  0.00     0.132 A 
ATOM     15  H12 UNL     1      21.702 -13.016 -48.279  1.00  0.00     0.188 HD
HETATM   16  N13 UNL     1      21.040 -14.552 -45.683  1.00  0.00    -0.325 N 
ATOM     17  H13 UNL     1      20.663 -14.678 -44.743  1.00  0.00     0.169 HD
BRANCH  14  18
HETATM   18  C12 UNL     1      20.290 -12.182 -45.906  1.00  0.00     0.009 A 
HETATM   19  C13 UNL     1      20.585 -10.930 -46.281  1.00  0.00     0.018 A 
HETATM   20  C14 UNL     1      19.754  -9.861 -45.912  1.00  0.00     0.037 A 
HETATM   21  C15 UNL     1      18.607 -10.043 -45.164  1.00  0.00     0.065 A 
HETATM   22  C16 UNL     1      18.315 -11.333 -44.777  1.00  0.00     0.037 A 
HETATM   23  C17 UNL     1      19.126 -12.355 -45.133  1.00  0.00     0.018 A 
BRANCH  21  24
HETATM   24  O4  UNL     1      17.755  -9.026 -44.801  1.00  0.00    -0.361 OA
ATOM     25  H4  UNL     1      16.980  -8.781 -45.293  1.00  0.00     0.217 HD
ENDBRANCH  21  24
ENDBRANCH  14  18
ENDBRANCH   9  10
ENDBRANCH   8   9
ENDBRANCH   7   8
ENDBRANCH   6   7
BRANCH   1  26
HETATM   26  C3  UNL     1      27.203 -18.812 -44.523  1.00  0.00     0.380 C 
HETATM   27  N4  UNL     1      27.887 -18.459 -43.340  1.00  0.00    -0.198 NA
HETATM   28  O2  UNL     1      26.788 -19.704 -45.071  1.00  0.00    -0.246 OA
BRANCH  27  29
HETATM   29  N3  UNL     1      28.479 -18.221 -42.302  1.00  0.00    -0.197 NA
BRANCH  29  30
HETATM   30  C2  UNL     1      29.091 -17.975 -41.075  1.00  0.00     0.350 C 
BRANCH  30  31
HETATM   31  N1  UNL     1      30.213 -18.381 -40.422  1.00  0.00    -0.253 N 
HETATM   32  C1  UNL     1      30.038 -19.424 -39.344  1.00  0.00     0.182 C 
BRANCH  31  33
HETATM   33  N2  UNL     1      31.522 -18.012 -40.642  1.00  0.00    -0.339 N 
ATOM     34  H22 UNL     1      32.313 -18.049 -40.000  1.00  0.00     0.177 HD
ATOM     35  H21 UNL     1      31.693 -17.611 -41.564  1.00  0.00     0.177 HD
ENDBRANCH  31  33
ENDBRANCH  30  31
BRANCH  30  36
HETATM   36  O1  UNL     1      28.367 -17.073 -40.359  1.00  0.00    -0.318 OA
ATOM     37  H1  UNL     1      28.719 -16.934 -39.487  1.00  0.00     0.222 HD
ENDBRANCH  30  36
ENDBRANCH  29  30
ENDBRANCH  27  29
ENDBRANCH   1  26
BRANCH   5  38
HETATM   38  C5  UNL     1      25.371 -14.330 -45.788  1.00  0.00     0.193 A 
HETATM   39  N8  UNL     1      24.395 -13.774 -45.104  1.00  0.00    -0.221 N 
HETATM   40  O3  UNL     1      23.906 -12.742 -45.788  1.00  0.00    -0.153 OA
ATOM     41  H8  UNL     1      24.065 -14.085 -44.190  1.00  0.00     0.198 HD
HETATM   42  N9  UNL     1      24.507 -12.564 -46.919  1.00  0.00    -0.222 N 
HETATM   43  C6  UNL     1      25.419 -13.509 -46.968  1.00  0.00     0.169 A 
ATOM     44  H9  UNL     1      24.316 -11.847 -47.618  1.00  0.00     0.198 HD
HETATM   45  N10 UNL     1      26.273 -13.742 -47.925  1.00  0.00    -0.381 N 
ATOM     46 2H10 UNL     1      26.980 -14.475 -47.964  1.00  0.00     0.157 HD
ATOM     47 1H10 UNL     1      26.307 -13.161 -48.762  1.00  0.00     0.157 HD
ENDBRANCH   5  38
TORSDOF 13
ENDMDL
MODEL 4
REMARK VINA RESULT: -8.711065563      1.747      2.228
REMARK  13 active torsions:
REMARK  status: ('A' for Active; 'I' for Inactive)
REMARK    1  A    between atoms: N1_2  and  N2_3 
REMARK    2  A    between atoms: N1_2  and  C2_6 
REMARK    3  A    between atoms: C2_6  and  O1_7 
REMARK    4  A    between atoms: C2_6  and  N3_9 
REMARK    5  A    between atoms: N3_9  and  N4_10 
REMARK       I    between atoms: N4_10  and  C3_11 
REMARK    6  A    between atoms: C3_11  and  C4_13 
REMARK    7  A    between atoms: N7_17  and  C5_18 
REMARK    8  A    between atoms: C7_28  and  C8_29 
REMARK    9  A    between atoms: C8_29  and  S1_30 
REMARK   10  A    between atoms: S1_30  and  C9_31 
REMARK   11  A    between atoms: C9_31  and  C10_32 
REMARK   12  A    between atoms: C11_37  and  C12_38 
REMARK   13  A    between atoms: C15_41  and  O4_42 
ROOT
HETATM    1  C4  UNL     1      26.537 -15.044 -45.494  1.00  0.00     0.157 A 
HETATM    2  N5  UNL     1      25.889 -15.802 -44.548  1.00  0.00    -0.276 N 
ATOM      3  H5  UNL     1      26.341 -16.271 -43.764  1.00  0.00     0.184 HD
HETATM    4  N6  UNL     1      24.587 -15.832 -44.807  1.00  0.00    -0.013 NA
HETATM    5  N7  UNL     1      24.393 -15.100 -45.923  1.00  0.00    -0.220 N 
HETATM    6  C7  UNL     1      25.611 -14.610 -46.309  1.00  0.00     0.078 A 
ENDROOT
BRANCH   6   7
HETATM    7  C8  UNL     1      25.848 -13.725 -47.480  1.00  0.00     0.140 C 
BRANCH   7   8
HETATM    8  S1  UNL     1      25.240 -12.005 -47.009  1.00  0.00    -0.132 SA
BRANCH   8   9
HETATM    9  C9  UNL     1      24.199 -11.334 -48.266  1.00  0.00     0.095 C 
BRANCH   9  10
HETATM   10  C10 UNL     1      22.900 -10.692 -47.967  1.00  0.00     0.127 A 
HETATM   11  N11 UNL     1      22.202  -9.632 -48.285  1.00  0.00    -0.283 N 
HETATM   12  N12 UNL     1      21.109  -9.540 -47.482  1.00  0.00    -0.283 N 
ATOM     13  H11 UNL     1      22.442  -8.973 -49.025  1.00  0.00     0.188 HD
HETATM   14  C11 UNL     1      21.091 -10.559 -46.623  1.00  0.00     0.132 A 
ATOM     15  H12 UNL     1      20.408  -8.801 -47.530  1.00  0.00     0.188 HD
HETATM   16  N13 UNL     1      22.181 -11.255 -46.923  1.00  0.00    -0.325 N 
ATOM     17  H13 UNL     1      22.458 -12.110 -46.439  1.00  0.00     0.169 HD
BRANCH  14  18
HETATM   18  C12 UNL     1      20.074 -10.939 -45.622  1.00  0.00     0.009 A 
HETATM   19  C13 UNL     1      19.952 -12.138 -45.037  1.00  0.00     0.018 A 
HETATM   20  C14 UNL     1      19.049 -12.326 -43.980  1.00  0.00     0.037 A 
HETATM   21  C15 UNL     1      18.259 -11.303 -43.494  1.00  0.00     0.065 A 
HETATM   22  C16 UNL     1      18.386 -10.075 -44.107  1.00  0.00     0.037 A 
HETATM   23  C17 UNL     1      19.255  -9.906 -45.128  1.00  0.00     0.018 A 
BRANCH  21  24
HETATM   24  O4  UNL     1      17.378 -11.440 -42.447  1.00  0.00    -0.361 OA
ATOM     25  H4  UNL     1      16.546 -10.986 -42.389  1.00  0.00     0.217 HD
ENDBRANCH  21  24
ENDBRANCH  14  18
ENDBRANCH   9  10
ENDBRANCH   8   9
ENDBRANCH   7   8
ENDBRANCH   6   7
BRANCH   1  26
HETATM   26  C3  UNL     1      28.111 -15.154 -45.576  1.00  0.00     0.380 C 
HETATM   27  N4  UNL     1      28.358 -15.727 -44.311  1.00  0.00    -0.198 NA
HETATM   28  O2  UNL     1      28.640 -14.811 -46.510  1.00  0.00    -0.246 OA
BRANCH  27  29
HETATM   29  N3  UNL     1      28.640 -16.223 -43.234  1.00  0.00    -0.197 NA
BRANCH  29  30
HETATM   30  C2  UNL     1      28.939 -16.861 -42.033  1.00  0.00     0.350 C 
BRANCH  30  31
HETATM   31  N1  UNL     1      28.884 -18.126 -41.536  1.00  0.00    -0.253 N 
HETATM   32  C1  UNL     1      30.192 -18.756 -41.119  1.00  0.00     0.182 C 
BRANCH  31  33
HETATM   33  N2  UNL     1      27.779 -18.914 -41.300  1.00  0.00    -0.339 N 
ATOM     34  H22 UNL     1      27.323 -19.128 -40.413  1.00  0.00     0.177 HD
ATOM     35  H21 UNL     1      27.406 -19.369 -42.134  1.00  0.00     0.177 HD
ENDBRANCH  31  33
ENDBRANCH  30  31
BRANCH  30  36
HETATM   36  O1  UNL     1      29.432 -15.968 -41.133  1.00  0.00    -0.318 OA
ATOM     37  H1  UNL     1      28.955 -15.146 -41.136  1.00  0.00     0.222 HD
ENDBRANCH  30  36
ENDBRANCH  29  30
ENDBRANCH  27  29
ENDBRANCH   1  26
BRANCH   5  38
HETATM   38  C5  UNL     1      23.235 -15.272 -46.699  1.00  0.00     0.193 A 
HETATM   39  N8  UNL     1      22.289 -14.572 -47.285  1.00  0.00    -0.221 N 
HETATM   40  O3  UNL     1      21.432 -15.397 -47.882  1.00  0.00    -0.153 OA
ATOM     41  H8  UNL     1      22.221 -13.554 -47.282  1.00  0.00     0.198 HD
HETATM   42  N9  UNL     1      21.752 -16.641 -47.732  1.00  0.00    -0.222 N 
HETATM   43  C6  UNL     1      22.854 -16.622 -47.016  1.00  0.00     0.169 A 
ATOM     44  H9  UNL     1      21.258 -17.458 -48.092  1.00  0.00     0.198 HD
HETATM   45  N10 UNL     1      23.551 -17.642 -46.601  1.00  0.00    -0.381 N 
ATOM     46 2H10 UNL     1      24.406 -17.628 -46.046  1.00  0.00     0.157 HD
ATOM     47 1H10 UNL     1      23.281 -18.600 -46.826  1.00  0.00     0.157 HD
ENDBRANCH   5  38
TORSDOF 13
ENDMDL
MODEL 5
REMARK VINA RESULT: -8.703230096      2.423      3.223
REMARK  13 active torsions:
REMARK  status: ('A' for Active; 'I' for Inactive)
REMARK    1  A    between atoms: N1_2  and  N2_3 
REMARK    2  A    between atoms: N1_2  and  C2_6 
REMARK    3  A    between atoms: C2_6  and  O1_7 
REMARK    4  A    between atoms: C2_6  and  N3_9 
REMARK    5  A    between atoms: N3_9  and  N4_10 
REMARK       I    between atoms: N4_10  and  C3_11 
REMARK    6  A    between atoms: C3_11  and  C4_13 
REMARK    7  A    between atoms: N7_17  and  C5_18 
REMARK    8  A    between atoms: C7_28  and  C8_29 
REMARK    9  A    between atoms: C8_29  and  S1_30 
REMARK   10  A    between atoms: S1_30  and  C9_31 
REMARK   11  A    between atoms: C9_31  and  C10_32 
REMARK   12  A    between atoms: C11_37  and  C12_38 
REMARK   13  A    between atoms: C15_41  and  O4_42 
ROOT
HETATM    1  C4  UNL     1      26.352 -18.269 -44.378  1.00  0.00     0.157 A 
HETATM    2  N5  UNL     1      27.403 -17.563 -43.843  1.00  0.00    -0.276 N 
ATOM      3  H5  UNL     1      28.055 -17.922 -43.145  1.00  0.00     0.184 HD
HETATM    4  N6  UNL     1      27.444 -16.344 -44.369  1.00  0.00    -0.013 NA
HETATM    5  N7  UNL     1      26.416 -16.259 -45.238  1.00  0.00    -0.220 N 
HETATM    6  C7  UNL     1      25.776 -17.468 -45.237  1.00  0.00     0.078 A 
ENDROOT
BRANCH   6   7
HETATM    7  C8  UNL     1      24.602 -17.819 -46.079  1.00  0.00     0.140 C 
BRANCH   7   8
HETATM    8  S1  UNL     1      23.062 -17.274 -45.142  1.00  0.00    -0.132 SA
BRANCH   8   9
HETATM    9  C9  UNL     1      21.836 -16.648 -46.246  1.00  0.00     0.095 C 
BRANCH   9  10
HETATM   10  C10 UNL     1      21.843 -15.253 -46.737  1.00  0.00     0.127 A 
HETATM   11  N11 UNL     1      22.480 -14.486 -47.584  1.00  0.00    -0.283 N 
HETATM   12  N12 UNL     1      22.095 -13.193 -47.417  1.00  0.00    -0.283 N 
ATOM     13  H11 UNL     1      23.163 -14.810 -48.268  1.00  0.00     0.188 HD
HETATM   14  C11 UNL     1      21.189 -13.113 -46.443  1.00  0.00     0.132 A 
ATOM     15  H12 UNL     1      22.447 -12.402 -47.957  1.00  0.00     0.188 HD
HETATM   16  N13 UNL     1      21.040 -14.366 -46.034  1.00  0.00    -0.325 N 
ATOM     17  H13 UNL     1      20.405 -14.647 -45.286  1.00  0.00     0.169 HD
BRANCH  14  18
HETATM   18  C12 UNL     1      20.417 -11.951 -45.957  1.00  0.00     0.009 A 
HETATM   19  C13 UNL     1      20.624 -10.670 -46.291  1.00  0.00     0.018 A 
HETATM   20  C14 UNL     1      19.720  -9.674 -45.892  1.00  0.00     0.037 A 
HETATM   21  C15 UNL     1      18.587  -9.960 -45.155  1.00  0.00     0.065 A 
HETATM   22  C16 UNL     1      18.386 -11.279 -44.811  1.00  0.00     0.037 A 
HETATM   23  C17 UNL     1      19.267 -12.230 -45.195  1.00  0.00     0.018 A 
BRANCH  21  24
HETATM   24  O4  UNL     1      17.665  -9.017 -44.764  1.00  0.00    -0.361 OA
ATOM     25  H4  UNL     1      17.307  -8.956 -43.887  1.00  0.00     0.217 HD
ENDBRANCH  21  24
ENDBRANCH  14  18
ENDBRANCH   9  10
ENDBRANCH   8   9
ENDBRANCH   7   8
ENDBRANCH   6   7
BRANCH   1  26
HETATM   26  C3  UNL     1      25.914 -19.603 -43.653  1.00  0.00     0.380 C 
HETATM   27  N4  UNL     1      26.740 -19.516 -42.513  1.00  0.00    -0.198 NA
HETATM   28  O2  UNL     1      25.127 -20.255 -44.127  1.00  0.00    -0.246 OA
BRANCH  27  29
HETATM   29  N3  UNL     1      27.426 -19.501 -41.506  1.00  0.00    -0.197 NA
BRANCH  29  30
HETATM   30  C2  UNL     1      28.158 -19.535 -40.321  1.00  0.00     0.350 C 
BRANCH  30  31
HETATM   31  N1  UNL     1      29.408 -19.905 -39.932  1.00  0.00    -0.253 N 
HETATM   32  C1  UNL     1      30.543 -18.982 -40.306  1.00  0.00     0.182 C 
BRANCH  31  33
HETATM   33  N2  UNL     1      29.792 -20.995 -39.183  1.00  0.00    -0.339 N 
ATOM     34  H22 UNL     1      30.732 -21.342 -38.993  1.00  0.00     0.177 HD
ATOM     35  H21 UNL     1      29.014 -21.540 -38.810  1.00  0.00     0.177 HD
ENDBRANCH  31  33
ENDBRANCH  30  31
BRANCH  30  36
HETATM   36  O1  UNL     1      27.413 -19.050 -39.291  1.00  0.00    -0.318 OA
ATOM     37  H1  UNL     1      26.516 -18.866 -39.545  1.00  0.00     0.222 HD
ENDBRANCH  30  36
ENDBRANCH  29  30
ENDBRANCH  27  29
ENDBRANCH   1  26
BRANCH   5  38
HETATM   38  C5  UNL     1      25.919 -15.008 -45.637  1.00  0.00     0.193 A 
HETATM   39  N8  UNL     1      24.892 -14.211 -45.439  1.00  0.00    -0.221 N 
HETATM   40  O3  UNL     1      25.036 -13.111 -46.176  1.00  0.00    -0.153 OA
ATOM     41  H8  UNL     1      24.107 -14.405 -44.818  1.00  0.00     0.198 HD
HETATM   42  N9  UNL     1      26.125 -13.119 -46.874  1.00  0.00    -0.222 N 
HETATM   43  C6  UNL     1      26.708 -14.259 -46.578  1.00  0.00     0.169 A 
ATOM     44  H9  UNL     1      26.458 -12.397 -47.513  1.00  0.00     0.198 HD
HETATM   45  N10 UNL     1      27.834 -14.722 -47.043  1.00  0.00    -0.381 N 
ATOM     46 2H10 UNL     1      28.286 -15.606 -46.814  1.00  0.00     0.157 HD
ATOM     47 1H10 UNL     1      28.393 -14.191 -47.711  1.00  0.00     0.157 HD
ENDBRANCH   5  38
TORSDOF 13
ENDMDL
