MODEL 1
REMARK VINA RESULT: -8.322040257      0.000      0.000
REMARK  13 active torsions:
REMARK  status: ('A' for Active; 'I' for Inactive)
REMARK    1  A    between atoms: O1_2  and  C2_3 
REMARK    2  A    between atoms: C2_3  and  C3_5 
REMARK    3  A    between atoms: C3_5  and  C16_39 
REMARK    4  A    between atoms: N1_6  and  N2_8 
REMARK    5  A    between atoms: N2_8  and  C4_10 
REMARK    6  A    between atoms: C4_10  and  C5_15 
REMARK    7  A    between atoms: N3_11  and  O3_13 
REMARK    8  A    between atoms: C7_21  and  N6_22 
REMARK    9  A    between atoms: C11_29  and  N8_30 
REMARK   10  A    between atoms: N8_30  and  C12_32 
REMARK   11  A    between atoms: C12_32  and  C13_33 
REMARK   12  A    between atoms: C13_33  and  N9_34 
REMARK       I    between atoms: N9_34  and  C14_36 
REMARK   13  A    between atoms: C16_39  and  S1_43 
ROOT
HETATM    1  C5  UNL     1      22.044 -12.714 -46.003  1.00  0.00     0.141 A 
HETATM    2  N4  UNL     1      21.345 -13.121 -44.953  1.00  0.00    -0.183 N 
ATOM      3  H4  UNL     1      21.524 -13.981 -44.435  1.00  0.00     0.184 HD
HETATM    4  C6  UNL     1      20.377 -12.248 -44.669  1.00  0.00     0.693 A 
HETATM    5  N5  UNL     1      19.471 -12.309 -43.677  1.00  0.00    -0.176 N 
ATOM      6  H5  UNL     1      19.483 -13.108 -43.044  1.00  0.00     0.186 HD
HETATM    7  C7  UNL     1      18.554 -11.353 -43.496  1.00  0.00     0.116 A 
HETATM    8  C8  UNL     1      18.613 -10.318 -44.394  1.00  0.00     0.074 A 
HETATM    9  C9  UNL     1      19.538 -10.229 -45.428  1.00  0.00     0.036 A 
HETATM   10  C10 UNL     1      19.551  -9.042 -46.305  1.00  0.00     0.069 C 
HETATM   11  N7  UNL     1      20.437 -11.222 -45.566  1.00  0.00    -0.134 N 
HETATM   12  C11 UNL     1      21.451 -11.468 -46.409  1.00  0.00     0.156 A 
ENDROOT
BRANCH   1  13
HETATM   13  C4  UNL     1      23.159 -13.405 -46.591  1.00  0.00     0.171 C 
HETATM   14  N3  UNL     1      22.961 -14.307 -47.522  1.00  0.00    -0.250 N 
ATOM     15  H3  UNL     1      23.741 -14.783 -47.976  1.00  0.00     0.196 HD
BRANCH  13  16
HETATM   16  N2  UNL     1      24.537 -13.165 -46.287  1.00  0.00    -0.281 N 
ATOM     17  H2  UNL     1      24.869 -12.201 -46.329  1.00  0.00     0.188 HD
BRANCH  16  18
HETATM   18  N1  UNL     1      25.427 -14.116 -45.950  1.00  0.00    -0.291 N 
HETATM   19  C3  UNL     1      25.438 -15.202 -45.317  1.00  0.00     0.164 C 
ATOM     20  H1  UNL     1      26.355 -13.893 -46.310  1.00  0.00     0.187 HD
BRANCH  19  21
HETATM   21  C2  UNL     1      26.777 -15.852 -45.266  1.00  0.00     0.314 C 
HETATM   22  O2  UNL     1      27.123 -16.832 -45.937  1.00  0.00    -0.257 OA
BRANCH  21  23
HETATM   23  O1  UNL     1      27.765 -15.348 -44.397  1.00  0.00    -0.321 OA
HETATM   24  C1  UNL     1      28.561 -16.241 -43.667  1.00  0.00     0.213 C 
ENDBRANCH  21  23
ENDBRANCH  19  21
BRANCH  19  25
HETATM   25  C16 UNL     1      24.278 -15.847 -44.717  1.00  0.00     0.178 C 
HETATM   26  N10 UNL     1      23.795 -15.372 -43.634  1.00  0.00    -0.386 N 
ATOM     27 2H10 UNL     1      24.247 -14.524 -43.289  1.00  0.00     0.157 HD
ATOM     28 1H10 UNL     1      22.984 -15.824 -43.213  1.00  0.00     0.157 HD
BRANCH  25  29
HETATM   29  S1  UNL     1      23.508 -17.294 -45.305  1.00  0.00     0.156 S 
HETATM   30  O5  UNL     1      22.080 -17.328 -44.706  1.00  0.00    -0.590 OA
HETATM   31  O6  UNL     1      24.183 -18.560 -44.993  1.00  0.00    -0.590 OA
HETATM   32  O7  UNL     1      23.249 -17.163 -46.954  1.00  0.00    -0.590 OA
ENDBRANCH  25  29
ENDBRANCH  19  25
ENDBRANCH  16  18
ENDBRANCH  13  16
BRANCH  14  33
HETATM   33  O3  UNL     1      21.663 -14.582 -47.859  1.00  0.00    -0.288 OA
ATOM     34  H3  UNL     1      21.102 -13.844 -48.064  1.00  0.00     0.244 HD
ENDBRANCH  14  33
ENDBRANCH   1  13
BRANCH  12  35
HETATM   35  N8  UNL     1      21.983 -10.768 -47.458  1.00  0.00    -0.372 N 
ATOM     36  H8  UNL     1      21.531 -11.115 -48.304  1.00  0.00     0.161 HD
BRANCH  35  37
HETATM   37  C12 UNL     1      22.889  -9.772 -47.862  1.00  0.00     0.141 C 
BRANCH  37  38
HETATM   38  C13 UNL     1      24.191 -10.371 -48.461  1.00  0.00     0.142 C 
BRANCH  38  39
HETATM   39  N9  UNL     1      25.341  -9.746 -47.885  1.00  0.00    -0.360 N 
HETATM   40  C14 UNL     1      26.505 -10.420 -47.480  1.00  0.00     0.213 C 
HETATM   41  C15 UNL     1      27.669  -9.674 -46.885  1.00  0.00     0.117 C 
HETATM   42  O4  UNL     1      26.664 -11.656 -47.576  1.00  0.00    -0.274 OA
ATOM     43  H9  UNL     1      25.314  -8.735 -47.758  1.00  0.00     0.162 HD
ENDBRANCH  38  39
ENDBRANCH  37  38
ENDBRANCH  35  37
ENDBRANCH  12  35
BRANCH   7  44
HETATM   44  N6  UNL     1      17.694 -11.429 -42.544  1.00  0.00    -0.385 N 
ATOM     45  H62 UNL     1      17.789 -10.948 -41.650  1.00  0.00     0.157 HD
ATOM     46  H61 UNL     1      16.848 -11.991 -42.642  1.00  0.00     0.157 HD
ENDBRANCH   7  44
TORSDOF 13
ENDMDL
MODEL 2
REMARK VINA RESULT: -8.145539668      1.029      1.360
REMARK  13 active torsions:
REMARK  status: ('A' for Active; 'I' for Inactive)
REMARK    1  A    between atoms: O1_2  and  C2_3 
REMARK    2  A    between atoms: C2_3  and  C3_5 
REMARK    3  A    between atoms: C3_5  and  C16_39 
REMARK    4  A    between atoms: N1_6  and  N2_8 
REMARK    5  A    between atoms: N2_8  and  C4_10 
REMARK    6  A    between atoms: C4_10  and  C5_15 
REMARK    7  A    between atoms: N3_11  and  O3_13 
REMARK    8  A    between atoms: C7_21  and  N6_22 
REMARK    9  A    between atoms: C11_29  and  N8_30 
REMARK   10  A    between atoms: N8_30  and  C12_32 
REMARK   11  A    between atoms: C12_32  and  C13_33 
REMARK   12  A    between atoms: C13_33  and  N9_34 
REMARK       I    between atoms: N9_34  and  C14_36 
REMARK   13  A    between atoms: C16_39  and  S1_43 
ROOT
HETATM    1  C5  UNL     1      21.992 -12.726 -46.016  1.00  0.00     0.141 A 
HETATM    2  N4  UNL     1      21.292 -13.142 -44.971  1.00  0.00    -0.183 N 
ATOM      3  H4  UNL     1      21.466 -14.008 -44.462  1.00  0.00     0.184 HD
HETATM    4  C6  UNL     1      20.328 -12.267 -44.677  1.00  0.00     0.693 A 
HETATM    5  N5  UNL     1      19.422 -12.333 -43.686  1.00  0.00    -0.176 N 
ATOM      6  H5  UNL     1      19.430 -13.139 -43.061  1.00  0.00     0.186 HD
HETATM    7  C7  UNL     1      18.510 -11.375 -43.494  1.00  0.00     0.116 A 
HETATM    8  C8  UNL     1      18.574 -10.330 -44.381  1.00  0.00     0.074 A 
HETATM    9  C9  UNL     1      19.500 -10.235 -45.414  1.00  0.00     0.036 A 
HETATM   10  C10 UNL     1      19.519  -9.039 -46.278  1.00  0.00     0.069 C 
HETATM   11  N7  UNL     1      20.393 -11.232 -45.563  1.00  0.00    -0.134 N 
HETATM   12  C11 UNL     1      21.405 -11.474 -46.409  1.00  0.00     0.156 A 
ENDROOT
BRANCH   1  13
HETATM   13  C4  UNL     1      23.104 -13.417 -46.612  1.00  0.00     0.171 C 
HETATM   14  N3  UNL     1      22.898 -14.337 -47.524  1.00  0.00    -0.250 N 
ATOM     15  H3  UNL     1      23.674 -14.813 -47.984  1.00  0.00     0.196 HD
BRANCH  13  16
HETATM   16  N2  UNL     1      24.484 -13.160 -46.336  1.00  0.00    -0.281 N 
ATOM     17  H2  UNL     1      24.808 -12.195 -46.410  1.00  0.00     0.188 HD
BRANCH  16  18
HETATM   18  N1  UNL     1      25.386 -14.094 -45.986  1.00  0.00    -0.291 N 
HETATM   19  C3  UNL     1      25.410 -15.170 -45.336  1.00  0.00     0.164 C 
ATOM     20  H1  UNL     1      26.311 -13.866 -46.351  1.00  0.00     0.187 HD
BRANCH  19  21
HETATM   21  C2  UNL     1      26.757 -15.804 -45.277  1.00  0.00     0.314 C 
HETATM   22  O2  UNL     1      27.115 -16.788 -45.936  1.00  0.00    -0.257 OA
BRANCH  21  23
HETATM   23  O1  UNL     1      27.739 -15.277 -44.415  1.00  0.00    -0.321 OA
HETATM   24  C1  UNL     1      28.580 -16.151 -43.713  1.00  0.00     0.213 C 
ENDBRANCH  21  23
ENDBRANCH  19  21
BRANCH  19  25
HETATM   25  C16 UNL     1      24.259 -15.820 -44.724  1.00  0.00     0.178 C 
HETATM   26  N10 UNL     1      23.781 -15.342 -43.640  1.00  0.00    -0.386 N 
ATOM     27 2H10 UNL     1      24.230 -14.489 -43.303  1.00  0.00     0.157 HD
ATOM     28 1H10 UNL     1      22.976 -15.796 -43.211  1.00  0.00     0.157 HD
BRANCH  25  29
HETATM   29  S1  UNL     1      23.495 -17.275 -45.298  1.00  0.00     0.156 S 
HETATM   30  O5  UNL     1      22.058 -17.297 -44.718  1.00  0.00    -0.590 OA
HETATM   31  O6  UNL     1      24.164 -18.537 -44.955  1.00  0.00    -0.590 OA
HETATM   32  O7  UNL     1      23.258 -17.172 -46.952  1.00  0.00    -0.590 OA
ENDBRANCH  25  29
ENDBRANCH  19  25
ENDBRANCH  16  18
ENDBRANCH  13  16
BRANCH  14  33
HETATM   33  O3  UNL     1      21.597 -14.630 -47.834  1.00  0.00    -0.288 OA
ATOM     34  H3  UNL     1      21.181 -14.099 -48.503  1.00  0.00     0.244 HD
ENDBRANCH  14  33
ENDBRANCH   1  13
BRANCH  12  35
HETATM   35  N8  UNL     1      21.941 -10.765 -47.450  1.00  0.00    -0.372 N 
ATOM     36  H8  UNL     1      21.792 -11.321 -48.293  1.00  0.00     0.161 HD
BRANCH  35  37
HETATM   37  C12 UNL     1      22.610  -9.594 -47.849  1.00  0.00     0.141 C 
BRANCH  37  38
HETATM   38  C13 UNL     1      24.126  -9.834 -48.080  1.00  0.00     0.142 C 
BRANCH  38  39
HETATM   39  N9  UNL     1      24.388 -10.090 -49.463  1.00  0.00    -0.360 N 
HETATM   40  C14 UNL     1      24.286 -11.346 -50.082  1.00  0.00     0.213 C 
HETATM   41  C15 UNL     1      24.578 -11.517 -51.549  1.00  0.00     0.117 C 
HETATM   42  O4  UNL     1      23.955 -12.393 -49.485  1.00  0.00    -0.274 OA
ATOM     43  H9  UNL     1      24.669  -9.300 -50.043  1.00  0.00     0.162 HD
ENDBRANCH  38  39
ENDBRANCH  37  38
ENDBRANCH  35  37
ENDBRANCH  12  35
BRANCH   7  44
HETATM   44  N6  UNL     1      17.650 -11.457 -42.542  1.00  0.00    -0.385 N 
ATOM     45  H62 UNL     1      16.670 -11.703 -42.679  1.00  0.00     0.157 HD
ATOM     46  H61 UNL     1      17.916 -11.275 -41.575  1.00  0.00     0.157 HD
ENDBRANCH   7  44
TORSDOF 13
ENDMDL
MODEL 3
REMARK VINA RESULT: -8.091352963      1.512      2.398
REMARK  13 active torsions:
REMARK  status: ('A' for Active; 'I' for Inactive)
REMARK    1  A    between atoms: O1_2  and  C2_3 
REMARK    2  A    between atoms: C2_3  and  C3_5 
REMARK    3  A    between atoms: C3_5  and  C16_39 
REMARK    4  A    between atoms: N1_6  and  N2_8 
REMARK    5  A    between atoms: N2_8  and  C4_10 
REMARK    6  A    between atoms: C4_10  and  C5_15 
REMARK    7  A    between atoms: N3_11  and  O3_13 
REMARK    8  A    between atoms: C7_21  and  N6_22 
REMARK    9  A    between atoms: C11_29  and  N8_30 
REMARK   10  A    between atoms: N8_30  and  C12_32 
REMARK   11  A    between atoms: C12_32  and  C13_33 
REMARK   12  A    between atoms: C13_33  and  N9_34 
REMARK       I    between atoms: N9_34  and  C14_36 
REMARK   13  A    between atoms: C16_39  and  S1_43 
ROOT
HETATM    1  C5  UNL     1      22.021 -12.708 -45.986  1.00  0.00     0.141 A 
HETATM    2  N4  UNL     1      21.286 -13.161 -44.981  1.00  0.00    -0.183 N 
ATOM      3  H4  UNL     1      21.441 -14.047 -44.500  1.00  0.00     0.184 HD
HETATM    4  C6  UNL     1      20.316 -12.294 -44.685  1.00  0.00     0.693 A 
HETATM    5  N5  UNL     1      19.378 -12.395 -43.727  1.00  0.00    -0.176 N 
ATOM      6  H5  UNL     1      19.363 -13.225 -43.134  1.00  0.00     0.186 HD
HETATM    7  C7  UNL     1      18.463 -11.441 -43.528  1.00  0.00     0.116 A 
HETATM    8  C8  UNL     1      18.559 -10.363 -44.371  1.00  0.00     0.074 A 
HETATM    9  C9  UNL     1      19.518 -10.232 -45.369  1.00  0.00     0.036 A 
HETATM   10  C10 UNL     1      19.569  -9.003 -46.185  1.00  0.00     0.069 C 
HETATM   11  N7  UNL     1      20.413 -11.225 -45.527  1.00  0.00    -0.134 N 
HETATM   12  C11 UNL     1      21.452 -11.439 -46.349  1.00  0.00     0.156 A 
ENDROOT
BRANCH   1  13
HETATM   13  C4  UNL     1      23.150 -13.380 -46.572  1.00  0.00     0.171 C 
HETATM   14  N3  UNL     1      22.973 -14.258 -47.529  1.00  0.00    -0.250 N 
ATOM     15  H3  UNL     1      23.762 -14.720 -47.981  1.00  0.00     0.196 HD
BRANCH  13  16
HETATM   16  N2  UNL     1      24.522 -13.144 -46.236  1.00  0.00    -0.281 N 
ATOM     17  H2  UNL     1      24.850 -12.178 -46.249  1.00  0.00     0.188 HD
BRANCH  16  18
HETATM   18  N1  UNL     1      25.409 -14.099 -45.906  1.00  0.00    -0.291 N 
HETATM   19  C3  UNL     1      25.414 -15.194 -45.287  1.00  0.00     0.164 C 
ATOM     20  H1  UNL     1      26.339 -13.873 -46.257  1.00  0.00     0.187 HD
BRANCH  19  21
HETATM   21  C2  UNL     1      26.751 -15.846 -45.235  1.00  0.00     0.314 C 
HETATM   22  O2  UNL     1      27.100 -16.819 -45.913  1.00  0.00    -0.257 OA
BRANCH  21  23
HETATM   23  O1  UNL     1      27.736 -15.352 -44.356  1.00  0.00    -0.321 OA
HETATM   24  C1  UNL     1      28.579 -16.251 -43.690  1.00  0.00     0.213 C 
ENDBRANCH  21  23
ENDBRANCH  19  21
BRANCH  19  25
HETATM   25  C16 UNL     1      24.249 -15.845 -44.703  1.00  0.00     0.178 C 
HETATM   26  N10 UNL     1      23.759 -15.382 -43.618  1.00  0.00    -0.386 N 
ATOM     27 2H10 UNL     1      24.208 -14.539 -43.260  1.00  0.00     0.157 HD
ATOM     28 1H10 UNL     1      22.944 -15.839 -43.208  1.00  0.00     0.157 HD
BRANCH  25  29
HETATM   29  S1  UNL     1      23.483 -17.285 -45.313  1.00  0.00     0.156 S 
HETATM   30  O5  UNL     1      22.052 -17.327 -44.721  1.00  0.00    -0.590 OA
HETATM   31  O6  UNL     1      24.158 -18.555 -45.014  1.00  0.00    -0.590 OA
HETATM   32  O7  UNL     1      23.231 -17.133 -46.962  1.00  0.00    -0.590 OA
ENDBRANCH  25  29
ENDBRANCH  19  25
ENDBRANCH  16  18
ENDBRANCH  13  16
BRANCH  14  33
HETATM   33  O3  UNL     1      21.682 -14.529 -47.897  1.00  0.00    -0.288 OA
ATOM     34  H3  UNL     1      21.016 -13.905 -47.634  1.00  0.00     0.244 HD
ENDBRANCH  14  33
ENDBRANCH   1  13
BRANCH  12  35
HETATM   35  N8  UNL     1      22.023 -10.692 -47.344  1.00  0.00    -0.372 N 
ATOM     36  H8  UNL     1      21.286 -10.487 -48.019  1.00  0.00     0.161 HD
BRANCH  35  37
HETATM   37  C12 UNL     1      23.197 -10.090 -47.829  1.00  0.00     0.141 C 
BRANCH  37  38
HETATM   38  C13 UNL     1      22.947  -9.281 -49.131  1.00  0.00     0.142 C 
BRANCH  38  39
HETATM   39  N9  UNL     1      21.765  -8.485 -49.006  1.00  0.00    -0.360 N 
HETATM   40  C14 UNL     1      20.760  -8.378 -49.981  1.00  0.00     0.213 C 
HETATM   41  C15 UNL     1      19.547  -7.515 -49.757  1.00  0.00     0.117 C 
HETATM   42  O4  UNL     1      20.790  -8.970 -51.081  1.00  0.00    -0.274 OA
ATOM     43  H9  UNL     1      21.644  -7.955 -48.144  1.00  0.00     0.162 HD
ENDBRANCH  38  39
ENDBRANCH  37  38
ENDBRANCH  35  37
ENDBRANCH  12  35
BRANCH   7  44
HETATM   44  N6  UNL     1      17.572 -11.556 -42.609  1.00  0.00    -0.385 N 
ATOM     45  H62 UNL     1      17.498 -10.933 -41.805  1.00  0.00     0.157 HD
ATOM     46  H61 UNL     1      16.874 -12.299 -42.642  1.00  0.00     0.157 HD
ENDBRANCH   7  44
TORSDOF 13
ENDMDL
MODEL 4
REMARK VINA RESULT: -8.084770480      1.196      1.527
REMARK  13 active torsions:
REMARK  status: ('A' for Active; 'I' for Inactive)
REMARK    1  A    between atoms: O1_2  and  C2_3 
REMARK    2  A    between atoms: C2_3  and  C3_5 
REMARK    3  A    between atoms: C3_5  and  C16_39 
REMARK    4  A    between atoms: N1_6  and  N2_8 
REMARK    5  A    between atoms: N2_8  and  C4_10 
REMARK    6  A    between atoms: C4_10  and  C5_15 
REMARK    7  A    between atoms: N3_11  and  O3_13 
REMARK    8  A    between atoms: C7_21  and  N6_22 
REMARK    9  A    between atoms: C11_29  and  N8_30 
REMARK   10  A    between atoms: N8_30  and  C12_32 
REMARK   11  A    between atoms: C12_32  and  C13_33 
REMARK   12  A    between atoms: C13_33  and  N9_34 
REMARK       I    between atoms: N9_34  and  C14_36 
REMARK   13  A    between atoms: C16_39  and  S1_43 
ROOT
HETATM    1  C5  UNL     1      22.035 -12.949 -45.480  1.00  0.00     0.141 A 
HETATM    2  N4  UNL     1      21.243 -13.267 -44.466  1.00  0.00    -0.183 N 
ATOM      3  H4  UNL     1      21.352 -14.095 -43.881  1.00  0.00     0.184 HD
HETATM    4  C6  UNL     1      20.283 -12.350 -44.318  1.00  0.00     0.693 A 
HETATM    5  N5  UNL     1      19.300 -12.320 -43.401  1.00  0.00    -0.176 N 
ATOM      6  H5  UNL     1      19.237 -13.076 -42.719  1.00  0.00     0.186 HD
HETATM    7  C7  UNL     1      18.403 -11.330 -43.356  1.00  0.00     0.116 A 
HETATM    8  C8  UNL     1      18.567 -10.359 -44.311  1.00  0.00     0.074 A 
HETATM    9  C9  UNL     1      19.574 -10.364 -45.270  1.00  0.00     0.036 A 
HETATM   10  C10 UNL     1      19.695  -9.239 -46.218  1.00  0.00     0.069 C 
HETATM   11  N7  UNL     1      20.448 -11.389 -45.271  1.00  0.00    -0.134 N 
HETATM   12  C11 UNL     1      21.516 -11.718 -46.011  1.00  0.00     0.156 A 
ENDROOT
BRANCH   1  13
HETATM   13  C4  UNL     1      23.170 -13.708 -45.929  1.00  0.00     0.171 C 
HETATM   14  N3  UNL     1      23.150 -14.296 -47.101  1.00  0.00    -0.250 N 
ATOM     15  H3  UNL     1      23.958 -14.809 -47.453  1.00  0.00     0.196 HD
BRANCH  13  16
HETATM   16  N2  UNL     1      24.404 -13.856 -45.218  1.00  0.00    -0.281 N 
ATOM     17  H2  UNL     1      24.409 -13.612 -44.228  1.00  0.00     0.188 HD
BRANCH  16  18
HETATM   18  N1  UNL     1      25.556 -14.293 -45.758  1.00  0.00    -0.291 N 
HETATM   19  C3  UNL     1      26.216 -15.361 -45.807  1.00  0.00     0.164 C 
ATOM     20  H1  UNL     1      26.026 -13.547 -46.271  1.00  0.00     0.187 HD
BRANCH  19  21
HETATM   21  C2  UNL     1      27.480 -15.248 -46.586  1.00  0.00     0.314 C 
HETATM   22  O2  UNL     1      27.854 -14.242 -47.202  1.00  0.00    -0.257 OA
BRANCH  21  23
HETATM   23  O1  UNL     1      28.356 -16.349 -46.660  1.00  0.00    -0.321 OA
HETATM   24  C1  UNL     1      29.631 -16.255 -46.085  1.00  0.00     0.213 C 
ENDBRANCH  21  23
ENDBRANCH  19  21
BRANCH  19  25
HETATM   25  C16 UNL     1      25.814 -16.637 -45.230  1.00  0.00     0.178 C 
HETATM   26  N10 UNL     1      26.523 -17.146 -44.297  1.00  0.00    -0.386 N 
ATOM     27 2H10 UNL     1      27.314 -16.579 -43.989  1.00  0.00     0.157 HD
ATOM     28 1H10 UNL     1      26.242 -18.039 -43.893  1.00  0.00     0.157 HD
BRANCH  25  29
HETATM   29  S1  UNL     1      24.465 -17.605 -45.755  1.00  0.00     0.156 S 
HETATM   30  O5  UNL     1      25.019 -19.006 -46.115  1.00  0.00    -0.590 OA
HETATM   31  O6  UNL     1      23.704 -17.088 -46.899  1.00  0.00    -0.590 OA
HETATM   32  O7  UNL     1      23.444 -17.897 -44.460  1.00  0.00    -0.590 OA
ENDBRANCH  25  29
ENDBRANCH  19  25
ENDBRANCH  16  18
ENDBRANCH  13  16
BRANCH  14  33
HETATM   33  O3  UNL     1      21.997 -14.191 -47.833  1.00  0.00    -0.288 OA
ATOM     34  H3  UNL     1      21.414 -14.941 -47.833  1.00  0.00     0.244 HD
ENDBRANCH  14  33
ENDBRANCH   1  13
BRANCH  12  35
HETATM   35  N8  UNL     1      22.153 -11.103 -47.057  1.00  0.00    -0.372 N 
ATOM     36  H8  UNL     1      22.685 -11.825 -47.543  1.00  0.00     0.161 HD
BRANCH  35  37
HETATM   37  C12 UNL     1      22.381  -9.897 -47.743  1.00  0.00     0.141 C 
BRANCH  37  38
HETATM   38  C13 UNL     1      23.543 -10.016 -48.766  1.00  0.00     0.142 C 
BRANCH  38  39
HETATM   39  N9  UNL     1      24.806  -9.949 -48.099  1.00  0.00    -0.360 N 
HETATM   40  C14 UNL     1      25.561 -11.060 -47.690  1.00  0.00     0.213 C 
HETATM   41  C15 UNL     1      26.886 -10.889 -46.996  1.00  0.00     0.117 C 
HETATM   42  O4  UNL     1      25.205 -12.246 -47.863  1.00  0.00    -0.274 OA
ATOM     43  H9  UNL     1      25.188  -9.023 -47.904  1.00  0.00     0.162 HD
ENDBRANCH  38  39
ENDBRANCH  37  38
ENDBRANCH  35  37
ENDBRANCH  12  35
BRANCH   7  44
HETATM   44  N6  UNL     1      17.469 -11.320 -42.474  1.00  0.00    -0.385 N 
ATOM     45  H62 UNL     1      17.574 -10.931 -41.537  1.00  0.00     0.157 HD
ATOM     46  H61 UNL     1      16.549 -11.711 -42.677  1.00  0.00     0.157 HD
ENDBRANCH   7  44
TORSDOF 13
ENDMDL
MODEL 5
REMARK VINA RESULT: -8.056835682      6.054     10.580
REMARK  13 active torsions:
REMARK  status: ('A' for Active; 'I' for Inactive)
REMARK    1  A    between atoms: O1_2  and  C2_3 
REMARK    2  A    between atoms: C2_3  and  C3_5 
REMARK    3  A    between atoms: C3_5  and  C16_39 
REMARK    4  A    between atoms: N1_6  and  N2_8 
REMARK    5  A    between atoms: N2_8  and  C4_10 
REMARK    6  A    between atoms: C4_10  and  C5_15 
REMARK    7  A    between atoms: N3_11  and  O3_13 
REMARK    8  A    between atoms: C7_21  and  N6_22 
REMARK    9  A    between atoms: C11_29  and  N8_30 
REMARK   10  A    between atoms: N8_30  and  C12_32 
REMARK   11  A    between atoms: C12_32  and  C13_33 
REMARK   12  A    between atoms: C13_33  and  N9_34 
REMARK       I    between atoms: N9_34  and  C14_36 
REMARK   13  A    between atoms: C16_39  and  S1_43 
ROOT
HETATM    1  C5  UNL     1      27.510 -20.227 -41.177  1.00  0.00     0.141 A 
HETATM    2  N4  UNL     1      26.303 -20.450 -40.677  1.00  0.00    -0.183 N 
ATOM      3  H4  UNL     1      25.575 -19.743 -40.577  1.00  0.00     0.184 HD
HETATM    4  C6  UNL     1      26.174 -21.731 -40.322  1.00  0.00     0.693 A 
HETATM    5  N5  UNL     1      25.101 -22.338 -39.786  1.00  0.00    -0.176 N 
ATOM      6  H5  UNL     1      24.261 -21.789 -39.604  1.00  0.00     0.186 HD
HETATM    7  C7  UNL     1      25.101 -23.641 -39.486  1.00  0.00     0.116 A 
HETATM    8  C8  UNL     1      26.272 -24.299 -39.767  1.00  0.00     0.074 A 
HETATM    9  C9  UNL     1      27.396 -23.696 -40.320  1.00  0.00     0.036 A 
HETATM   10  C10 UNL     1      28.588 -24.508 -40.635  1.00  0.00     0.069 C 
HETATM   11  N7  UNL     1      27.341 -22.380 -40.600  1.00  0.00    -0.134 N 
HETATM   12  C11 UNL     1      28.194 -21.490 -41.128  1.00  0.00     0.156 A 
ENDROOT
BRANCH   1  13
HETATM   13  C4  UNL     1      28.000 -18.964 -41.658  1.00  0.00     0.171 C 
HETATM   14  N3  UNL     1      28.135 -17.951 -40.836  1.00  0.00    -0.250 N 
ATOM     15  H3  UNL     1      28.514 -17.058 -41.150  1.00  0.00     0.196 HD
BRANCH  13  16
HETATM   16  N2  UNL     1      28.423 -18.694 -42.999  1.00  0.00    -0.281 N 
ATOM     17  H2  UNL     1      28.725 -19.486 -43.566  1.00  0.00     0.188 HD
BRANCH  16  18
HETATM   18  N1  UNL     1      28.452 -17.475 -43.566  1.00  0.00    -0.291 N 
HETATM   19  C3  UNL     1      27.702 -16.759 -44.277  1.00  0.00     0.164 C 
ATOM     20  H1  UNL     1      29.330 -16.996 -43.362  1.00  0.00     0.187 HD
BRANCH  19  21
HETATM   21  C2  UNL     1      28.290 -15.434 -44.621  1.00  0.00     0.314 C 
HETATM   22  O2  UNL     1      27.658 -14.377 -44.727  1.00  0.00    -0.257 OA
BRANCH  21  23
HETATM   23  O1  UNL     1      29.675 -15.324 -44.855  1.00  0.00    -0.321 OA
HETATM   24  C1  UNL     1      30.129 -14.807 -46.075  1.00  0.00     0.213 C 
ENDBRANCH  21  23
ENDBRANCH  19  21
BRANCH  19  25
HETATM   25  C16 UNL     1      26.356 -17.106 -44.710  1.00  0.00     0.178 C 
HETATM   26  N10 UNL     1      25.464 -16.193 -44.755  1.00  0.00    -0.386 N 
ATOM     27 2H10 UNL     1      25.787 -15.254 -44.520  1.00  0.00     0.157 HD
ATOM     28 1H10 UNL     1      24.521 -16.436 -45.058  1.00  0.00     0.157 HD
BRANCH  25  29
HETATM   29  S1  UNL     1      25.804 -18.708 -45.111  1.00  0.00     0.156 S 
HETATM   30  O5  UNL     1      27.056 -19.548 -45.466  1.00  0.00    -0.590 OA
HETATM   31  O6  UNL     1      24.840 -18.804 -46.215  1.00  0.00    -0.590 OA
HETATM   32  O7  UNL     1      25.196 -19.454 -43.740  1.00  0.00    -0.590 OA
ENDBRANCH  25  29
ENDBRANCH  19  25
ENDBRANCH  16  18
ENDBRANCH  13  16
BRANCH  14  33
HETATM   33  O3  UNL     1      27.748 -18.145 -39.537  1.00  0.00    -0.288 OA
ATOM     34  H3  UNL     1      28.394 -18.505 -38.941  1.00  0.00     0.244 HD
ENDBRANCH  14  33
ENDBRANCH   1  13
BRANCH  12  35
HETATM   35  N8  UNL     1      29.468 -21.597 -41.619  1.00  0.00    -0.372 N 
ATOM     36  H8  UNL     1      30.101 -21.371 -40.851  1.00  0.00     0.161 HD
BRANCH  35  37
HETATM   37  C12 UNL     1      30.272 -21.886 -42.736  1.00  0.00     0.141 C 
BRANCH  37  38
HETATM   38  C13 UNL     1      31.554 -21.011 -42.778  1.00  0.00     0.142 C 
BRANCH  38  39
HETATM   39  N9  UNL     1      31.549 -20.063 -41.707  1.00  0.00    -0.360 N 
HETATM   40  C14 UNL     1      31.522 -18.668 -41.865  1.00  0.00     0.213 C 
HETATM   41  C15 UNL     1      31.514 -17.749 -40.673  1.00  0.00     0.117 C 
HETATM   42  O4  UNL     1      31.503 -18.093 -42.975  1.00  0.00    -0.274 OA
ATOM     43  H9  UNL     1      31.566 -20.429 -40.755  1.00  0.00     0.162 HD
ENDBRANCH  38  39
ENDBRANCH  37  38
ENDBRANCH  35  37
ENDBRANCH  12  35
BRANCH   7  44
HETATM   44  N6  UNL     1      24.067 -24.204 -38.972  1.00  0.00    -0.385 N 
ATOM     45  H62 UNL     1      23.486 -23.779 -38.250  1.00  0.00     0.157 HD
ATOM     46  H61 UNL     1      23.768 -25.132 -39.273  1.00  0.00     0.157 HD
ENDBRANCH   7  44
TORSDOF 13
ENDMDL
