MODEL 1
REMARK VINA RESULT: -4.455340558      0.000      0.000
REMARK  2 active torsions:
REMARK  status: ('A' for Active; 'I' for Inactive)
REMARK    1  A    between atoms: C3_5  and  O2_6 
REMARK    2  A    between atoms: C4_8  and  O3_9 
ROOT
HETATM    1  C1  UNL     1     -18.559  16.113  -9.382  1.00  0.00     0.357 C 
HETATM    2  N1  UNL     1     -19.012  15.446  -8.178  1.00  0.00     0.029 N 
HETATM    3  O1  UNL     1     -18.940  14.104  -8.121  1.00  0.00    -0.064 OA
HETATM    4  C2  UNL     1     -18.831  16.212  -6.971  1.00  0.00     0.328 A 
HETATM    5  C3  UNL     1     -19.298  15.677  -5.651  1.00  0.00     0.191 A 
HETATM    6  C4  UNL     1     -20.670  15.489  -6.253  1.00  0.00     0.191 A 
HETATM    7  C5  UNL     1     -20.141  16.065  -7.535  1.00  0.00     0.328 A 
ENDROOT
BRANCH   5   8
HETATM    8  O2  UNL     1     -18.776  14.462  -5.258  1.00  0.00    -0.390 OA
ATOM      9  H2  UNL     1     -19.400  13.764  -5.095  1.00  0.00     0.210 HD
ENDBRANCH   5   8
BRANCH   6  10
HETATM   10  O3  UNL     1     -21.110  14.173  -6.316  1.00  0.00    -0.390 OA
ATOM     11  H3  UNL     1     -22.024  14.042  -6.092  1.00  0.00     0.210 HD
ENDBRANCH   6  10
TORSDOF 2
ENDMDL
MODEL 2
REMARK VINA RESULT: -4.433976200      3.418      4.509
REMARK  2 active torsions:
REMARK  status: ('A' for Active; 'I' for Inactive)
REMARK    1  A    between atoms: C3_5  and  O2_6 
REMARK    2  A    between atoms: C4_8  and  O3_9 
ROOT
HETATM    1  C1  UNL     1     -18.963  15.318  -5.628  1.00  0.00     0.357 C 
HETATM    2  N1  UNL     1     -17.554  15.396  -5.298  1.00  0.00     0.029 N 
HETATM    3  O1  UNL     1     -16.712  15.935  -6.198  1.00  0.00    -0.064 OA
HETATM    4  C2  UNL     1     -17.281  15.560  -3.892  1.00  0.00     0.328 A 
HETATM    5  C3  UNL     1     -15.870  15.604  -3.390  1.00  0.00     0.191 A 
HETATM    6  C4  UNL     1     -15.620  14.285  -4.081  1.00  0.00     0.191 A 
HETATM    7  C5  UNL     1     -17.056  14.291  -4.522  1.00  0.00     0.328 A 
ENDROOT
BRANCH   5   8
HETATM    8  O2  UNL     1     -15.056  16.584  -3.921  1.00  0.00    -0.390 OA
ATOM      9  H2  UNL     1     -14.252  16.770  -3.451  1.00  0.00     0.210 HD
ENDBRANCH   5   8
BRANCH   6  10
HETATM   10  O3  UNL     1     -14.675  14.322  -5.097  1.00  0.00    -0.390 OA
ATOM     11  H3  UNL     1     -14.653  13.554  -5.656  1.00  0.00     0.210 HD
ENDBRANCH   6  10
TORSDOF 2
ENDMDL
MODEL 3
REMARK VINA RESULT: -4.403845691      4.823      5.548
REMARK  2 active torsions:
REMARK  status: ('A' for Active; 'I' for Inactive)
REMARK    1  A    between atoms: C3_5  and  O2_6 
REMARK    2  A    between atoms: C4_8  and  O3_9 
ROOT
HETATM    1  C1  UNL     1     -17.759  15.051  -1.940  1.00  0.00     0.357 C 
HETATM    2  N1  UNL     1     -16.673  15.206  -2.887  1.00  0.00     0.029 N 
HETATM    3  O1  UNL     1     -15.429  15.397  -2.413  1.00  0.00    -0.064 OA
HETATM    4  C2  UNL     1     -16.853  14.481  -4.120  1.00  0.00     0.328 A 
HETATM    5  C3  UNL     1     -15.839  14.584  -5.220  1.00  0.00     0.191 A 
HETATM    6  C4  UNL     1     -15.992  16.086  -5.171  1.00  0.00     0.191 A 
HETATM    7  C5  UNL     1     -17.024  15.905  -4.095  1.00  0.00     0.328 A 
ENDROOT
BRANCH   5   8
HETATM    8  O2  UNL     1     -14.546  14.225  -4.902  1.00  0.00    -0.390 OA
ATOM      9  H2  UNL     1     -14.334  13.300  -4.963  1.00  0.00     0.210 HD
ENDBRANCH   5   8
BRANCH   6  10
HETATM   10  O3  UNL     1     -14.849  16.783  -4.803  1.00  0.00    -0.390 OA
ATOM     11  H3  UNL     1     -14.983  17.703  -4.608  1.00  0.00     0.210 HD
ENDBRANCH   6  10
TORSDOF 2
ENDMDL
MODEL 4
REMARK VINA RESULT: -4.373698705      1.205      1.678
REMARK  2 active torsions:
REMARK  status: ('A' for Active; 'I' for Inactive)
REMARK    1  A    between atoms: C3_5  and  O2_6 
REMARK    2  A    between atoms: C4_8  and  O3_9 
ROOT
HETATM    1  C1  UNL     1     -16.994  15.642  -7.538  1.00  0.00     0.357 C 
HETATM    2  N1  UNL     1     -18.416  15.359  -7.505  1.00  0.00     0.029 N 
HETATM    3  O1  UNL     1     -18.878  14.308  -8.206  1.00  0.00    -0.064 OA
HETATM    4  C2  UNL     1     -19.065  15.723  -6.271  1.00  0.00     0.328 A 
HETATM    5  C3  UNL     1     -20.543  15.540  -6.105  1.00  0.00     0.191 A 
HETATM    6  C4  UNL     1     -20.749  16.354  -7.360  1.00  0.00     0.191 A 
HETATM    7  C5  UNL     1     -19.259  16.523  -7.445  1.00  0.00     0.328 A 
ENDROOT
BRANCH   5   8
HETATM    8  O2  UNL     1     -21.030  14.261  -6.278  1.00  0.00    -0.390 OA
ATOM      9  H2  UNL     1     -20.675  13.766  -7.007  1.00  0.00     0.210 HD
ENDBRANCH   5   8
BRANCH   6  10
HETATM   10  O3  UNL     1     -21.342  15.671  -8.414  1.00  0.00    -0.390 OA
ATOM     11  H3  UNL     1     -21.892  16.201  -8.980  1.00  0.00     0.210 HD
ENDBRANCH   6  10
TORSDOF 2
ENDMDL
MODEL 5
REMARK VINA RESULT: -4.301735184      1.652      2.321
REMARK  2 active torsions:
REMARK  status: ('A' for Active; 'I' for Inactive)
REMARK    1  A    between atoms: C3_5  and  O2_6 
REMARK    2  A    between atoms: C4_8  and  O3_9 
ROOT
HETATM    1  C1  UNL     1     -19.241  17.928  -8.518  1.00  0.00     0.357 C 
HETATM    2  N1  UNL     1     -19.491  16.956  -7.472  1.00  0.00     0.029 N 
HETATM    3  O1  UNL     1     -20.442  17.224  -6.559  1.00  0.00    -0.064 OA
HETATM    4  C2  UNL     1     -19.257  15.589  -7.864  1.00  0.00     0.328 A 
HETATM    5  C3  UNL     1     -19.422  14.474  -6.875  1.00  0.00     0.191 A 
HETATM    6  C4  UNL     1     -18.463  15.194  -5.957  1.00  0.00     0.191 A 
HETATM    7  C5  UNL     1     -18.321  16.258  -7.007  1.00  0.00     0.328 A 
ENDROOT
BRANCH   5   8
HETATM    8  O2  UNL     1     -20.660  14.357  -6.278  1.00  0.00    -0.390 OA
ATOM      9  H2  UNL     1     -20.904  15.042  -5.668  1.00  0.00     0.210 HD
ENDBRANCH   5   8
BRANCH   6  10
HETATM   10  O3  UNL     1     -19.005  15.606  -4.747  1.00  0.00    -0.390 OA
ATOM     11  H3  UNL     1     -18.387  15.999  -4.141  1.00  0.00     0.210 HD
ENDBRANCH   6  10
TORSDOF 2
ENDMDL
