MODEL 1
REMARK VINA RESULT: -7.953326531      0.000      0.000
REMARK  9 active torsions:
REMARK  status: ('A' for Active; 'I' for Inactive)
REMARK    1  A    between atoms: O1_1  and  C1_3 
REMARK    2  A    between atoms: C1_3  and  N1_4 
REMARK    3  A    between atoms: C1_3  and  N7_30 
REMARK    4  A    between atoms: N1_4  and  C2_5 
REMARK    5  A    between atoms: N4_13  and  C6_15 
REMARK    6  A    between atoms: C9_18  and  N5_19 
REMARK    7  A    between atoms: N7_30  and  C18_32 
REMARK    8  A    between atoms: C18_32  and  C19_33 
REMARK    9  A    between atoms: C19_33  and  C20_36 
ROOT
HETATM    1  C2  UNL     1     -11.563  18.207  21.505  1.00  0.00     0.185 A 
HETATM    2  C3  UNL     1     -10.960  17.789  20.315  1.00  0.00     0.096 A 
HETATM    3  C4  UNL     1      -9.612  17.810  20.143  1.00  0.00     0.068 A 
HETATM    4  N2  UNL     1      -8.785  17.486  19.135  1.00  0.00    -0.298 N 
ATOM      5  H2  UNL     1      -9.093  17.127  18.232  1.00  0.00     0.187 HD
HETATM    6  N3  UNL     1      -7.538  17.692  19.458  1.00  0.00    -0.284 N 
ATOM      7  H3  UNL     1      -6.734  17.519  18.855  1.00  0.00     0.188 HD
HETATM    8  C5  UNL     1      -7.481  18.179  20.746  1.00  0.00     0.130 A 
HETATM    9  N4  UNL     1      -6.424  18.419  21.300  1.00  0.00    -0.370 N 
ATOM     10  H4  UNL     1      -5.683  18.192  20.637  1.00  0.00     0.161 HD
HETATM   11  C16 UNL     1      -8.774  18.253  21.164  1.00  0.00     0.053 A 
HETATM   12  C17 UNL     1      -9.404  18.662  22.328  1.00  0.00     0.108 A 
HETATM   13  N6  UNL     1     -10.726  18.638  22.485  1.00  0.00    -0.340 N 
ATOM     14  H6  UNL     1     -11.124  18.953  23.369  1.00  0.00     0.167 HD
ENDROOT
BRANCH   1  15
HETATM   15  N1  UNL     1     -12.764  18.119  21.603  1.00  0.00    -0.347 NA
BRANCH  15  16
HETATM   16  C1  UNL     1     -14.050  17.982  21.731  1.00  0.00     0.295 C 
BRANCH  16  17
HETATM   17  O1  UNL     1     -14.726  18.839  22.439  1.00  0.00    -0.321 OA
ATOM     18  H1  UNL     1     -15.576  19.137  22.136  1.00  0.00     0.222 HD
ENDBRANCH  16  17
BRANCH  16  19
HETATM   19  N7  UNL     1     -14.846  16.938  21.142  1.00  0.00    -0.339 N 
ATOM     20  H7  UNL     1     -15.832  16.835  21.377  1.00  0.00     0.164 HD
BRANCH  19  21
HETATM   21  C18 UNL     1     -14.214  16.049  20.215  1.00  0.00     0.203 C 
BRANCH  21  22
HETATM   22  C19 UNL     1     -15.162  15.508  19.185  1.00  0.00     0.263 C 
HETATM   23  F1  UNL     1     -16.342  15.081  19.686  1.00  0.00    -0.204 F 
HETATM   24  F2  UNL     1     -14.532  14.410  18.604  1.00  0.00    -0.204 F 
BRANCH  22  25
HETATM   25  C20 UNL     1     -15.299  16.566  18.107  1.00  0.00     0.060 A 
HETATM   26  C21 UNL     1     -14.852  16.186  16.699  1.00  0.00     0.011 A 
HETATM   27  C22 UNL     1     -14.104  17.244  17.557  1.00  0.00     0.011 A 
ENDBRANCH  22  25
ENDBRANCH  21  22
ENDBRANCH  19  21
ENDBRANCH  16  19
ENDBRANCH  15  16
ENDBRANCH   1  15
BRANCH   9  28
HETATM   28  C6  UNL     1      -5.809  18.872  22.454  1.00  0.00     0.083 C 
HETATM   29  C7  UNL     1      -6.139  18.205  23.728  1.00  0.00     0.027 C 
HETATM   30  C8  UNL     1      -6.668  19.039  24.849  1.00  0.00     0.038 C 
HETATM   31  C9  UNL     1      -6.001  20.343  25.055  1.00  0.00     0.223 C 
HETATM   32  C14 UNL     1      -5.341  20.861  23.775  1.00  0.00     0.038 C 
HETATM   33  C15 UNL     1      -6.130  20.384  22.583  1.00  0.00     0.027 C 
BRANCH  31  34
HETATM   34  N5  UNL     1      -5.092  20.482  26.121  1.00  0.00     0.093 N 
HETATM   35  C10 UNL     1      -5.709  20.872  27.377  1.00  0.00     0.273 C 
HETATM   36  C11 UNL     1      -4.902  20.251  28.475  1.00  0.00     0.032 C 
HETATM   37  C12 UNL     1      -3.682  19.730  27.745  1.00  0.00     0.032 C 
HETATM   38  C13 UNL     1      -4.273  19.345  26.401  1.00  0.00     0.273 C 
ENDBRANCH  31  34
ENDBRANCH   9  28
TORSDOF 9
ENDMDL
MODEL 2
REMARK VINA RESULT: -7.822701169      1.446      1.889
REMARK  9 active torsions:
REMARK  status: ('A' for Active; 'I' for Inactive)
REMARK    1  A    between atoms: O1_1  and  C1_3 
REMARK    2  A    between atoms: C1_3  and  N1_4 
REMARK    3  A    between atoms: C1_3  and  N7_30 
REMARK    4  A    between atoms: N1_4  and  C2_5 
REMARK    5  A    between atoms: N4_13  and  C6_15 
REMARK    6  A    between atoms: C9_18  and  N5_19 
REMARK    7  A    between atoms: N7_30  and  C18_32 
REMARK    8  A    between atoms: C18_32  and  C19_33 
REMARK    9  A    between atoms: C19_33  and  C20_36 
ROOT
HETATM    1  C2  UNL     1     -11.588  17.986  21.435  1.00  0.00     0.185 A 
HETATM    2  C3  UNL     1     -11.111  18.297  20.159  1.00  0.00     0.096 A 
HETATM    3  C4  UNL     1      -9.783  18.378  19.885  1.00  0.00     0.068 A 
HETATM    4  N2  UNL     1      -9.062  18.658  18.786  1.00  0.00    -0.298 N 
ATOM      5  H2  UNL     1      -9.465  18.878  17.875  1.00  0.00     0.187 HD
HETATM    6  N3  UNL     1      -7.783  18.614  19.033  1.00  0.00    -0.284 N 
ATOM      7  H3  UNL     1      -7.042  18.791  18.354  1.00  0.00     0.188 HD
HETATM    8  C5  UNL     1      -7.591  18.290  20.358  1.00  0.00     0.130 A 
HETATM    9  N4  UNL     1      -6.479  18.149  20.835  1.00  0.00    -0.370 N 
ATOM     10  H4  UNL     1      -5.810  18.317  20.083  1.00  0.00     0.161 HD
HETATM   11  C16 UNL     1      -8.838  18.147  20.882  1.00  0.00     0.053 A 
HETATM   12  C17 UNL     1      -9.345  17.844  22.135  1.00  0.00     0.108 A 
HETATM   13  N6  UNL     1     -10.649  17.769  22.393  1.00  0.00    -0.340 N 
ATOM     14  H6  UNL     1     -10.953  17.541  23.339  1.00  0.00     0.167 HD
ENDROOT
BRANCH   1  15
HETATM   15  N1  UNL     1     -12.782  17.889  21.596  1.00  0.00    -0.347 NA
BRANCH  15  16
HETATM   16  C1  UNL     1     -14.062  17.735  21.759  1.00  0.00     0.295 C 
BRANCH  16  17
HETATM   17  O1  UNL     1     -14.713  18.526  22.561  1.00  0.00    -0.321 OA
ATOM     18  H1  UNL     1     -15.440  19.041  22.231  1.00  0.00     0.222 HD
ENDBRANCH  16  17
BRANCH  16  19
HETATM   19  N7  UNL     1     -14.878  16.743  21.111  1.00  0.00    -0.339 N 
ATOM     20  H7  UNL     1     -15.865  16.642  21.345  1.00  0.00     0.164 HD
BRANCH  19  21
HETATM   21  C18 UNL     1     -14.265  15.901  20.130  1.00  0.00     0.203 C 
BRANCH  21  22
HETATM   22  C19 UNL     1     -15.220  15.462  19.058  1.00  0.00     0.263 C 
HETATM   23  F1  UNL     1     -16.417  15.038  19.519  1.00  0.00    -0.204 F 
HETATM   24  F2  UNL     1     -14.618  14.387  18.407  1.00  0.00    -0.204 F 
BRANCH  22  25
HETATM   25  C20 UNL     1     -15.313  16.595  18.055  1.00  0.00     0.060 A 
HETATM   26  C21 UNL     1     -14.860  16.301  16.628  1.00  0.00     0.011 A 
HETATM   27  C22 UNL     1     -14.093  17.274  17.565  1.00  0.00     0.011 A 
ENDBRANCH  22  25
ENDBRANCH  21  22
ENDBRANCH  19  21
ENDBRANCH  16  19
ENDBRANCH  15  16
ENDBRANCH   1  15
BRANCH   9  28
HETATM   28  C6  UNL     1      -5.745  17.857  21.971  1.00  0.00     0.083 C 
HETATM   29  C7  UNL     1      -5.645  18.888  23.021  1.00  0.00     0.027 C 
HETATM   30  C8  UNL     1      -4.285  19.341  23.444  1.00  0.00     0.038 C 
HETATM   31  C9  UNL     1      -3.271  18.277  23.604  1.00  0.00     0.223 C 
HETATM   32  C14 UNL     1      -3.590  17.043  22.757  1.00  0.00     0.038 C 
HETATM   33  C15 UNL     1      -4.314  17.475  21.508  1.00  0.00     0.027 C 
BRANCH  31  34
HETATM   34  N5  UNL     1      -2.923  17.856  24.903  1.00  0.00     0.093 N 
HETATM   35  C10 UNL     1      -3.088  18.881  25.919  1.00  0.00     0.273 C 
HETATM   36  C11 UNL     1      -3.455  18.182  27.192  1.00  0.00     0.032 C 
HETATM   37  C12 UNL     1      -3.223  16.725  26.857  1.00  0.00     0.032 C 
HETATM   38  C13 UNL     1      -3.591  16.688  25.384  1.00  0.00     0.273 C 
ENDBRANCH  31  34
ENDBRANCH   9  28
TORSDOF 9
ENDMDL
MODEL 3
REMARK VINA RESULT: -7.710150335      5.312      7.102
REMARK  9 active torsions:
REMARK  status: ('A' for Active; 'I' for Inactive)
REMARK    1  A    between atoms: O1_1  and  C1_3 
REMARK    2  A    between atoms: C1_3  and  N1_4 
REMARK    3  A    between atoms: C1_3  and  N7_30 
REMARK    4  A    between atoms: N1_4  and  C2_5 
REMARK    5  A    between atoms: N4_13  and  C6_15 
REMARK    6  A    between atoms: C9_18  and  N5_19 
REMARK    7  A    between atoms: N7_30  and  C18_32 
REMARK    8  A    between atoms: C18_32  and  C19_33 
REMARK    9  A    between atoms: C19_33  and  C20_36 
ROOT
HETATM    1  C2  UNL     1     -12.552  19.015  21.537  1.00  0.00     0.185 A 
HETATM    2  C3  UNL     1     -12.115  19.342  22.824  1.00  0.00     0.096 A 
HETATM    3  C4  UNL     1     -11.526  20.534  23.106  1.00  0.00     0.068 A 
HETATM    4  N2  UNL     1     -11.017  21.095  24.216  1.00  0.00    -0.298 N 
ATOM      5  H2  UNL     1     -11.000  20.646  25.131  1.00  0.00     0.187 HD
HETATM    6  N3  UNL     1     -10.546  22.286  23.973  1.00  0.00    -0.284 N 
ATOM      7  H3  UNL     1     -10.112  22.903  24.659  1.00  0.00     0.188 HD
HETATM    8  C5  UNL     1     -10.731  22.580  22.639  1.00  0.00     0.130 A 
HETATM    9  N4  UNL     1     -10.408  23.653  22.163  1.00  0.00    -0.370 N 
ATOM     10  H4  UNL     1     -10.013  24.209  22.922  1.00  0.00     0.161 HD
HETATM   11  C16 UNL     1     -11.337  21.485  22.106  1.00  0.00     0.053 A 
HETATM   12  C17 UNL     1     -11.779  21.128  20.843  1.00  0.00     0.108 A 
HETATM   13  N6  UNL     1     -12.354  19.957  20.577  1.00  0.00    -0.340 N 
ATOM     14  H6  UNL     1     -12.656  19.760  19.624  1.00  0.00     0.167 HD
ENDROOT
BRANCH   1  15
HETATM   15  N1  UNL     1     -13.107  17.955  21.369  1.00  0.00    -0.347 NA
BRANCH  15  16
HETATM   16  C1  UNL     1     -13.683  16.799  21.230  1.00  0.00     0.295 C 
BRANCH  16  17
HETATM   17  O1  UNL     1     -13.409  15.834  22.057  1.00  0.00    -0.321 OA
ATOM     18  H1  UNL     1     -12.505  15.582  22.209  1.00  0.00     0.222 HD
ENDBRANCH  16  17
BRANCH  16  19
HETATM   19  N7  UNL     1     -14.643  16.457  20.214  1.00  0.00    -0.339 N 
ATOM     20  H7  UNL     1     -15.373  17.114  19.941  1.00  0.00     0.164 HD
BRANCH  19  21
HETATM   21  C18 UNL     1     -14.546  15.169  19.599  1.00  0.00     0.203 C 
BRANCH  21  22
HETATM   22  C19 UNL     1     -15.290  15.084  18.299  1.00  0.00     0.263 C 
HETATM   23  F1  UNL     1     -14.496  15.011  17.208  1.00  0.00    -0.204 F 
HETATM   24  F2  UNL     1     -16.038  16.254  18.194  1.00  0.00    -0.204 F 
BRANCH  22  25
HETATM   25  C20 UNL     1     -16.272  13.936  18.423  1.00  0.00     0.060 A 
HETATM   26  C21 UNL     1     -17.478  14.147  19.333  1.00  0.00     0.011 A 
HETATM   27  C22 UNL     1     -16.346  13.135  19.664  1.00  0.00     0.011 A 
ENDBRANCH  22  25
ENDBRANCH  21  22
ENDBRANCH  19  21
ENDBRANCH  16  19
ENDBRANCH  15  16
ENDBRANCH   1  15
BRANCH   9  28
HETATM   28  C6  UNL     1     -10.355  24.434  21.021  1.00  0.00     0.083 C 
HETATM   29  C7  UNL     1      -9.466  24.006  19.924  1.00  0.00     0.027 C 
HETATM   30  C8  UNL     1      -8.420  24.959  19.446  1.00  0.00     0.038 C 
HETATM   31  C9  UNL     1      -8.845  26.368  19.306  1.00  0.00     0.223 C 
HETATM   32  C14 UNL     1     -10.029  26.707  20.214  1.00  0.00     0.038 C 
HETATM   33  C15 UNL     1      -9.950  25.866  21.462  1.00  0.00     0.027 C 
BRANCH  31  34
HETATM   34  N5  UNL     1      -9.103  26.877  18.018  1.00  0.00     0.093 N 
HETATM   35  C10 UNL     1     -10.506  27.156  17.763  1.00  0.00     0.273 C 
HETATM   36  C11 UNL     1     -10.558  28.319  16.821  1.00  0.00     0.032 C 
HETATM   37  C12 UNL     1      -9.115  28.471  16.391  1.00  0.00     0.032 C 
HETATM   38  C13 UNL     1      -8.377  28.050  17.648  1.00  0.00     0.273 C 
ENDBRANCH  31  34
ENDBRANCH   9  28
TORSDOF 9
ENDMDL
MODEL 4
REMARK VINA RESULT: -7.704880389      3.596      6.606
REMARK  9 active torsions:
REMARK  status: ('A' for Active; 'I' for Inactive)
REMARK    1  A    between atoms: O1_1  and  C1_3 
REMARK    2  A    between atoms: C1_3  and  N1_4 
REMARK    3  A    between atoms: C1_3  and  N7_30 
REMARK    4  A    between atoms: N1_4  and  C2_5 
REMARK    5  A    between atoms: N4_13  and  C6_15 
REMARK    6  A    between atoms: C9_18  and  N5_19 
REMARK    7  A    between atoms: N7_30  and  C18_32 
REMARK    8  A    between atoms: C18_32  and  C19_33 
REMARK    9  A    between atoms: C19_33  and  C20_36 
ROOT
HETATM    1  C2  UNL     1     -11.635  18.048  20.969  1.00  0.00     0.185 A 
HETATM    2  C3  UNL     1     -10.635  18.058  21.945  1.00  0.00     0.096 A 
HETATM    3  C4  UNL     1      -9.330  18.283  21.640  1.00  0.00     0.068 A 
HETATM    4  N2  UNL     1      -8.192  18.339  22.351  1.00  0.00    -0.298 N 
ATOM      5  H2  UNL     1      -8.138  18.206  23.361  1.00  0.00     0.187 HD
HETATM    6  N3  UNL     1      -7.165  18.586  21.586  1.00  0.00    -0.284 N 
ATOM      7  H3  UNL     1      -6.200  18.674  21.901  1.00  0.00     0.188 HD
HETATM    8  C5  UNL     1      -7.595  18.709  20.282  1.00  0.00     0.130 A 
HETATM    9  N4  UNL     1      -6.831  18.977  19.372  1.00  0.00    -0.370 N 
ATOM     10  H4  UNL     1      -5.902  19.074  19.783  1.00  0.00     0.161 HD
HETATM   11  C16 UNL     1      -8.941  18.517  20.323  1.00  0.00     0.053 A 
HETATM   12  C17 UNL     1      -9.956  18.497  19.381  1.00  0.00     0.108 A 
HETATM   13  N6  UNL     1     -11.232  18.275  19.691  1.00  0.00    -0.340 N 
ATOM     14  H6  UNL     1     -11.929  18.274  18.947  1.00  0.00     0.167 HD
ENDROOT
BRANCH   1  15
HETATM   15  N1  UNL     1     -12.780  17.885  21.319  1.00  0.00    -0.347 NA
BRANCH  15  16
HETATM   16  C1  UNL     1     -14.022  17.691  21.652  1.00  0.00     0.295 C 
BRANCH  16  17
HETATM   17  O1  UNL     1     -14.548  18.379  22.621  1.00  0.00    -0.321 OA
ATOM     18  H1  UNL     1     -15.387  18.808  22.497  1.00  0.00     0.222 HD
ENDBRANCH  16  17
BRANCH  16  19
HETATM   19  N7  UNL     1     -14.922  16.758  21.028  1.00  0.00    -0.339 N 
ATOM     20  H7  UNL     1     -15.922  16.786  21.220  1.00  0.00     0.164 HD
BRANCH  19  21
HETATM   21  C18 UNL     1     -14.373  15.787  20.131  1.00  0.00     0.203 C 
BRANCH  21  22
HETATM   22  C19 UNL     1     -15.319  15.409  19.029  1.00  0.00     0.263 C 
HETATM   23  F1  UNL     1     -16.539  15.014  19.455  1.00  0.00    -0.204 F 
HETATM   24  F2  UNL     1     -14.740  14.333  18.361  1.00  0.00    -0.204 F 
BRANCH  22  25
HETATM   25  C20 UNL     1     -15.355  16.571  18.056  1.00  0.00     0.060 A 
HETATM   26  C21 UNL     1     -14.866  16.305  16.635  1.00  0.00     0.011 A 
HETATM   27  C22 UNL     1     -14.105  17.233  17.622  1.00  0.00     0.011 A 
ENDBRANCH  22  25
ENDBRANCH  21  22
ENDBRANCH  19  21
ENDBRANCH  16  19
ENDBRANCH  15  16
ENDBRANCH   1  15
BRANCH   9  28
HETATM   28  C6  UNL     1      -6.698  19.206  18.014  1.00  0.00     0.083 C 
HETATM   29  C7  UNL     1      -7.528  20.259  17.399  1.00  0.00     0.027 C 
HETATM   30  C8  UNL     1      -8.418  19.886  16.259  1.00  0.00     0.038 C 
HETATM   31  C9  UNL     1      -7.830  18.977  15.252  1.00  0.00     0.223 C 
HETATM   32  C14 UNL     1      -6.701  18.124  15.834  1.00  0.00     0.038 C 
HETATM   33  C15 UNL     1      -6.980  17.862  17.292  1.00  0.00     0.027 C 
BRANCH  31  34
HETATM   34  N5  UNL     1      -7.406  19.509  14.018  1.00  0.00     0.093 N 
HETATM   35  C10 UNL     1      -8.207  20.625  13.549  1.00  0.00     0.273 C 
HETATM   36  C11 UNL     1      -7.295  21.528  12.778  1.00  0.00     0.032 C 
HETATM   37  C12 UNL     1      -6.034  20.702  12.647  1.00  0.00     0.032 C 
HETATM   38  C13 UNL     1      -6.040  19.926  13.951  1.00  0.00     0.273 C 
ENDBRANCH  31  34
ENDBRANCH   9  28
TORSDOF 9
ENDMDL
MODEL 5
REMARK VINA RESULT: -7.680649633      6.159      9.986
REMARK  9 active torsions:
REMARK  status: ('A' for Active; 'I' for Inactive)
REMARK    1  A    between atoms: O1_1  and  C1_3 
REMARK    2  A    between atoms: C1_3  and  N1_4 
REMARK    3  A    between atoms: C1_3  and  N7_30 
REMARK    4  A    between atoms: N1_4  and  C2_5 
REMARK    5  A    between atoms: N4_13  and  C6_15 
REMARK    6  A    between atoms: C9_18  and  N5_19 
REMARK    7  A    between atoms: N7_30  and  C18_32 
REMARK    8  A    between atoms: C18_32  and  C19_33 
REMARK    9  A    between atoms: C19_33  and  C20_36 
ROOT
HETATM    1  C2  UNL     1      -9.892  24.010  21.944  1.00  0.00     0.185 A 
HETATM    2  C3  UNL     1      -9.978  23.761  23.317  1.00  0.00     0.096 A 
HETATM    3  C4  UNL     1     -10.732  22.749  23.821  1.00  0.00     0.068 A 
HETATM    4  N2  UNL     1     -10.999  22.298  25.058  1.00  0.00    -0.298 N 
ATOM      5  H2  UNL     1     -10.619  22.705  25.913  1.00  0.00     0.187 HD
HETATM    6  N3  UNL     1     -11.806  21.274  25.027  1.00  0.00    -0.284 N 
ATOM      7  H3  UNL     1     -12.148  20.765  25.842  1.00  0.00     0.188 HD
HETATM    8  C5  UNL     1     -12.122  20.990  23.716  1.00  0.00     0.130 A 
HETATM    9  N4  UNL     1     -12.835  20.050  23.413  1.00  0.00    -0.370 N 
ATOM     10  H4  UNL     1     -13.103  19.588  24.281  1.00  0.00     0.161 HD
HETATM   11  C16 UNL     1     -11.453  21.912  22.973  1.00  0.00     0.053 A 
HETATM   12  C17 UNL     1     -11.348  22.188  21.619  1.00  0.00     0.108 A 
HETATM   13  N6  UNL     1     -10.607  23.183  21.136  1.00  0.00    -0.340 N 
ATOM     14  H6  UNL     1     -10.574  23.330  20.128  1.00  0.00     0.167 HD
ENDROOT
BRANCH   1  15
HETATM   15  N1  UNL     1      -9.168  24.900  21.565  1.00  0.00    -0.347 NA
BRANCH  15  16
HETATM   16  C1  UNL     1      -8.388  25.874  21.202  1.00  0.00     0.295 C 
BRANCH  16  17
HETATM   17  O1  UNL     1      -7.484  26.321  22.023  1.00  0.00    -0.321 OA
ATOM     18  H1  UNL     1      -7.145  27.202  21.921  1.00  0.00     0.222 HD
ENDBRANCH  16  17
BRANCH  16  19
HETATM   19  N7  UNL     1      -8.413  26.539  19.927  1.00  0.00    -0.339 N 
ATOM     20  H7  UNL     1      -7.871  27.388  19.767  1.00  0.00     0.164 HD
BRANCH  19  21
HETATM   21  C18 UNL     1      -9.221  25.977  18.888  1.00  0.00     0.203 C 
BRANCH  21  22
HETATM   22  C19 UNL     1     -10.567  26.630  18.775  1.00  0.00     0.263 C 
HETATM   23  F1  UNL     1     -10.787  27.610  19.679  1.00  0.00    -0.204 F 
HETATM   24  F2  UNL     1     -11.513  25.633  19.001  1.00  0.00    -0.204 F 
BRANCH  22  25
HETATM   25  C20 UNL     1     -10.726  27.076  17.335  1.00  0.00     0.060 A 
HETATM   26  C21 UNL     1      -9.449  27.273  16.522  1.00  0.00     0.011 A 
HETATM   27  C22 UNL     1     -10.375  28.454  16.926  1.00  0.00     0.011 A 
ENDBRANCH  22  25
ENDBRANCH  21  22
ENDBRANCH  19  21
ENDBRANCH  16  19
ENDBRANCH  15  16
ENDBRANCH   1  15
BRANCH   9  28
HETATM   28  C6  UNL     1     -13.432  19.348  22.380  1.00  0.00     0.083 C 
HETATM   29  C7  UNL     1     -14.394  18.285  22.725  1.00  0.00     0.027 C 
HETATM   30  C8  UNL     1     -14.140  16.904  22.213  1.00  0.00     0.038 C 
HETATM   31  C9  UNL     1     -13.679  16.811  20.811  1.00  0.00     0.223 C 
HETATM   32  C14 UNL     1     -12.980  18.090  20.346  1.00  0.00     0.038 C 
HETATM   33  C15 UNL     1     -12.293  18.734  21.523  1.00  0.00     0.027 C 
BRANCH  31  34
HETATM   34  N5  UNL     1     -14.594  16.409  19.818  1.00  0.00     0.093 N 
HETATM   35  C10 UNL     1     -14.380  17.040  18.528  1.00  0.00     0.273 C 
HETATM   36  C11 UNL     1     -14.800  16.054  17.481  1.00  0.00     0.032 C 
HETATM   37  C12 UNL     1     -15.485  14.974  18.290  1.00  0.00     0.032 C 
HETATM   38  C13 UNL     1     -14.684  15.003  19.579  1.00  0.00     0.273 C 
ENDBRANCH  31  34
ENDBRANCH   9  28
TORSDOF 9
ENDMDL
