MODEL 1
REMARK VINA RESULT: -7.789635145      0.000      0.000
REMARK  5 active torsions:
REMARK  status: ('A' for Active; 'I' for Inactive)
REMARK    1  A    between atoms: C2_2  and  N1_3 
REMARK       I    between atoms: N1_3  and  C4_5 
REMARK    2  A    between atoms: C4_5  and  C5_7 
REMARK    3  A    between atoms: C5_7  and  C6_8 
REMARK       I    between atoms: N4_14  and  C8_16 
REMARK       I    between atoms: C8_16  and  N5_18 
REMARK    4  A    between atoms: N5_18  and  C9_20 
REMARK    5  A    between atoms: C15_26  and  C16_27 
ROOT
HETATM    1  C16 UNL     1     -10.007  20.911  22.362  1.00  0.00     0.070 A 
HETATM    2  N6  UNL     1      -9.184  21.589  21.507  1.00  0.00    -0.362 N 
ATOM      3  H6  UNL     1      -8.716  21.166  20.705  1.00  0.00     0.165 HD
HETATM    4  C17 UNL     1      -9.068  22.879  21.855  1.00  0.00     0.114 A 
HETATM    5  C18 UNL     1      -9.821  23.107  22.971  1.00  0.00     0.072 A 
HETATM    6 CL1  UNL     1     -10.034  24.614  23.856  1.00  0.00    -0.081 Cl
HETATM    7  C19 UNL     1     -10.399  21.854  23.269  1.00  0.00     0.095 A 
HETATM    8  C20 UNL     1     -11.224  21.692  24.446  1.00  0.00     0.103 C 
HETATM    9  N7  UNL     1     -11.861  21.581  25.414  1.00  0.00    -0.191 NA
ENDROOT
BRANCH   1  10
HETATM   10  C15 UNL     1     -10.286  19.474  22.344  1.00  0.00     0.062 A 
HETATM   11  C6  UNL     1      -9.371  18.445  22.533  1.00  0.00     0.051 A 
HETATM   12  N2  UNL     1     -10.007  17.291  22.331  1.00  0.00    -0.302 N 
HETATM   13  N3  UNL     1     -11.235  17.519  22.035  1.00  0.00    -0.284 N 
ATOM     14  H2  UNL     1      -9.583  16.366  22.401  1.00  0.00     0.186 HD
HETATM   15  C7  UNL     1     -11.478  18.840  22.024  1.00  0.00     0.138 A 
ATOM     16  H3  UNL     1     -11.929  16.798  21.837  1.00  0.00     0.188 HD
HETATM   17  N4  UNL     1     -12.616  19.358  21.711  1.00  0.00    -0.293 N 
HETATM   18  C8  UNL     1     -13.700  18.526  21.353  1.00  0.00     0.322 C 
ATOM     19  H4  UNL     1     -12.734  20.371  21.722  1.00  0.00     0.172 HD
HETATM   20  O2  UNL     1     -14.717  18.510  22.089  1.00  0.00    -0.247 OA
HETATM   21  N5  UNL     1     -13.673  17.717  20.196  1.00  0.00    -0.338 N 
ATOM     22  H5  UNL     1     -12.835  17.748  19.615  1.00  0.00     0.164 HD
BRANCH  11  23
HETATM   23  C5  UNL     1      -7.946  18.511  22.921  1.00  0.00     0.162 C 
BRANCH  23  24
HETATM   24  C4  UNL     1      -7.149  18.504  21.636  1.00  0.00     0.225 C 
HETATM   25  N1  UNL     1      -5.773  18.185  21.738  1.00  0.00    -0.357 N 
HETATM   26  C3  UNL     1      -5.187  17.887  23.020  1.00  0.00     0.152 C 
HETATM   27  O1  UNL     1      -7.688  18.772  20.532  1.00  0.00    -0.273 OA
BRANCH  25  28
HETATM   28  C2  UNL     1      -4.996  18.172  20.513  1.00  0.00     0.120 C 
HETATM   29  C1  UNL     1      -3.775  17.275  20.633  1.00  0.00     0.026 C 
ENDBRANCH  25  28
ENDBRANCH  23  24
ENDBRANCH  11  23
BRANCH  21  30
HETATM   30  C9  UNL     1     -14.738  16.855  19.783  1.00  0.00     0.086 C 
HETATM   31  C10 UNL     1     -15.216  17.069  18.388  1.00  0.00     0.025 C 
HETATM   32  C11 UNL     1     -14.817  15.956  17.442  1.00  0.00     0.002 C 
HETATM   33  C12 UNL     1     -15.183  14.591  17.918  1.00  0.00     0.000 C 
HETATM   34  C13 UNL     1     -15.336  14.535  19.435  1.00  0.00     0.002 C 
HETATM   35  C14 UNL     1     -14.233  15.417  19.990  1.00  0.00     0.025 C 
ENDBRANCH  21  30
ENDBRANCH   1  10
TORSDOF 5
ENDMDL
MODEL 2
REMARK VINA RESULT: -7.680361679      0.749      1.636
REMARK  5 active torsions:
REMARK  status: ('A' for Active; 'I' for Inactive)
REMARK    1  A    between atoms: C2_2  and  N1_3 
REMARK       I    between atoms: N1_3  and  C4_5 
REMARK    2  A    between atoms: C4_5  and  C5_7 
REMARK    3  A    between atoms: C5_7  and  C6_8 
REMARK       I    between atoms: N4_14  and  C8_16 
REMARK       I    between atoms: C8_16  and  N5_18 
REMARK    4  A    between atoms: N5_18  and  C9_20 
REMARK    5  A    between atoms: C15_26  and  C16_27 
ROOT
HETATM    1  C16 UNL     1     -10.535  20.751  22.966  1.00  0.00     0.070 A 
HETATM    2  N6  UNL     1     -10.954  21.256  24.164  1.00  0.00    -0.362 N 
ATOM      3  H6  UNL     1     -11.305  20.688  24.935  1.00  0.00     0.165 HD
HETATM    4  C17 UNL     1     -10.845  22.593  24.200  1.00  0.00     0.114 A 
HETATM    5  C18 UNL     1     -10.343  23.029  23.007  1.00  0.00     0.072 A 
HETATM    6 CL1  UNL     1      -9.999  24.682  22.505  1.00  0.00    -0.081 Cl
HETATM    7  C19 UNL     1     -10.158  21.852  22.250  1.00  0.00     0.095 A 
HETATM    8  C20 UNL     1      -9.693  21.929  20.883  1.00  0.00     0.103 C 
HETATM    9  N7  UNL     1      -9.344  22.019  19.776  1.00  0.00    -0.191 NA
ENDROOT
BRANCH   1  10
HETATM   10  C15 UNL     1     -10.601  19.352  22.541  1.00  0.00     0.062 A 
HETATM   11  C6  UNL     1      -9.528  18.488  22.350  1.00  0.00     0.051 A 
HETATM   12  N2  UNL     1     -10.008  17.344  21.859  1.00  0.00    -0.302 N 
HETATM   13  N3  UNL     1     -11.283  17.429  21.732  1.00  0.00    -0.284 N 
ATOM     14  H2  UNL     1      -9.447  16.527  21.621  1.00  0.00     0.186 HD
HETATM   15  C7  UNL     1     -11.716  18.635  22.131  1.00  0.00     0.138 A 
ATOM     16  H3  UNL     1     -11.881  16.683  21.377  1.00  0.00     0.188 HD
HETATM   17  N4  UNL     1     -12.947  19.013  22.066  1.00  0.00    -0.293 N 
HETATM   18  C8  UNL     1     -13.931  18.140  21.554  1.00  0.00     0.322 C 
ATOM     19  H4  UNL     1     -13.210  19.946  22.387  1.00  0.00     0.172 HD
HETATM   20  O2  UNL     1     -14.841  17.739  22.321  1.00  0.00    -0.247 OA
HETATM   21  N5  UNL     1     -13.922  17.707  20.210  1.00  0.00    -0.338 N 
ATOM     22  H5  UNL     1     -13.173  18.047  19.608  1.00  0.00     0.164 HD
BRANCH  11  23
HETATM   23  C5  UNL     1      -8.092  18.690  22.640  1.00  0.00     0.162 C 
BRANCH  23  24
HETATM   24  C4  UNL     1      -7.372  18.627  21.312  1.00  0.00     0.225 C 
HETATM   25  N1  UNL     1      -5.990  18.320  21.347  1.00  0.00    -0.357 N 
HETATM   26  C3  UNL     1      -5.328  18.086  22.604  1.00  0.00     0.152 C 
HETATM   27  O1  UNL     1      -7.979  18.840  20.230  1.00  0.00    -0.273 OA
BRANCH  25  28
HETATM   28  C2  UNL     1      -5.287  18.255  20.080  1.00  0.00     0.120 C 
HETATM   29  C1  UNL     1      -3.963  17.521  20.212  1.00  0.00     0.026 C 
ENDBRANCH  25  28
ENDBRANCH  23  24
ENDBRANCH  11  23
BRANCH  21  30
HETATM   30  C9  UNL     1     -14.891  16.825  19.635  1.00  0.00     0.086 C 
HETATM   31  C10 UNL     1     -15.262  17.130  18.225  1.00  0.00     0.025 C 
HETATM   32  C11 UNL     1     -14.715  16.128  17.231  1.00  0.00     0.002 C 
HETATM   33  C12 UNL     1     -15.030  14.709  17.560  1.00  0.00     0.000 C 
HETATM   34  C13 UNL     1     -15.306  14.513  19.048  1.00  0.00     0.002 C 
HETATM   35  C14 UNL     1     -14.314  15.406  19.769  1.00  0.00     0.025 C 
ENDBRANCH  21  30
ENDBRANCH   1  10
TORSDOF 5
ENDMDL
MODEL 3
REMARK VINA RESULT: -7.635564905      1.498      1.948
REMARK  5 active torsions:
REMARK  status: ('A' for Active; 'I' for Inactive)
REMARK    1  A    between atoms: C2_2  and  N1_3 
REMARK       I    between atoms: N1_3  and  C4_5 
REMARK    2  A    between atoms: C4_5  and  C5_7 
REMARK    3  A    between atoms: C5_7  and  C6_8 
REMARK       I    between atoms: N4_14  and  C8_16 
REMARK       I    between atoms: C8_16  and  N5_18 
REMARK    4  A    between atoms: N5_18  and  C9_20 
REMARK    5  A    between atoms: C15_26  and  C16_27 
ROOT
HETATM    1  C16 UNL     1      -9.927  21.083  22.043  1.00  0.00     0.070 A 
HETATM    2  N6  UNL     1      -9.205  21.849  21.171  1.00  0.00    -0.362 N 
ATOM      3  H6  UNL     1      -8.775  21.493  20.317  1.00  0.00     0.165 HD
HETATM    4  C17 UNL     1      -9.134  23.124  21.577  1.00  0.00     0.114 A 
HETATM    5  C18 UNL     1      -9.816  23.253  22.754  1.00  0.00     0.072 A 
HETATM    6 CL1  UNL     1     -10.045  24.701  23.731  1.00  0.00    -0.081 Cl
HETATM    7  C19 UNL     1     -10.302  21.957  23.024  1.00  0.00     0.095 A 
HETATM    8  C20 UNL     1     -11.030  21.689  24.245  1.00  0.00     0.103 C 
HETATM    9  N7  UNL     1     -11.589  21.494  25.247  1.00  0.00    -0.191 NA
ENDROOT
BRANCH   1  10
HETATM   10  C15 UNL     1     -10.129  19.635  21.968  1.00  0.00     0.062 A 
HETATM   11  C6  UNL     1      -9.143  18.655  21.973  1.00  0.00     0.051 A 
HETATM   12  N2  UNL     1      -9.738  17.478  21.779  1.00  0.00    -0.302 N 
HETATM   13  N3  UNL     1     -11.005  17.647  21.656  1.00  0.00    -0.284 N 
ATOM     14  H2  UNL     1      -9.260  16.578  21.735  1.00  0.00     0.186 HD
HETATM   15  C7  UNL     1     -11.317  18.949  21.760  1.00  0.00     0.138 A 
ATOM     16  H3  UNL     1     -11.679  16.898  21.501  1.00  0.00     0.188 HD
HETATM   17  N4  UNL     1     -12.512  19.413  21.628  1.00  0.00    -0.293 N 
HETATM   18  C8  UNL     1     -13.587  18.539  21.357  1.00  0.00     0.322 C 
ATOM     19  H4  UNL     1     -12.681  20.415  21.719  1.00  0.00     0.172 HD
HETATM   20  O2  UNL     1     -14.498  18.418  22.213  1.00  0.00    -0.247 OA
HETATM   21  N5  UNL     1     -13.667  17.800  20.157  1.00  0.00    -0.338 N 
ATOM     22  H5  UNL     1     -12.915  17.915  19.477  1.00  0.00     0.164 HD
BRANCH  11  23
HETATM   23  C5  UNL     1      -7.685  18.786  22.182  1.00  0.00     0.162 C 
BRANCH  23  24
HETATM   24  C4  UNL     1      -7.478  18.961  23.669  1.00  0.00     0.225 C 
HETATM   25  N1  UNL     1      -6.763  20.111  24.085  1.00  0.00    -0.357 N 
HETATM   26  C3  UNL     1      -6.267  21.051  23.113  1.00  0.00     0.152 C 
HETATM   27  O1  UNL     1      -7.922  18.121  24.494  1.00  0.00    -0.273 OA
BRANCH  25  28
HETATM   28  C2  UNL     1      -6.559  20.293  25.509  1.00  0.00     0.120 C 
HETATM   29  C1  UNL     1      -5.151  19.902  25.928  1.00  0.00     0.026 C 
ENDBRANCH  25  28
ENDBRANCH  23  24
ENDBRANCH  11  23
BRANCH  21  30
HETATM   30  C9  UNL     1     -14.730  16.899  19.826  1.00  0.00     0.086 C 
HETATM   31  C10 UNL     1     -15.262  17.035  18.442  1.00  0.00     0.025 C 
HETATM   32  C11 UNL     1     -14.877  15.884  17.537  1.00  0.00     0.002 C 
HETATM   33  C12 UNL     1     -15.198  14.538  18.093  1.00  0.00     0.000 C 
HETATM   34  C13 UNL     1     -15.294  14.555  19.615  1.00  0.00     0.002 C 
HETATM   35  C14 UNL     1     -14.190  15.483  20.084  1.00  0.00     0.025 C 
ENDBRANCH  21  30
ENDBRANCH   1  10
TORSDOF 5
ENDMDL
MODEL 4
REMARK VINA RESULT: -7.607109749      1.310      2.112
REMARK  5 active torsions:
REMARK  status: ('A' for Active; 'I' for Inactive)
REMARK    1  A    between atoms: C2_2  and  N1_3 
REMARK       I    between atoms: N1_3  and  C4_5 
REMARK    2  A    between atoms: C4_5  and  C5_7 
REMARK    3  A    between atoms: C5_7  and  C6_8 
REMARK       I    between atoms: N4_14  and  C8_16 
REMARK       I    between atoms: C8_16  and  N5_18 
REMARK    4  A    between atoms: N5_18  and  C9_20 
REMARK    5  A    between atoms: C15_26  and  C16_27 
ROOT
HETATM    1  C16 UNL     1     -10.322  20.692  22.768  1.00  0.00     0.070 A 
HETATM    2  N6  UNL     1     -10.675  20.994  24.053  1.00  0.00    -0.362 N 
ATOM      3  H6  UNL     1     -10.948  20.302  24.750  1.00  0.00     0.165 HD
HETATM    4  C17 UNL     1     -10.619  22.314  24.282  1.00  0.00     0.114 A 
HETATM    5  C18 UNL     1     -10.220  22.946  23.138  1.00  0.00     0.072 A 
HETATM    6 CL1  UNL     1      -9.980  24.670  22.869  1.00  0.00    -0.081 Cl
HETATM    7  C19 UNL     1     -10.042  21.904  22.203  1.00  0.00     0.095 A 
HETATM    8  C20 UNL     1      -9.678  22.205  20.835  1.00  0.00     0.103 C 
HETATM    9  N7  UNL     1      -9.412  22.474  19.735  1.00  0.00    -0.191 NA
ENDROOT
BRANCH   1  10
HETATM   10  C15 UNL     1     -10.361  19.369  22.143  1.00  0.00     0.062 A 
HETATM   11  C6  UNL     1      -9.281  18.655  21.638  1.00  0.00     0.051 A 
HETATM   12  N2  UNL     1      -9.756  17.551  21.059  1.00  0.00    -0.302 N 
HETATM   13  N3  UNL     1     -11.035  17.523  21.165  1.00  0.00    -0.284 N 
ATOM     14  H2  UNL     1      -9.190  16.837  20.602  1.00  0.00     0.186 HD
HETATM   15  C7  UNL     1     -11.477  18.610  21.819  1.00  0.00     0.138 A 
ATOM     16  H3  UNL     1     -11.632  16.780  20.803  1.00  0.00     0.188 HD
HETATM   17  N4  UNL     1     -12.723  18.866  22.026  1.00  0.00    -0.293 N 
HETATM   18  C8  UNL     1     -13.717  17.981  21.556  1.00  0.00     0.322 C 
ATOM     19  H4  UNL     1     -12.991  19.712  22.531  1.00  0.00     0.172 HD
HETATM   20  O2  UNL     1     -14.438  17.384  22.393  1.00  0.00    -0.247 OA
HETATM   21  N5  UNL     1     -13.923  17.749  20.179  1.00  0.00    -0.338 N 
ATOM     22  H5  UNL     1     -13.324  18.245  19.520  1.00  0.00     0.164 HD
BRANCH  11  23
HETATM   23  C5  UNL     1      -7.835  18.957  21.708  1.00  0.00     0.162 C 
BRANCH  23  24
HETATM   24  C4  UNL     1      -7.346  18.414  23.031  1.00  0.00     0.225 C 
HETATM   25  N1  UNL     1      -5.980  18.621  23.343  1.00  0.00    -0.357 N 
HETATM   26  C3  UNL     1      -5.121  19.320  22.422  1.00  0.00     0.152 C 
HETATM   27  O1  UNL     1      -8.121  17.806  23.814  1.00  0.00    -0.273 OA
BRANCH  25  28
HETATM   28  C2  UNL     1      -5.497  18.108  24.610  1.00  0.00     0.120 C 
HETATM   29  C1  UNL     1      -4.349  17.130  24.418  1.00  0.00     0.026 C 
ENDBRANCH  25  28
ENDBRANCH  23  24
ENDBRANCH  11  23
BRANCH  21  30
HETATM   30  C9  UNL     1     -14.913  16.864  19.643  1.00  0.00     0.086 C 
HETATM   31  C10 UNL     1     -15.312  17.145  18.236  1.00  0.00     0.025 C 
HETATM   32  C11 UNL     1     -14.797  16.117  17.251  1.00  0.00     0.002 C 
HETATM   33  C12 UNL     1     -15.118  14.708  17.616  1.00  0.00     0.000 C 
HETATM   34  C13 UNL     1     -15.363  14.545  19.114  1.00  0.00     0.002 C 
HETATM   35  C14 UNL     1     -14.346  15.443  19.794  1.00  0.00     0.025 C 
ENDBRANCH  21  30
ENDBRANCH   1  10
TORSDOF 5
ENDMDL
MODEL 5
REMARK VINA RESULT: -7.221106652      2.167      2.726
REMARK  5 active torsions:
REMARK  status: ('A' for Active; 'I' for Inactive)
REMARK    1  A    between atoms: C2_2  and  N1_3 
REMARK       I    between atoms: N1_3  and  C4_5 
REMARK    2  A    between atoms: C4_5  and  C5_7 
REMARK    3  A    between atoms: C5_7  and  C6_8 
REMARK       I    between atoms: N4_14  and  C8_16 
REMARK       I    between atoms: C8_16  and  N5_18 
REMARK    4  A    between atoms: N5_18  and  C9_20 
REMARK    5  A    between atoms: C15_26  and  C16_27 
ROOT
HETATM    1  C16 UNL     1      -9.811  20.295  22.369  1.00  0.00     0.070 A 
HETATM    2  N6  UNL     1      -9.368  20.338  23.661  1.00  0.00    -0.362 N 
ATOM      3  H6  UNL     1      -9.021  19.528  24.176  1.00  0.00     0.165 HD
HETATM    4  C17 UNL     1      -9.447  21.577  24.168  1.00  0.00     0.114 A 
HETATM    5  C18 UNL     1      -9.955  22.414  23.216  1.00  0.00     0.072 A 
HETATM    6 CL1  UNL     1     -10.272  24.142  23.338  1.00  0.00    -0.081 Cl
HETATM    7  C19 UNL     1     -10.175  21.584  22.097  1.00  0.00     0.095 A 
HETATM    8  C20 UNL     1     -10.779  22.121  20.897  1.00  0.00     0.103 C 
HETATM    9  N7  UNL     1     -11.291  22.570  19.954  1.00  0.00    -0.191 NA
ENDROOT
BRANCH   1  10
HETATM   10  C15 UNL     1      -9.956  19.099  21.538  1.00  0.00     0.062 A 
HETATM   11  C6  UNL     1      -9.001  18.554  20.689  1.00  0.00     0.051 A 
HETATM   12  N2  UNL     1      -9.566  17.537  20.038  1.00  0.00    -0.302 N 
HETATM   13  N3  UNL     1     -10.787  17.408  20.413  1.00  0.00    -0.284 N 
ATOM     14  H2  UNL     1      -9.100  16.951  19.346  1.00  0.00     0.186 HD
HETATM   15  C7  UNL     1     -11.097  18.335  21.333  1.00  0.00     0.138 A 
ATOM     16  H3  UNL     1     -11.432  16.700  20.060  1.00  0.00     0.188 HD
HETATM   17  N4  UNL     1     -12.270  18.471  21.849  1.00  0.00    -0.293 N 
HETATM   18  C8  UNL     1     -13.322  17.616  21.455  1.00  0.00     0.322 C 
ATOM     19  H4  UNL     1     -12.438  19.198  22.545  1.00  0.00     0.172 HD
HETATM   20  O2  UNL     1     -13.820  16.838  22.306  1.00  0.00    -0.247 OA
HETATM   21  N5  UNL     1     -13.828  17.610  20.137  1.00  0.00    -0.338 N 
ATOM     22  H5  UNL     1     -13.406  18.250  19.464  1.00  0.00     0.164 HD
BRANCH  11  23
HETATM   23  C5  UNL     1      -7.585  18.934  20.496  1.00  0.00     0.162 C 
BRANCH  23  24
HETATM   24  C4  UNL     1      -7.319  18.865  19.009  1.00  0.00     0.225 C 
HETATM   25  N1  UNL     1      -7.391  20.082  18.288  1.00  0.00    -0.357 N 
HETATM   26  C3  UNL     1      -7.706  21.312  18.967  1.00  0.00     0.152 C 
HETATM   27  O1  UNL     1      -7.049  17.773  18.444  1.00  0.00    -0.273 OA
BRANCH  25  28
HETATM   28  C2  UNL     1      -7.136  20.030  16.862  1.00  0.00     0.120 C 
HETATM   29  C1  UNL     1      -8.428  19.974  16.063  1.00  0.00     0.026 C 
ENDBRANCH  25  28
ENDBRANCH  23  24
ENDBRANCH  11  23
BRANCH  21  30
HETATM   30  C9  UNL     1     -14.890  16.768  19.678  1.00  0.00     0.086 C 
HETATM   31  C10 UNL     1     -15.346  17.031  18.285  1.00  0.00     0.025 C 
HETATM   32  C11 UNL     1     -14.938  15.949  17.307  1.00  0.00     0.002 C 
HETATM   33  C12 UNL     1     -15.317  14.571  17.730  1.00  0.00     0.000 C 
HETATM   34  C13 UNL     1     -15.492  14.464  19.242  1.00  0.00     0.002 C 
HETATM   35  C14 UNL     1     -14.395  15.321  19.843  1.00  0.00     0.025 C 
ENDBRANCH  21  30
ENDBRANCH   1  10
TORSDOF 5
ENDMDL
