MODEL 1
REMARK VINA RESULT: -8.246152419      0.000      0.000
REMARK  5 active torsions:
REMARK  status: ('A' for Active; 'I' for Inactive)
REMARK       I    between atoms: N3_8  and  C4_10 
REMARK       I    between atoms: C4_10  and  N4_12 
REMARK    1  A    between atoms: N4_12  and  C5_14 
REMARK    2  A    between atoms: C5_14  and  C6_15 
REMARK       I    between atoms: C6_15  and  N5_17 
REMARK    3  A    between atoms: N5_17  and  C7_19 
REMARK    4  A    between atoms: C7_19  and  C8_20 
REMARK    5  A    between atoms: C8_20  and  N6_21 
ROOT
HETATM    1  C5  UNL     1     -11.121  19.518  20.058  1.00  0.00     0.115 C 
HETATM    2  C13 UNL     1     -12.155  20.590  20.301  1.00  0.00     0.043 C 
HETATM    3  C14 UNL     1     -11.802  21.671  21.230  1.00  0.00     0.028 C 
HETATM    4  C15 UNL     1     -11.191  21.197  22.523  1.00  0.00     0.033 C 
HETATM    5  C16 UNL     1     -12.273  20.982  23.572  1.00  0.00     0.032 C 
HETATM    6 CL1  UNL     1     -10.173  22.530  23.126  1.00  0.00    -0.120 Cl
HETATM    7  C17 UNL     1     -10.332  20.005  22.370  1.00  0.00     0.028 C 
HETATM    8  C18 UNL     1     -10.644  18.993  21.362  1.00  0.00     0.043 C 
ENDROOT
BRANCH   1   9
HETATM    9  N4  UNL     1     -11.891  18.418  19.428  1.00  0.00    -0.325 N 
HETATM   10  C4  UNL     1     -12.759  18.690  18.371  1.00  0.00     0.322 C 
HETATM   11  N3  UNL     1     -13.487  17.642  17.768  1.00  0.00    -0.292 N 
HETATM   12  O1  UNL     1     -12.931  19.832  17.918  1.00  0.00    -0.247 OA
HETATM   13  C3  UNL     1     -14.215  16.864  18.481  1.00  0.00     0.148 A 
ATOM     14  H3  UNL     1     -13.435  17.503  16.759  1.00  0.00     0.172 HD
HETATM   15  N2  UNL     1     -14.452  16.827  19.793  1.00  0.00    -0.284 N 
HETATM   16  C19 UNL     1     -14.963  15.802  17.928  1.00  0.00     0.103 A 
HETATM   17  N1  UNL     1     -15.276  15.846  20.110  1.00  0.00    -0.302 N 
ATOM     18  H2  UNL     1     -14.047  17.476  20.467  1.00  0.00     0.188 HD
HETATM   19  C2  UNL     1     -15.599  15.210  18.978  1.00  0.00     0.047 A 
ATOM     20  H1  UNL     1     -15.607  15.616  21.046  1.00  0.00     0.186 HD
HETATM   21  C1  UNL     1     -16.513  14.023  18.831  1.00  0.00     0.071 C 
HETATM   22 CL2  UNL     1     -15.011  15.394  16.212  1.00  0.00    -0.078 Cl
ATOM     23  H4  UNL     1     -11.785  17.462  19.767  1.00  0.00     0.165 HD
ENDBRANCH   1   9
BRANCH   1  24
HETATM   24  C6  UNL     1     -10.049  19.971  19.161  1.00  0.00     0.246 C 
HETATM   25  O2  UNL     1      -9.867  21.239  19.063  1.00  0.00    -0.271 OA
HETATM   26  N5  UNL     1      -9.188  19.180  18.390  1.00  0.00    -0.357 N 
ATOM     27  H5  UNL     1      -9.276  18.164  18.421  1.00  0.00     0.162 HD
BRANCH  26  28
HETATM   28  C7  UNL     1      -8.180  19.780  17.551  1.00  0.00     0.152 C 
BRANCH  28  29
HETATM   29  C8  UNL     1      -7.637  18.801  16.534  1.00  0.00     0.292 C 
BRANCH  29  30
HETATM   30  N6  UNL     1      -7.690  19.362  15.201  1.00  0.00     0.090 N 
HETATM   31  C9  UNL     1      -8.983  19.072  14.566  1.00  0.00     0.272 C 
HETATM   32  C10 UNL     1      -9.097  20.124  13.458  1.00  0.00     0.032 C 
HETATM   33  C11 UNL     1      -8.075  21.167  13.836  1.00  0.00     0.032 C 
HETATM   34  C12 UNL     1      -7.760  20.810  15.274  1.00  0.00     0.272 C 
ENDBRANCH  29  30
ENDBRANCH  28  29
ENDBRANCH  26  28
ENDBRANCH   1  24
TORSDOF 5
ENDMDL
MODEL 2
REMARK VINA RESULT: -8.244454597      2.990      5.959
REMARK  5 active torsions:
REMARK  status: ('A' for Active; 'I' for Inactive)
REMARK       I    between atoms: N3_8  and  C4_10 
REMARK       I    between atoms: C4_10  and  N4_12 
REMARK    1  A    between atoms: N4_12  and  C5_14 
REMARK    2  A    between atoms: C5_14  and  C6_15 
REMARK       I    between atoms: C6_15  and  N5_17 
REMARK    3  A    between atoms: N5_17  and  C7_19 
REMARK    4  A    between atoms: C7_19  and  C8_20 
REMARK    5  A    between atoms: C8_20  and  N6_21 
ROOT
HETATM    1  C5  UNL     1     -10.445  19.101  20.968  1.00  0.00     0.115 C 
HETATM    2  C13 UNL     1      -9.682  18.121  21.826  1.00  0.00     0.043 C 
HETATM    3  C14 UNL     1      -8.458  18.604  22.478  1.00  0.00     0.028 C 
HETATM    4  C15 UNL     1      -7.534  19.367  21.565  1.00  0.00     0.033 C 
HETATM    5  C16 UNL     1      -6.526  18.424  20.924  1.00  0.00     0.032 C 
HETATM    6 CL1  UNL     1      -6.593  20.473  22.600  1.00  0.00    -0.120 Cl
HETATM    7  C17 UNL     1      -8.240  20.183  20.556  1.00  0.00     0.028 C 
HETATM    8  C18 UNL     1      -9.514  19.732  20.000  1.00  0.00     0.043 C 
ENDROOT
BRANCH   1   9
HETATM    9  N4  UNL     1     -11.351  18.241  20.167  1.00  0.00    -0.325 N 
HETATM   10  C4  UNL     1     -12.227  18.817  19.248  1.00  0.00     0.322 C 
HETATM   11  N3  UNL     1     -13.085  17.998  18.482  1.00  0.00    -0.292 N 
HETATM   12  O1  UNL     1     -12.296  20.041  19.058  1.00  0.00    -0.247 OA
HETATM   13  C3  UNL     1     -13.862  17.156  19.058  1.00  0.00     0.148 A 
ATOM     14  H3  UNL     1     -13.088  18.077  17.466  1.00  0.00     0.172 HD
HETATM   15  N2  UNL     1     -14.049  16.858  20.345  1.00  0.00    -0.284 N 
HETATM   16  C19 UNL     1     -14.739  16.315  18.340  1.00  0.00     0.103 A 
HETATM   17  N1  UNL     1     -14.959  15.914  20.496  1.00  0.00    -0.302 N 
ATOM     18  H2  UNL     1     -13.551  17.304  21.115  1.00  0.00     0.188 HD
HETATM   19  C2  UNL     1     -15.391  15.572  19.278  1.00  0.00     0.047 A 
ATOM     20  H1  UNL     1     -15.275  15.519  21.381  1.00  0.00     0.186 HD
HETATM   21  C1  UNL     1     -16.431  14.537  18.939  1.00  0.00     0.071 C 
HETATM   22 CL2  UNL     1     -14.898  16.295  16.582  1.00  0.00    -0.078 Cl
ATOM     23  H4  UNL     1     -11.334  17.228  20.290  1.00  0.00     0.165 HD
ENDBRANCH   1   9
BRANCH   1  24
HETATM   24  C6  UNL     1     -11.221  20.056  21.769  1.00  0.00     0.246 C 
HETATM   25  O2  UNL     1     -11.096  21.301  21.474  1.00  0.00    -0.271 OA
HETATM   26  N5  UNL     1     -12.093  19.776  22.827  1.00  0.00    -0.357 N 
ATOM     27  H5  UNL     1     -12.241  18.807  23.113  1.00  0.00     0.162 HD
BRANCH  26  28
HETATM   28  C7  UNL     1     -12.785  20.834  23.520  1.00  0.00     0.152 C 
BRANCH  28  29
HETATM   29  C8  UNL     1     -12.000  21.335  24.713  1.00  0.00     0.292 C 
BRANCH  29  30
HETATM   30  N6  UNL     1     -11.831  22.771  24.651  1.00  0.00     0.090 N 
HETATM   31  C9  UNL     1     -12.223  23.395  25.923  1.00  0.00     0.272 C 
HETATM   32  C10 UNL     1     -11.517  24.755  25.901  1.00  0.00     0.032 C 
HETATM   33  C11 UNL     1     -10.461  24.603  24.834  1.00  0.00     0.032 C 
HETATM   34  C12 UNL     1     -10.419  23.103  24.628  1.00  0.00     0.272 C 
ENDBRANCH  29  30
ENDBRANCH  28  29
ENDBRANCH  26  28
ENDBRANCH   1  24
TORSDOF 5
ENDMDL
MODEL 3
REMARK VINA RESULT: -8.081613865      2.718      6.035
REMARK  5 active torsions:
REMARK  status: ('A' for Active; 'I' for Inactive)
REMARK       I    between atoms: N3_8  and  C4_10 
REMARK       I    between atoms: C4_10  and  N4_12 
REMARK    1  A    between atoms: N4_12  and  C5_14 
REMARK    2  A    between atoms: C5_14  and  C6_15 
REMARK       I    between atoms: C6_15  and  N5_17 
REMARK    3  A    between atoms: N5_17  and  C7_19 
REMARK    4  A    between atoms: C7_19  and  C8_20 
REMARK    5  A    between atoms: C8_20  and  N6_21 
ROOT
HETATM    1  C5  UNL     1      -9.936  18.952  20.241  1.00  0.00     0.115 C 
HETATM    2  C13 UNL     1      -8.962  17.889  20.689  1.00  0.00     0.043 C 
HETATM    3  C14 UNL     1      -7.611  18.326  21.064  1.00  0.00     0.028 C 
HETATM    4  C15 UNL     1      -6.974  19.273  20.081  1.00  0.00     0.033 C 
HETATM    5  C16 UNL     1      -6.170  18.500  19.046  1.00  0.00     0.032 C 
HETATM    6 CL1  UNL     1      -5.797  20.247  21.000  1.00  0.00    -0.120 Cl
HETATM    7  C17 UNL     1      -7.933  20.202  19.448  1.00  0.00     0.028 C 
HETATM    8  C18 UNL     1      -9.307  19.778  19.182  1.00  0.00     0.043 C 
ENDROOT
BRANCH   1   9
HETATM    9  N4  UNL     1     -11.019  18.185  19.577  1.00  0.00    -0.325 N 
HETATM   10  C4  UNL     1     -12.081  18.857  18.976  1.00  0.00     0.322 C 
HETATM   11  N3  UNL     1     -13.108  18.127  18.339  1.00  0.00    -0.292 N 
HETATM   12  O1  UNL     1     -12.178  20.094  18.966  1.00  0.00    -0.247 OA
HETATM   13  C3  UNL     1     -13.735  17.204  18.970  1.00  0.00     0.148 A 
ATOM     14  H3  UNL     1     -13.353  18.335  17.371  1.00  0.00     0.172 HD
HETATM   15  N2  UNL     1     -13.613  16.741  20.215  1.00  0.00    -0.284 N 
HETATM   16  C19 UNL     1     -14.770  16.446  18.381  1.00  0.00     0.103 A 
HETATM   17  N1  UNL     1     -14.472  15.769  20.457  1.00  0.00    -0.302 N 
ATOM     18  H2  UNL     1     -12.940  17.095  20.894  1.00  0.00     0.188 HD
HETATM   19  C2  UNL     1     -15.188  15.577  19.344  1.00  0.00     0.047 A 
ATOM     20  H1  UNL     1     -14.572  15.258  21.334  1.00  0.00     0.186 HD
HETATM   21  C1  UNL     1     -16.291  14.575  19.133  1.00  0.00     0.071 C 
HETATM   22 CL2  UNL     1     -15.345  16.647  16.724  1.00  0.00    -0.078 Cl
ATOM     23  H4  UNL     1     -10.985  17.165  19.561  1.00  0.00     0.165 HD
ENDBRANCH   1   9
BRANCH   1  24
HETATM   24  C6  UNL     1     -10.474  19.725  21.369  1.00  0.00     0.246 C 
HETATM   25  O2  UNL     1     -10.989  19.058  22.339  1.00  0.00    -0.271 OA
HETATM   26  N5  UNL     1     -10.496  21.116  21.519  1.00  0.00    -0.357 N 
ATOM     27  H5  UNL     1     -10.101  21.707  20.787  1.00  0.00     0.162 HD
BRANCH  26  28
HETATM   28  C7  UNL     1     -11.066  21.728  22.694  1.00  0.00     0.152 C 
BRANCH  28  29
HETATM   29  C8  UNL     1     -10.010  22.071  23.722  1.00  0.00     0.292 C 
BRANCH  29  30
HETATM   30  N6  UNL     1     -10.612  22.647  24.905  1.00  0.00     0.090 N 
HETATM   31  C9  UNL     1     -10.738  24.104  24.766  1.00  0.00     0.272 C 
HETATM   32  C10 UNL     1     -11.818  24.482  25.785  1.00  0.00     0.032 C 
HETATM   33  C11 UNL     1     -12.500  23.173  26.099  1.00  0.00     0.032 C 
HETATM   34  C12 UNL     1     -12.012  22.275  24.981  1.00  0.00     0.272 C 
ENDBRANCH  29  30
ENDBRANCH  28  29
ENDBRANCH  26  28
ENDBRANCH   1  24
TORSDOF 5
ENDMDL
MODEL 4
REMARK VINA RESULT: -8.018332473      1.034      1.549
REMARK  5 active torsions:
REMARK  status: ('A' for Active; 'I' for Inactive)
REMARK       I    between atoms: N3_8  and  C4_10 
REMARK       I    between atoms: C4_10  and  N4_12 
REMARK    1  A    between atoms: N4_12  and  C5_14 
REMARK    2  A    between atoms: C5_14  and  C6_15 
REMARK       I    between atoms: C6_15  and  N5_17 
REMARK    3  A    between atoms: N5_17  and  C7_19 
REMARK    4  A    between atoms: C7_19  and  C8_20 
REMARK    5  A    between atoms: C8_20  and  N6_21 
ROOT
HETATM    1  C5  UNL     1     -10.989  19.433  20.250  1.00  0.00     0.115 C 
HETATM    2  C13 UNL     1     -11.912  20.627  20.262  1.00  0.00     0.043 C 
HETATM    3  C14 UNL     1     -11.571  21.735  21.163  1.00  0.00     0.028 C 
HETATM    4  C15 UNL     1     -11.215  21.304  22.563  1.00  0.00     0.033 C 
HETATM    5  C16 UNL     1     -12.456  21.294  23.444  1.00  0.00     0.032 C 
HETATM    6 CL1  UNL     1     -10.143  22.563  23.227  1.00  0.00    -0.120 Cl
HETATM    7  C17 UNL     1     -10.492  20.018  22.619  1.00  0.00     0.028 C 
HETATM    8  C18 UNL     1     -10.773  18.967  21.642  1.00  0.00     0.043 C 
ENDROOT
BRANCH   1   9
HETATM    9  N4  UNL     1     -11.787  18.375  19.581  1.00  0.00    -0.325 N 
HETATM   10  C4  UNL     1     -12.648  18.707  18.536  1.00  0.00     0.322 C 
HETATM   11  N3  UNL     1     -13.401  17.700  17.896  1.00  0.00    -0.292 N 
HETATM   12  O1  UNL     1     -12.793  19.868  18.125  1.00  0.00    -0.247 OA
HETATM   13  C3  UNL     1     -14.147  16.913  18.581  1.00  0.00     0.148 A 
ATOM     14  H3  UNL     1     -13.353  17.596  16.882  1.00  0.00     0.172 HD
HETATM   15  N2  UNL     1     -14.385  16.835  19.891  1.00  0.00    -0.284 N 
HETATM   16  C19 UNL     1     -14.922  15.891  17.990  1.00  0.00     0.103 A 
HETATM   17  N1  UNL     1     -15.233  15.863  20.172  1.00  0.00    -0.302 N 
ATOM     18  H2  UNL     1     -13.964  17.449  20.588  1.00  0.00     0.188 HD
HETATM   19  C2  UNL     1     -15.571  15.277  19.019  1.00  0.00     0.047 A 
ATOM     20  H1  UNL     1     -15.569  15.607  21.100  1.00  0.00     0.186 HD
HETATM   21  C1  UNL     1     -16.513  14.119  18.830  1.00  0.00     0.071 C 
HETATM   22 CL2  UNL     1     -14.980  15.547  16.260  1.00  0.00    -0.078 Cl
ATOM     23  H4  UNL     1     -11.704  17.405  19.885  1.00  0.00     0.165 HD
ENDBRANCH   1   9
BRANCH   1  24
HETATM   24  C6  UNL     1      -9.752  19.691  19.501  1.00  0.00     0.246 C 
HETATM   25  O2  UNL     1      -8.690  19.091  19.905  1.00  0.00    -0.271 OA
HETATM   26  N5  UNL     1      -9.584  20.522  18.387  1.00  0.00    -0.357 N 
ATOM     27  H5  UNL     1     -10.387  21.028  18.013  1.00  0.00     0.162 HD
BRANCH  26  28
HETATM   28  C7  UNL     1      -8.295  20.673  17.761  1.00  0.00     0.152 C 
BRANCH  28  29
HETATM   29  C8  UNL     1      -8.300  20.180  16.331  1.00  0.00     0.292 C 
BRANCH  29  30
HETATM   30  N6  UNL     1      -8.181  18.738  16.284  1.00  0.00     0.090 N 
HETATM   31  C9  UNL     1      -7.939  18.282  14.908  1.00  0.00     0.272 C 
HETATM   32  C10 UNL     1      -7.326  16.888  15.082  1.00  0.00     0.032 C 
HETATM   33  C11 UNL     1      -6.886  16.858  16.525  1.00  0.00     0.032 C 
HETATM   34  C12 UNL     1      -6.942  18.322  16.913  1.00  0.00     0.272 C 
ENDBRANCH  29  30
ENDBRANCH  28  29
ENDBRANCH  26  28
ENDBRANCH   1  24
TORSDOF 5
ENDMDL
MODEL 5
REMARK VINA RESULT: -7.939966852      2.927      4.767
REMARK  5 active torsions:
REMARK  status: ('A' for Active; 'I' for Inactive)
REMARK       I    between atoms: N3_8  and  C4_10 
REMARK       I    between atoms: C4_10  and  N4_12 
REMARK    1  A    between atoms: N4_12  and  C5_14 
REMARK    2  A    between atoms: C5_14  and  C6_15 
REMARK       I    between atoms: C6_15  and  N5_17 
REMARK    3  A    between atoms: N5_17  and  C7_19 
REMARK    4  A    between atoms: C7_19  and  C8_20 
REMARK    5  A    between atoms: C8_20  and  N6_21 
ROOT
HETATM    1  C5  UNL     1     -10.784  19.498  20.512  1.00  0.00     0.115 C 
HETATM    2  C13 UNL     1     -10.241  20.370  19.407  1.00  0.00     0.043 C 
HETATM    3  C14 UNL     1      -9.677  21.671  19.789  1.00  0.00     0.028 C 
HETATM    4  C15 UNL     1     -10.540  22.463  20.737  1.00  0.00     0.033 C 
HETATM    5  C16 UNL     1     -11.479  23.375  19.961  1.00  0.00     0.032 C 
HETATM    6 CL1  UNL     1      -9.446  23.535  21.649  1.00  0.00    -0.120 Cl
HETATM    7  C17 UNL     1     -11.269  21.626  21.712  1.00  0.00     0.028 C 
HETATM    8  C18 UNL     1     -11.727  20.288  21.342  1.00  0.00     0.043 C 
ENDROOT
BRANCH   1   9
HETATM    9  N4  UNL     1     -11.607  18.491  19.798  1.00  0.00    -0.325 N 
HETATM   10  C4  UNL     1     -12.513  18.898  18.820  1.00  0.00     0.322 C 
HETATM   11  N3  UNL     1     -13.292  17.940  18.136  1.00  0.00    -0.292 N 
HETATM   12  O1  UNL     1     -12.677  20.087  18.506  1.00  0.00    -0.247 OA
HETATM   13  C3  UNL     1     -14.006  17.099  18.789  1.00  0.00     0.148 A 
ATOM     14  H3  UNL     1     -13.286  17.915  17.116  1.00  0.00     0.172 HD
HETATM   15  N2  UNL     1     -14.188  16.919  20.098  1.00  0.00    -0.284 N 
HETATM   16  C19 UNL     1     -14.804  16.122  18.155  1.00  0.00     0.103 A 
HETATM   17  N1  UNL     1     -15.022  15.924  20.339  1.00  0.00    -0.302 N 
ATOM     18  H2  UNL     1     -13.739  17.479  20.822  1.00  0.00     0.188 HD
HETATM   19  C2  UNL     1     -15.407  15.427  19.159  1.00  0.00     0.047 A 
ATOM     20  H1  UNL     1     -15.317  15.596  21.258  1.00  0.00     0.186 HD
HETATM   21  C1  UNL     1     -16.355  14.282  18.921  1.00  0.00     0.071 C 
HETATM   22 CL2  UNL     1     -14.935  15.912  16.407  1.00  0.00    -0.078 Cl
ATOM     23  H4  UNL     1     -11.510  17.501  20.023  1.00  0.00     0.165 HD
ENDBRANCH   1   9
BRANCH   1  24
HETATM   24  C6  UNL     1      -9.717  18.837  21.276  1.00  0.00     0.246 C 
HETATM   25  O2  UNL     1      -8.974  18.004  20.640  1.00  0.00    -0.271 OA
HETATM   26  N5  UNL     1      -9.406  19.004  22.631  1.00  0.00    -0.357 N 
ATOM     27  H5  UNL     1      -9.955  19.652  23.196  1.00  0.00     0.162 HD
BRANCH  26  28
HETATM   28  C7  UNL     1      -8.321  18.275  23.239  1.00  0.00     0.152 C 
BRANCH  28  29
HETATM   29  C8  UNL     1      -7.404  19.183  24.030  1.00  0.00     0.292 C 
BRANCH  29  30
HETATM   30  N6  UNL     1      -6.020  18.955  23.672  1.00  0.00     0.090 N 
HETATM   31  C9  UNL     1      -5.421  17.933  24.541  1.00  0.00     0.272 C 
HETATM   32  C10 UNL     1      -4.211  17.434  23.746  1.00  0.00     0.032 C 
HETATM   33  C11 UNL     1      -4.477  17.904  22.338  1.00  0.00     0.032 C 
HETATM   34  C12 UNL     1      -5.944  18.279  22.391  1.00  0.00     0.272 C 
ENDBRANCH  29  30
ENDBRANCH  28  29
ENDBRANCH  26  28
ENDBRANCH   1  24
TORSDOF 5
ENDMDL
