MODEL 1
REMARK VINA RESULT: -7.101933772      0.000      0.000
REMARK  7 active torsions:
REMARK  status: ('A' for Active; 'I' for Inactive)
REMARK    1  A    between atoms: C2_2  and  C4_4 
REMARK    2  A    between atoms: C4_4  and  C5_5 
REMARK    3  A    between atoms: C5_5  and  C6_6 
REMARK       I    between atoms: N1_11  and  C9_12 
REMARK       I    between atoms: C9_12  and  N2_14 
REMARK    4  A    between atoms: N2_14  and  C10_16 
REMARK    5  A    between atoms: C13_19  and  N3_20 
REMARK       I    between atoms: N3_20  and  C14_22 
REMARK    6  A    between atoms: C14_22  and  C15_24 
REMARK    7  A    between atoms: C20_29  and  O3_30 
ROOT
HETATM    1  C5  UNL     1      -5.224  19.570  24.345  1.00  0.00     0.088 C 
HETATM    2  C7  UNL     1      -6.400  19.266  25.183  1.00  0.00     0.056 C 
HETATM    3  C8  UNL     1      -7.746  19.585  24.608  1.00  0.00     0.132 C 
HETATM    4  N1  UNL     1      -7.753  20.549  23.546  1.00  0.00    -0.318 N 
HETATM    5  C9  UNL     1      -8.927  20.826  22.836  1.00  0.00     0.319 C 
HETATM    6  O1  UNL     1      -8.887  21.691  21.897  1.00  0.00    -0.247 OA
HETATM    7  N2  UNL     1     -10.141  20.164  23.147  1.00  0.00    -0.338 N 
ATOM      8  H2  UNL     1     -10.146  19.478  23.902  1.00  0.00     0.164 HD
HETATM    9  C22 UNL     1      -6.527  21.260  23.189  1.00  0.00     0.246 C 
HETATM   10  N4  UNL     1      -5.466  20.309  23.140  1.00  0.00    -0.392 N 
ATOM     11  H4  UNL     1      -4.910  20.163  22.297  1.00  0.00     0.155 HD
ENDROOT
BRANCH   7  12
HETATM   12  C10 UNL     1     -11.377  20.426  22.430  1.00  0.00     0.088 C 
HETATM   13  C11 UNL     1     -11.349  19.697  21.127  1.00  0.00     0.027 C 
HETATM   14  C12 UNL     1     -11.782  18.251  21.258  1.00  0.00     0.030 C 
HETATM   15  C13 UNL     1     -13.239  18.155  21.661  1.00  0.00     0.113 C 
HETATM   16  C20 UNL     1     -13.676  19.412  22.399  1.00  0.00     0.142 C 
HETATM   17  C21 UNL     1     -12.548  19.973  23.234  1.00  0.00     0.059 C 
BRANCH  15  18
HETATM   18  N3  UNL     1     -14.123  17.845  20.571  1.00  0.00    -0.354 N 
HETATM   19  C14 UNL     1     -14.317  16.515  20.161  1.00  0.00     0.222 C 
HETATM   20  O2  UNL     1     -13.716  15.572  20.747  1.00  0.00    -0.273 OA
ATOM     21  H3  UNL     1     -14.614  18.599  20.091  1.00  0.00     0.163 HD
BRANCH  19  22
HETATM   22  C15 UNL     1     -15.227  16.150  19.029  1.00  0.00     0.078 C 
HETATM   23  C16 UNL     1     -15.078  14.667  18.708  1.00  0.00     0.014 C 
HETATM   24  C17 UNL     1     -15.586  14.616  17.277  1.00  0.00     0.001 C 
HETATM   25  C18 UNL     1     -14.773  15.764  16.667  1.00  0.00     0.001 C 
HETATM   26  C19 UNL     1     -14.777  16.819  17.753  1.00  0.00     0.014 C 
ENDBRANCH  19  22
ENDBRANCH  15  18
BRANCH  16  27
HETATM   27  O3  UNL     1     -14.792  19.114  23.138  1.00  0.00    -0.393 OA
ATOM     28  H3  UNL     1     -15.107  19.914  23.541  1.00  0.00     0.210 HD
ENDBRANCH  16  27
ENDBRANCH   7  12
BRANCH   1  29
HETATM   29  C4  UNL     1      -4.285  18.457  23.995  1.00  0.00     0.040 C 
BRANCH  29  30
HETATM   30  C2  UNL     1      -4.420  17.134  24.601  1.00  0.00    -0.020 C 
HETATM   31  C1  UNL     1      -3.620  16.869  25.836  1.00  0.00     0.009 C 
HETATM   32  C3  UNL     1      -3.988  16.047  23.580  1.00  0.00     0.009 C 
ENDBRANCH  29  30
ENDBRANCH   1  29
BRANCH   1  33
HETATM   33  C6  UNL     1      -4.308  20.524  25.196  1.00  0.00     0.380 C 
HETATM   34  F1  UNL     1      -4.717  20.545  26.502  1.00  0.00    -0.212 F 
HETATM   35  F2  UNL     1      -3.002  20.265  25.021  1.00  0.00    -0.212 F 
ENDBRANCH   1  33
TORSDOF 7
ENDMDL
MODEL 2
REMARK VINA RESULT: -7.033215999      6.157     10.310
REMARK  7 active torsions:
REMARK  status: ('A' for Active; 'I' for Inactive)
REMARK    1  A    between atoms: C2_2  and  C4_4 
REMARK    2  A    between atoms: C4_4  and  C5_5 
REMARK    3  A    between atoms: C5_5  and  C6_6 
REMARK       I    between atoms: N1_11  and  C9_12 
REMARK       I    between atoms: C9_12  and  N2_14 
REMARK    4  A    between atoms: N2_14  and  C10_16 
REMARK    5  A    between atoms: C13_19  and  N3_20 
REMARK       I    between atoms: N3_20  and  C14_22 
REMARK    6  A    between atoms: C14_22  and  C15_24 
REMARK    7  A    between atoms: C20_29  and  O3_30 
ROOT
HETATM    1  C5  UNL     1     -13.438  18.071  21.787  1.00  0.00     0.088 C 
HETATM    2  C7  UNL     1     -13.748  19.339  22.476  1.00  0.00     0.056 C 
HETATM    3  C8  UNL     1     -12.747  20.446  22.346  1.00  0.00     0.132 C 
HETATM    4  N1  UNL     1     -11.420  20.042  21.983  1.00  0.00    -0.318 N 
HETATM    5  C9  UNL     1     -10.434  20.993  21.696  1.00  0.00     0.319 C 
HETATM    6  O1  UNL     1      -9.265  20.588  21.375  1.00  0.00    -0.247 OA
HETATM    7  N2  UNL     1     -10.717  22.379  21.758  1.00  0.00    -0.338 N 
ATOM      8  H2  UNL     1     -11.657  22.677  22.017  1.00  0.00     0.164 HD
HETATM    9  C22 UNL     1     -11.077  18.623  21.907  1.00  0.00     0.246 C 
HETATM   10  N4  UNL     1     -12.128  17.953  21.214  1.00  0.00    -0.392 N 
ATOM     11  H4  UNL     1     -11.959  17.420  20.361  1.00  0.00     0.155 HD
ENDROOT
BRANCH   7  12
HETATM   12  C10 UNL     1      -9.718  23.393  21.465  1.00  0.00     0.088 C 
HETATM   13  C11 UNL     1      -9.923  23.892  20.073  1.00  0.00     0.027 C 
HETATM   14  C12 UNL     1     -10.981  24.973  19.989  1.00  0.00     0.030 C 
HETATM   15  C13 UNL     1     -10.542  26.220  20.728  1.00  0.00     0.113 C 
HETATM   16  C20 UNL     1      -9.533  25.875  21.813  1.00  0.00     0.142 C 
HETATM   17  C21 UNL     1      -9.833  24.526  22.427  1.00  0.00     0.059 C 
BRANCH  15  18
HETATM   18  N3  UNL     1     -10.059  27.263  19.866  1.00  0.00    -0.354 N 
HETATM   19  C14 UNL     1     -10.450  28.599  20.067  1.00  0.00     0.222 C 
HETATM   20  O2  UNL     1     -11.235  28.899  21.010  1.00  0.00    -0.273 OA
ATOM     21  H3  UNL     1      -9.424  27.033  19.102  1.00  0.00     0.163 HD
BRANCH  19  22
HETATM   22  C15 UNL     1      -9.972  29.715  19.191  1.00  0.00     0.078 C 
HETATM   23  C16 UNL     1      -8.511  30.021  19.501  1.00  0.00     0.014 C 
HETATM   24  C17 UNL     1      -8.386  31.445  18.986  1.00  0.00     0.001 C 
HETATM   25  C18 UNL     1      -9.610  32.078  19.660  1.00  0.00     0.001 C 
HETATM   26  C19 UNL     1     -10.671  31.003  19.549  1.00  0.00     0.014 C 
ENDBRANCH  19  22
ENDBRANCH  15  18
BRANCH  16  27
HETATM   27  O3  UNL     1      -9.521  26.891  22.733  1.00  0.00    -0.393 OA
ATOM     28  H3  UNL     1      -8.648  27.263  22.759  1.00  0.00     0.210 HD
ENDBRANCH  16  27
ENDBRANCH   7  12
BRANCH   1  29
HETATM   29  C4  UNL     1     -14.408  17.549  20.773  1.00  0.00     0.040 C 
BRANCH  29  30
HETATM   30  C2  UNL     1     -13.950  16.806  19.602  1.00  0.00    -0.020 C 
HETATM   31  C1  UNL     1     -13.985  17.521  18.289  1.00  0.00     0.009 C 
HETATM   32  C3  UNL     1     -14.829  15.540  19.412  1.00  0.00     0.009 C 
ENDBRANCH  29  30
ENDBRANCH   1  29
BRANCH   1  33
HETATM   33  C6  UNL     1     -13.470  16.949  22.889  1.00  0.00     0.380 C 
HETATM   34  F1  UNL     1     -14.612  17.045  23.639  1.00  0.00    -0.212 F 
HETATM   35  F2  UNL     1     -13.235  15.729  22.379  1.00  0.00    -0.212 F 
ENDBRANCH   1  33
TORSDOF 7
ENDMDL
MODEL 3
REMARK VINA RESULT: -6.852150496      6.758     10.554
REMARK  7 active torsions:
REMARK  status: ('A' for Active; 'I' for Inactive)
REMARK    1  A    between atoms: C2_2  and  C4_4 
REMARK    2  A    between atoms: C4_4  and  C5_5 
REMARK    3  A    between atoms: C5_5  and  C6_6 
REMARK       I    between atoms: N1_11  and  C9_12 
REMARK       I    between atoms: C9_12  and  N2_14 
REMARK    4  A    between atoms: N2_14  and  C10_16 
REMARK    5  A    between atoms: C13_19  and  N3_20 
REMARK       I    between atoms: N3_20  and  C14_22 
REMARK    6  A    between atoms: C14_22  and  C15_24 
REMARK    7  A    between atoms: C20_29  and  O3_30 
ROOT
HETATM    1  C5  UNL     1     -12.258  18.454  21.218  1.00  0.00     0.088 C 
HETATM    2  C7  UNL     1     -13.022  19.708  21.360  1.00  0.00     0.056 C 
HETATM    3  C8  UNL     1     -12.244  20.988  21.313  1.00  0.00     0.132 C 
HETATM    4  N1  UNL     1     -10.844  20.872  21.600  1.00  0.00    -0.318 N 
HETATM    5  C9  UNL     1      -9.988  21.970  21.452  1.00  0.00     0.319 C 
HETATM    6  O1  UNL     1      -8.747  21.821  21.718  1.00  0.00    -0.247 OA
HETATM    7  N2  UNL     1     -10.480  23.225  21.016  1.00  0.00    -0.338 N 
ATOM      8  H2  UNL     1     -11.475  23.317  20.811  1.00  0.00     0.164 HD
HETATM    9  C22 UNL     1     -10.289  19.599  22.055  1.00  0.00     0.246 C 
HETATM   10  N4  UNL     1     -10.828  18.565  21.235  1.00  0.00    -0.392 N 
ATOM     11  H4  UNL     1     -10.232  17.941  20.691  1.00  0.00     0.155 HD
ENDROOT
BRANCH   7  12
HETATM   12  C10 UNL     1      -9.620  24.384  20.850  1.00  0.00     0.088 C 
HETATM   13  C11 UNL     1      -9.976  25.076  19.575  1.00  0.00     0.027 C 
HETATM   14  C12 UNL     1     -11.148  26.022  19.732  1.00  0.00     0.030 C 
HETATM   15  C13 UNL     1     -10.796  27.175  20.649  1.00  0.00     0.113 C 
HETATM   16  C20 UNL     1      -9.681  26.780  21.606  1.00  0.00     0.142 C 
HETATM   17  C21 UNL     1      -9.789  25.323  21.995  1.00  0.00     0.059 C 
BRANCH  15  18
HETATM   18  N3  UNL     1     -10.491  28.396  19.955  1.00  0.00    -0.354 N 
HETATM   19  C14 UNL     1     -10.993  29.626  20.412  1.00  0.00     0.222 C 
HETATM   20  O2  UNL     1     -11.722  29.675  21.442  1.00  0.00    -0.273 OA
ATOM     21  H3  UNL     1      -9.903  28.368  19.122  1.00  0.00     0.163 HD
BRANCH  19  22
HETATM   22  C15 UNL     1     -10.702  30.920  19.717  1.00  0.00     0.078 C 
HETATM   23  C16 UNL     1      -9.996  31.871  20.677  1.00  0.00     0.014 C 
HETATM   24  C17 UNL     1     -10.290  33.217  20.037  1.00  0.00     0.001 C 
HETATM   25  C18 UNL     1     -11.805  33.088  19.836  1.00  0.00     0.001 C 
HETATM   26  C19 UNL     1     -11.984  31.649  19.400  1.00  0.00     0.014 C 
ENDBRANCH  19  22
ENDBRANCH  15  18
BRANCH  16  27
HETATM   27  O3  UNL     1      -9.714  27.625  22.684  1.00  0.00    -0.393 OA
ATOM     28  H3  UNL     1      -9.707  27.102  23.477  1.00  0.00     0.210 HD
ENDBRANCH  16  27
ENDBRANCH   7  12
BRANCH   1  29
HETATM   29  C4  UNL     1     -12.612  17.520  20.103  1.00  0.00     0.040 C 
BRANCH  29  30
HETATM   30  C2  UNL     1     -13.878  17.644  19.385  1.00  0.00    -0.020 C 
HETATM   31  C1  UNL     1     -14.849  16.514  19.523  1.00  0.00     0.009 C 
HETATM   32  C3  UNL     1     -13.604  17.776  17.863  1.00  0.00     0.009 C 
ENDBRANCH  29  30
ENDBRANCH   1  29
BRANCH   1  33
HETATM   33  C6  UNL     1     -12.583  17.590  22.492  1.00  0.00     0.380 C 
HETATM   34  F1  UNL     1     -13.501  18.228  23.283  1.00  0.00    -0.212 F 
HETATM   35  F2  UNL     1     -12.896  16.322  22.181  1.00  0.00    -0.212 F 
ENDBRANCH   1  33
TORSDOF 7
ENDMDL
MODEL 4
REMARK VINA RESULT: -6.789073031      5.180      6.976
REMARK  7 active torsions:
REMARK  status: ('A' for Active; 'I' for Inactive)
REMARK    1  A    between atoms: C2_2  and  C4_4 
REMARK    2  A    between atoms: C4_4  and  C5_5 
REMARK    3  A    between atoms: C5_5  and  C6_6 
REMARK       I    between atoms: N1_11  and  C9_12 
REMARK       I    between atoms: C9_12  and  N2_14 
REMARK    4  A    between atoms: N2_14  and  C10_16 
REMARK    5  A    between atoms: C13_19  and  N3_20 
REMARK       I    between atoms: N3_20  and  C14_22 
REMARK    6  A    between atoms: C14_22  and  C15_24 
REMARK    7  A    between atoms: C20_29  and  O3_30 
ROOT
HETATM    1  C5  UNL     1      -8.919  26.966  20.252  1.00  0.00     0.088 C 
HETATM    2  C7  UNL     1      -8.386  25.684  19.755  1.00  0.00     0.056 C 
HETATM    3  C8  UNL     1      -8.939  24.434  20.369  1.00  0.00     0.132 C 
HETATM    4  N1  UNL     1      -9.555  24.594  21.653  1.00  0.00    -0.318 N 
HETATM    5  C9  UNL     1     -10.229  23.530  22.264  1.00  0.00     0.319 C 
HETATM    6  O1  UNL     1     -10.764  23.718  23.409  1.00  0.00    -0.247 OA
HETATM    7  N2  UNL     1     -10.319  22.266  21.632  1.00  0.00    -0.338 N 
ATOM      8  H2  UNL     1      -9.882  22.141  20.719  1.00  0.00     0.164 HD
HETATM    9  C22 UNL     1      -9.487  25.879  22.347  1.00  0.00     0.246 C 
HETATM   10  N4  UNL     1      -9.777  26.906  21.401  1.00  0.00    -0.392 N 
ATOM     11  H4  UNL     1     -10.549  27.559  21.532  1.00  0.00     0.155 HD
ENDROOT
BRANCH   7  12
HETATM   12  C10 UNL     1     -11.012  21.140  22.236  1.00  0.00     0.088 C 
HETATM   13  C11 UNL     1     -12.370  21.019  21.627  1.00  0.00     0.027 C 
HETATM   14  C12 UNL     1     -12.357  20.254  20.320  1.00  0.00     0.030 C 
HETATM   15  C13 UNL     1     -11.962  18.808  20.541  1.00  0.00     0.113 C 
HETATM   16  C20 UNL     1     -11.124  18.667  21.803  1.00  0.00     0.142 C 
HETATM   17  C21 UNL     1     -10.247  19.880  22.012  1.00  0.00     0.059 C 
BRANCH  15  18
HETATM   18  N3  UNL     1     -13.073  17.897  20.538  1.00  0.00    -0.354 N 
HETATM   19  C14 UNL     1     -13.703  17.537  19.333  1.00  0.00     0.222 C 
HETATM   20  O2  UNL     1     -13.299  18.013  18.235  1.00  0.00    -0.273 OA
ATOM     21  H3  UNL     1     -13.407  17.507  21.419  1.00  0.00     0.163 HD
BRANCH  19  22
HETATM   22  C15 UNL     1     -14.864  16.593  19.286  1.00  0.00     0.078 C 
HETATM   23  C16 UNL     1     -14.459  15.250  19.882  1.00  0.00     0.014 C 
HETATM   24  C17 UNL     1     -15.488  14.322  19.259  1.00  0.00     0.001 C 
HETATM   25  C18 UNL     1     -15.363  14.739  17.788  1.00  0.00     0.001 C 
HETATM   26  C19 UNL     1     -15.201  16.243  17.858  1.00  0.00     0.014 C 
ENDBRANCH  19  22
ENDBRANCH  15  18
BRANCH  16  27
HETATM   27  O3  UNL     1     -10.411  17.499  21.722  1.00  0.00    -0.393 OA
ATOM     28  H3  UNL     1      -9.507  17.683  21.949  1.00  0.00     0.210 HD
ENDBRANCH  16  27
ENDBRANCH   7  12
BRANCH   1  29
HETATM   29  C4  UNL     1      -9.560  27.905  19.277  1.00  0.00     0.040 C 
BRANCH  29  30
HETATM   30  C2  UNL     1      -9.364  27.748  17.837  1.00  0.00    -0.020 C 
HETATM   31  C1  UNL     1      -8.513  28.770  17.154  1.00  0.00     0.009 C 
HETATM   32  C3  UNL     1     -10.739  27.799  17.116  1.00  0.00     0.009 C 
ENDBRANCH  29  30
ENDBRANCH   1  29
BRANCH   1  33
HETATM   33  C6  UNL     1      -7.681  27.798  20.751  1.00  0.00     0.380 C 
HETATM   34  F1  UNL     1      -6.546  27.416  20.086  1.00  0.00    -0.212 F 
HETATM   35  F2  UNL     1      -7.918  29.120  20.740  1.00  0.00    -0.212 F 
ENDBRANCH   1  33
TORSDOF 7
ENDMDL
MODEL 5
REMARK VINA RESULT: -6.765916819      1.196      1.392
REMARK  7 active torsions:
REMARK  status: ('A' for Active; 'I' for Inactive)
REMARK    1  A    between atoms: C2_2  and  C4_4 
REMARK    2  A    between atoms: C4_4  and  C5_5 
REMARK    3  A    between atoms: C5_5  and  C6_6 
REMARK       I    between atoms: N1_11  and  C9_12 
REMARK       I    between atoms: C9_12  and  N2_14 
REMARK    4  A    between atoms: N2_14  and  C10_16 
REMARK    5  A    between atoms: C13_19  and  N3_20 
REMARK       I    between atoms: N3_20  and  C14_22 
REMARK    6  A    between atoms: C14_22  and  C15_24 
REMARK    7  A    between atoms: C20_29  and  O3_30 
ROOT
HETATM    1  C5  UNL     1      -5.497  20.910  25.003  1.00  0.00     0.088 C 
HETATM    2  C7  UNL     1      -6.391  19.746  25.158  1.00  0.00     0.056 C 
HETATM    3  C8  UNL     1      -7.768  19.865  24.579  1.00  0.00     0.132 C 
HETATM    4  N1  UNL     1      -8.235  21.203  24.360  1.00  0.00    -0.318 N 
HETATM    5  C9  UNL     1      -9.445  21.441  23.698  1.00  0.00     0.319 C 
HETATM    6  O1  UNL     1      -9.821  22.649  23.523  1.00  0.00    -0.247 OA
HETATM    7  N2  UNL     1     -10.242  20.369  23.228  1.00  0.00    -0.338 N 
ATOM      8  H2  UNL     1      -9.920  19.414  23.381  1.00  0.00     0.164 HD
HETATM    9  C22 UNL     1      -7.449  22.342  24.828  1.00  0.00     0.246 C 
HETATM   10  N4  UNL     1      -6.086  22.110  24.481  1.00  0.00    -0.392 N 
ATOM     11  H4  UNL     1      -5.559  22.758  23.895  1.00  0.00     0.155 HD
ENDROOT
BRANCH   7  12
HETATM   12  C10 UNL     1     -11.502  20.580  22.536  1.00  0.00     0.088 C 
HETATM   13  C11 UNL     1     -11.433  19.937  21.190  1.00  0.00     0.027 C 
HETATM   14  C12 UNL     1     -11.755  18.457  21.233  1.00  0.00     0.030 C 
HETATM   15  C13 UNL     1     -13.196  18.226  21.637  1.00  0.00     0.113 C 
HETATM   16  C20 UNL     1     -13.719  19.398  22.454  1.00  0.00     0.142 C 
HETATM   17  C21 UNL     1     -12.627  19.991  23.316  1.00  0.00     0.059 C 
BRANCH  15  18
HETATM   18  N3  UNL     1     -14.065  17.918  20.536  1.00  0.00    -0.354 N 
HETATM   19  C14 UNL     1     -14.300  16.584  20.158  1.00  0.00     0.222 C 
HETATM   20  O2  UNL     1     -13.748  15.637  20.785  1.00  0.00    -0.273 OA
ATOM     21  H3  UNL     1     -14.516  18.675  20.023  1.00  0.00     0.163 HD
BRANCH  19  22
HETATM   22  C15 UNL     1     -15.196  16.220  19.015  1.00  0.00     0.078 C 
HETATM   23  C16 UNL     1     -15.077  14.729  18.724  1.00  0.00     0.014 C 
HETATM   24  C17 UNL     1     -15.558  14.664  17.285  1.00  0.00     0.001 C 
HETATM   25  C18 UNL     1     -14.706  15.781  16.670  1.00  0.00     0.001 C 
HETATM   26  C19 UNL     1     -14.706  16.855  17.737  1.00  0.00     0.014 C 
ENDBRANCH  19  22
ENDBRANCH  15  18
BRANCH  16  27
HETATM   27  O3  UNL     1     -14.801  18.973  23.180  1.00  0.00    -0.393 OA
ATOM     28  H3  UNL     1     -14.830  19.463  23.993  1.00  0.00     0.210 HD
ENDBRANCH  16  27
ENDBRANCH   7  12
BRANCH   1  29
HETATM   29  C4  UNL     1      -4.189  20.722  24.300  1.00  0.00     0.040 C 
BRANCH  29  30
HETATM   30  C2  UNL     1      -3.795  19.418  23.771  1.00  0.00    -0.020 C 
HETATM   31  C1  UNL     1      -2.964  18.549  24.660  1.00  0.00     0.009 C 
HETATM   32  C3  UNL     1      -2.960  19.612  22.476  1.00  0.00     0.009 C 
ENDBRANCH  29  30
ENDBRANCH   1  29
BRANCH   1  33
HETATM   33  C6  UNL     1      -5.041  21.314  26.453  1.00  0.00     0.380 C 
HETATM   34  F1  UNL     1      -5.808  20.677  27.393  1.00  0.00    -0.212 F 
HETATM   35  F2  UNL     1      -3.717  21.182  26.626  1.00  0.00    -0.212 F 
ENDBRANCH   1  33
TORSDOF 7
ENDMDL
