MODEL 1
REMARK VINA RESULT: -8.787068425      0.000      0.000
REMARK  4 active torsions:
REMARK  status: ('A' for Active; 'I' for Inactive)
REMARK    1  A    between atoms: C9_12  and  C10_13 
REMARK    2  A    between atoms: C13_20  and  C14_21 
REMARK    3  A    between atoms: C14_21  and  C15_22 
REMARK    4  A    between atoms: C15_22  and  C16_23 
ROOT
HETATM    1  N1  UNL     1      13.756  11.504  10.337  1.00  0.00    -0.191 NA
HETATM    2  C1  UNL     1      13.619  11.354  11.482  1.00  0.00     0.100 C 
HETATM    3  C2  UNL     1      13.435  11.186  12.905  1.00  0.00     0.057 A 
HETATM    4  C3  UNL     1      12.486  11.900  13.604  1.00  0.00     0.053 A 
HETATM    5  C4  UNL     1      12.340  11.711  14.954  1.00  0.00     0.043 A 
HETATM    6  N2  UNL     1      11.500  12.278  15.844  1.00  0.00    -0.365 N 
ATOM      7  H2  UNL     1      10.789  12.984  15.652  1.00  0.00     0.165 HD
HETATM    8  C5  UNL     1      11.786  11.728  17.028  1.00  0.00     0.089 A 
HETATM    9  C6  UNL     1      12.805  10.809  16.919  1.00  0.00     0.030 A 
HETATM   10  C7  UNL     1      13.153  10.805  15.591  1.00  0.00    -0.007 A 
HETATM   11  C8  UNL     1      14.113  10.086  14.870  1.00  0.00     0.026 A 
HETATM   12  C9  UNL     1      14.282  10.253  13.518  1.00  0.00    -0.013 A 
ENDROOT
BRANCH  12  13
HETATM   13  C10 UNL     1      15.279   9.535  12.751  1.00  0.00     0.029 C 
HETATM   14  C11 UNL     1      15.421   8.270  12.850  1.00  0.00     0.009 C 
HETATM   15  S1  UNL     1      14.495   7.146  13.882  1.00  0.00    -0.063 SA
HETATM   16  C13 UNL     1      16.370   7.374  12.164  1.00  0.00     0.123 C 
HETATM   17  C12 UNL     1      14.975   5.660  12.980  1.00  0.00     0.139 C 
HETATM   18  S2  UNL     1      14.644   4.156  13.459  1.00  0.00    -0.053 SA
HETATM   19  N3  UNL     1      15.660   6.142  11.835  1.00  0.00    -0.366 N 
ATOM     20  H3  UNL     1      15.656   5.695  10.917  1.00  0.00     0.161 HD
BRANCH  16  21
HETATM   21  C14 UNL     1      17.063   7.975  10.989  1.00  0.00     0.031 C 
BRANCH  21  22
HETATM   22  C15 UNL     1      16.405   7.477   9.703  1.00  0.00     0.013 C 
BRANCH  22  23
HETATM   23  C16 UNL     1      15.826   8.627   8.904  1.00  0.00     0.086 C 
HETATM   24  S3  UNL     1      16.945  10.060   8.978  1.00  0.00    -0.098 SA
ENDBRANCH  22  23
ENDBRANCH  21  22
ENDBRANCH  16  21
ENDBRANCH  12  13
TORSDOF 4
ENDMDL
MODEL 2
REMARK VINA RESULT: -8.176413742      1.291      1.406
REMARK  4 active torsions:
REMARK  status: ('A' for Active; 'I' for Inactive)
REMARK    1  A    between atoms: C9_12  and  C10_13 
REMARK    2  A    between atoms: C13_20  and  C14_21 
REMARK    3  A    between atoms: C14_21  and  C15_22 
REMARK    4  A    between atoms: C15_22  and  C16_23 
ROOT
HETATM    1  N1  UNL     1      13.508  11.736  10.466  1.00  0.00    -0.191 NA
HETATM    2  C1  UNL     1      13.424  11.522  11.607  1.00  0.00     0.100 C 
HETATM    3  C2  UNL     1      13.305  11.274  13.024  1.00  0.00     0.057 A 
HETATM    4  C3  UNL     1      12.397  11.953  13.807  1.00  0.00     0.053 A 
HETATM    5  C4  UNL     1      12.313  11.689  15.150  1.00  0.00     0.043 A 
HETATM    6  N2  UNL     1      11.520  12.209  16.109  1.00  0.00    -0.365 N 
ATOM      7  H2  UNL     1      10.807  12.929  15.992  1.00  0.00     0.165 HD
HETATM    8  C5  UNL     1      11.857  11.591  17.246  1.00  0.00     0.089 A 
HETATM    9  C6  UNL     1      12.861  10.673  17.036  1.00  0.00     0.030 A 
HETATM   10  C7  UNL     1      13.147  10.743  15.695  1.00  0.00    -0.007 A 
HETATM   11  C8  UNL     1      14.066  10.060  14.890  1.00  0.00     0.026 A 
HETATM   12  C9  UNL     1      14.172  10.304  13.543  1.00  0.00    -0.013 A 
ENDROOT
BRANCH  12  13
HETATM   13  C10 UNL     1      15.125   9.624  12.690  1.00  0.00     0.029 C 
HETATM   14  C11 UNL     1      15.333   8.368  12.781  1.00  0.00     0.009 C 
HETATM   15  S1  UNL     1      14.559   7.212  13.899  1.00  0.00    -0.063 SA
HETATM   16  C13 UNL     1      16.255   7.509  12.014  1.00  0.00     0.123 C 
HETATM   17  C12 UNL     1      15.020   5.741  12.963  1.00  0.00     0.139 C 
HETATM   18  S2  UNL     1      14.803   4.229  13.477  1.00  0.00    -0.053 SA
HETATM   19  N3  UNL     1      15.573   6.244  11.757  1.00  0.00    -0.366 N 
ATOM     20  H3  UNL     1      15.505   5.789  10.846  1.00  0.00     0.161 HD
BRANCH  16  21
HETATM   21  C14 UNL     1      16.808   8.130  10.777  1.00  0.00     0.031 C 
BRANCH  21  22
HETATM   22  C15 UNL     1      18.192   7.548  10.493  1.00  0.00     0.013 C 
BRANCH  22  23
HETATM   23  C16 UNL     1      18.172   6.668   9.258  1.00  0.00     0.086 C 
HETATM   24  S3  UNL     1      18.667   4.974   9.695  1.00  0.00    -0.098 SA
ENDBRANCH  22  23
ENDBRANCH  21  22
ENDBRANCH  16  21
ENDBRANCH  12  13
TORSDOF 4
ENDMDL
MODEL 3
REMARK VINA RESULT: -7.617413685      2.605      4.016
REMARK  4 active torsions:
REMARK  status: ('A' for Active; 'I' for Inactive)
REMARK    1  A    between atoms: C9_12  and  C10_13 
REMARK    2  A    between atoms: C13_20  and  C14_21 
REMARK    3  A    between atoms: C14_21  and  C15_22 
REMARK    4  A    between atoms: C15_22  and  C16_23 
ROOT
HETATM    1  N1  UNL     1      16.483   7.360  10.522  1.00  0.00    -0.191 NA
HETATM    2  C1  UNL     1      15.913   7.900  11.381  1.00  0.00     0.100 C 
HETATM    3  C2  UNL     1      15.211   8.591  12.437  1.00  0.00     0.057 A 
HETATM    4  C3  UNL     1      15.003   9.953  12.402  1.00  0.00     0.053 A 
HETATM    5  C4  UNL     1      14.331  10.572  13.423  1.00  0.00     0.043 A 
HETATM    6  N2  UNL     1      14.006  11.868  13.616  1.00  0.00    -0.365 N 
ATOM      7  H2  UNL     1      14.219  12.651  12.998  1.00  0.00     0.165 HD
HETATM    8  C5  UNL     1      13.350  11.918  14.780  1.00  0.00     0.089 A 
HETATM    9  C6  UNL     1      13.244  10.668  15.347  1.00  0.00     0.030 A 
HETATM   10  C7  UNL     1      13.874   9.815  14.475  1.00  0.00    -0.007 A 
HETATM   11  C8  UNL     1      14.091   8.433  14.499  1.00  0.00     0.026 A 
HETATM   12  C9  UNL     1      14.761   7.785  13.491  1.00  0.00    -0.013 A 
ENDROOT
BRANCH  12  13
HETATM   13  C10 UNL     1      15.015   6.359  13.499  1.00  0.00     0.029 C 
HETATM   14  C11 UNL     1      16.048   5.864  14.063  1.00  0.00     0.009 C 
HETATM   15  S1  UNL     1      17.347   6.737  14.922  1.00  0.00    -0.063 SA
HETATM   16  C13 UNL     1      16.476   4.457  14.171  1.00  0.00     0.123 C 
HETATM   17  C12 UNL     1      17.978   5.285  15.787  1.00  0.00     0.139 C 
HETATM   18  S2  UNL     1      19.331   5.264  16.663  1.00  0.00    -0.053 SA
HETATM   19  N3  UNL     1      17.035   4.264  15.507  1.00  0.00    -0.366 N 
ATOM     20  H3  UNL     1      16.783   3.507  16.143  1.00  0.00     0.161 HD
BRANCH  16  21
HETATM   21  C14 UNL     1      15.427   3.454  13.832  1.00  0.00     0.031 C 
BRANCH  21  22
HETATM   22  C15 UNL     1      15.875   2.643  12.617  1.00  0.00     0.013 C 
BRANCH  22  23
HETATM   23  C16 UNL     1      15.612   3.398  11.329  1.00  0.00     0.086 C 
HETATM   24  S3  UNL     1      17.162   3.592  10.396  1.00  0.00    -0.098 SA
ENDBRANCH  22  23
ENDBRANCH  21  22
ENDBRANCH  16  21
ENDBRANCH  12  13
TORSDOF 4
ENDMDL
MODEL 4
REMARK VINA RESULT: -7.615809478      2.864      7.243
REMARK  4 active torsions:
REMARK  status: ('A' for Active; 'I' for Inactive)
REMARK    1  A    between atoms: C9_12  and  C10_13 
REMARK    2  A    between atoms: C13_20  and  C14_21 
REMARK    3  A    between atoms: C14_21  and  C15_22 
REMARK    4  A    between atoms: C15_22  and  C16_23 
ROOT
HETATM    1  N1  UNL     1      16.164   6.910  17.755  1.00  0.00    -0.191 NA
HETATM    2  C1  UNL     1      15.976   6.357  16.748  1.00  0.00     0.100 C 
HETATM    3  C2  UNL     1      15.757   5.655  15.506  1.00  0.00     0.057 A 
HETATM    4  C3  UNL     1      16.255   4.388  15.289  1.00  0.00     0.053 A 
HETATM    5  C4  UNL     1      16.025   3.753  14.096  1.00  0.00     0.043 A 
HETATM    6  N2  UNL     1      16.398   2.535  13.652  1.00  0.00    -0.365 N 
ATOM      7  H2  UNL     1      16.946   1.840  14.158  1.00  0.00     0.165 HD
HETATM    8  C5  UNL     1      15.904   2.423  12.415  1.00  0.00     0.089 A 
HETATM    9  C6  UNL     1      15.213   3.556  12.049  1.00  0.00     0.030 A 
HETATM   10  C7  UNL     1      15.295   4.401  13.128  1.00  0.00    -0.007 A 
HETATM   11  C8  UNL     1      14.795   5.687  13.359  1.00  0.00     0.026 A 
HETATM   12  C9  UNL     1      15.010   6.347  14.544  1.00  0.00    -0.013 A 
ENDROOT
BRANCH  12  13
HETATM   13  C10 UNL     1      14.519   7.685  14.803  1.00  0.00     0.029 C 
HETATM   14  C11 UNL     1      14.691   8.637  13.970  1.00  0.00     0.009 C 
HETATM   15  S1  UNL     1      15.517   8.568  12.389  1.00  0.00    -0.063 SA
HETATM   16  C13 UNL     1      14.274  10.049  14.056  1.00  0.00     0.123 C 
HETATM   17  C12 UNL     1      14.801  10.100  11.760  1.00  0.00     0.139 C 
HETATM   18  S2  UNL     1      15.240  10.813  10.383  1.00  0.00    -0.053 SA
HETATM   19  N3  UNL     1      13.830  10.463  12.729  1.00  0.00    -0.366 N 
ATOM     20  H3  UNL     1      12.952  10.944  12.527  1.00  0.00     0.161 HD
BRANCH  16  21
HETATM   21  C14 UNL     1      13.271  10.343  15.120  1.00  0.00     0.031 C 
BRANCH  21  22
HETATM   22  C15 UNL     1      12.432  11.551  14.705  1.00  0.00     0.013 C 
BRANCH  22  23
HETATM   23  C16 UNL     1      12.313  12.549  15.840  1.00  0.00     0.086 C 
HETATM   24  S3  UNL     1      11.753  11.707  17.352  1.00  0.00    -0.098 SA
ENDBRANCH  22  23
ENDBRANCH  21  22
ENDBRANCH  16  21
ENDBRANCH  12  13
TORSDOF 4
ENDMDL
MODEL 5
REMARK VINA RESULT: -7.502332214      1.581      1.993
REMARK  4 active torsions:
REMARK  status: ('A' for Active; 'I' for Inactive)
REMARK    1  A    between atoms: C9_12  and  C10_13 
REMARK    2  A    between atoms: C13_20  and  C14_21 
REMARK    3  A    between atoms: C14_21  and  C15_22 
REMARK    4  A    between atoms: C15_22  and  C16_23 
ROOT
HETATM    1  N1  UNL     1      15.816  10.155   9.150  1.00  0.00    -0.191 NA
HETATM    2  C1  UNL     1      15.354  10.267  10.212  1.00  0.00     0.100 C 
HETATM    3  C2  UNL     1      14.769  10.425  11.523  1.00  0.00     0.057 A 
HETATM    4  C3  UNL     1      13.733  11.303  11.756  1.00  0.00     0.053 A 
HETATM    5  C4  UNL     1      13.204  11.423  13.014  1.00  0.00     0.043 A 
HETATM    6  N2  UNL     1      12.205  12.197  13.487  1.00  0.00    -0.365 N 
ATOM      7  H2  UNL     1      11.641  12.863  12.958  1.00  0.00     0.165 HD
HETATM    8  C5  UNL     1      12.101  11.916  14.790  1.00  0.00     0.089 A 
HETATM    9  C6  UNL     1      13.023  10.967  15.171  1.00  0.00     0.030 A 
HETATM   10  C7  UNL     1      13.723  10.658  14.031  1.00  0.00    -0.007 A 
HETATM   11  C8  UNL     1      14.775   9.770  13.782  1.00  0.00     0.026 A 
HETATM   12  C9  UNL     1      15.325   9.628  12.532  1.00  0.00    -0.013 A 
ENDROOT
BRANCH  12  13
HETATM   13  C10 UNL     1      16.426   8.730  12.251  1.00  0.00     0.029 C 
HETATM   14  C11 UNL     1      16.357   7.481  12.507  1.00  0.00     0.009 C 
HETATM   15  S1  UNL     1      14.988   6.588  13.223  1.00  0.00    -0.063 SA
HETATM   16  C13 UNL     1      17.362   6.422  12.299  1.00  0.00     0.123 C 
HETATM   17  C12 UNL     1      15.557   4.960  12.696  1.00  0.00     0.139 C 
HETATM   18  S2  UNL     1      14.884   3.568  13.151  1.00  0.00    -0.053 SA
HETATM   19  N3  UNL     1      16.659   5.226  11.843  1.00  0.00    -0.366 N 
ATOM     20  H3  UNL     1      16.921   4.665  11.032  1.00  0.00     0.161 HD
BRANCH  16  21
HETATM   21  C14 UNL     1      18.498   6.800  11.411  1.00  0.00     0.031 C 
BRANCH  21  22
HETATM   22  C15 UNL     1      18.335   6.109  10.058  1.00  0.00     0.013 C 
BRANCH  22  23
HETATM   23  C16 UNL     1      17.877   7.089   8.995  1.00  0.00     0.086 C 
HETATM   24  S3  UNL     1      16.232   6.616   8.381  1.00  0.00    -0.098 SA
ENDBRANCH  22  23
ENDBRANCH  21  22
ENDBRANCH  16  21
ENDBRANCH  12  13
TORSDOF 4
ENDMDL
