MODEL 1
REMARK VINA RESULT: -7.278532043      0.000      0.000
REMARK  7 active torsions:
REMARK  status: ('A' for Active; 'I' for Inactive)
REMARK    1  A    between atoms: C2_2  and  C3_3 
REMARK    2  A    between atoms: C3_3  and  C4_4 
REMARK    3  A    between atoms: C5_5  and  O1_6 
REMARK    4  A    between atoms: C9_11  and  O2_12 
REMARK    5  A    between atoms: C13_17  and  C14_18 
REMARK    6  A    between atoms: C18_22  and  C19_23 
REMARK    7  A    between atoms: C21_26  and  O4_27 
ROOT
HETATM    1  C4  UNL     1      18.679   6.992  12.700  1.00  0.00     0.023 C 
HETATM    2  C5  UNL     1      19.493   5.756  12.399  1.00  0.00     0.123 C 
HETATM    3  C6  UNL     1      18.760   4.444  12.695  1.00  0.00     0.037 C 
HETATM    4  C7  UNL     1      17.409   4.501  12.110  1.00  0.00    -0.005 C 
HETATM    5  C8  UNL     1      16.624   3.217  12.340  1.00  0.00     0.037 C 
HETATM    6  C9  UNL     1      15.578   3.298  13.377  1.00  0.00     0.118 C 
HETATM    7  C10 UNL     1      14.698   4.498  13.310  1.00  0.00     0.032 C 
HETATM    8  C11 UNL     1      15.254   5.506  12.281  1.00  0.00     0.008 C 
HETATM    9  C12 UNL     1      16.674   5.693  12.682  1.00  0.00    -0.001 C 
HETATM   10  C13 UNL     1      17.341   6.955  12.068  1.00  0.00     0.032 C 
ENDROOT
BRANCH  10  11
HETATM   11  C14 UNL     1      16.428   8.070  12.187  1.00  0.00    -0.019 A 
HETATM   12  C15 UNL     1      15.700   8.498  13.242  1.00  0.00     0.018 A 
HETATM   13  C16 UNL     1      14.795   9.526  13.143  1.00  0.00    -0.048 A 
HETATM   14  C17 UNL     1      13.941   9.977  14.313  1.00  0.00     0.049 C 
HETATM   15  C18 UNL     1      14.551  10.213  11.976  1.00  0.00     0.010 A 
HETATM   16  C20 UNL     1      15.280   9.791  10.865  1.00  0.00     0.052 A 
HETATM   17  C21 UNL     1      16.169   8.772  10.984  1.00  0.00     0.073 A 
BRANCH  15  18
HETATM   18  C19 UNL     1      13.625  11.327  11.870  1.00  0.00     0.270 C 
HETATM   19  O3  UNL     1      12.547  11.122  11.236  1.00  0.00    -0.301 OA
ENDBRANCH  15  18
BRANCH  17  20
HETATM   20  O4  UNL     1      16.877   8.385   9.838  1.00  0.00    -0.360 OA
ATOM     21  H4  UNL     1      16.390   8.293   9.028  1.00  0.00     0.217 HD
ENDBRANCH  17  20
ENDBRANCH  10  11
BRANCH   1  22
HETATM   22  C3  UNL     1      19.086   7.716  13.885  1.00  0.00     0.007 C 
BRANCH  22  23
HETATM   23  C2  UNL     1      19.056   7.058  15.222  1.00  0.00    -0.004 C 
HETATM   24  C1  UNL     1      17.922   6.512  15.920  1.00  0.00     0.005 C 
ENDBRANCH  22  23
ENDBRANCH   1  22
BRANCH   2  25
HETATM   25  O1  UNL     1      19.951   5.779  11.109  1.00  0.00    -0.395 OA
ATOM     26  H1  UNL     1      20.795   6.211  11.059  1.00  0.00     0.210 HD
ENDBRANCH   2  25
BRANCH   6  27
HETATM   27  O2  UNL     1      16.095   3.046  14.654  1.00  0.00    -0.396 OA
ATOM     28  H2  UNL     1      15.894   3.751  15.259  1.00  0.00     0.210 HD
ENDBRANCH   6  27
TORSDOF 7
ENDMDL
MODEL 2
REMARK VINA RESULT: -7.228225212      2.058      6.319
REMARK  7 active torsions:
REMARK  status: ('A' for Active; 'I' for Inactive)
REMARK    1  A    between atoms: C2_2  and  C3_3 
REMARK    2  A    between atoms: C3_3  and  C4_4 
REMARK    3  A    between atoms: C5_5  and  O1_6 
REMARK    4  A    between atoms: C9_11  and  O2_12 
REMARK    5  A    between atoms: C13_17  and  C14_18 
REMARK    6  A    between atoms: C18_22  and  C19_23 
REMARK    7  A    between atoms: C21_26  and  O4_27 
ROOT
HETATM    1  C4  UNL     1      16.587   7.412   8.811  1.00  0.00     0.023 C 
HETATM    2  C5  UNL     1      16.817   8.810   8.288  1.00  0.00     0.123 C 
HETATM    3  C6  UNL     1      16.220   9.909   9.172  1.00  0.00     0.037 C 
HETATM    4  C7  UNL     1      16.598   9.661  10.575  1.00  0.00    -0.005 C 
HETATM    5  C8  UNL     1      16.063  10.731  11.517  1.00  0.00     0.037 C 
HETATM    6  C9  UNL     1      14.906  10.322  12.337  1.00  0.00     0.118 C 
HETATM    7  C10 UNL     1      15.022   8.991  12.994  1.00  0.00     0.032 C 
HETATM    8  C11 UNL     1      16.262   8.242  12.461  1.00  0.00     0.008 C 
HETATM    9  C12 UNL     1      16.110   8.289  10.983  1.00  0.00    -0.001 C 
HETATM   10  C13 UNL     1      17.000   7.265  10.225  1.00  0.00     0.032 C 
ENDROOT
BRANCH  10  11
HETATM   11  C14 UNL     1      16.916   5.987  10.898  1.00  0.00    -0.019 A 
HETATM   12  C15 UNL     1      15.856   5.354  11.447  1.00  0.00     0.018 A 
HETATM   13  C16 UNL     1      15.983   4.177  12.145  1.00  0.00    -0.048 A 
HETATM   14  C17 UNL     1      14.802   3.490  12.806  1.00  0.00     0.049 C 
HETATM   15  C18 UNL     1      17.184   3.536  12.342  1.00  0.00     0.010 A 
HETATM   16  C20 UNL     1      18.300   4.168  11.793  1.00  0.00     0.052 A 
HETATM   17  C21 UNL     1      18.154   5.331  11.108  1.00  0.00     0.073 A 
BRANCH  15  18
HETATM   18  C19 UNL     1      17.322   2.273  13.044  1.00  0.00     0.270 C 
HETATM   19  O3  UNL     1      17.904   2.300  14.170  1.00  0.00    -0.301 OA
ENDBRANCH  15  18
BRANCH  17  20
HETATM   20  O4  UNL     1      19.306   5.925  10.577  1.00  0.00    -0.360 OA
ATOM     21  H4  UNL     1      20.058   6.022  11.148  1.00  0.00     0.217 HD
ENDBRANCH  17  20
ENDBRANCH  10  11
BRANCH   1  22
HETATM   22  C3  UNL     1      15.600   6.644   8.085  1.00  0.00     0.007 C 
BRANCH  22  23
HETATM   23  C2  UNL     1      15.890   5.244   7.662  1.00  0.00    -0.004 C 
HETATM   24  C1  UNL     1      17.173   4.624   7.458  1.00  0.00     0.005 C 
ENDBRANCH  22  23
ENDBRANCH   1  22
BRANCH   2  25
HETATM   25  O1  UNL     1      18.148   9.032   8.065  1.00  0.00    -0.395 OA
ATOM     26  H1  UNL     1      18.398   9.902   8.355  1.00  0.00     0.210 HD
ENDBRANCH   2  25
BRANCH   6  27
HETATM   27  O2  UNL     1      13.697  10.514  11.656  1.00  0.00    -0.396 OA
ATOM     28  H2  UNL     1      13.711  11.307  11.133  1.00  0.00     0.210 HD
ENDBRANCH   6  27
TORSDOF 7
ENDMDL
MODEL 3
REMARK VINA RESULT: -7.174212455      2.131      4.077
REMARK  7 active torsions:
REMARK  status: ('A' for Active; 'I' for Inactive)
REMARK    1  A    between atoms: C2_2  and  C3_3 
REMARK    2  A    between atoms: C3_3  and  C4_4 
REMARK    3  A    between atoms: C5_5  and  O1_6 
REMARK    4  A    between atoms: C9_11  and  O2_12 
REMARK    5  A    between atoms: C13_17  and  C14_18 
REMARK    6  A    between atoms: C18_22  and  C19_23 
REMARK    7  A    between atoms: C21_26  and  O4_27 
ROOT
HETATM    1  C4  UNL     1      16.170   5.531  10.360  1.00  0.00     0.023 C 
HETATM    2  C5  UNL     1      16.830   4.237   9.945  1.00  0.00     0.123 C 
HETATM    3  C6  UNL     1      18.246   4.057  10.498  1.00  0.00     0.037 C 
HETATM    4  C7  UNL     1      18.246   4.363  11.939  1.00  0.00    -0.005 C 
HETATM    5  C8  UNL     1      19.620   4.180  12.570  1.00  0.00     0.037 C 
HETATM    6  C9  UNL     1      20.344   5.430  12.869  1.00  0.00     0.118 C 
HETATM    7  C10 UNL     1      19.544   6.491  13.544  1.00  0.00     0.032 C 
HETATM    8  C11 UNL     1      18.052   6.098  13.563  1.00  0.00     0.008 C 
HETATM    9  C12 UNL     1      17.741   5.773  12.145  1.00  0.00    -0.001 C 
HETATM   10  C13 UNL     1      16.221   5.745  11.824  1.00  0.00     0.032 C 
ENDROOT
BRANCH  10  11
HETATM   11  C14 UNL     1      15.594   6.898  12.432  1.00  0.00    -0.019 A 
HETATM   12  C15 UNL     1      15.722   8.214  12.151  1.00  0.00     0.018 A 
HETATM   13  C16 UNL     1      15.121   9.189  12.910  1.00  0.00    -0.048 A 
HETATM   14  C17 UNL     1      15.302  10.668  12.628  1.00  0.00     0.049 C 
HETATM   15  C18 UNL     1      14.339   8.922  14.010  1.00  0.00     0.010 A 
HETATM   16  C20 UNL     1      14.193   7.572  14.331  1.00  0.00     0.052 A 
HETATM   17  C21 UNL     1      14.795   6.624  13.569  1.00  0.00     0.073 A 
BRANCH  15  18
HETATM   18  C19 UNL     1      13.668   9.943  14.794  1.00  0.00     0.270 C 
HETATM   19  O3  UNL     1      13.506   9.707  16.029  1.00  0.00    -0.301 OA
ENDBRANCH  15  18
BRANCH  17  20
HETATM   20  O4  UNL     1      14.618   5.283  13.935  1.00  0.00    -0.360 OA
ATOM     21  H4  UNL     1      13.838   4.839  13.624  1.00  0.00     0.217 HD
ENDBRANCH  17  20
ENDBRANCH  10  11
BRANCH   1  22
HETATM   22  C3  UNL     1      16.071   6.527   9.316  1.00  0.00     0.007 C 
BRANCH  22  23
HETATM   23  C2  UNL     1      17.300   7.129   8.724  1.00  0.00    -0.004 C 
HETATM   24  C1  UNL     1      18.155   8.140   9.288  1.00  0.00     0.005 C 
ENDBRANCH  22  23
ENDBRANCH   1  22
BRANCH   2  25
HETATM   25  O1  UNL     1      16.041   3.166  10.267  1.00  0.00    -0.395 OA
ATOM     26  H1  UNL     1      16.485   2.349  10.071  1.00  0.00     0.210 HD
ENDBRANCH   2  25
BRANCH   6  27
HETATM   27  O2  UNL     1      21.067   5.887  11.760  1.00  0.00    -0.396 OA
ATOM     28  H2  UNL     1      20.785   5.462  10.958  1.00  0.00     0.210 HD
ENDBRANCH   6  27
TORSDOF 7
ENDMDL
MODEL 4
REMARK VINA RESULT: -7.123748403      2.171      5.945
REMARK  7 active torsions:
REMARK  status: ('A' for Active; 'I' for Inactive)
REMARK    1  A    between atoms: C2_2  and  C3_3 
REMARK    2  A    between atoms: C3_3  and  C4_4 
REMARK    3  A    between atoms: C5_5  and  O1_6 
REMARK    4  A    between atoms: C9_11  and  O2_12 
REMARK    5  A    between atoms: C13_17  and  C14_18 
REMARK    6  A    between atoms: C18_22  and  C19_23 
REMARK    7  A    between atoms: C21_26  and  O4_27 
ROOT
HETATM    1  C4  UNL     1      17.232   7.136  10.085  1.00  0.00     0.023 C 
HETATM    2  C5  UNL     1      17.244   7.970   8.826  1.00  0.00     0.123 C 
HETATM    3  C6  UNL     1      16.261   9.144   8.851  1.00  0.00     0.037 C 
HETATM    4  C7  UNL     1      16.408   9.872  10.124  1.00  0.00    -0.005 C 
HETATM    5  C8  UNL     1      15.479  11.076  10.213  1.00  0.00     0.037 C 
HETATM    6  C9  UNL     1      14.306  10.898  11.089  1.00  0.00     0.118 C 
HETATM    7  C10 UNL     1      14.583  10.293  12.422  1.00  0.00     0.032 C 
HETATM    8  C11 UNL     1      16.036   9.776  12.477  1.00  0.00     0.008 C 
HETATM    9  C12 UNL     1      16.165   8.917  11.270  1.00  0.00    -0.001 C 
HETATM   10  C13 UNL     1      17.388   7.958  11.307  1.00  0.00     0.032 C 
ENDROOT
BRANCH  10  11
HETATM   11  C14 UNL     1      17.459   7.344  12.615  1.00  0.00    -0.019 A 
HETATM   12  C15 UNL     1      16.534   6.642  13.306  1.00  0.00     0.018 A 
HETATM   13  C16 UNL     1      16.745   6.218  14.595  1.00  0.00    -0.048 A 
HETATM   14  C17 UNL     1      15.689   5.473  15.391  1.00  0.00     0.049 C 
HETATM   15  C18 UNL     1      17.905   6.458  15.294  1.00  0.00     0.010 A 
HETATM   16  C20 UNL     1      18.878   7.188  14.612  1.00  0.00     0.052 A 
HETATM   17  C21 UNL     1      18.651   7.599  13.338  1.00  0.00     0.073 A 
BRANCH  15  18
HETATM   18  C19 UNL     1      18.152   5.981  16.643  1.00  0.00     0.270 C 
HETATM   19  O3  UNL     1      19.362   5.841  16.992  1.00  0.00    -0.301 OA
ENDBRANCH  15  18
BRANCH  17  20
HETATM   20  O4  UNL     1      19.661   8.328  12.697  1.00  0.00    -0.360 OA
ATOM     21  H4  UNL     1      19.845   9.203  13.016  1.00  0.00     0.217 HD
ENDBRANCH  17  20
ENDBRANCH  10  11
BRANCH   1  22
HETATM   22  C3  UNL     1      16.597   5.843   9.955  1.00  0.00     0.007 C 
BRANCH  22  23
HETATM   23  C2  UNL     1      15.883   5.473   8.699  1.00  0.00    -0.004 C 
HETATM   24  C1  UNL     1      16.366   4.676   7.603  1.00  0.00     0.005 C 
ENDBRANCH  22  23
ENDBRANCH   1  22
BRANCH   2  25
HETATM   25  O1  UNL     1      18.511   8.400   8.541  1.00  0.00    -0.395 OA
ATOM     26  H1  UNL     1      18.954   7.786   7.967  1.00  0.00     0.210 HD
ENDBRANCH   2  25
BRANCH   6  27
HETATM   27  O2  UNL     1      13.238  10.300  10.408  1.00  0.00    -0.396 OA
ATOM     28  H2  UNL     1      12.419  10.403  10.878  1.00  0.00     0.210 HD
ENDBRANCH   6  27
TORSDOF 7
ENDMDL
MODEL 5
REMARK VINA RESULT: -7.070497149      1.780      4.103
REMARK  7 active torsions:
REMARK  status: ('A' for Active; 'I' for Inactive)
REMARK    1  A    between atoms: C2_2  and  C3_3 
REMARK    2  A    between atoms: C3_3  and  C4_4 
REMARK    3  A    between atoms: C5_5  and  O1_6 
REMARK    4  A    between atoms: C9_11  and  O2_12 
REMARK    5  A    between atoms: C13_17  and  C14_18 
REMARK    6  A    between atoms: C18_22  and  C19_23 
REMARK    7  A    between atoms: C21_26  and  O4_27 
ROOT
HETATM    1  C4  UNL     1      15.249   5.917  14.308  1.00  0.00     0.023 C 
HETATM    2  C5  UNL     1      15.829   5.105  15.442  1.00  0.00     0.123 C 
HETATM    3  C6  UNL     1      17.352   4.960  15.384  1.00  0.00     0.037 C 
HETATM    4  C7  UNL     1      17.956   6.283  15.148  1.00  0.00    -0.005 C 
HETATM    5  C8  UNL     1      19.477   6.227  15.105  1.00  0.00     0.037 C 
HETATM    6  C9  UNL     1      20.071   6.329  13.758  1.00  0.00     0.118 C 
HETATM    7  C10 UNL     1      19.517   7.406  12.891  1.00  0.00     0.032 C 
HETATM    8  C11 UNL     1      18.265   8.025  13.549  1.00  0.00     0.008 C 
HETATM    9  C12 UNL     1      17.401   6.857  13.863  1.00  0.00    -0.001 C 
HETATM   10  C13 UNL     1      15.920   7.228  14.153  1.00  0.00     0.032 C 
ENDROOT
BRANCH  10  11
HETATM   11  C14 UNL     1      15.475   8.181  13.160  1.00  0.00    -0.019 A 
HETATM   12  C15 UNL     1      15.791   8.295  11.851  1.00  0.00     0.018 A 
HETATM   13  C16 UNL     1      15.347   9.338  11.076  1.00  0.00    -0.048 A 
HETATM   14  C17 UNL     1      15.739   9.496   9.619  1.00  0.00     0.049 C 
HETATM   15  C18 UNL     1      14.545  10.350  11.550  1.00  0.00     0.010 A 
HETATM   16  C20 UNL     1      14.207  10.266  12.901  1.00  0.00     0.052 A 
HETATM   17  C21 UNL     1      14.656   9.228  13.651  1.00  0.00     0.073 A 
BRANCH  15  18
HETATM   18  C19 UNL     1      14.039  11.436  10.730  1.00  0.00     0.270 C 
HETATM   19  O3  UNL     1      12.808  11.718  10.842  1.00  0.00    -0.301 OA
ENDBRANCH  15  18
BRANCH  17  20
HETATM   20  O4  UNL     1      14.288   9.191  15.002  1.00  0.00    -0.360 OA
ATOM     21  H4  UNL     1      13.712   9.873  15.323  1.00  0.00     0.217 HD
ENDBRANCH  17  20
ENDBRANCH  10  11
BRANCH   1  22
HETATM   22  C3  UNL     1      14.549   5.148  13.302  1.00  0.00     0.007 C 
BRANCH  22  23
HETATM   23  C2  UNL     1      15.304   4.293  12.343  1.00  0.00    -0.004 C 
HETATM   24  C1  UNL     1      15.961   4.687  11.126  1.00  0.00     0.005 C 
ENDBRANCH  22  23
ENDBRANCH   1  22
BRANCH   2  25
HETATM   25  O1  UNL     1      15.431   5.606  16.651  1.00  0.00    -0.395 OA
ATOM     26  H1  UNL     1      15.747   5.062  17.362  1.00  0.00     0.210 HD
ENDBRANCH   2  25
BRANCH   6  27
HETATM   27  O2  UNL     1      20.145   5.079  13.130  1.00  0.00    -0.396 OA
ATOM     28  H2  UNL     1      19.765   4.394  13.667  1.00  0.00     0.210 HD
ENDBRANCH   6  27
TORSDOF 7
ENDMDL
