MODEL 1
REMARK VINA RESULT: -7.583081957      0.000      0.000
REMARK  7 active torsions:
REMARK  status: ('A' for Active; 'I' for Inactive)
REMARK    1  A    between atoms: C2_2  and  C3_3 
REMARK    2  A    between atoms: C3_3  and  N1_4 
REMARK    3  A    between atoms: C4_5  and  O1_6 
REMARK    4  A    between atoms: C7_10  and  O2_11 
REMARK    5  A    between atoms: N3_16  and  C10_17 
REMARK    6  A    between atoms: C10_17  and  C11_18 
REMARK    7  A    between atoms: C12_21  and  N5_22 
ROOT
HETATM    1  N1  UNL     1      88.405 120.540 130.843  1.00  0.00    -0.303 N 
HETATM    2  C4  UNL     1      88.780 120.745 129.562  1.00  0.00     0.155 A 
HETATM    3  C5  UNL     1      89.903 120.002 129.300  1.00  0.00     0.048 A 
HETATM    4  C6  UNL     1      90.169 119.330 130.428  1.00  0.00     0.095 A 
HETATM    5  C7  UNL     1      89.281 119.630 131.456  1.00  0.00     0.172 A 
HETATM    6  N2  UNL     1      91.028 118.467 129.733  1.00  0.00    -0.364 N 
HETATM    7  C8  UNL     1      91.580 117.151 129.515  1.00  0.00     0.143 C 
HETATM    8  C9  UNL     1      90.668 116.642 128.296  1.00  0.00     0.142 C 
HETATM    9  N3  UNL     1      90.701 117.489 127.200  1.00  0.00    -0.384 N 
HETATM   10  C15 UNL     1      91.202 118.855 127.385  1.00  0.00     0.152 C 
HETATM   11  C16 UNL     1      91.125 119.440 128.678  1.00  0.00     0.142 C 
ENDROOT
BRANCH   9  12
HETATM   12  C10 UNL     1      91.042 117.063 125.903  1.00  0.00     0.116 C 
BRANCH  12  13
HETATM   13  C11 UNL     1      91.806 115.796 125.819  1.00  0.00     0.062 A 
HETATM   14  N4  UNL     1      91.270 114.645 125.463  1.00  0.00    -0.335 N 
HETATM   15  C12 UNL     1      92.055 113.619 125.204  1.00  0.00     0.143 A 
ATOM     16  H4  UNL     1      90.257 114.550 125.390  1.00  0.00     0.168 HD
HETATM   17  S1  UNL     1      93.632 114.261 125.459  1.00  0.00    -0.057 SA
HETATM   18  C13 UNL     1      93.172 115.834 125.900  1.00  0.00     0.010 A 
HETATM   19  C14 UNL     1      94.029 117.007 126.339  1.00  0.00     0.059 C 
BRANCH  15  20
HETATM   20  N5  UNL     1      91.700 112.407 124.832  1.00  0.00    -0.380 N 
ATOM     21  H52 UNL     1      90.894 112.112 124.280  1.00  0.00     0.158 HD
ATOM     22  H51 UNL     1      92.172 111.527 125.041  1.00  0.00     0.158 HD
ENDBRANCH  15  20
ENDBRANCH  12  13
ENDBRANCH   9  12
BRANCH   2  23
HETATM   23  O1  UNL     1      88.066 121.586 128.641  1.00  0.00    -0.345 OA
ATOM     24  H1  UNL     1      88.403 121.853 127.794  1.00  0.00     0.219 HD
ENDBRANCH   2  23
BRANCH   5  25
HETATM   25  O2  UNL     1      89.291 119.180 132.730  1.00  0.00    -0.344 OA
ATOM     26  H2  UNL     1      89.998 119.190 133.365  1.00  0.00     0.219 HD
ENDBRANCH   5  25
BRANCH   1  27
HETATM   27  C3  UNL     1      87.377 121.192 131.569  1.00  0.00     0.160 C 
BRANCH  27  28
HETATM   28  C2  UNL     1      87.920 122.020 132.698  1.00  0.00    -0.017 C 
HETATM   29  C1  UNL     1      87.157 121.944 133.825  1.00  0.00     0.008 C 
ENDBRANCH  27  28
ENDBRANCH   1  27
TORSDOF 7
ENDMDL
MODEL 2
REMARK VINA RESULT: -7.558050413      1.864      2.320
REMARK  7 active torsions:
REMARK  status: ('A' for Active; 'I' for Inactive)
REMARK    1  A    between atoms: C2_2  and  C3_3 
REMARK    2  A    between atoms: C3_3  and  N1_4 
REMARK    3  A    between atoms: C4_5  and  O1_6 
REMARK    4  A    between atoms: C7_10  and  O2_11 
REMARK    5  A    between atoms: N3_16  and  C10_17 
REMARK    6  A    between atoms: C10_17  and  C11_18 
REMARK    7  A    between atoms: C12_21  and  N5_22 
ROOT
HETATM    1  N1  UNL     1      89.214 119.827 131.302  1.00  0.00    -0.303 N 
HETATM    2  C4  UNL     1      90.282 119.857 130.475  1.00  0.00     0.155 A 
HETATM    3  C5  UNL     1      91.061 118.753 130.710  1.00  0.00     0.048 A 
HETATM    4  C6  UNL     1      90.428 118.053 131.661  1.00  0.00     0.095 A 
HETATM    5  C7  UNL     1      89.264 118.674 132.102  1.00  0.00     0.172 A 
HETATM    6  N2  UNL     1      91.209 116.924 131.375  1.00  0.00    -0.364 N 
HETATM    7  C8  UNL     1      91.347 115.494 131.240  1.00  0.00     0.143 C 
HETATM    8  C9  UNL     1      91.167 115.325 129.654  1.00  0.00     0.142 C 
HETATM    9  N3  UNL     1      92.067 116.080 128.920  1.00  0.00    -0.384 N 
HETATM   10  C15 UNL     1      92.773 117.176 129.592  1.00  0.00     0.152 C 
HETATM   11  C16 UNL     1      92.174 117.775 130.733  1.00  0.00     0.142 C 
ENDROOT
BRANCH   9  12
HETATM   12  C10 UNL     1      92.921 115.535 127.944  1.00  0.00     0.116 C 
BRANCH  12  13
HETATM   13  C11 UNL     1      92.271 115.110 126.682  1.00  0.00     0.062 A 
HETATM   14  N4  UNL     1      91.748 115.953 125.813  1.00  0.00    -0.335 N 
HETATM   15  C12 UNL     1      91.387 115.514 124.624  1.00  0.00     0.143 A 
ATOM     16  H4  UNL     1      91.624 116.935 126.059  1.00  0.00     0.168 HD
HETATM   17  S1  UNL     1      91.787 113.841 124.688  1.00  0.00    -0.057 SA
HETATM   18  C13 UNL     1      92.395 113.809 126.272  1.00  0.00     0.010 A 
HETATM   19  C14 UNL     1      92.905 112.638 127.092  1.00  0.00     0.059 C 
BRANCH  15  20
HETATM   20  N5  UNL     1      90.860 116.206 123.636  1.00  0.00    -0.380 N 
ATOM     21  H52 UNL     1      91.192 116.319 122.678  1.00  0.00     0.158 HD
ATOM     22  H51 UNL     1      90.011 116.772 123.654  1.00  0.00     0.158 HD
ENDBRANCH  15  20
ENDBRANCH  12  13
ENDBRANCH   9  12
BRANCH   2  23
HETATM   23  O1  UNL     1      90.507 120.881 129.491  1.00  0.00    -0.345 OA
ATOM     24  H1  UNL     1      91.320 121.365 129.405  1.00  0.00     0.219 HD
ENDBRANCH   2  23
BRANCH   5  25
HETATM   25  O2  UNL     1      88.421 118.277 133.081  1.00  0.00    -0.344 OA
ATOM     26  H2  UNL     1      88.207 118.706 133.901  1.00  0.00     0.219 HD
ENDBRANCH   5  25
BRANCH   1  27
HETATM   27  C3  UNL     1      88.220 120.821 131.484  1.00  0.00     0.160 C 
BRANCH  27  28
HETATM   28  C2  UNL     1      88.386 121.553 132.785  1.00  0.00    -0.017 C 
HETATM   29  C1  UNL     1      87.225 121.639 133.495  1.00  0.00     0.008 C 
ENDBRANCH  27  28
ENDBRANCH   1  27
TORSDOF 7
ENDMDL
MODEL 3
REMARK VINA RESULT: -7.465502303      1.347      1.572
REMARK  7 active torsions:
REMARK  status: ('A' for Active; 'I' for Inactive)
REMARK    1  A    between atoms: C2_2  and  C3_3 
REMARK    2  A    between atoms: C3_3  and  N1_4 
REMARK    3  A    between atoms: C4_5  and  O1_6 
REMARK    4  A    between atoms: C7_10  and  O2_11 
REMARK    5  A    between atoms: N3_16  and  C10_17 
REMARK    6  A    between atoms: C10_17  and  C11_18 
REMARK    7  A    between atoms: C12_21  and  N5_22 
ROOT
HETATM    1  N1  UNL     1      88.269 120.622 131.309  1.00  0.00    -0.303 N 
HETATM    2  C4  UNL     1      88.859 121.026 130.164  1.00  0.00     0.155 A 
HETATM    3  C5  UNL     1      89.997 120.286 129.962  1.00  0.00     0.048 A 
HETATM    4  C6  UNL     1      90.056 119.419 130.982  1.00  0.00     0.095 A 
HETATM    5  C7  UNL     1      89.013 119.580 131.887  1.00  0.00     0.172 A 
HETATM    6  N2  UNL     1      91.005 118.648 130.294  1.00  0.00    -0.364 N 
HETATM    7  C8  UNL     1      91.562 117.365 129.940  1.00  0.00     0.143 C 
HETATM    8  C9  UNL     1      90.860 117.116 128.519  1.00  0.00     0.142 C 
HETATM    9  N3  UNL     1      91.094 118.135 127.610  1.00  0.00    -0.384 N 
HETATM   10  C15 UNL     1      91.581 119.424 128.113  1.00  0.00     0.152 C 
HETATM   11  C16 UNL     1      91.296 119.782 129.459  1.00  0.00     0.142 C 
ENDROOT
BRANCH   9  12
HETATM   12  C10 UNL     1      91.642 117.922 126.332  1.00  0.00     0.116 C 
BRANCH  12  13
HETATM   13  C11 UNL     1      92.247 116.589 126.102  1.00  0.00     0.062 A 
HETATM   14  N4  UNL     1      93.104 116.027 126.931  1.00  0.00    -0.335 N 
HETATM   15  C12 UNL     1      93.426 114.759 126.766  1.00  0.00     0.143 A 
ATOM     16  H4  UNL     1      93.516 116.567 127.692  1.00  0.00     0.168 HD
HETATM   17  S1  UNL     1      92.497 114.297 125.393  1.00  0.00    -0.057 SA
HETATM   18  C13 UNL     1      91.749 115.792 125.106  1.00  0.00     0.010 A 
HETATM   19  C14 UNL     1      90.800 116.205 123.995  1.00  0.00     0.059 C 
BRANCH  15  20
HETATM   20  N5  UNL     1      94.251 114.037 127.494  1.00  0.00    -0.380 N 
ATOM     21  H52 UNL     1      94.256 113.030 127.655  1.00  0.00     0.158 HD
ATOM     22  H51 UNL     1      95.046 114.363 128.045  1.00  0.00     0.158 HD
ENDBRANCH  15  20
ENDBRANCH  12  13
ENDBRANCH   9  12
BRANCH   2  23
HETATM   23  O1  UNL     1      88.326 122.045 129.302  1.00  0.00    -0.345 OA
ATOM     24  H1  UNL     1      88.185 122.946 129.568  1.00  0.00     0.219 HD
ENDBRANCH   2  23
BRANCH   5  25
HETATM   25  O2  UNL     1      88.799 118.919 133.046  1.00  0.00    -0.344 OA
ATOM     26  H2  UNL     1      88.560 118.010 133.184  1.00  0.00     0.219 HD
ENDBRANCH   5  25
BRANCH   1  27
HETATM   27  C3  UNL     1      87.145 121.188 131.961  1.00  0.00     0.160 C 
BRANCH  27  28
HETATM   28  C2  UNL     1      87.535 121.975 133.180  1.00  0.00    -0.017 C 
HETATM   29  C1  UNL     1      86.824 121.621 134.288  1.00  0.00     0.008 C 
ENDBRANCH  27  28
ENDBRANCH   1  27
TORSDOF 7
ENDMDL
MODEL 4
REMARK VINA RESULT: -7.458424097      3.621      7.903
REMARK  7 active torsions:
REMARK  status: ('A' for Active; 'I' for Inactive)
REMARK    1  A    between atoms: C2_2  and  C3_3 
REMARK    2  A    between atoms: C3_3  and  N1_4 
REMARK    3  A    between atoms: C4_5  and  O1_6 
REMARK    4  A    between atoms: C7_10  and  O2_11 
REMARK    5  A    between atoms: N3_16  and  C10_17 
REMARK    6  A    between atoms: C10_17  and  C11_18 
REMARK    7  A    between atoms: C12_21  and  N5_22 
ROOT
HETATM    1  N1  UNL     1      91.640 114.531 124.642  1.00  0.00    -0.303 N 
HETATM    2  C4  UNL     1      91.239 115.810 124.807  1.00  0.00     0.155 A 
HETATM    3  C5  UNL     1      90.993 116.032 126.138  1.00  0.00     0.048 A 
HETATM    4  C6  UNL     1      91.284 114.883 126.762  1.00  0.00     0.095 A 
HETATM    5  C7  UNL     1      91.681 113.879 125.885  1.00  0.00     0.172 A 
HETATM    6  N2  UNL     1      91.310 115.541 128.000  1.00  0.00    -0.364 N 
HETATM    7  C8  UNL     1      91.872 115.716 129.318  1.00  0.00     0.143 C 
HETATM    8  C9  UNL     1      92.880 116.937 129.053  1.00  0.00     0.142 C 
HETATM    9  N3  UNL     1      92.255 118.053 128.522  1.00  0.00    -0.384 N 
HETATM   10  C15 UNL     1      90.924 117.894 127.926  1.00  0.00     0.152 C 
HETATM   11  C16 UNL     1      90.550 116.618 127.425  1.00  0.00     0.142 C 
ENDROOT
BRANCH   9  12
HETATM   12  C10 UNL     1      92.331 119.333 129.102  1.00  0.00     0.116 C 
BRANCH  12  13
HETATM   13  C11 UNL     1      91.078 119.843 129.706  1.00  0.00     0.062 A 
HETATM   14  N4  UNL     1      90.300 120.735 129.124  1.00  0.00    -0.335 N 
HETATM   15  C12 UNL     1      89.103 120.972 129.623  1.00  0.00     0.143 A 
ATOM     16  H4  UNL     1      90.621 121.237 128.297  1.00  0.00     0.168 HD
HETATM   17  S1  UNL     1      89.026 119.909 130.974  1.00  0.00    -0.057 SA
HETATM   18  C13 UNL     1      90.569 119.222 130.816  1.00  0.00     0.010 A 
HETATM   19  C14 UNL     1      91.275 118.208 131.698  1.00  0.00     0.059 C 
BRANCH  15  20
HETATM   20  N5  UNL     1      88.196 121.815 129.174  1.00  0.00    -0.380 N 
ATOM     21  H52 UNL     1      87.695 121.811 128.286  1.00  0.00     0.158 HD
ATOM     22  H51 UNL     1      87.831 122.645 129.642  1.00  0.00     0.158 HD
ENDBRANCH  15  20
ENDBRANCH  12  13
ENDBRANCH   9  12
BRANCH   2  23
HETATM   23  O1  UNL     1      91.138 116.764 123.737  1.00  0.00    -0.345 OA
ATOM     24  H1  UNL     1      90.684 117.595 123.808  1.00  0.00     0.219 HD
ENDBRANCH   2  23
BRANCH   5  25
HETATM   25  O2  UNL     1      91.989 112.594 126.166  1.00  0.00    -0.344 OA
ATOM     26  H2  UNL     1      91.524 111.969 126.710  1.00  0.00     0.219 HD
ENDBRANCH   5  25
BRANCH   1  27
HETATM   27  C3  UNL     1      91.884 113.840 123.428  1.00  0.00     0.160 C 
BRANCH  27  28
HETATM   28  C2  UNL     1      93.347 113.791 123.089  1.00  0.00    -0.017 C 
HETATM   29  C1  UNL     1      93.858 112.528 123.132  1.00  0.00     0.008 C 
ENDBRANCH  27  28
ENDBRANCH   1  27
TORSDOF 7
ENDMDL
MODEL 5
REMARK VINA RESULT: -7.442005149      1.487      1.786
REMARK  7 active torsions:
REMARK  status: ('A' for Active; 'I' for Inactive)
REMARK    1  A    between atoms: C2_2  and  C3_3 
REMARK    2  A    between atoms: C3_3  and  N1_4 
REMARK    3  A    between atoms: C4_5  and  O1_6 
REMARK    4  A    between atoms: C7_10  and  O2_11 
REMARK    5  A    between atoms: N3_16  and  C10_17 
REMARK    6  A    between atoms: C10_17  and  C11_18 
REMARK    7  A    between atoms: C12_21  and  N5_22 
ROOT
HETATM    1  N1  UNL     1      88.861 119.967 131.265  1.00  0.00    -0.303 N 
HETATM    2  C4  UNL     1      89.872 120.149 130.389  1.00  0.00     0.155 A 
HETATM    3  C5  UNL     1      90.850 119.219 130.636  1.00  0.00     0.048 A 
HETATM    4  C6  UNL     1      90.393 118.464 131.645  1.00  0.00     0.095 A 
HETATM    5  C7  UNL     1      89.151 118.885 132.111  1.00  0.00     0.172 A 
HETATM    6  N2  UNL     1      91.357 117.484 131.372  1.00  0.00    -0.364 N 
HETATM    7  C8  UNL     1      91.751 116.098 131.293  1.00  0.00     0.143 C 
HETATM    8  C9  UNL     1      91.547 115.818 129.726  1.00  0.00     0.142 C 
HETATM    9  N3  UNL     1      92.264 116.686 128.920  1.00  0.00    -0.384 N 
HETATM   10  C15 UNL     1      92.781 117.925 129.510  1.00  0.00     0.152 C 
HETATM   11  C16 UNL     1      92.124 118.462 130.650  1.00  0.00     0.142 C 
ENDROOT
BRANCH   9  12
HETATM   12  C10 UNL     1      93.167 116.256 127.930  1.00  0.00     0.116 C 
BRANCH  12  13
HETATM   13  C11 UNL     1      92.560 115.791 126.660  1.00  0.00     0.062 A 
HETATM   14  N4  UNL     1      92.322 114.523 126.388  1.00  0.00    -0.335 N 
HETATM   15  C12 UNL     1      91.587 114.214 125.339  1.00  0.00     0.143 A 
ATOM     16  H4  UNL     1      92.704 113.788 126.984  1.00  0.00     0.168 HD
HETATM   17  S1  UNL     1      91.189 115.752 124.676  1.00  0.00    -0.057 SA
HETATM   18  C13 UNL     1      92.016 116.712 125.805  1.00  0.00     0.010 A 
HETATM   19  C14 UNL     1      92.185 118.219 125.857  1.00  0.00     0.059 C 
BRANCH  15  20
HETATM   20  N5  UNL     1      91.244 113.014 124.921  1.00  0.00    -0.380 N 
ATOM     21  H52 UNL     1      90.500 112.743 124.278  1.00  0.00     0.158 HD
ATOM     22  H51 UNL     1      91.664 112.120 125.178  1.00  0.00     0.158 HD
ENDBRANCH  15  20
ENDBRANCH  12  13
ENDBRANCH   9  12
BRANCH   2  23
HETATM   23  O1  UNL     1      89.868 121.145 129.352  1.00  0.00    -0.345 OA
ATOM     24  H1  UNL     1      90.623 121.355 128.815  1.00  0.00     0.219 HD
ENDBRANCH   2  23
BRANCH   5  25
HETATM   25  O2  UNL     1      88.433 118.391 133.144  1.00  0.00    -0.344 OA
ATOM     26  H2  UNL     1      88.737 117.993 133.951  1.00  0.00     0.219 HD
ENDBRANCH   5  25
BRANCH   1  27
HETATM   27  C3  UNL     1      87.708 120.771 131.449  1.00  0.00     0.160 C 
BRANCH  27  28
HETATM   28  C2  UNL     1      87.929 121.849 132.471  1.00  0.00    -0.017 C 
HETATM   29  C1  UNL     1      87.202 121.658 133.608  1.00  0.00     0.008 C 
ENDBRANCH  27  28
ENDBRANCH   1  27
TORSDOF 7
ENDMDL
