MODEL 1
REMARK VINA RESULT: -9.150412391      0.000      0.000
REMARK  5 active torsions:
REMARK  status: ('A' for Active; 'I' for Inactive)
REMARK    1  A    between atoms: C2_5  and  N2_6 
REMARK    2  A    between atoms: N2_6  and  C3_8 
REMARK    3  A    between atoms: C3_8  and  C4_9 
REMARK    4  A    between atoms: C4_9  and  N3_10 
REMARK    5  A    between atoms: N3_10  and  C5_12 
ROOT
HETATM    1  O1  UNL     1      91.235 118.292 126.716  1.00  0.00    -0.267 OA
HETATM    2  C1  UNL     1      90.771 118.560 127.855  1.00  0.00     0.272 A 
HETATM    3  N1  UNL     1      90.297 119.779 128.153  1.00  0.00    -0.155 N 
ATOM      4  H1  UNL     1      90.308 120.518 127.450  1.00  0.00     0.187 HD
HETATM    5  C2  UNL     1      89.816 120.022 129.364  1.00  0.00     0.681 A 
HETATM    6  N4  UNL     1      89.787 119.063 130.331  1.00  0.00    -0.189 N 
ATOM      7  H4  UNL     1      89.410 119.290 131.251  1.00  0.00     0.184 HD
HETATM    8  C11 UNL     1      90.244 117.830 130.094  1.00  0.00     0.094 A 
HETATM    9  C12 UNL     1      90.745 117.586 128.823  1.00  0.00     0.062 A 
HETATM   10  C13 UNL     1      91.229 116.314 128.530  1.00  0.00     0.022 A 
HETATM   11  C14 UNL     1      91.194 115.347 129.508  1.00  0.00     0.033 A 
HETATM   12  C15 UNL     1      90.685 115.605 130.792  1.00  0.00     0.069 A 
HETATM   13  N5  UNL     1      90.634 114.692 131.769  1.00  0.00    -0.310 N 
ATOM     14  H5  UNL     1      90.939 113.719 131.735  1.00  0.00     0.176 HD
HETATM   15  S1  UNL     1      89.950 115.516 133.059  1.00  0.00     0.068 SA
HETATM   16  N6  UNL     1      89.745 117.009 132.321  1.00  0.00    -0.308 N 
ATOM     17  H6  UNL     1      89.352 117.859 132.723  1.00  0.00     0.176 HD
HETATM   18  C16 UNL     1      90.218 116.826 131.081  1.00  0.00     0.095 A 
ENDROOT
BRANCH   5  19
HETATM   19  N2  UNL     1      89.338 121.162 129.695  1.00  0.00    -0.221 N 
ATOM     20  H2  UNL     1      89.974 121.883 130.036  1.00  0.00     0.178 HD
BRANCH  19  21
HETATM   21  C3  UNL     1      87.917 121.463 129.600  1.00  0.00     0.182 C 
BRANCH  21  22
HETATM   22  C4  UNL     1      87.328 121.634 130.971  1.00  0.00     0.076 C 
BRANCH  22  23
HETATM   23  N3  UNL     1      88.227 121.963 131.972  1.00  0.00    -0.396 N 
ATOM     24  H3  UNL     1      89.020 122.547 131.709  1.00  0.00     0.159 HD
BRANCH  23  25
HETATM   25  C5  UNL     1      88.147 121.571 133.301  1.00  0.00     0.080 C 
HETATM   26  C6  UNL     1      87.108 122.187 134.160  1.00  0.00     0.025 C 
HETATM   27  C7  UNL     1      86.524 121.211 135.171  1.00  0.00     0.002 C 
HETATM   28  C8  UNL     1      87.595 120.319 135.760  1.00  0.00     0.000 C 
HETATM   29  C9  UNL     1      88.276 119.496 134.685  1.00  0.00     0.002 C 
HETATM   30  C10 UNL     1      87.956 120.033 133.305  1.00  0.00     0.025 C 
ENDBRANCH  23  25
ENDBRANCH  22  23
ENDBRANCH  21  22
ENDBRANCH  19  21
ENDBRANCH   5  19
TORSDOF 5
ENDMDL
MODEL 2
REMARK VINA RESULT: -8.865962085      1.830      2.089
REMARK  5 active torsions:
REMARK  status: ('A' for Active; 'I' for Inactive)
REMARK    1  A    between atoms: C2_5  and  N2_6 
REMARK    2  A    between atoms: N2_6  and  C3_8 
REMARK    3  A    between atoms: C3_8  and  C4_9 
REMARK    4  A    between atoms: C4_9  and  N3_10 
REMARK    5  A    between atoms: N3_10  and  C5_12 
ROOT
HETATM    1  O1  UNL     1      92.127 120.424 128.989  1.00  0.00    -0.267 OA
HETATM    2  C1  UNL     1      91.159 120.022 129.685  1.00  0.00     0.272 A 
HETATM    3  N1  UNL     1      89.951 120.601 129.613  1.00  0.00    -0.155 N 
ATOM      4  H1  UNL     1      89.799 121.390 128.984  1.00  0.00     0.187 HD
HETATM    5  C2  UNL     1      88.957 120.147 130.363  1.00  0.00     0.681 A 
HETATM    6  N4  UNL     1      89.121 119.099 131.216  1.00  0.00    -0.189 N 
ATOM      7  H4  UNL     1      88.331 118.781 131.777  1.00  0.00     0.184 HD
HETATM    8  C11 UNL     1      90.300 118.481 131.332  1.00  0.00     0.094 A 
HETATM    9  C12 UNL     1      91.335 118.963 130.543  1.00  0.00     0.062 A 
HETATM   10  C13 UNL     1      92.581 118.347 130.627  1.00  0.00     0.022 A 
HETATM   11  C14 UNL     1      92.742 117.286 131.487  1.00  0.00     0.033 A 
HETATM   12  C15 UNL     1      91.687 116.807 132.282  1.00  0.00     0.069 A 
HETATM   13  N5  UNL     1      91.804 115.777 133.130  1.00  0.00    -0.310 N 
ATOM     14  H5  UNL     1      92.631 115.212 133.321  1.00  0.00     0.176 HD
HETATM   15  S1  UNL     1      90.276 115.633 133.805  1.00  0.00     0.068 SA
HETATM   16  N6  UNL     1      89.522 116.890 132.988  1.00  0.00    -0.308 N 
ATOM     17  H6  UNL     1      88.554 117.199 133.069  1.00  0.00     0.176 HD
HETATM   18  C16 UNL     1      90.486 117.393 132.206  1.00  0.00     0.095 A 
ENDROOT
BRANCH   5  19
HETATM   19  N2  UNL     1      87.782 120.654 130.321  1.00  0.00    -0.221 N 
ATOM     20  H2  UNL     1      87.064 120.189 129.766  1.00  0.00     0.178 HD
BRANCH  19  21
HETATM   21  C3  UNL     1      87.438 121.871 131.042  1.00  0.00     0.182 C 
BRANCH  21  22
HETATM   22  C4  UNL     1      87.876 121.769 132.475  1.00  0.00     0.076 C 
BRANCH  22  23
HETATM   23  N3  UNL     1      86.861 121.825 133.417  1.00  0.00    -0.396 N 
ATOM     24  H3  UNL     1      85.903 121.793 133.068  1.00  0.00     0.159 HD
BRANCH  23  25
HETATM   25  C5  UNL     1      87.028 121.921 134.791  1.00  0.00     0.080 C 
HETATM   26  C6  UNL     1      86.087 121.192 135.672  1.00  0.00     0.025 C 
HETATM   27  C7  UNL     1      86.758 120.635 136.920  1.00  0.00     0.002 C 
HETATM   28  C8  UNL     1      87.761 121.612 137.490  1.00  0.00     0.000 C 
HETATM   29  C9  UNL     1      88.859 121.918 136.490  1.00  0.00     0.002 C 
HETATM   30  C10 UNL     1      88.473 121.453 135.102  1.00  0.00     0.025 C 
ENDBRANCH  23  25
ENDBRANCH  22  23
ENDBRANCH  21  22
ENDBRANCH  19  21
ENDBRANCH   5  19
TORSDOF 5
ENDMDL
MODEL 3
REMARK VINA RESULT: -8.799396431      2.639      6.729
REMARK  5 active torsions:
REMARK  status: ('A' for Active; 'I' for Inactive)
REMARK    1  A    between atoms: C2_5  and  N2_6 
REMARK    2  A    between atoms: N2_6  and  C3_8 
REMARK    3  A    between atoms: C3_8  and  C4_9 
REMARK    4  A    between atoms: C4_9  and  N3_10 
REMARK    5  A    between atoms: N3_10  and  C5_12 
ROOT
HETATM    1  O1  UNL     1      90.687 116.464 131.005  1.00  0.00    -0.267 OA
HETATM    2  C1  UNL     1      90.483 117.692 130.818  1.00  0.00     0.272 A 
HETATM    3  N1  UNL     1      90.980 118.332 129.749  1.00  0.00    -0.155 N 
ATOM      4  H1  UNL     1      91.539 117.825 129.063  1.00  0.00     0.187 HD
HETATM    5  C2  UNL     1      90.742 119.626 129.586  1.00  0.00     0.681 A 
HETATM    6  N4  UNL     1      90.003 120.339 130.481  1.00  0.00    -0.189 N 
ATOM      7  H4  UNL     1      89.845 121.333 130.320  1.00  0.00     0.184 HD
HETATM    8  C11 UNL     1      89.482 119.757 131.565  1.00  0.00     0.094 A 
HETATM    9  C12 UNL     1      89.736 118.402 131.726  1.00  0.00     0.062 A 
HETATM   10  C13 UNL     1      89.210 117.752 132.839  1.00  0.00     0.022 A 
HETATM   11  C14 UNL     1      88.460 118.474 133.738  1.00  0.00     0.033 A 
HETATM   12  C15 UNL     1      88.210 119.846 133.566  1.00  0.00     0.069 A 
HETATM   13  N5  UNL     1      87.485 120.582 134.417  1.00  0.00    -0.310 N 
ATOM     14  H5  UNL     1      87.027 120.279 135.276  1.00  0.00     0.176 HD
HETATM   15  S1  UNL     1      87.505 122.117 133.743  1.00  0.00     0.068 SA
HETATM   16  N6  UNL     1      88.438 121.784 132.389  1.00  0.00    -0.308 N 
ATOM     17  H6  UNL     1      88.729 122.428 131.654  1.00  0.00     0.176 HD
HETATM   18  C16 UNL     1      88.712 120.477 132.497  1.00  0.00     0.095 A 
ENDROOT
BRANCH   5  19
HETATM   19  N2  UNL     1      91.179 120.281 128.577  1.00  0.00    -0.221 N 
ATOM     20  H2  UNL     1      90.678 121.116 128.275  1.00  0.00     0.178 HD
BRANCH  19  21
HETATM   21  C3  UNL     1      92.371 119.872 127.847  1.00  0.00     0.182 C 
BRANCH  21  22
HETATM   22  C4  UNL     1      92.007 119.450 126.452  1.00  0.00     0.076 C 
BRANCH  22  23
HETATM   23  N3  UNL     1      92.358 118.154 126.108  1.00  0.00    -0.396 N 
ATOM     24  H3  UNL     1      93.298 118.011 125.738  1.00  0.00     0.159 HD
BRANCH  23  25
HETATM   25  C5  UNL     1      91.548 117.033 126.221  1.00  0.00     0.080 C 
HETATM   26  C6  UNL     1      91.283 116.226 125.008  1.00  0.00     0.025 C 
HETATM   27  C7  UNL     1      91.198 114.733 125.300  1.00  0.00     0.002 C 
HETATM   28  C8  UNL     1      90.461 114.465 126.592  1.00  0.00     0.000 C 
HETATM   29  C9  UNL     1      91.162 115.112 127.770  1.00  0.00     0.002 C 
HETATM   30  C10 UNL     1      92.187 116.124 127.301  1.00  0.00     0.025 C 
ENDBRANCH  23  25
ENDBRANCH  22  23
ENDBRANCH  21  22
ENDBRANCH  19  21
ENDBRANCH   5  19
TORSDOF 5
ENDMDL
MODEL 4
REMARK VINA RESULT: -8.759527899      1.355      1.355
REMARK  5 active torsions:
REMARK  status: ('A' for Active; 'I' for Inactive)
REMARK    1  A    between atoms: C2_5  and  N2_6 
REMARK    2  A    between atoms: N2_6  and  C3_8 
REMARK    3  A    between atoms: C3_8  and  C4_9 
REMARK    4  A    between atoms: C4_9  and  N3_10 
REMARK    5  A    between atoms: N3_10  and  C5_12 
ROOT
HETATM    1  O1  UNL     1      93.196 119.703 128.573  1.00  0.00    -0.267 OA
HETATM    2  C1  UNL     1      92.106 119.611 129.195  1.00  0.00     0.272 A 
HETATM    3  N1  UNL     1      91.110 120.490 129.004  1.00  0.00    -0.155 N 
ATOM      4  H1  UNL     1      91.226 121.258 128.342  1.00  0.00     0.187 HD
HETATM    5  C2  UNL     1      89.976 120.359 129.678  1.00  0.00     0.681 A 
HETATM    6  N4  UNL     1      89.785 119.350 130.572  1.00  0.00    -0.189 N 
ATOM      7  H4  UNL     1      88.898 119.285 131.072  1.00  0.00     0.184 HD
HETATM    8  C11 UNL     1      90.739 118.444 130.806  1.00  0.00     0.094 A 
HETATM    9  C12 UNL     1      91.922 118.589 130.094  1.00  0.00     0.062 A 
HETATM   10  C13 UNL     1      92.943 117.666 130.303  1.00  0.00     0.022 A 
HETATM   11  C14 UNL     1      92.744 116.645 131.203  1.00  0.00     0.033 A 
HETATM   12  C15 UNL     1      91.542 116.508 131.918  1.00  0.00     0.069 A 
HETATM   13  N5  UNL     1      91.310 115.530 132.802  1.00  0.00    -0.310 N 
ATOM     14  H5  UNL     1      91.936 114.773 133.079  1.00  0.00     0.176 HD
HETATM   15  S1  UNL     1      89.755 115.837 133.347  1.00  0.00     0.068 SA
HETATM   16  N6  UNL     1      89.435 117.207 132.434  1.00  0.00    -0.308 N 
ATOM     17  H6  UNL     1      88.585 117.769 132.422  1.00  0.00     0.176 HD
HETATM   18  C16 UNL     1      90.556 117.392 131.723  1.00  0.00     0.095 A 
ENDROOT
BRANCH   5  19
HETATM   19  N2  UNL     1      88.991 121.161 129.522  1.00  0.00    -0.221 N 
ATOM     20  H2  UNL     1      89.123 122.001 128.960  1.00  0.00     0.178 HD
BRANCH  19  21
HETATM   21  C3  UNL     1      87.688 120.911 130.120  1.00  0.00     0.182 C 
BRANCH  21  22
HETATM   22  C4  UNL     1      87.426 121.892 131.227  1.00  0.00     0.076 C 
BRANCH  22  23
HETATM   23  N3  UNL     1      88.371 121.917 132.241  1.00  0.00    -0.396 N 
ATOM     24  H3  UNL     1      89.315 122.207 131.986  1.00  0.00     0.159 HD
BRANCH  23  25
HETATM   25  C5  UNL     1      88.150 121.585 133.569  1.00  0.00     0.080 C 
HETATM   26  C6  UNL     1      87.028 122.234 134.286  1.00  0.00     0.025 C 
HETATM   27  C7  UNL     1      86.339 121.302 135.273  1.00  0.00     0.002 C 
HETATM   28  C8  UNL     1      87.341 120.442 136.010  1.00  0.00     0.000 C 
HETATM   29  C9  UNL     1      88.131 119.573 135.050  1.00  0.00     0.002 C 
HETATM   30  C10 UNL     1      87.959 120.048 133.622  1.00  0.00     0.025 C 
ENDBRANCH  23  25
ENDBRANCH  22  23
ENDBRANCH  21  22
ENDBRANCH  19  21
ENDBRANCH   5  19
TORSDOF 5
ENDMDL
MODEL 5
REMARK VINA RESULT: -8.742671445      1.779      2.455
REMARK  5 active torsions:
REMARK  status: ('A' for Active; 'I' for Inactive)
REMARK    1  A    between atoms: C2_5  and  N2_6 
REMARK    2  A    between atoms: N2_6  and  C3_8 
REMARK    3  A    between atoms: C3_8  and  C4_9 
REMARK    4  A    between atoms: C4_9  and  N3_10 
REMARK    5  A    between atoms: N3_10  and  C5_12 
ROOT
HETATM    1  O1  UNL     1      91.605 117.769 125.153  1.00  0.00    -0.267 OA
HETATM    2  C1  UNL     1      91.349 117.678 126.381  1.00  0.00     0.272 A 
HETATM    3  N1  UNL     1      91.210 118.766 127.154  1.00  0.00    -0.155 N 
ATOM      4  H1  UNL     1      91.313 119.697 126.750  1.00  0.00     0.187 HD
HETATM    5  C2  UNL     1      90.941 118.628 128.445  1.00  0.00     0.681 A 
HETATM    6  N4  UNL     1      90.799 117.403 129.022  1.00  0.00    -0.189 N 
ATOM      7  H4  UNL     1      90.594 117.339 130.019  1.00  0.00     0.184 HD
HETATM    8  C11 UNL     1      90.926 116.283 128.305  1.00  0.00     0.094 A 
HETATM    9  C12 UNL     1      91.208 116.437 126.954  1.00  0.00     0.062 A 
HETATM   10  C13 UNL     1      91.345 115.298 126.167  1.00  0.00     0.022 A 
HETATM   11  C14 UNL     1      91.198 114.062 126.753  1.00  0.00     0.033 A 
HETATM   12  C15 UNL     1      90.913 113.917 128.121  1.00  0.00     0.069 A 
HETATM   13  N5  UNL     1      90.762 112.733 128.727  1.00  0.00    -0.310 N 
ATOM     14  H5  UNL     1      90.826 111.803 128.314  1.00  0.00     0.176 HD
HETATM   15  S1  UNL     1      90.442 113.134 130.324  1.00  0.00     0.068 SA
HETATM   16  N6  UNL     1      90.508 114.804 130.180  1.00  0.00    -0.308 N 
ATOM     17  H6  UNL     1      90.372 115.502 130.911  1.00  0.00     0.176 HD
HETATM   18  C16 UNL     1      90.779 115.009 128.885  1.00  0.00     0.095 A 
ENDROOT
BRANCH   5  19
HETATM   19  N2  UNL     1      90.783 119.632 129.222  1.00  0.00    -0.221 N 
ATOM     20  H2  UNL     1      91.608 120.104 129.592  1.00  0.00     0.178 HD
BRANCH  19  21
HETATM   21  C3  UNL     1      89.465 120.124 129.594  1.00  0.00     0.182 C 
BRANCH  21  22
HETATM   22  C4  UNL     1      89.267 120.014 131.079  1.00  0.00     0.076 C 
BRANCH  22  23
HETATM   23  N3  UNL     1      88.144 120.651 131.582  1.00  0.00    -0.396 N 
ATOM     24  H3  UNL     1      87.661 121.298 130.960  1.00  0.00     0.159 HD
BRANCH  23  25
HETATM   25  C5  UNL     1      87.616 120.487 132.855  1.00  0.00     0.080 C 
HETATM   26  C6  UNL     1      88.242 119.494 133.759  1.00  0.00     0.025 C 
HETATM   27  C7  UNL     1      88.249 119.944 135.214  1.00  0.00     0.002 C 
HETATM   28  C8  UNL     1      86.954 120.630 135.586  1.00  0.00     0.000 C 
HETATM   29  C9  UNL     1      86.722 121.864 134.737  1.00  0.00     0.002 C 
HETATM   30  C10 UNL     1      87.646 121.878 133.537  1.00  0.00     0.025 C 
ENDBRANCH  23  25
ENDBRANCH  22  23
ENDBRANCH  21  22
ENDBRANCH  19  21
ENDBRANCH   5  19
TORSDOF 5
ENDMDL
