MODEL 1
REMARK VINA RESULT: -9.225122179      0.000      0.000
REMARK  5 active torsions:
REMARK  status: ('A' for Active; 'I' for Inactive)
REMARK    1  A    between atoms: C1_4  and  C2_6 
REMARK    2  A    between atoms: C4_8  and  C5_9 
REMARK    3  A    between atoms: C7_13  and  C8_14 
REMARK    4  A    between atoms: C12_20  and  N4_21 
REMARK    5  A    between atoms: N4_21  and  C13_23 
ROOT
HETATM    1  C2  UNL     1      88.023 120.540 134.706  1.00  0.00     0.089 A 
HETATM    2  C3  UNL     1      88.294 120.809 133.387  1.00  0.00     0.052 A 
HETATM    3  C4  UNL     1      88.696 119.799 132.497  1.00  0.00     0.047 A 
HETATM    4  C12 UNL     1      88.795 118.549 133.035  1.00  0.00     0.129 A 
HETATM    5  N5  UNL     1      88.522 118.298 134.349  1.00  0.00    -0.284 N 
ATOM      6  H5  UNL     1      88.609 117.347 134.709  1.00  0.00     0.188 HD
HETATM    7  N6  UNL     1      88.147 119.270 135.158  1.00  0.00    -0.296 N 
ATOM      8  H6  UNL     1      87.948 119.063 136.137  1.00  0.00     0.187 HD
ENDROOT
BRANCH   3   9
HETATM    9  C5  UNL     1      88.973 120.115 131.119  1.00  0.00     0.107 A 
HETATM   10  C6  UNL     1      88.399 121.048 130.321  1.00  0.00     0.128 A 
HETATM   11  N3  UNL     1      89.026 120.934 129.108  1.00  0.00    -0.345 N 
HETATM   12  C7  UNL     1      89.947 119.957 129.190  1.00  0.00     0.153 A 
ATOM     13  H3  UNL     1      88.828 121.496 128.280  1.00  0.00     0.167 HD
HETATM   14  O2  UNL     1      89.902 119.475 130.407  1.00  0.00    -0.293 OA
BRANCH  12  15
HETATM   15  C8  UNL     1      90.866 119.494 128.090  1.00  0.00     0.196 C 
HETATM   16  C9  UNL     1      90.632 118.065 127.742  1.00  0.00     0.042 C 
HETATM   17  C10 UNL     1      91.949 117.410 128.122  1.00  0.00     0.029 C 
HETATM   18  C11 UNL     1      92.906 118.580 127.997  1.00  0.00     0.168 C 
HETATM   19  O1  UNL     1      92.184 119.628 128.507  1.00  0.00    -0.378 OA
ENDBRANCH  12  15
ENDBRANCH   3   9
BRANCH   4  20
HETATM   20  N4  UNL     1      89.146 117.566 132.332  1.00  0.00    -0.370 N 
ATOM     21  H4  UNL     1      88.735 117.519 131.400  1.00  0.00     0.161 HD
BRANCH  20  22
HETATM   22  C13 UNL     1      90.048 116.502 132.668  1.00  0.00     0.083 C 
HETATM   23  C14 UNL     1      91.447 116.861 132.186  1.00  0.00     0.025 C 
HETATM   24  C15 UNL     1      92.336 115.644 132.034  1.00  0.00     0.002 C 
HETATM   25  C16 UNL     1      91.770 114.680 131.010  1.00  0.00     0.000 C 
HETATM   26  C17 UNL     1      90.314 115.077 130.698  1.00  0.00     0.002 C 
HETATM   27  C18 UNL     1      89.663 115.191 132.076  1.00  0.00     0.025 C 
ENDBRANCH  20  22
ENDBRANCH   4  20
BRANCH   1  28
HETATM   28  C1  UNL     1      87.608 121.562 135.644  1.00  0.00     0.138 C 
HETATM   29  N1  UNL     1      86.375 121.708 135.929  1.00  0.00    -0.386 N 
ATOM     30  H12 UNL     1      86.082 122.428 136.590  1.00  0.00     0.157 HD
ATOM     31  H11 UNL     1      85.672 121.107 135.500  1.00  0.00     0.157 HD
HETATM   32  N2  UNL     1      88.579 122.393 136.238  1.00  0.00    -0.081 NA
ENDBRANCH   1  28
TORSDOF 5
ENDMDL
MODEL 2
REMARK VINA RESULT: -9.212378297      2.413      5.031
REMARK  5 active torsions:
REMARK  status: ('A' for Active; 'I' for Inactive)
REMARK    1  A    between atoms: C1_4  and  C2_6 
REMARK    2  A    between atoms: C4_8  and  C5_9 
REMARK    3  A    between atoms: C7_13  and  C8_14 
REMARK    4  A    between atoms: C12_20  and  N4_21 
REMARK    5  A    between atoms: N4_21  and  C13_23 
ROOT
HETATM    1  C2  UNL     1      88.448 120.773 130.741  1.00  0.00     0.089 A 
HETATM    2  C3  UNL     1      89.158 119.767 131.351  1.00  0.00     0.052 A 
HETATM    3  C4  UNL     1      90.303 119.211 130.758  1.00  0.00     0.047 A 
HETATM    4  C12 UNL     1      90.652 119.737 129.549  1.00  0.00     0.129 A 
HETATM    5  N5  UNL     1      89.937 120.737 128.955  1.00  0.00    -0.284 N 
ATOM      6  H5  UNL     1      90.234 121.100 128.050  1.00  0.00     0.188 HD
HETATM    7  N6  UNL     1      88.864 121.237 129.539  1.00  0.00    -0.296 N 
ATOM      8  H6  UNL     1      88.342 121.983 129.079  1.00  0.00     0.187 HD
ENDROOT
BRANCH   3   9
HETATM    9  C5  UNL     1      91.025 118.158 131.425  1.00  0.00     0.107 A 
HETATM   10  C6  UNL     1      90.554 117.153 132.203  1.00  0.00     0.128 A 
HETATM   11  N3  UNL     1      91.655 116.432 132.585  1.00  0.00    -0.345 N 
HETATM   12  C7  UNL     1      92.748 116.999 132.045  1.00  0.00     0.153 A 
ATOM     13  H3  UNL     1      91.646 115.603 133.179  1.00  0.00     0.167 HD
HETATM   14  O2  UNL     1      92.352 118.036 131.349  1.00  0.00    -0.293 OA
BRANCH  12  15
HETATM   15  C8  UNL     1      94.172 116.534 132.204  1.00  0.00     0.196 C 
HETATM   16  C9  UNL     1      94.406 115.930 133.546  1.00  0.00     0.042 C 
HETATM   17  C10 UNL     1      95.417 116.880 134.166  1.00  0.00     0.029 C 
HETATM   18  C11 UNL     1      96.078 117.455 132.927  1.00  0.00     0.168 C 
HETATM   19  O1  UNL     1      95.028 117.619 132.062  1.00  0.00    -0.378 OA
ENDBRANCH  12  15
ENDBRANCH   3   9
BRANCH   4  20
HETATM   20  N4  UNL     1      91.661 119.317 128.925  1.00  0.00    -0.370 N 
ATOM     21  H4  UNL     1      92.564 119.531 129.349  1.00  0.00     0.161 HD
BRANCH  20  22
HETATM   22  C13 UNL     1      91.710 118.577 127.697  1.00  0.00     0.083 C 
HETATM   23  C14 UNL     1      90.490 117.671 127.609  1.00  0.00     0.025 C 
HETATM   24  C15 UNL     1      90.691 116.521 126.644  1.00  0.00     0.002 C 
HETATM   25  C16 UNL     1      91.843 115.637 127.083  1.00  0.00     0.000 C 
HETATM   26  C17 UNL     1      92.651 116.369 128.173  1.00  0.00     0.002 C 
HETATM   27  C18 UNL     1      92.935 117.740 127.559  1.00  0.00     0.025 C 
ENDBRANCH  20  22
ENDBRANCH   4  20
BRANCH   1  28
HETATM   28  C1  UNL     1      87.265 121.363 131.329  1.00  0.00     0.138 C 
HETATM   29  N1  UNL     1      86.280 121.698 130.593  1.00  0.00    -0.386 N 
ATOM     30  H12 UNL     1      85.446 122.115 131.007  1.00  0.00     0.157 HD
ATOM     31  H11 UNL     1      86.319 121.552 129.584  1.00  0.00     0.157 HD
HETATM   32  N2  UNL     1      87.210 121.565 132.722  1.00  0.00    -0.081 NA
ENDBRANCH   1  28
TORSDOF 5
ENDMDL
MODEL 3
REMARK VINA RESULT: -9.048710855      1.924      4.304
REMARK  5 active torsions:
REMARK  status: ('A' for Active; 'I' for Inactive)
REMARK    1  A    between atoms: C1_4  and  C2_6 
REMARK    2  A    between atoms: C4_8  and  C5_9 
REMARK    3  A    between atoms: C7_13  and  C8_14 
REMARK    4  A    between atoms: C12_20  and  N4_21 
REMARK    5  A    between atoms: N4_21  and  C13_23 
ROOT
HETATM    1  C2  UNL     1      87.955 120.981 134.373  1.00  0.00     0.089 A 
HETATM    2  C3  UNL     1      88.316 119.657 134.318  1.00  0.00     0.052 A 
HETATM    3  C4  UNL     1      88.729 119.055 133.119  1.00  0.00     0.047 A 
HETATM    4  C12 UNL     1      88.745 119.873 132.027  1.00  0.00     0.129 A 
HETATM    5  N5  UNL     1      88.384 121.188 132.097  1.00  0.00    -0.284 N 
ATOM      6  H5  UNL     1      88.412 121.764 131.256  1.00  0.00     0.188 HD
HETATM    7  N6  UNL     1      88.000 121.723 133.241  1.00  0.00    -0.296 N 
ATOM      8  H6  UNL     1      87.733 122.707 133.273  1.00  0.00     0.187 HD
ENDROOT
BRANCH   3   9
HETATM    9  C5  UNL     1      89.100 117.663 133.096  1.00  0.00     0.107 A 
HETATM   10  C6  UNL     1      89.393 116.836 134.129  1.00  0.00     0.128 A 
HETATM   11  N3  UNL     1      89.679 115.622 133.561  1.00  0.00    -0.345 N 
HETATM   12  C7  UNL     1      89.558 115.732 132.227  1.00  0.00     0.153 A 
ATOM     13  H3  UNL     1      89.940 114.776 134.068  1.00  0.00     0.167 HD
HETATM   14  O2  UNL     1      89.209 116.966 131.963  1.00  0.00    -0.293 OA
BRANCH  12  15
HETATM   15  C8  UNL     1      89.782 114.641 131.212  1.00  0.00     0.196 C 
HETATM   16  C9  UNL     1      89.281 113.326 131.700  1.00  0.00     0.042 C 
HETATM   17  C10 UNL     1      90.552 112.498 131.789  1.00  0.00     0.029 C 
HETATM   18  C11 UNL     1      91.428 113.194 130.764  1.00  0.00     0.168 C 
HETATM   19  O1  UNL     1      91.142 114.521 130.960  1.00  0.00    -0.378 OA
ENDBRANCH  12  15
ENDBRANCH   3   9
BRANCH   4  20
HETATM   20  N4  UNL     1      89.098 119.444 130.899  1.00  0.00    -0.370 N 
ATOM     21  H4  UNL     1      88.581 118.637 130.551  1.00  0.00     0.161 HD
BRANCH  20  22
HETATM   22  C13 UNL     1      90.133 119.939 130.036  1.00  0.00     0.083 C 
HETATM   23  C14 UNL     1      89.988 119.299 128.662  1.00  0.00     0.025 C 
HETATM   24  C15 UNL     1      91.271 119.352 127.860  1.00  0.00     0.002 C 
HETATM   25  C16 UNL     1      92.383 118.597 128.562  1.00  0.00     0.000 C 
HETATM   26  C17 UNL     1      91.954 118.305 130.013  1.00  0.00     0.002 C 
HETATM   27  C18 UNL     1      91.507 119.667 130.544  1.00  0.00     0.025 C 
ENDBRANCH  20  22
ENDBRANCH   4  20
BRANCH   1  28
HETATM   28  C1  UNL     1      87.526 121.625 135.595  1.00  0.00     0.138 C 
HETATM   29  N1  UNL     1      86.317 121.523 135.986  1.00  0.00    -0.386 N 
ATOM     30  H12 UNL     1      86.014 121.978 136.847  1.00  0.00     0.157 HD
ATOM     31  H11 UNL     1      85.644 120.986 135.439  1.00  0.00     0.157 HD
HETATM   32  N2  UNL     1      88.456 122.367 136.352  1.00  0.00    -0.081 NA
ENDBRANCH   1  28
TORSDOF 5
ENDMDL
MODEL 4
REMARK VINA RESULT: -8.958262881      1.919      4.139
REMARK  5 active torsions:
REMARK  status: ('A' for Active; 'I' for Inactive)
REMARK    1  A    between atoms: C1_4  and  C2_6 
REMARK    2  A    between atoms: C4_8  and  C5_9 
REMARK    3  A    between atoms: C7_13  and  C8_14 
REMARK    4  A    between atoms: C12_20  and  N4_21 
REMARK    5  A    between atoms: N4_21  and  C13_23 
ROOT
HETATM    1  C2  UNL     1      88.201 120.948 133.554  1.00  0.00     0.089 A 
HETATM    2  C3  UNL     1      88.506 119.609 133.538  1.00  0.00     0.052 A 
HETATM    3  C4  UNL     1      88.907 118.959 132.360  1.00  0.00     0.047 A 
HETATM    4  C12 UNL     1      88.971 119.747 131.248  1.00  0.00     0.129 A 
HETATM    5  N5  UNL     1      88.666 121.077 131.279  1.00  0.00    -0.284 N 
ATOM      6  H5  UNL     1      88.728 121.629 130.424  1.00  0.00     0.188 HD
HETATM    7  N6  UNL     1      88.291 121.657 132.404  1.00  0.00    -0.296 N 
ATOM      8  H6  UNL     1      88.066 122.652 132.407  1.00  0.00     0.187 HD
ENDROOT
BRANCH   3   9
HETATM    9  C5  UNL     1      89.219 117.553 132.378  1.00  0.00     0.107 A 
HETATM   10  C6  UNL     1      88.817 116.595 133.248  1.00  0.00     0.128 A 
HETATM   11  N3  UNL     1      89.397 115.432 132.814  1.00  0.00    -0.345 N 
HETATM   12  C7  UNL     1      90.123 115.699 131.715  1.00  0.00     0.153 A 
ATOM     13  H3  UNL     1      89.293 114.516 133.252  1.00  0.00     0.167 HD
HETATM   14  O2  UNL     1      90.005 116.979 131.465  1.00  0.00    -0.293 OA
BRANCH  12  15
HETATM   15  C8  UNL     1      90.929 114.712 130.910  1.00  0.00     0.196 C 
HETATM   16  C9  UNL     1      91.636 115.373 129.777  1.00  0.00     0.042 C 
HETATM   17  C10 UNL     1      90.993 114.729 128.561  1.00  0.00     0.029 C 
HETATM   18  C11 UNL     1      90.536 113.403 129.139  1.00  0.00     0.168 C 
HETATM   19  O1  UNL     1      90.079 113.746 130.385  1.00  0.00    -0.378 OA
ENDBRANCH  12  15
ENDBRANCH   3   9
BRANCH   4  20
HETATM   20  N4  UNL     1      89.320 119.273 130.135  1.00  0.00    -0.370 N 
ATOM     21  H4  UNL     1      88.857 118.407 129.859  1.00  0.00     0.161 HD
BRANCH  20  22
HETATM   22  C13 UNL     1      90.282 119.790 129.204  1.00  0.00     0.083 C 
HETATM   23  C14 UNL     1      90.448 118.802 128.057  1.00  0.00     0.025 C 
HETATM   24  C15 UNL     1      91.755 118.992 127.315  1.00  0.00     0.002 C 
HETATM   25  C16 UNL     1      92.940 118.775 128.235  1.00  0.00     0.000 C 
HETATM   26  C17 UNL     1      92.447 118.764 129.695  1.00  0.00     0.002 C 
HETATM   27  C18 UNL     1      91.618 120.042 129.812  1.00  0.00     0.025 C 
ENDBRANCH  20  22
ENDBRANCH   4  20
BRANCH   1  28
HETATM   28  C1  UNL     1      87.785 121.642 134.753  1.00  0.00     0.138 C 
HETATM   29  N1  UNL     1      86.560 121.642 135.104  1.00  0.00    -0.386 N 
ATOM     30  H12 UNL     1      86.266 122.132 135.949  1.00  0.00     0.157 HD
ATOM     31  H11 UNL     1      85.864 121.153 134.541  1.00  0.00     0.157 HD
HETATM   32  N2  UNL     1      88.746 122.318 135.531  1.00  0.00    -0.081 NA
ENDBRANCH   1  28
TORSDOF 5
ENDMDL
MODEL 5
REMARK VINA RESULT: -8.935020936      2.902      4.286
REMARK  5 active torsions:
REMARK  status: ('A' for Active; 'I' for Inactive)
REMARK    1  A    between atoms: C1_4  and  C2_6 
REMARK    2  A    between atoms: C4_8  and  C5_9 
REMARK    3  A    between atoms: C7_13  and  C8_14 
REMARK    4  A    between atoms: C12_20  and  N4_21 
REMARK    5  A    between atoms: N4_21  and  C13_23 
ROOT
HETATM    1  C2  UNL     1      88.809 120.229 130.098  1.00  0.00     0.089 A 
HETATM    2  C3  UNL     1      89.357 119.733 128.940  1.00  0.00     0.052 A 
HETATM    3  C4  UNL     1      90.263 118.660 128.956  1.00  0.00     0.047 A 
HETATM    4  C12 UNL     1      90.552 118.154 130.189  1.00  0.00     0.129 A 
HETATM    5  N5  UNL     1      89.999 118.658 131.331  1.00  0.00    -0.284 N 
ATOM      6  H5  UNL     1      90.243 118.249 132.233  1.00  0.00     0.188 HD
HETATM    7  N6  UNL     1      89.151 119.668 131.282  1.00  0.00    -0.296 N 
ATOM      8  H6  UNL     1      88.749 120.031 132.146  1.00  0.00     0.187 HD
ENDROOT
BRANCH   3   9
HETATM    9  C5  UNL     1      90.820 118.164 127.723  1.00  0.00     0.107 A 
HETATM   10  C6  UNL     1      91.677 118.767 126.864  1.00  0.00     0.128 A 
HETATM   11  N3  UNL     1      91.888 117.864 125.855  1.00  0.00    -0.345 N 
HETATM   12  C7  UNL     1      91.172 116.756 126.114  1.00  0.00     0.153 A 
ATOM     13  H3  UNL     1      92.488 118.009 125.044  1.00  0.00     0.167 HD
HETATM   14  O2  UNL     1      90.536 116.952 127.242  1.00  0.00    -0.293 OA
BRANCH  12  15
HETATM   15  C8  UNL     1      91.107 115.511 125.269  1.00  0.00     0.196 C 
HETATM   16  C9  UNL     1      90.850 114.298 126.094  1.00  0.00     0.042 C 
HETATM   17  C10 UNL     1      92.119 113.486 125.897  1.00  0.00     0.029 C 
HETATM   18  C11 UNL     1      92.587 113.996 124.547  1.00  0.00     0.168 C 
HETATM   19  O1  UNL     1      92.319 115.339 124.612  1.00  0.00    -0.378 OA
ENDBRANCH  12  15
ENDBRANCH   3   9
BRANCH   4  20
HETATM   20  N4  UNL     1      91.350 117.191 130.325  1.00  0.00    -0.370 N 
ATOM     21  H4  UNL     1      92.188 117.226 129.745  1.00  0.00     0.161 HD
BRANCH  20  22
HETATM   22  C13 UNL     1      91.238 116.050 131.188  1.00  0.00     0.083 C 
HETATM   23  C14 UNL     1      92.533 115.251 131.134  1.00  0.00     0.025 C 
HETATM   24  C15 UNL     1      92.348 113.818 131.584  1.00  0.00     0.002 C 
HETATM   25  C16 UNL     1      91.364 113.088 130.690  1.00  0.00     0.000 C 
HETATM   26  C17 UNL     1      90.616 114.118 129.822  1.00  0.00     0.002 C 
HETATM   27  C18 UNL     1      90.107 115.148 130.831  1.00  0.00     0.025 C 
ENDBRANCH  20  22
ENDBRANCH   4  20
BRANCH   1  28
HETATM   28  C1  UNL     1      87.874 121.334 130.110  1.00  0.00     0.138 C 
HETATM   29  N1  UNL     1      88.118 122.390 129.440  1.00  0.00    -0.386 N 
ATOM     30  H12 UNL     1      87.459 123.168 129.449  1.00  0.00     0.157 HD
ATOM     31  H11 UNL     1      88.974 122.463 128.890  1.00  0.00     0.157 HD
HETATM   32  N2  UNL     1      86.692 121.232 130.870  1.00  0.00    -0.081 NA
ENDBRANCH   1  28
TORSDOF 5
ENDMDL
