MODEL 1
REMARK VINA RESULT: -9.343224728      0.000      0.000
REMARK  6 active torsions:
REMARK  status: ('A' for Active; 'I' for Inactive)
REMARK    1  A    between atoms: C3_6  and  C4_7 
REMARK    2  A    between atoms: C6_9  and  C7_10 
REMARK    3  A    between atoms: C8_11  and  C9_12 
REMARK    4  A    between atoms: N2_14  and  C11_15 
REMARK    5  A    between atoms: C13_17  and  O2_18 
REMARK    6  A    between atoms: C14_20  and  O3_21 
ROOT
HETATM    1  C9  UNL     1      88.426 120.320 132.294  1.00  0.00     0.020 A 
HETATM    2  C10 UNL     1      88.529 120.436 133.666  1.00  0.00     0.125 A 
HETATM    3  N2  UNL     1      87.677 121.391 134.094  1.00  0.00    -0.296 N 
HETATM    4  N3  UNL     1      87.061 121.859 133.041  1.00  0.00    -0.287 N 
ATOM      5  H3  UNL     1      86.355 122.596 133.063  1.00  0.00     0.188 HD
HETATM    6  C16 UNL     1      87.479 121.245 131.932  1.00  0.00     0.127 A 
HETATM    7  S1  UNL     1      86.946 121.549 130.402  1.00  0.00    -0.058 SA
ENDROOT
BRANCH   1   8
HETATM    8  C8  UNL     1      89.145 119.427 131.399  1.00  0.00     0.012 C 
HETATM    9  C7  UNL     1      90.034 119.855 130.530  1.00  0.00    -0.020 C 
BRANCH   9  10
HETATM   10  C6  UNL     1      90.795 119.026 129.602  1.00  0.00     0.021 A 
HETATM   11  C4  UNL     1      90.713 119.211 128.131  1.00  0.00     0.071 A 
HETATM   12  C5  UNL     1      91.967 119.579 128.923  1.00  0.00     0.023 A 
BRANCH  11  13
HETATM   13  C3  UNL     1      90.903 118.015 127.251  1.00  0.00     0.153 A 
HETATM   14  O1  UNL     1      91.402 118.003 126.026  1.00  0.00    -0.222 OA
HETATM   15  N1  UNL     1      91.424 116.796 125.551  1.00  0.00    -0.248 N 
HETATM   16  C2  UNL     1      90.934 115.971 126.466  1.00  0.00     0.100 A 
ATOM     17  H1  UNL     1      91.763 116.526 124.628  1.00  0.00     0.196 HD
HETATM   18  C1  UNL     1      90.753 114.478 126.389  1.00  0.00     0.091 C 
HETATM   19  N4  UNL     1      90.609 116.733 127.525  1.00  0.00    -0.327 N 
ATOM     20  H4  UNL     1      90.204 116.393 128.397  1.00  0.00     0.169 HD
ENDBRANCH  11  13
ENDBRANCH   9  10
ENDBRANCH   1   8
BRANCH   3  21
HETATM   21  C11 UNL     1      87.485 121.813 135.468  1.00  0.00     0.112 C 
HETATM   22  C12 UNL     1      88.705 121.570 136.323  1.00  0.00     0.061 C 
HETATM   23  C13 UNL     1      88.120 121.636 137.720  1.00  0.00     0.148 C 
HETATM   24  C14 UNL     1      86.855 120.815 137.583  1.00  0.00     0.148 C 
HETATM   25  C15 UNL     1      86.414 120.989 136.141  1.00  0.00     0.061 C 
BRANCH  23  26
HETATM   26  O2  UNL     1      87.806 122.962 138.057  1.00  0.00    -0.393 OA
ATOM     27  H2  UNL     1      87.121 122.984 138.716  1.00  0.00     0.210 HD
ENDBRANCH  23  26
BRANCH  24  28
HETATM   28  O3  UNL     1      85.912 121.363 138.468  1.00  0.00    -0.393 OA
ATOM     29  H3  UNL     1      85.118 120.848 138.382  1.00  0.00     0.210 HD
ENDBRANCH  24  28
ENDBRANCH   3  21
TORSDOF 6
ENDMDL
MODEL 2
REMARK VINA RESULT: -9.303946639      2.432      9.851
REMARK  6 active torsions:
REMARK  status: ('A' for Active; 'I' for Inactive)
REMARK    1  A    between atoms: C3_6  and  C4_7 
REMARK    2  A    between atoms: C6_9  and  C7_10 
REMARK    3  A    between atoms: C8_11  and  C9_12 
REMARK    4  A    between atoms: N2_14  and  C11_15 
REMARK    5  A    between atoms: C13_17  and  O2_18 
REMARK    6  A    between atoms: C14_20  and  O3_21 
ROOT
HETATM    1  C9  UNL     1      89.695 118.146 131.794  1.00  0.00     0.020 A 
HETATM    2  C10 UNL     1      90.278 118.763 130.705  1.00  0.00     0.125 A 
HETATM    3  N2  UNL     1      90.815 117.823 129.899  1.00  0.00    -0.296 N 
HETATM    4  N3  UNL     1      90.581 116.662 130.451  1.00  0.00    -0.287 N 
ATOM      5  H3  UNL     1      90.874 115.766 130.061  1.00  0.00     0.188 HD
HETATM    6  C16 UNL     1      89.908 116.805 131.595  1.00  0.00     0.127 A 
HETATM    7  S1  UNL     1      89.424 115.582 132.588  1.00  0.00    -0.058 SA
ENDROOT
BRANCH   1   8
HETATM    8  C8  UNL     1      88.999 118.751 132.919  1.00  0.00     0.012 C 
HETATM    9  C7  UNL     1      88.376 119.905 132.833  1.00  0.00    -0.020 C 
BRANCH   9  10
HETATM   10  C6  UNL     1      87.657 120.574 133.912  1.00  0.00     0.021 A 
HETATM   11  C4  UNL     1      88.351 121.096 135.116  1.00  0.00     0.071 A 
HETATM   12  C5  UNL     1      87.755 122.026 134.061  1.00  0.00     0.023 A 
BRANCH  11  13
HETATM   13  C3  UNL     1      87.604 121.122 136.413  1.00  0.00     0.153 A 
HETATM   14  O1  UNL     1      87.945 121.776 137.511  1.00  0.00    -0.222 OA
HETATM   15  N1  UNL     1      87.072 121.580 138.451  1.00  0.00    -0.248 N 
HETATM   16  C2  UNL     1      86.121 120.781 137.988  1.00  0.00     0.100 A 
ATOM     17  H1  UNL     1      87.112 121.975 139.391  1.00  0.00     0.196 HD
HETATM   18  C1  UNL     1      84.896 120.265 138.695  1.00  0.00     0.091 C 
HETATM   19  N4  UNL     1      86.454 120.497 136.717  1.00  0.00    -0.327 N 
ATOM     20  H4  UNL     1      85.920 119.901 136.084  1.00  0.00     0.169 HD
ENDBRANCH  11  13
ENDBRANCH   9  10
ENDBRANCH   1   8
BRANCH   3  21
HETATM   21  C11 UNL     1      91.517 118.064 128.653  1.00  0.00     0.112 C 
HETATM   22  C12 UNL     1      90.642 117.846 127.444  1.00  0.00     0.061 C 
HETATM   23  C13 UNL     1      91.671 117.695 126.342  1.00  0.00     0.148 C 
HETATM   24  C14 UNL     1      92.694 116.776 126.974  1.00  0.00     0.148 C 
HETATM   25  C15 UNL     1      92.636 117.068 128.463  1.00  0.00     0.061 C 
BRANCH  23  26
HETATM   26  O2  UNL     1      92.253 118.937 126.041  1.00  0.00    -0.393 OA
ATOM     27  H2  UNL     1      92.053 119.189 125.147  1.00  0.00     0.210 HD
ENDBRANCH  23  26
BRANCH  24  28
HETATM   28  O3  UNL     1      93.946 117.124 126.441  1.00  0.00    -0.393 OA
ATOM     29  H3  UNL     1      94.554 117.173 127.168  1.00  0.00     0.210 HD
ENDBRANCH  24  28
ENDBRANCH   3  21
TORSDOF 6
ENDMDL
MODEL 3
REMARK VINA RESULT: -8.998622085      2.537      9.695
REMARK  6 active torsions:
REMARK  status: ('A' for Active; 'I' for Inactive)
REMARK    1  A    between atoms: C3_6  and  C4_7 
REMARK    2  A    between atoms: C6_9  and  C7_10 
REMARK    3  A    between atoms: C8_11  and  C9_12 
REMARK    4  A    between atoms: N2_14  and  C11_15 
REMARK    5  A    between atoms: C13_17  and  O2_18 
REMARK    6  A    between atoms: C14_20  and  O3_21 
ROOT
HETATM    1  C9  UNL     1      89.694 117.487 131.808  1.00  0.00     0.020 A 
HETATM    2  C10 UNL     1      90.329 118.005 130.697  1.00  0.00     0.125 A 
HETATM    3  N2  UNL     1      90.866 116.994 129.982  1.00  0.00    -0.296 N 
HETATM    4  N3  UNL     1      90.584 115.884 130.612  1.00  0.00    -0.287 N 
ATOM      5  H3  UNL     1      90.865 114.955 130.300  1.00  0.00     0.188 HD
HETATM    6  C16 UNL     1      89.878 116.130 131.718  1.00  0.00     0.127 A 
HETATM    7  S1  UNL     1      89.331 114.997 132.783  1.00  0.00    -0.058 SA
ENDROOT
BRANCH   1   8
HETATM    8  C8  UNL     1      88.978 118.191 132.860  1.00  0.00     0.012 C 
HETATM    9  C7  UNL     1      88.553 119.428 132.726  1.00  0.00    -0.020 C 
BRANCH   9  10
HETATM   10  C6  UNL     1      87.830 120.200 133.732  1.00  0.00     0.021 A 
HETATM   11  C4  UNL     1      88.522 120.853 134.872  1.00  0.00     0.071 A 
HETATM   12  C5  UNL     1      87.914 121.660 133.727  1.00  0.00     0.023 A 
BRANCH  11  13
HETATM   13  C3  UNL     1      87.778 121.008 136.161  1.00  0.00     0.153 A 
HETATM   14  O1  UNL     1      88.089 121.812 137.165  1.00  0.00    -0.222 OA
HETATM   15  N1  UNL     1      87.229 121.695 138.130  1.00  0.00    -0.248 N 
HETATM   16  C2  UNL     1      86.316 120.799 137.780  1.00  0.00     0.100 A 
ATOM     17  H1  UNL     1      87.251 122.208 139.011  1.00  0.00     0.196 HD
HETATM   18  C1  UNL     1      85.120 120.318 138.557  1.00  0.00     0.091 C 
HETATM   19  N4  UNL     1      86.660 120.372 136.552  1.00  0.00    -0.327 N 
ATOM     20  H4  UNL     1      86.154 119.675 136.005  1.00  0.00     0.169 HD
ENDBRANCH  11  13
ENDBRANCH   9  10
ENDBRANCH   1   8
BRANCH   3  21
HETATM   21  C11 UNL     1      91.614 117.124 128.747  1.00  0.00     0.112 C 
HETATM   22  C12 UNL     1      92.693 118.175 128.831  1.00  0.00     0.061 C 
HETATM   23  C13 UNL     1      92.982 118.438 127.367  1.00  0.00     0.148 C 
HETATM   24  C14 UNL     1      91.593 118.523 126.770  1.00  0.00     0.148 C 
HETATM   25  C15 UNL     1      90.728 117.618 127.629  1.00  0.00     0.061 C 
BRANCH  23  26
HETATM   26  O2  UNL     1      93.688 117.363 126.806  1.00  0.00    -0.393 OA
ATOM     27  H2  UNL     1      94.477 117.187 127.304  1.00  0.00     0.210 HD
ENDBRANCH  23  26
BRANCH  24  28
HETATM   28  O3  UNL     1      91.680 118.039 125.455  1.00  0.00    -0.393 OA
ATOM     29  H3  UNL     1      90.858 117.603 125.265  1.00  0.00     0.210 HD
ENDBRANCH  24  28
ENDBRANCH   3  21
TORSDOF 6
ENDMDL
MODEL 4
REMARK VINA RESULT: -8.906630226      4.332     11.500
REMARK  6 active torsions:
REMARK  status: ('A' for Active; 'I' for Inactive)
REMARK    1  A    between atoms: C3_6  and  C4_7 
REMARK    2  A    between atoms: C6_9  and  C7_10 
REMARK    3  A    between atoms: C8_11  and  C9_12 
REMARK    4  A    between atoms: N2_14  and  C11_15 
REMARK    5  A    between atoms: C13_17  and  O2_18 
REMARK    6  A    between atoms: C14_20  and  O3_21 
ROOT
HETATM    1  C9  UNL     1      91.296 114.897 127.251  1.00  0.00     0.020 A 
HETATM    2  C10 UNL     1      91.770 114.731 125.965  1.00  0.00     0.125 A 
HETATM    3  N2  UNL     1      92.139 113.444 125.792  1.00  0.00    -0.296 N 
HETATM    4  N3  UNL     1      91.908 112.822 126.918  1.00  0.00    -0.287 N 
ATOM      5  H3  UNL     1      92.092 111.832 127.080  1.00  0.00     0.188 HD
HETATM    6  C16 UNL     1      91.399 113.656 127.827  1.00  0.00     0.127 A 
HETATM    7  S1  UNL     1      90.974 113.257 129.369  1.00  0.00    -0.058 SA
ENDROOT
BRANCH   1   8
HETATM    8  C8  UNL     1      90.790 116.103 127.886  1.00  0.00     0.012 C 
HETATM    9  C7  UNL     1      90.839 117.284 127.312  1.00  0.00    -0.020 C 
BRANCH   9  10
HETATM   10  C6  UNL     1      90.355 118.536 127.883  1.00  0.00     0.021 A 
HETATM   11  C4  UNL     1      90.359 118.791 129.346  1.00  0.00     0.071 A 
HETATM   12  C5  UNL     1      91.308 119.520 128.396  1.00  0.00     0.023 A 
BRANCH  11  13
HETATM   13  C3  UNL     1      89.300 119.680 129.917  1.00  0.00     0.153 A 
HETATM   14  O1  UNL     1      88.148 120.005 129.353  1.00  0.00    -0.222 OA
HETATM   15  N1  UNL     1      87.466 120.795 130.124  1.00  0.00    -0.248 N 
HETATM   16  C2  UNL     1      88.161 121.012 131.232  1.00  0.00     0.100 A 
ATOM     17  H1  UNL     1      86.548 121.185 129.913  1.00  0.00     0.196 HD
HETATM   18  C1  UNL     1      87.797 121.855 132.424  1.00  0.00     0.091 C 
HETATM   19  N4  UNL     1      89.304 120.316 131.101  1.00  0.00    -0.327 N 
ATOM     20  H4  UNL     1      90.056 120.276 131.790  1.00  0.00     0.169 HD
ENDBRANCH  11  13
ENDBRANCH   9  10
ENDBRANCH   1   8
BRANCH   3  21
HETATM   21  C11 UNL     1      92.687 112.867 124.580  1.00  0.00     0.112 C 
HETATM   22  C12 UNL     1      94.167 112.595 124.686  1.00  0.00     0.061 C 
HETATM   23  C13 UNL     1      94.562 112.463 123.229  1.00  0.00     0.148 C 
HETATM   24  C14 UNL     1      93.835 113.626 122.587  1.00  0.00     0.148 C 
HETATM   25  C15 UNL     1      92.589 113.838 123.427  1.00  0.00     0.061 C 
BRANCH  23  26
HETATM   26  O2  UNL     1      94.095 111.248 122.703  1.00  0.00    -0.393 OA
ATOM     27  H2  UNL     1      94.784 110.594 122.717  1.00  0.00     0.210 HD
ENDBRANCH  23  26
BRANCH  24  28
HETATM   28  O3  UNL     1      93.502 113.232 121.281  1.00  0.00    -0.393 OA
ATOM     29  H3  UNL     1      93.144 113.996 120.843  1.00  0.00     0.210 HD
ENDBRANCH  24  28
ENDBRANCH   3  21
TORSDOF 6
ENDMDL
MODEL 5
REMARK VINA RESULT: -8.894878081      1.113      1.216
REMARK  6 active torsions:
REMARK  status: ('A' for Active; 'I' for Inactive)
REMARK    1  A    between atoms: C3_6  and  C4_7 
REMARK    2  A    between atoms: C6_9  and  C7_10 
REMARK    3  A    between atoms: C8_11  and  C9_12 
REMARK    4  A    between atoms: N2_14  and  C11_15 
REMARK    5  A    between atoms: C13_17  and  O2_18 
REMARK    6  A    between atoms: C14_20  and  O3_21 
ROOT
HETATM    1  C9  UNL     1      88.392 120.172 132.498  1.00  0.00     0.020 A 
HETATM    2  C10 UNL     1      88.449 120.296 133.872  1.00  0.00     0.125 A 
HETATM    3  N2  UNL     1      87.695 121.349 134.253  1.00  0.00    -0.296 N 
HETATM    4  N3  UNL     1      87.183 121.869 133.168  1.00  0.00    -0.287 N 
ATOM      5  H3  UNL     1      86.566 122.681 133.152  1.00  0.00     0.188 HD
HETATM    6  C16 UNL     1      87.573 121.193 132.085  1.00  0.00     0.127 A 
HETATM    7  S1  UNL     1      87.144 121.533 130.530  1.00  0.00    -0.058 SA
ENDROOT
BRANCH   1   8
HETATM    8  C8  UNL     1      89.040 119.189 131.644  1.00  0.00     0.012 C 
HETATM    9  C7  UNL     1      90.229 119.379 131.117  1.00  0.00    -0.020 C 
BRANCH   9  10
HETATM   10  C6  UNL     1      90.944 118.444 130.253  1.00  0.00     0.021 A 
HETATM   11  C4  UNL     1      92.080 118.871 129.399  1.00  0.00     0.071 A 
HETATM   12  C5  UNL     1      92.281 117.985 130.627  1.00  0.00     0.023 A 
BRANCH  11  13
HETATM   13  C3  UNL     1      92.311 118.150 128.108  1.00  0.00     0.153 A 
HETATM   14  O1  UNL     1      93.479 117.825 127.580  1.00  0.00    -0.222 OA
HETATM   15  N1  UNL     1      93.316 117.205 126.451  1.00  0.00    -0.248 N 
HETATM   16  C2  UNL     1      92.017 117.105 126.206  1.00  0.00     0.100 A 
ATOM     17  H1  UNL     1      94.063 116.854 125.853  1.00  0.00     0.196 HD
HETATM   18  C1  UNL     1      91.326 116.472 125.028  1.00  0.00     0.091 C 
HETATM   19  N4  UNL     1      91.392 117.695 127.240  1.00  0.00    -0.327 N 
ATOM     20  H4  UNL     1      90.382 117.783 127.349  1.00  0.00     0.169 HD
ENDBRANCH  11  13
ENDBRANCH   9  10
ENDBRANCH   1   8
BRANCH   3  21
HETATM   21  C11 UNL     1      87.496 121.811 135.613  1.00  0.00     0.112 C 
HETATM   22  C12 UNL     1      88.727 121.639 136.468  1.00  0.00     0.061 C 
HETATM   23  C13 UNL     1      88.146 121.733 137.865  1.00  0.00     0.148 C 
HETATM   24  C14 UNL     1      86.910 120.865 137.764  1.00  0.00     0.148 C 
HETATM   25  C15 UNL     1      86.456 120.974 136.319  1.00  0.00     0.061 C 
BRANCH  23  26
HETATM   26  O2  UNL     1      87.788 123.058 138.159  1.00  0.00    -0.393 OA
ATOM     27  H2  UNL     1      88.326 123.666 137.664  1.00  0.00     0.210 HD
ENDBRANCH  23  26
BRANCH  24  28
HETATM   28  O3  UNL     1      85.953 121.410 138.635  1.00  0.00    -0.393 OA
ATOM     29  H3  UNL     1      85.209 121.670 138.104  1.00  0.00     0.210 HD
ENDBRANCH  24  28
ENDBRANCH   3  21
TORSDOF 6
ENDMDL
