MODEL 1
REMARK VINA RESULT: -8.201741137      0.000      0.000
REMARK  6 active torsions:
REMARK  status: ('A' for Active; 'I' for Inactive)
REMARK    1  A    between atoms: C2_2  and  C3_3 
REMARK    2  A    between atoms: C4_6  and  N2_7 
REMARK    3  A    between atoms: N2_7  and  C5_9 
REMARK    4  A    between atoms: C11_17  and  O1_18 
REMARK    5  A    between atoms: C16_25  and  C17_26 
REMARK    6  A    between atoms: C17_26  and  O3_27 
ROOT
HETATM    1  C5  UNL     1      87.838 120.783 131.006  1.00  0.00     0.139 C 
HETATM    2  C6  UNL     1      87.689 121.374 129.619  1.00  0.00     0.150 C 
HETATM    3  N3  UNL     1      89.074 121.526 129.220  1.00  0.00    -0.387 N 
ATOM      4  H3  UNL     1      89.479 122.276 128.659  1.00  0.00     0.159 HD
HETATM    5  C7  UNL     1      89.754 120.394 129.784  1.00  0.00     0.048 A 
HETATM    6  C8  UNL     1      90.922 119.744 129.456  1.00  0.00     0.004 A 
HETATM    7  C9  UNL     1      91.384 118.646 130.163  1.00  0.00     0.080 A 
HETATM    8  C10 UNL     1      90.644 118.191 131.234  1.00  0.00     0.074 A 
HETATM    9  C11 UNL     1      89.462 118.828 131.587  1.00  0.00     0.081 A 
HETATM   10  C13 UNL     1      89.033 119.920 130.859  1.00  0.00     0.026 A 
HETATM   11  O2  UNL     1      92.579 118.206 129.601  1.00  0.00    -0.350 OA
HETATM   12  C14 UNL     1      93.096 119.202 128.734  1.00  0.00     0.180 C 
HETATM   13  C15 UNL     1      91.889 120.037 128.357  1.00  0.00     0.070 C 
ENDROOT
BRANCH   1  14
HETATM   14  N2  UNL     1      88.031 121.869 131.911  1.00  0.00    -0.360 N 
ATOM     15  H2  UNL     1      88.098 122.809 131.520  1.00  0.00     0.162 HD
BRANCH  14  16
HETATM   16  C4  UNL     1      88.129 121.739 133.208  1.00  0.00     0.145 A 
HETATM   17  N1  UNL     1      87.529 120.893 134.038  1.00  0.00    -0.339 N 
HETATM   18  C3  UNL     1      87.805 120.970 135.319  1.00  0.00     0.026 A 
ATOM     19  H1  UNL     1      86.870 120.198 133.688  1.00  0.00     0.168 HD
HETATM   20  C16 UNL     1      88.699 121.928 135.717  1.00  0.00     0.032 A 
HETATM   21  S1  UNL     1      89.106 122.674 134.238  1.00  0.00    -0.055 SA
BRANCH  18  22
HETATM   22  C2  UNL     1      87.166 120.041 136.347  1.00  0.00     0.054 C 
HETATM   23  C1  UNL     1      85.941 120.659 136.943  1.00  0.00     0.011 C 
ENDBRANCH  18  22
BRANCH  20  24
HETATM   24  C17 UNL     1      89.176 122.213 137.121  1.00  0.00     0.212 C 
BRANCH  24  25
HETATM   25  O3  UNL     1      88.192 122.990 137.726  1.00  0.00    -0.396 OA
ATOM     26  H3  UNL     1      88.643 123.623 138.272  1.00  0.00     0.209 HD
ENDBRANCH  24  25
ENDBRANCH  20  24
ENDBRANCH  14  16
ENDBRANCH   1  14
BRANCH   9  27
HETATM   27  O1  UNL     1      88.708 118.373 132.671  1.00  0.00    -0.355 OA
HETATM   28  C12 UNL     1      88.984 117.160 133.305  1.00  0.00     0.210 C 
ENDBRANCH   9  27
TORSDOF 6
ENDMDL
MODEL 2
REMARK VINA RESULT: -8.196680279      1.120      1.781
REMARK  6 active torsions:
REMARK  status: ('A' for Active; 'I' for Inactive)
REMARK    1  A    between atoms: C2_2  and  C3_3 
REMARK    2  A    between atoms: C4_6  and  N2_7 
REMARK    3  A    between atoms: N2_7  and  C5_9 
REMARK    4  A    between atoms: C11_17  and  O1_18 
REMARK    5  A    between atoms: C16_25  and  C17_26 
REMARK    6  A    between atoms: C17_26  and  O3_27 
ROOT
HETATM    1  C5  UNL     1      87.892 120.866 131.379  1.00  0.00     0.139 C 
HETATM    2  C6  UNL     1      87.646 121.495 130.023  1.00  0.00     0.150 C 
HETATM    3  N3  UNL     1      88.996 121.611 129.509  1.00  0.00    -0.387 N 
ATOM      4  H3  UNL     1      89.377 122.361 128.932  1.00  0.00     0.159 HD
HETATM    5  C7  UNL     1      89.682 120.444 129.988  1.00  0.00     0.048 A 
HETATM    6  C8  UNL     1      90.794 119.764 129.546  1.00  0.00     0.004 A 
HETATM    7  C9  UNL     1      91.277 118.635 130.187  1.00  0.00     0.080 A 
HETATM    8  C10 UNL     1      90.616 118.179 131.308  1.00  0.00     0.074 A 
HETATM    9  C11 UNL     1      89.491 118.845 131.775  1.00  0.00     0.081 A 
HETATM   10  C13 UNL     1      89.039 119.968 131.111  1.00  0.00     0.026 A 
HETATM   11  O2  UNL     1      92.404 118.170 129.515  1.00  0.00    -0.350 OA
HETATM   12  C14 UNL     1      92.879 119.170 128.629  1.00  0.00     0.180 C 
HETATM   13  C15 UNL     1      91.674 120.053 128.375  1.00  0.00     0.070 C 
ENDROOT
BRANCH   1  14
HETATM   14  N2  UNL     1      88.200 121.922 132.287  1.00  0.00    -0.360 N 
ATOM     15  H2  UNL     1      88.489 122.819 131.895  1.00  0.00     0.162 HD
BRANCH  14  16
HETATM   16  C4  UNL     1      88.135 121.817 133.589  1.00  0.00     0.145 A 
HETATM   17  N1  UNL     1      88.995 122.196 134.528  1.00  0.00    -0.339 N 
HETATM   18  C3  UNL     1      88.688 121.973 135.784  1.00  0.00     0.026 A 
ATOM     19  H1  UNL     1      89.873 122.651 134.279  1.00  0.00     0.168 HD
HETATM   20  C16 UNL     1      87.493 121.357 136.044  1.00  0.00     0.032 A 
HETATM   21  S1  UNL     1      86.861 121.128 134.476  1.00  0.00    -0.055 SA
BRANCH  18  22
HETATM   22  C2  UNL     1      89.612 122.372 136.932  1.00  0.00     0.054 C 
HETATM   23  C1  UNL     1      90.786 123.153 136.431  1.00  0.00     0.011 C 
ENDBRANCH  18  22
BRANCH  20  24
HETATM   24  C17 UNL     1      86.919 120.995 137.394  1.00  0.00     0.212 C 
BRANCH  24  25
HETATM   25  O3  UNL     1      85.535 121.040 137.262  1.00  0.00    -0.396 OA
ATOM     26  H3  UNL     1      85.303 120.388 136.612  1.00  0.00     0.209 HD
ENDBRANCH  24  25
ENDBRANCH  20  24
ENDBRANCH  14  16
ENDBRANCH   1  14
BRANCH   9  27
HETATM   27  O1  UNL     1      88.817 118.388 132.909  1.00  0.00    -0.355 OA
HETATM   28  C12 UNL     1      89.122 117.163 133.506  1.00  0.00     0.210 C 
ENDBRANCH   9  27
TORSDOF 6
ENDMDL
MODEL 3
REMARK VINA RESULT: -8.108754443      3.891      7.982
REMARK  6 active torsions:
REMARK  status: ('A' for Active; 'I' for Inactive)
REMARK    1  A    between atoms: C2_2  and  C3_3 
REMARK    2  A    between atoms: C4_6  and  N2_7 
REMARK    3  A    between atoms: N2_7  and  C5_9 
REMARK    4  A    between atoms: C11_17  and  O1_18 
REMARK    5  A    between atoms: C16_25  and  C17_26 
REMARK    6  A    between atoms: C17_26  and  O3_27 
ROOT
HETATM    1  C5  UNL     1      90.988 118.584 129.766  1.00  0.00     0.139 C 
HETATM    2  C6  UNL     1      91.320 120.020 129.415  1.00  0.00     0.150 C 
HETATM    3  N3  UNL     1      90.086 120.695 129.764  1.00  0.00    -0.387 N 
ATOM      4  H3  UNL     1      89.654 121.485 129.285  1.00  0.00     0.159 HD
HETATM    5  C7  UNL     1      89.601 120.011 130.930  1.00  0.00     0.048 A 
HETATM    6  C8  UNL     1      88.758 120.385 131.952  1.00  0.00     0.004 A 
HETATM    7  C9  UNL     1      88.432 119.533 132.995  1.00  0.00     0.080 A 
HETATM    8  C10 UNL     1      88.974 118.265 133.005  1.00  0.00     0.074 A 
HETATM    9  C11 UNL     1      89.828 117.862 131.986  1.00  0.00     0.081 A 
HETATM   10  C13 UNL     1      90.129 118.738 130.963  1.00  0.00     0.026 A 
HETATM   11  O2  UNL     1      87.567 120.185 133.870  1.00  0.00    -0.350 OA
HETATM   12  C14 UNL     1      87.044 121.347 133.249  1.00  0.00     0.180 C 
HETATM   13  C15 UNL     1      88.051 121.682 132.167  1.00  0.00     0.070 C 
ENDROOT
BRANCH   1  14
HETATM   14  N2  UNL     1      90.304 118.021 128.648  1.00  0.00    -0.360 N 
ATOM     15  H2  UNL     1      89.445 118.474 128.336  1.00  0.00     0.162 HD
BRANCH  14  16
HETATM   16  C4  UNL     1      90.706 116.960 127.996  1.00  0.00     0.145 A 
HETATM   17  N1  UNL     1      90.744 116.713 126.691  1.00  0.00    -0.339 N 
HETATM   18  C3  UNL     1      91.199 115.551 126.287  1.00  0.00     0.026 A 
ATOM     19  H1  UNL     1      90.426 117.410 126.019  1.00  0.00     0.168 HD
HETATM   20  C16 UNL     1      91.608 114.663 127.246  1.00  0.00     0.032 A 
HETATM   21  S1  UNL     1      91.322 115.534 128.685  1.00  0.00    -0.055 SA
BRANCH  18  22
HETATM   22  C2  UNL     1      91.281 115.177 124.810  1.00  0.00     0.054 C 
HETATM   23  C1  UNL     1      90.896 116.331 123.940  1.00  0.00     0.011 C 
ENDBRANCH  18  22
BRANCH  20  24
HETATM   24  C17 UNL     1      92.166 113.275 127.037  1.00  0.00     0.212 C 
BRANCH  24  25
HETATM   25  O3  UNL     1      91.662 112.485 128.066  1.00  0.00    -0.396 OA
ATOM     26  H3  UNL     1      92.321 112.478 128.750  1.00  0.00     0.209 HD
ENDBRANCH  24  25
ENDBRANCH  20  24
ENDBRANCH  14  16
ENDBRANCH   1  14
BRANCH   9  27
HETATM   27  O1  UNL     1      90.380 116.579 131.991  1.00  0.00    -0.355 OA
HETATM   28  C12 UNL     1      89.586 115.434 132.078  1.00  0.00     0.210 C 
ENDBRANCH   9  27
TORSDOF 6
ENDMDL
MODEL 4
REMARK VINA RESULT: -7.778314129      4.071      7.902
REMARK  6 active torsions:
REMARK  status: ('A' for Active; 'I' for Inactive)
REMARK    1  A    between atoms: C2_2  and  C3_3 
REMARK    2  A    between atoms: C4_6  and  N2_7 
REMARK    3  A    between atoms: N2_7  and  C5_9 
REMARK    4  A    between atoms: C11_17  and  O1_18 
REMARK    5  A    between atoms: C16_25  and  C17_26 
REMARK    6  A    between atoms: C17_26  and  O3_27 
ROOT
HETATM    1  C5  UNL     1      91.280 118.643 129.452  1.00  0.00     0.139 C 
HETATM    2  C6  UNL     1      91.543 120.120 129.240  1.00  0.00     0.150 C 
HETATM    3  N3  UNL     1      90.293 120.702 129.686  1.00  0.00    -0.387 N 
ATOM      4  H3  UNL     1      89.816 121.517 129.299  1.00  0.00     0.159 HD
HETATM    5  C7  UNL     1      89.870 119.885 130.789  1.00  0.00     0.048 A 
HETATM    6  C8  UNL     1      89.042 120.118 131.863  1.00  0.00     0.004 A 
HETATM    7  C9  UNL     1      88.782 119.152 132.822  1.00  0.00     0.080 A 
HETATM    8  C10 UNL     1      89.375 117.915 132.691  1.00  0.00     0.074 A 
HETATM    9  C11 UNL     1      90.215 117.653 131.616  1.00  0.00     0.081 A 
HETATM   10  C13 UNL     1      90.451 118.640 130.680  1.00  0.00     0.026 A 
HETATM   11  O2  UNL     1      87.916 119.675 133.779  1.00  0.00    -0.350 OA
HETATM   12  C14 UNL     1      87.328 120.869 133.292  1.00  0.00     0.180 C 
HETATM   13  C15 UNL     1      88.289 121.355 132.225  1.00  0.00     0.070 C 
ENDROOT
BRANCH   1  14
HETATM   14  N2  UNL     1      90.589 118.165 128.300  1.00  0.00    -0.360 N 
ATOM     15  H2  UNL     1      89.877 118.767 127.888  1.00  0.00     0.162 HD
BRANCH  14  16
HETATM   16  C4  UNL     1      90.808 117.005 127.738  1.00  0.00     0.145 A 
HETATM   17  N1  UNL     1      90.881 115.789 128.268  1.00  0.00    -0.339 N 
HETATM   18  C3  UNL     1      91.115 114.772 127.473  1.00  0.00     0.026 A 
ATOM     19  H1  UNL     1      90.757 115.649 129.270  1.00  0.00     0.168 HD
HETATM   20  C16 UNL     1      91.270 115.035 126.138  1.00  0.00     0.032 A 
HETATM   21  S1  UNL     1      91.073 116.728 126.082  1.00  0.00    -0.055 SA
BRANCH  18  22
HETATM   22  C2  UNL     1      91.215 113.339 127.990  1.00  0.00     0.054 C 
HETATM   23  C1  UNL     1      90.603 113.214 129.349  1.00  0.00     0.011 C 
ENDBRANCH  18  22
BRANCH  20  24
HETATM   24  C17 UNL     1      91.544 114.044 125.031  1.00  0.00     0.212 C 
BRANCH  24  25
HETATM   25  O3  UNL     1      91.629 114.778 123.852  1.00  0.00    -0.396 OA
ATOM     26  H3  UNL     1      90.936 114.462 123.285  1.00  0.00     0.209 HD
ENDBRANCH  24  25
ENDBRANCH  20  24
ENDBRANCH  14  16
ENDBRANCH   1  14
BRANCH   9  27
HETATM   27  O1  UNL     1      90.819 116.402 131.478  1.00  0.00    -0.355 OA
HETATM   28  C12 UNL     1      90.619 115.378 132.406  1.00  0.00     0.210 C 
ENDBRANCH   9  27
TORSDOF 6
ENDMDL
MODEL 5
REMARK VINA RESULT: -7.530297245      2.936      4.575
REMARK  6 active torsions:
REMARK  status: ('A' for Active; 'I' for Inactive)
REMARK    1  A    between atoms: C2_2  and  C3_3 
REMARK    2  A    between atoms: C4_6  and  N2_7 
REMARK    3  A    between atoms: N2_7  and  C5_9 
REMARK    4  A    between atoms: C11_17  and  O1_18 
REMARK    5  A    between atoms: C16_25  and  C17_26 
REMARK    6  A    between atoms: C17_26  and  O3_27 
ROOT
HETATM    1  C5  UNL     1      90.497 117.181 132.799  1.00  0.00     0.139 C 
HETATM    2  C6  UNL     1      90.848 115.844 133.420  1.00  0.00     0.150 C 
HETATM    3  N3  UNL     1      90.348 114.921 132.420  1.00  0.00    -0.387 N 
ATOM      4  H3  UNL     1      89.913 114.012 132.577  1.00  0.00     0.159 HD
HETATM    5  C7  UNL     1      90.598 115.563 131.159  1.00  0.00     0.048 A 
HETATM    6  C8  UNL     1      90.746 115.083 129.878  1.00  0.00     0.004 A 
HETATM    7  C9  UNL     1      90.989 115.915 128.797  1.00  0.00     0.080 A 
HETATM    8  C10 UNL     1      91.084 117.273 129.018  1.00  0.00     0.074 A 
HETATM    9  C11 UNL     1      90.938 117.784 130.301  1.00  0.00     0.081 A 
HETATM   10  C13 UNL     1      90.696 116.924 131.354  1.00  0.00     0.026 A 
HETATM   11  O2  UNL     1      91.092 115.149 127.639  1.00  0.00    -0.350 OA
HETATM   12  C14 UNL     1      90.587 113.847 127.880  1.00  0.00     0.180 C 
HETATM   13  C15 UNL     1      90.686 113.676 129.383  1.00  0.00     0.070 C 
ENDROOT
BRANCH   1  14
HETATM   14  N2  UNL     1      89.141 117.464 133.142  1.00  0.00    -0.360 N 
ATOM     15  H2  UNL     1      88.530 116.677 133.360  1.00  0.00     0.162 HD
BRANCH  14  16
HETATM   16  C4  UNL     1      88.630 118.667 133.194  1.00  0.00     0.145 A 
HETATM   17  N1  UNL     1      88.340 119.524 132.221  1.00  0.00    -0.339 N 
HETATM   18  C3  UNL     1      87.826 120.687 132.544  1.00  0.00     0.026 A 
ATOM     19  H1  UNL     1      88.513 119.284 131.246  1.00  0.00     0.168 HD
HETATM   20  C16 UNL     1      87.623 120.942 133.874  1.00  0.00     0.032 A 
HETATM   21  S1  UNL     1      88.176 119.502 134.602  1.00  0.00    -0.055 SA
BRANCH  18  22
HETATM   22  C2  UNL     1      87.461 121.735 131.497  1.00  0.00     0.054 C 
HETATM   23  C1  UNL     1      87.833 121.276 130.123  1.00  0.00     0.011 C 
ENDBRANCH  18  22
BRANCH  20  24
HETATM   24  C17 UNL     1      87.049 122.194 134.493  1.00  0.00     0.212 C 
BRANCH  24  25
HETATM   25  O3  UNL     1      87.350 122.141 135.851  1.00  0.00    -0.396 OA
ATOM     26  H3  UNL     1      86.639 121.668 136.268  1.00  0.00     0.209 HD
ENDBRANCH  24  25
ENDBRANCH  20  24
ENDBRANCH  14  16
ENDBRANCH   1  14
BRANCH   9  27
HETATM   27  O1  UNL     1      91.033 119.158 130.532  1.00  0.00    -0.355 OA
HETATM   28  C12 UNL     1      91.359 120.057 129.514  1.00  0.00     0.210 C 
ENDBRANCH   9  27
TORSDOF 6
ENDMDL
