MODEL 1
REMARK VINA RESULT: -7.449464601      0.000      0.000
REMARK  7 active torsions:
REMARK  status: ('A' for Active; 'I' for Inactive)
REMARK    1  A    between atoms: O1_2  and  C2_3 
REMARK    2  A    between atoms: C2_3  and  C3_4 
REMARK    3  A    between atoms: C7_8  and  O2_9 
REMARK    4  A    between atoms: C8_11  and  O3_12 
REMARK    5  A    between atoms: C9_14  and  C10_15 
REMARK    6  A    between atoms: C13_19  and  O4_20 
REMARK    7  A    between atoms: C15_24  and  C17_26 
ROOT
HETATM    1  C3  UNL     1      90.355 117.619 130.976  1.00  0.00     0.005 A 
HETATM    2  C4  UNL     1      89.585 117.240 132.141  1.00  0.00    -0.046 A 
HETATM    3  C5  UNL     1      89.024 118.375 132.965  1.00  0.00     0.049 C 
HETATM    4  C6  UNL     1      89.352 115.979 132.497  1.00  0.00     0.047 A 
HETATM    5  C7  UNL     1      89.876 114.914 131.714  1.00  0.00     0.100 A 
HETATM    6  C8  UNL     1      90.604 115.267 130.625  1.00  0.00     0.110 A 
HETATM    7  C9  UNL     1      90.861 116.622 130.227  1.00  0.00     0.019 A 
ENDROOT
BRANCH   7   8
HETATM    8  C10 UNL     1      91.635 116.710 128.968  1.00  0.00    -0.035 C 
HETATM    9  C11 UNL     1      90.822 116.997 127.879  1.00  0.00     0.005 C 
HETATM   10  C12 UNL     1      91.260 117.151 126.513  1.00  0.00     0.135 C 
HETATM   11 CL1  UNL     1      90.899 115.654 125.573  1.00  0.00    -0.118 Cl
HETATM   12  C13 UNL     1      92.674 117.596 126.348  1.00  0.00     0.159 C 
HETATM   13  C14 UNL     1      93.485 117.607 127.562  1.00  0.00     0.126 C 
HETATM   14 CL2  UNL     1      93.797 119.305 128.103  1.00  0.00    -0.121 Cl
HETATM   15  C15 UNL     1      93.024 116.790 128.742  1.00  0.00     0.016 C 
HETATM   16  C16 UNL     1      93.574 117.631 129.988  1.00  0.00     0.023 C 
BRANCH  12  17
HETATM   17  O4  UNL     1      93.189 116.910 125.264  1.00  0.00    -0.392 OA
ATOM     18  H4  UNL     1      93.735 117.521 124.783  1.00  0.00     0.210 HD
ENDBRANCH  12  17
BRANCH  15  19
HETATM   19  C17 UNL     1      93.947 115.600 128.865  1.00  0.00     0.130 C 
HETATM   20 CL3  UNL     1      93.804 114.367 127.631  1.00  0.00    -0.129 Cl
ENDBRANCH  15  19
ENDBRANCH   7   8
BRANCH   1  21
HETATM   21  C2  UNL     1      90.668 119.058 130.986  1.00  0.00     0.146 C 
BRANCH  21  22
HETATM   22  O1  UNL     1      90.628 119.801 129.880  1.00  0.00    -0.367 OA
HETATM   23  C1  UNL     1      89.255 119.937 129.529  1.00  0.00     0.208 C 
ENDBRANCH  21  22
ENDBRANCH   1  21
BRANCH   6  24
HETATM   24  O3  UNL     1      91.148 114.283 129.857  1.00  0.00    -0.357 OA
ATOM     25  H3  UNL     1      91.978 114.448 129.427  1.00  0.00     0.217 HD
ENDBRANCH   6  24
BRANCH   5  26
HETATM   26  O2  UNL     1      89.601 113.636 132.135  1.00  0.00    -0.358 OA
ATOM     27  H2  UNL     1      89.196 113.052 131.505  1.00  0.00     0.217 HD
ENDBRANCH   5  26
TORSDOF 7
ENDMDL
MODEL 2
REMARK VINA RESULT: -7.244266800      1.637      3.494
REMARK  7 active torsions:
REMARK  status: ('A' for Active; 'I' for Inactive)
REMARK    1  A    between atoms: O1_2  and  C2_3 
REMARK    2  A    between atoms: C2_3  and  C3_4 
REMARK    3  A    between atoms: C7_8  and  O2_9 
REMARK    4  A    between atoms: C8_11  and  O3_12 
REMARK    5  A    between atoms: C9_14  and  C10_15 
REMARK    6  A    between atoms: C13_19  and  O4_20 
REMARK    7  A    between atoms: C15_24  and  C17_26 
ROOT
HETATM    1  C3  UNL     1      90.021 118.322 131.260  1.00  0.00     0.005 A 
HETATM    2  C4  UNL     1      89.157 119.128 132.094  1.00  0.00    -0.046 A 
HETATM    3  C5  UNL     1      89.007 118.678 133.529  1.00  0.00     0.049 C 
HETATM    4  C6  UNL     1      88.519 120.215 131.668  1.00  0.00     0.047 A 
HETATM    5  C7  UNL     1      88.669 120.641 130.319  1.00  0.00     0.100 A 
HETATM    6  C8  UNL     1      89.474 119.882 129.533  1.00  0.00     0.110 A 
HETATM    7  C9  UNL     1      90.170 118.709 129.979  1.00  0.00     0.019 A 
ENDROOT
BRANCH   7   8
HETATM    8  C10 UNL     1      91.021 118.113 128.924  1.00  0.00    -0.035 C 
HETATM    9  C11 UNL     1      90.278 117.355 128.028  1.00  0.00     0.005 C 
HETATM   10  C12 UNL     1      90.801 116.643 126.887  1.00  0.00     0.135 C 
HETATM   11 CL1  UNL     1      90.946 114.885 127.265  1.00  0.00    -0.118 Cl
HETATM   12  C13 UNL     1      92.058 117.204 126.312  1.00  0.00     0.159 C 
HETATM   13  C14 UNL     1      92.707 118.251 127.096  1.00  0.00     0.126 C 
HETATM   14 CL2  UNL     1      92.503 119.861 126.298  1.00  0.00    -0.121 Cl
HETATM   15  C15 UNL     1      92.356 118.377 128.557  1.00  0.00     0.016 C 
HETATM   16  C16 UNL     1      92.532 119.944 128.827  1.00  0.00     0.023 C 
BRANCH  12  17
HETATM   17  O4  UNL     1      92.845 116.131 125.938  1.00  0.00    -0.392 OA
ATOM     18  H4  UNL     1      93.683 116.238 126.372  1.00  0.00     0.210 HD
ENDBRANCH  12  17
BRANCH  15  19
HETATM   19  C17 UNL     1      93.541 117.888 129.358  1.00  0.00     0.130 C 
HETATM   20 CL3  UNL     1      93.716 116.153 129.516  1.00  0.00    -0.129 Cl
ENDBRANCH  15  19
ENDBRANCH   7   8
BRANCH   1  21
HETATM   21  C2  UNL     1      90.368 117.051 131.919  1.00  0.00     0.146 C 
BRANCH  21  22
HETATM   22  O1  UNL     1      89.678 115.931 131.708  1.00  0.00    -0.367 OA
HETATM   23  C1  UNL     1      90.533 115.056 130.978  1.00  0.00     0.208 C 
ENDBRANCH  21  22
ENDBRANCH   1  21
BRANCH   6  24
HETATM   24  O3  UNL     1      89.629 120.235 128.227  1.00  0.00    -0.357 OA
ATOM     25  H3  UNL     1      90.140 119.669 127.661  1.00  0.00     0.217 HD
ENDBRANCH   6  24
BRANCH   5  26
HETATM   26  O2  UNL     1      87.984 121.770 129.941  1.00  0.00    -0.358 OA
ATOM     27  H2  UNL     1      88.500 122.501 129.624  1.00  0.00     0.217 HD
ENDBRANCH   5  26
TORSDOF 7
ENDMDL
MODEL 3
REMARK VINA RESULT: -6.985594572      1.716      3.442
REMARK  7 active torsions:
REMARK  status: ('A' for Active; 'I' for Inactive)
REMARK    1  A    between atoms: O1_2  and  C2_3 
REMARK    2  A    between atoms: C2_3  and  C3_4 
REMARK    3  A    between atoms: C7_8  and  O2_9 
REMARK    4  A    between atoms: C8_11  and  O3_12 
REMARK    5  A    between atoms: C9_14  and  C10_15 
REMARK    6  A    between atoms: C13_19  and  O4_20 
REMARK    7  A    between atoms: C15_24  and  C17_26 
ROOT
HETATM    1  C3  UNL     1      90.363 117.696 130.836  1.00  0.00     0.005 A 
HETATM    2  C4  UNL     1      89.604 118.761 131.453  1.00  0.00    -0.046 A 
HETATM    3  C5  UNL     1      89.255 118.570 132.911  1.00  0.00     0.049 C 
HETATM    4  C6  UNL     1      89.223 119.865 130.816  1.00  0.00     0.047 A 
HETATM    5  C7  UNL     1      89.561 120.044 129.446  1.00  0.00     0.100 A 
HETATM    6  C8  UNL     1      90.267 119.043 128.863  1.00  0.00     0.110 A 
HETATM    7  C9  UNL     1      90.687 117.848 129.538  1.00  0.00     0.019 A 
ENDROOT
BRANCH   7   8
HETATM    8  C10 UNL     1      91.490 116.956 128.672  1.00  0.00    -0.035 C 
HETATM    9  C11 UNL     1      90.711 116.334 127.705  1.00  0.00     0.005 C 
HETATM   10  C12 UNL     1      91.183 115.406 126.706  1.00  0.00     0.135 C 
HETATM   11 CL1  UNL     1      90.790 113.714 127.194  1.00  0.00    -0.118 Cl
HETATM   12  C13 UNL     1      92.616 115.566 126.321  1.00  0.00     0.159 C 
HETATM   13  C14 UNL     1      93.401 116.479 127.147  1.00  0.00     0.126 C 
HETATM   14 CL2  UNL     1      93.760 118.004 126.244  1.00  0.00    -0.121 Cl
HETATM   15  C15 UNL     1      92.886 116.829 128.520  1.00  0.00     0.016 C 
HETATM   16  C16 UNL     1      93.438 118.316 128.735  1.00  0.00     0.023 C 
BRANCH  12  17
HETATM   17  O4  UNL     1      93.129 114.295 126.140  1.00  0.00    -0.392 OA
ATOM     18  H4  UNL     1      94.072 114.386 126.060  1.00  0.00     0.210 HD
ENDBRANCH  12  17
BRANCH  15  19
HETATM   19  C17 UNL     1      93.763 116.128 129.532  1.00  0.00     0.130 C 
HETATM   20 CL3  UNL     1      93.957 116.919 131.081  1.00  0.00    -0.129 Cl
ENDBRANCH  15  19
ENDBRANCH   7   8
BRANCH   1  21
HETATM   21  C2  UNL     1      90.405 116.500 131.694  1.00  0.00     0.146 C 
BRANCH  21  22
HETATM   22  O1  UNL     1      89.647 115.429 131.459  1.00  0.00    -0.367 OA
HETATM   23  C1  UNL     1      90.533 114.367 131.124  1.00  0.00     0.208 C 
ENDBRANCH  21  22
ENDBRANCH   1  21
BRANCH   6  24
HETATM   24  O3  UNL     1      90.592 119.158 127.546  1.00  0.00    -0.357 OA
ATOM     25  H3  UNL     1      90.491 118.397 126.986  1.00  0.00     0.217 HD
ENDBRANCH   6  24
BRANCH   5  26
HETATM   26  O2  UNL     1      89.138 121.206 128.846  1.00  0.00    -0.358 OA
ATOM     27  H2  UNL     1      88.229 121.243 128.572  1.00  0.00     0.217 HD
ENDBRANCH   5  26
TORSDOF 7
ENDMDL
MODEL 4
REMARK VINA RESULT: -6.671812979      2.720      4.321
REMARK  7 active torsions:
REMARK  status: ('A' for Active; 'I' for Inactive)
REMARK    1  A    between atoms: O1_2  and  C2_3 
REMARK    2  A    between atoms: C2_3  and  C3_4 
REMARK    3  A    between atoms: C7_8  and  O2_9 
REMARK    4  A    between atoms: C8_11  and  O3_12 
REMARK    5  A    between atoms: C9_14  and  C10_15 
REMARK    6  A    between atoms: C13_19  and  O4_20 
REMARK    7  A    between atoms: C15_24  and  C17_26 
ROOT
HETATM    1  C3  UNL     1      90.208 118.365 130.309  1.00  0.00     0.005 A 
HETATM    2  C4  UNL     1      89.416 119.547 130.571  1.00  0.00    -0.046 A 
HETATM    3  C5  UNL     1      89.251 120.506 129.416  1.00  0.00     0.049 C 
HETATM    4  C6  UNL     1      88.842 119.808 131.742  1.00  0.00     0.047 A 
HETATM    5  C7  UNL     1      88.994 118.898 132.825  1.00  0.00     0.100 A 
HETATM    6  C8  UNL     1      89.742 117.792 132.582  1.00  0.00     0.110 A 
HETATM    7  C9  UNL     1      90.365 117.496 131.324  1.00  0.00     0.019 A 
ENDROOT
BRANCH   7   8
HETATM    8  C10 UNL     1      91.072 116.195 131.330  1.00  0.00    -0.035 C 
HETATM    9  C11 UNL     1      90.382 115.228 130.610  1.00  0.00     0.005 C 
HETATM   10  C12 UNL     1      90.796 113.859 130.418  1.00  0.00     0.135 C 
HETATM   11 CL1  UNL     1      89.877 112.772 131.527  1.00  0.00    -0.118 Cl
HETATM   12  C13 UNL     1      92.268 113.628 130.490  1.00  0.00     0.159 C 
HETATM   13  C14 UNL     1      93.070 114.756 130.954  1.00  0.00     0.126 C 
HETATM   14 CL2  UNL     1      94.002 115.480 129.583  1.00  0.00    -0.121 Cl
HETATM   15  C15 UNL     1      92.384 115.859 131.719  1.00  0.00     0.016 C 
HETATM   16  C16 UNL     1      93.248 117.148 131.330  1.00  0.00     0.023 C 
BRANCH  12  17
HETATM   17  O4  UNL     1      92.456 112.423 131.142  1.00  0.00    -0.392 OA
ATOM     18  H4  UNL     1      92.896 112.617 131.961  1.00  0.00     0.210 HD
ENDBRANCH  12  17
BRANCH  15  19
HETATM   19  C17 UNL     1      92.809 115.747 133.166  1.00  0.00     0.130 C 
HETATM   20 CL3  UNL     1      92.182 114.380 134.062  1.00  0.00    -0.129 Cl
ENDBRANCH  15  19
ENDBRANCH   7   8
BRANCH   1  21
HETATM   21  C2  UNL     1      90.929 118.476 129.029  1.00  0.00     0.146 C 
BRANCH  21  22
HETATM   22  O1  UNL     1      90.765 117.596 128.042  1.00  0.00    -0.367 OA
HETATM   23  C1  UNL     1      91.519 118.078 126.935  1.00  0.00     0.208 C 
ENDBRANCH  21  22
ENDBRANCH   1  21
BRANCH   6  24
HETATM   24  O3  UNL     1      89.937 116.904 133.595  1.00  0.00    -0.357 OA
ATOM     25  H3  UNL     1      89.757 115.985 133.434  1.00  0.00     0.217 HD
ENDBRANCH   6  24
BRANCH   5  26
HETATM   26  O2  UNL     1      88.376 119.226 134.007  1.00  0.00    -0.358 OA
ATOM     27  H2  UNL     1      88.884 119.124 134.802  1.00  0.00     0.217 HD
ENDBRANCH   5  26
TORSDOF 7
ENDMDL
MODEL 5
REMARK VINA RESULT: -6.667364837      2.744      5.791
REMARK  7 active torsions:
REMARK  status: ('A' for Active; 'I' for Inactive)
REMARK    1  A    between atoms: O1_2  and  C2_3 
REMARK    2  A    between atoms: C2_3  and  C3_4 
REMARK    3  A    between atoms: C7_8  and  O2_9 
REMARK    4  A    between atoms: C8_11  and  O3_12 
REMARK    5  A    between atoms: C9_14  and  C10_15 
REMARK    6  A    between atoms: C13_19  and  O4_20 
REMARK    7  A    between atoms: C15_24  and  C17_26 
ROOT
HETATM    1  C3  UNL     1      92.379 116.662 127.672  1.00  0.00     0.005 A 
HETATM    2  C4  UNL     1      92.531 117.654 126.630  1.00  0.00    -0.046 A 
HETATM    3  C5  UNL     1      92.624 117.126 125.218  1.00  0.00     0.049 C 
HETATM    4  C6  UNL     1      92.579 118.964 126.856  1.00  0.00     0.047 A 
HETATM    5  C7  UNL     1      92.483 119.457 128.187  1.00  0.00     0.100 A 
HETATM    6  C8  UNL     1      92.347 118.528 129.166  1.00  0.00     0.110 A 
HETATM    7  C9  UNL     1      92.290 117.112 128.938  1.00  0.00     0.019 A 
ENDROOT
BRANCH   7   8
HETATM    8  C10 UNL     1      92.081 116.340 130.183  1.00  0.00    -0.035 C 
HETATM    9  C11 UNL     1      90.778 115.872 130.290  1.00  0.00     0.005 C 
HETATM   10  C12 UNL     1      90.247 115.088 131.379  1.00  0.00     0.135 C 
HETATM   11 CL1  UNL     1      89.281 116.136 132.486  1.00  0.00    -0.118 Cl
HETATM   12  C13 UNL     1      91.250 114.263 132.112  1.00  0.00     0.159 C 
HETATM   13  C14 UNL     1      92.650 114.518 131.783  1.00  0.00     0.126 C 
HETATM   14 CL2  UNL     1      93.334 113.150 130.817  1.00  0.00    -0.121 Cl
HETATM   15  C15 UNL     1      93.005 115.820 131.113  1.00  0.00     0.016 C 
HETATM   16  C16 UNL     1      94.273 115.423 130.220  1.00  0.00     0.023 C 
BRANCH  12  17
HETATM   17  O4  UNL     1      90.910 114.310 133.451  1.00  0.00    -0.392 OA
ATOM     18  H4  UNL     1      90.728 115.219 133.659  1.00  0.00     0.210 HD
ENDBRANCH  12  17
BRANCH  15  19
HETATM   19  C17 UNL     1      93.721 116.679 132.129  1.00  0.00     0.130 C 
HETATM   20 CL3  UNL     1      93.885 116.014 133.740  1.00  0.00    -0.129 Cl
ENDBRANCH  15  19
ENDBRANCH   7   8
BRANCH   1  21
HETATM   21  C2  UNL     1      92.625 115.304 127.159  1.00  0.00     0.146 C 
BRANCH  21  22
HETATM   22  O1  UNL     1      91.855 114.268 127.491  1.00  0.00    -0.367 OA
HETATM   23  C1  UNL     1      90.836 114.183 126.501  1.00  0.00     0.208 C 
ENDBRANCH  21  22
ENDBRANCH   1  21
BRANCH   6  24
HETATM   24  O3  UNL     1      92.275 118.950 130.459  1.00  0.00    -0.357 OA
ATOM     25  H3  UNL     1      91.941 119.821 130.634  1.00  0.00     0.217 HD
ENDBRANCH   6  24
BRANCH   5  26
HETATM   26  O2  UNL     1      92.540 120.820 128.353  1.00  0.00    -0.358 OA
ATOM     27  H2  UNL     1      92.866 121.139 129.186  1.00  0.00     0.217 HD
ENDBRANCH   5  26
TORSDOF 7
ENDMDL
