MODEL 1
REMARK VINA RESULT: -8.819092689      0.000      0.000
REMARK  4 active torsions:
REMARK  status: ('A' for Active; 'I' for Inactive)
REMARK    1  A    between atoms: C3_6  and  S1_7 
REMARK    2  A    between atoms: S1_7  and  C4_8 
REMARK    3  A    between atoms: C4_8  and  C5_9 
REMARK    4  A    between atoms: C8_13  and  C9_14 
ROOT
HETATM    1  C5  UNL     1      89.036 120.313 131.696  1.00  0.00     0.021 A 
HETATM    2  C6  UNL     1      89.286 119.081 132.266  1.00  0.00     0.052 A 
HETATM    3  C7  UNL     1      89.877 118.343 131.262  1.00  0.00     0.065 A 
HETATM    4 CL1  UNL     1      90.407 116.683 131.440  1.00  0.00    -0.082 Cl
HETATM    5  C8  UNL     1      89.978 119.114 130.121  1.00  0.00     0.088 A 
HETATM    6  N2  UNL     1      89.460 120.302 130.420  1.00  0.00    -0.355 N 
ATOM      7  H2  UNL     1      89.393 121.090 129.776  1.00  0.00     0.166 HD
ENDROOT
BRANCH   1   8
HETATM    8  C4  UNL     1      88.399 121.447 132.412  1.00  0.00     0.136 C 
BRANCH   8   9
HETATM    9  S1  UNL     1      87.465 120.779 133.826  1.00  0.00    -0.117 SA
BRANCH   9  10
HETATM   10  C3  UNL     1      88.204 121.389 135.353  1.00  0.00     0.084 A 
HETATM   11  C2  UNL     1      89.460 121.942 135.340  1.00  0.00     0.117 A 
HETATM   12  N1  UNL     1      89.999 122.390 136.464  1.00  0.00    -0.317 N 
HETATM   13  C1  UNL     1      89.321 122.305 137.622  1.00  0.00     0.327 A 
ATOM     14  H1  UNL     1      90.933 122.801 136.451  1.00  0.00     0.170 HD
HETATM   15  O1  UNL     1      89.803 122.720 138.705  1.00  0.00    -0.247 OA
HETATM   16  N3  UNL     1      88.084 121.763 137.652  1.00  0.00    -0.274 N 
HETATM   17  C13 UNL     1      87.503 121.299 136.532  1.00  0.00     0.267 A 
ATOM     18  H3  UNL     1      87.583 121.705 138.538  1.00  0.00     0.173 HD
HETATM   19  O3  UNL     1      86.341 120.789 136.557  1.00  0.00    -0.267 OA
ENDBRANCH   9  10
ENDBRANCH   8   9
ENDBRANCH   1   8
BRANCH   5  20
HETATM   20  C9  UNL     1      90.559 118.669 128.837  1.00  0.00     0.107 A 
HETATM   21  C10 UNL     1      91.453 119.351 128.071  1.00  0.00     0.067 A 
HETATM   22  C11 UNL     1      91.703 118.546 126.973  1.00  0.00     0.082 A 
HETATM   23 CL2  UNL     1      92.769 118.857 125.614  1.00  0.00    -0.080 Cl
HETATM   24  C12 UNL     1      90.943 117.404 127.124  1.00  0.00     0.167 A 
HETATM   25 CL3  UNL     1      90.837 116.021 126.061  1.00  0.00    -0.055 Cl
HETATM   26  O2  UNL     1      90.292 117.534 128.237  1.00  0.00    -0.294 OA
ENDBRANCH   5  20
TORSDOF 4
ENDMDL
MODEL 2
REMARK VINA RESULT: -8.815382722      1.108      1.736
REMARK  4 active torsions:
REMARK  status: ('A' for Active; 'I' for Inactive)
REMARK    1  A    between atoms: C3_6  and  S1_7 
REMARK    2  A    between atoms: S1_7  and  C4_8 
REMARK    3  A    between atoms: C4_8  and  C5_9 
REMARK    4  A    between atoms: C8_13  and  C9_14 
ROOT
HETATM    1  C5  UNL     1      88.573 120.093 131.741  1.00  0.00     0.021 A 
HETATM    2  C6  UNL     1      89.247 119.116 132.445  1.00  0.00     0.052 A 
HETATM    3  C7  UNL     1      90.017 118.470 131.500  1.00  0.00     0.065 A 
HETATM    4 CL1  UNL     1      91.085 117.127 131.848  1.00  0.00    -0.082 Cl
HETATM    5  C8  UNL     1      89.809 119.047 130.263  1.00  0.00     0.088 A 
HETATM    6  N2  UNL     1      88.929 120.028 130.446  1.00  0.00    -0.355 N 
ATOM      7  H2  UNL     1      88.575 120.641 129.712  1.00  0.00     0.166 HD
ENDROOT
BRANCH   1   8
HETATM    8  C4  UNL     1      87.616 121.048 132.353  1.00  0.00     0.136 C 
BRANCH   8   9
HETATM    9  S1  UNL     1      88.514 122.052 133.579  1.00  0.00    -0.117 SA
BRANCH   9  10
HETATM   10  C3  UNL     1      87.913 121.635 135.227  1.00  0.00     0.084 A 
HETATM   11  C2  UNL     1      86.701 121.009 135.383  1.00  0.00     0.117 A 
HETATM   12  N1  UNL     1      86.264 120.703 136.596  1.00  0.00    -0.317 N 
HETATM   13  C1  UNL     1      87.003 121.004 137.679  1.00  0.00     0.327 A 
ATOM     14  H1  UNL     1      85.363 120.238 136.708  1.00  0.00     0.170 HD
HETATM   15  O1  UNL     1      86.617 120.727 138.841  1.00  0.00    -0.247 OA
HETATM   16  N3  UNL     1      88.197 121.619 137.542  1.00  0.00    -0.274 N 
HETATM   17  C13 UNL     1      88.675 121.945 136.329  1.00  0.00     0.267 A 
ATOM     18  H3  UNL     1      88.744 121.841 138.374  1.00  0.00     0.173 HD
HETATM   19  O3  UNL     1      89.796 122.523 136.197  1.00  0.00    -0.267 OA
ENDBRANCH   9  10
ENDBRANCH   8   9
ENDBRANCH   1   8
BRANCH   5  20
HETATM   20  C9  UNL     1      90.459 118.629 129.003  1.00  0.00     0.107 A 
HETATM   21  C10 UNL     1      91.258 119.393 128.210  1.00  0.00     0.067 A 
HETATM   22  C11 UNL     1      91.628 118.580 127.152  1.00  0.00     0.082 A 
HETATM   23 CL2  UNL     1      92.655 118.974 125.784  1.00  0.00    -0.080 Cl
HETATM   24  C12 UNL     1      91.032 117.352 127.353  1.00  0.00     0.167 A 
HETATM   25 CL3  UNL     1      91.129 115.920 126.356  1.00  0.00    -0.055 Cl
HETATM   26  O2  UNL     1      90.358 117.442 128.457  1.00  0.00    -0.294 OA
ENDBRANCH   5  20
TORSDOF 4
ENDMDL
MODEL 3
REMARK VINA RESULT: -8.491511574      3.921      8.709
REMARK  4 active torsions:
REMARK  status: ('A' for Active; 'I' for Inactive)
REMARK    1  A    between atoms: C3_6  and  S1_7 
REMARK    2  A    between atoms: S1_7  and  C4_8 
REMARK    3  A    between atoms: C4_8  and  C5_9 
REMARK    4  A    between atoms: C8_13  and  C9_14 
ROOT
HETATM    1  C5  UNL     1      89.409 118.223 132.254  1.00  0.00     0.021 A 
HETATM    2  C6  UNL     1      89.044 119.372 131.586  1.00  0.00     0.052 A 
HETATM    3  C7  UNL     1      88.582 120.221 132.571  1.00  0.00     0.065 A 
HETATM    4 CL1  UNL     1      87.982 121.839 132.277  1.00  0.00    -0.082 Cl
HETATM    5  C8  UNL     1      88.671 119.593 133.798  1.00  0.00     0.088 A 
HETATM    6  N2  UNL     1      89.177 118.384 133.569  1.00  0.00    -0.355 N 
ATOM      7  H2  UNL     1      89.362 117.683 134.286  1.00  0.00     0.166 HD
ENDROOT
BRANCH   1   8
HETATM    8  C4  UNL     1      89.970 117.018 131.593  1.00  0.00     0.136 C 
BRANCH   8   9
HETATM    9  S1  UNL     1      91.743 117.304 131.289  1.00  0.00    -0.117 SA
BRANCH   9  10
HETATM   10  C3  UNL     1      91.948 117.989 129.634  1.00  0.00     0.084 A 
HETATM   11  C2  UNL     1      91.969 117.160 128.541  1.00  0.00     0.117 A 
HETATM   12  N1  UNL     1      92.119 117.667 127.326  1.00  0.00    -0.317 N 
HETATM   13  C1  UNL     1      92.252 118.995 127.158  1.00  0.00     0.327 A 
ATOM     14  H1  UNL     1      92.133 117.048 126.516  1.00  0.00     0.170 HD
HETATM   15  O1  UNL     1      92.396 119.507 126.021  1.00  0.00    -0.247 OA
HETATM   16  N3  UNL     1      92.234 119.824 128.224  1.00  0.00    -0.274 N 
HETATM   17  C13 UNL     1      92.083 119.347 129.472  1.00  0.00     0.267 A 
ATOM     18  H3  UNL     1      92.337 120.829 128.079  1.00  0.00     0.173 HD
HETATM   19  O3  UNL     1      92.066 120.124 130.474  1.00  0.00    -0.267 OA
ENDBRANCH   9  10
ENDBRANCH   8   9
ENDBRANCH   1   8
BRANCH   5  20
HETATM   20  C9  UNL     1      88.272 120.185 135.092  1.00  0.00     0.107 A 
HETATM   21  C10 UNL     1      88.933 121.157 135.778  1.00  0.00     0.067 A 
HETATM   22  C11 UNL     1      88.189 121.384 136.923  1.00  0.00     0.082 A 
HETATM   23 CL2  UNL     1      88.509 122.520 138.222  1.00  0.00    -0.080 Cl
HETATM   24  C12 UNL     1      87.103 120.534 136.879  1.00  0.00     0.167 A 
HETATM   25 CL3  UNL     1      85.810 120.362 138.042  1.00  0.00    -0.055 Cl
HETATM   26  O2  UNL     1      87.206 119.855 135.780  1.00  0.00    -0.294 OA
ENDBRANCH   5  20
TORSDOF 4
ENDMDL
MODEL 4
REMARK VINA RESULT: -8.429958387      6.087     11.608
REMARK  4 active torsions:
REMARK  status: ('A' for Active; 'I' for Inactive)
REMARK    1  A    between atoms: C3_6  and  S1_7 
REMARK    2  A    between atoms: S1_7  and  C4_8 
REMARK    3  A    between atoms: C4_8  and  C5_9 
REMARK    4  A    between atoms: C8_13  and  C9_14 
ROOT
HETATM    1  C5  UNL     1      91.615 116.965 126.261  1.00  0.00     0.021 A 
HETATM    2  C6  UNL     1      92.602 117.920 126.396  1.00  0.00     0.052 A 
HETATM    3  C7  UNL     1      92.143 118.762 127.388  1.00  0.00     0.065 A 
HETATM    4 CL1  UNL     1      93.011 120.167 127.969  1.00  0.00    -0.082 Cl
HETATM    5  C8  UNL     1      90.913 118.320 127.835  1.00  0.00     0.088 A 
HETATM    6  N2  UNL     1      90.624 117.229 127.131  1.00  0.00    -0.355 N 
ATOM      7  H2  UNL     1      89.775 116.673 127.236  1.00  0.00     0.166 HD
ENDROOT
BRANCH   1   8
HETATM    8  C4  UNL     1      91.675 115.837 125.298  1.00  0.00     0.136 C 
BRANCH   8   9
HETATM    9  S1  UNL     1      93.407 115.290 125.164  1.00  0.00    -0.117 SA
BRANCH   9  10
HETATM   10  C3  UNL     1      93.554 114.154 123.772  1.00  0.00     0.084 A 
HETATM   11  C2  UNL     1      92.438 113.541 123.259  1.00  0.00     0.117 A 
HETATM   12  N1  UNL     1      92.550 112.708 122.236  1.00  0.00    -0.317 N 
HETATM   13  C1  UNL     1      93.755 112.457 121.695  1.00  0.00     0.327 A 
ATOM     14  H1  UNL     1      91.718 112.255 121.857  1.00  0.00     0.170 HD
HETATM   15  O1  UNL     1      93.895 111.672 120.724  1.00  0.00    -0.247 OA
HETATM   16  N3  UNL     1      94.863 113.051 122.188  1.00  0.00    -0.274 N 
HETATM   17  C13 UNL     1      94.790 113.904 123.225  1.00  0.00     0.267 A 
ATOM     18  H3  UNL     1      95.770 112.850 121.766  1.00  0.00     0.173 HD
HETATM   19  O3  UNL     1      95.829 114.464 123.690  1.00  0.00    -0.267 OA
ENDBRANCH   9  10
ENDBRANCH   8   9
ENDBRANCH   1   8
BRANCH   5  20
HETATM   20  C9  UNL     1      90.107 118.963 128.894  1.00  0.00     0.107 A 
HETATM   21  C10 UNL     1      90.257 118.803 130.237  1.00  0.00     0.067 A 
HETATM   22  C11 UNL     1      89.284 119.595 130.822  1.00  0.00     0.082 A 
HETATM   23 CL2  UNL     1      88.951 119.827 132.530  1.00  0.00    -0.080 Cl
HETATM   24  C12 UNL     1      88.583 120.203 129.800  1.00  0.00     0.167 A 
HETATM   25 CL3  UNL     1      87.240 121.315 129.915  1.00  0.00    -0.055 Cl
HETATM   26  O2  UNL     1      89.112 119.792 128.691  1.00  0.00    -0.294 OA
ENDBRANCH   5  20
TORSDOF 4
ENDMDL
MODEL 5
REMARK VINA RESULT: -8.363800062      1.800      2.228
REMARK  4 active torsions:
REMARK  status: ('A' for Active; 'I' for Inactive)
REMARK    1  A    between atoms: C3_6  and  S1_7 
REMARK    2  A    between atoms: S1_7  and  C4_8 
REMARK    3  A    between atoms: C4_8  and  C5_9 
REMARK    4  A    between atoms: C8_13  and  C9_14 
ROOT
HETATM    1  C5  UNL     1      88.840 119.757 132.275  1.00  0.00     0.021 A 
HETATM    2  C6  UNL     1      88.272 120.718 131.464  1.00  0.00     0.052 A 
HETATM    3  C7  UNL     1      88.777 120.460 130.207  1.00  0.00     0.065 A 
HETATM    4 CL1  UNL     1      88.383 121.390 128.776  1.00  0.00    -0.082 Cl
HETATM    5  C8  UNL     1      89.624 119.371 130.265  1.00  0.00     0.088 A 
HETATM    6  N2  UNL     1      89.638 118.970 131.533  1.00  0.00    -0.355 N 
ATOM      7  H2  UNL     1      90.176 118.181 131.890  1.00  0.00     0.166 HD
ENDROOT
BRANCH   1   8
HETATM    8  C4  UNL     1      88.584 119.641 133.733  1.00  0.00     0.136 C 
BRANCH   8   9
HETATM    9  S1  UNL     1      87.323 120.873 134.192  1.00  0.00    -0.117 SA
BRANCH   9  10
HETATM   10  C3  UNL     1      87.394 121.144 135.973  1.00  0.00     0.084 A 
HETATM   11  C2  UNL     1      86.430 120.610 136.792  1.00  0.00     0.117 A 
HETATM   12  N1  UNL     1      86.486 120.810 138.100  1.00  0.00    -0.317 N 
HETATM   13  C1  UNL     1      87.485 121.537 138.633  1.00  0.00     0.327 A 
ATOM     14  H1  UNL     1      85.769 120.411 138.705  1.00  0.00     0.170 HD
HETATM   15  O1  UNL     1      87.566 121.745 139.868  1.00  0.00    -0.247 OA
HETATM   16  N3  UNL     1      88.440 122.069 137.841  1.00  0.00    -0.274 N 
HETATM   17  C13 UNL     1      88.418 121.887 136.509  1.00  0.00     0.267 A 
ATOM     18  H3  UNL     1      89.190 122.619 138.260  1.00  0.00     0.173 HD
HETATM   19  O3  UNL     1      89.314 122.386 135.762  1.00  0.00    -0.267 OA
ENDBRANCH   9  10
ENDBRANCH   8   9
ENDBRANCH   1   8
BRANCH   5  20
HETATM   20  C9  UNL     1      90.354 118.793 129.117  1.00  0.00     0.107 A 
HETATM   21  C10 UNL     1      91.042 119.479 128.164  1.00  0.00     0.067 A 
HETATM   22  C11 UNL     1      91.551 118.522 127.303  1.00  0.00     0.082 A 
HETATM   23 CL2  UNL     1      92.531 118.761 125.867  1.00  0.00    -0.080 Cl
HETATM   24  C12 UNL     1      91.144 117.291 127.775  1.00  0.00     0.167 A 
HETATM   25 CL3  UNL     1      91.476 115.709 127.112  1.00  0.00    -0.055 Cl
HETATM   26  O2  UNL     1      90.444 117.514 128.843  1.00  0.00    -0.294 OA
ENDBRANCH   5  20
TORSDOF 4
ENDMDL
