MODEL 1
REMARK VINA RESULT: -9.108672451      0.000      0.000
REMARK  8 active torsions:
REMARK  status: ('A' for Active; 'I' for Inactive)
REMARK    1  A    between atoms: C2_2  and  C3_3 
REMARK    2  A    between atoms: C3_3  and  C4_4 
REMARK    3  A    between atoms: C5_5  and  C6_6 
REMARK    4  A    between atoms: C6_6  and  O1_7 
REMARK    5  A    between atoms: C6_6  and  C7_9 
REMARK    6  A    between atoms: C10_16  and  C11_17 
REMARK    7  A    between atoms: C19_25  and  O3_26 
REMARK    8  A    between atoms: C20_28  and  O4_29 
ROOT
HETATM    1  C1  UNL     1      93.542 116.513 130.117  1.00  0.00     0.027 C 
HETATM    2  C2  UNL     1      92.103 116.802 129.759  1.00  0.00     0.053 C 
HETATM    3  C8  UNL     1      91.439 117.227 131.022  1.00  0.00     0.167 C 
HETATM    4  O2  UNL     1      91.534 116.467 132.048  1.00  0.00    -0.292 OA
HETATM    5  C9  UNL     1      90.691 118.454 131.159  1.00  0.00    -0.009 C 
HETATM    6  C10 UNL     1      89.640 118.548 131.975  1.00  0.00     0.011 C 
HETATM    7  C18 UNL     1      91.104 119.640 130.368  1.00  0.00     0.076 C 
HETATM    8  C19 UNL     1      92.233 119.263 129.436  1.00  0.00     0.152 C 
HETATM    9  C20 UNL     1      91.984 117.925 128.779  1.00  0.00     0.163 C 
ENDROOT
BRANCH   2  10
HETATM   10  C3  UNL     1      91.365 115.561 129.314  1.00  0.00     0.047 C 
BRANCH  10  11
HETATM   11  C4  UNL     1      92.232 114.496 128.822  1.00  0.00    -0.027 C 
HETATM   12  C5  UNL     1      92.041 113.993 127.614  1.00  0.00     0.009 C 
BRANCH  12  13
HETATM   13  C6  UNL     1      90.976 114.438 126.685  1.00  0.00     0.248 C 
BRANCH  13  14
HETATM   14  O1  UNL     1      90.280 113.336 126.183  1.00  0.00    -0.383 OA
ATOM     15  H1  UNL     1      89.903 112.832 126.895  1.00  0.00     0.210 HD
ENDBRANCH  13  14
BRANCH  13  16
HETATM   16  C7  UNL     1      91.608 115.163 125.491  1.00  0.00     0.416 C 
HETATM   17  F1  UNL     1      91.065 116.422 125.353  1.00  0.00    -0.168 F 
HETATM   18  F2  UNL     1      91.397 114.447 124.348  1.00  0.00    -0.168 F 
HETATM   19  F3  UNL     1      92.967 115.346 125.745  1.00  0.00    -0.168 F 
ENDBRANCH  13  16
ENDBRANCH  12  13
ENDBRANCH  10  11
ENDBRANCH   2  10
BRANCH   9  20
HETATM   20  O4  UNL     1      92.756 117.796 127.656  1.00  0.00    -0.392 OA
ATOM     21  H4  UNL     1      92.294 117.918 126.835  1.00  0.00     0.210 HD
ENDBRANCH   9  20
BRANCH   8  22
HETATM   22  O3  UNL     1      92.271 120.241 128.428  1.00  0.00    -0.393 OA
ATOM     23  H3  UNL     1      92.861 120.922 128.730  1.00  0.00     0.210 HD
ENDBRANCH   8  22
BRANCH   6  24
HETATM   24  C11 UNL     1      88.883 119.773 132.120  1.00  0.00     0.003 C 
HETATM   25  C12 UNL     1      88.328 120.058 133.272  1.00  0.00    -0.080 C 
HETATM   26  C13 UNL     1      88.432 119.179 134.468  1.00  0.00     0.034 C 
HETATM   27  C17 UNL     1      87.551 121.316 133.422  1.00  0.00     0.034 C 
HETATM   28  C14 UNL     1      87.746 119.909 135.612  1.00  0.00     0.004 C 
HETATM   29  C15 UNL     1      88.384 121.269 135.776  1.00  0.00     0.001 C 
HETATM   30  C16 UNL     1      88.165 122.097 134.554  1.00  0.00     0.004 C 
ENDBRANCH   6  24
TORSDOF 8
ENDMDL
MODEL 2
REMARK VINA RESULT: -8.981424877      1.372      1.626
REMARK  8 active torsions:
REMARK  status: ('A' for Active; 'I' for Inactive)
REMARK    1  A    between atoms: C2_2  and  C3_3 
REMARK    2  A    between atoms: C3_3  and  C4_4 
REMARK    3  A    between atoms: C5_5  and  C6_6 
REMARK    4  A    between atoms: C6_6  and  O1_7 
REMARK    5  A    between atoms: C6_6  and  C7_9 
REMARK    6  A    between atoms: C10_16  and  C11_17 
REMARK    7  A    between atoms: C19_25  and  O3_26 
REMARK    8  A    between atoms: C20_28  and  O4_29 
ROOT
HETATM    1  C1  UNL     1      93.398 116.672 129.046  1.00  0.00     0.027 C 
HETATM    2  C2  UNL     1      92.034 117.212 128.679  1.00  0.00     0.053 C 
HETATM    3  C8  UNL     1      91.308 117.409 129.963  1.00  0.00     0.167 C 
HETATM    4  O2  UNL     1      91.229 116.425 130.778  1.00  0.00    -0.292 OA
HETATM    5  C9  UNL     1      90.682 118.652 130.345  1.00  0.00    -0.009 C 
HETATM    6  C10 UNL     1      89.577 118.682 131.092  1.00  0.00     0.011 C 
HETATM    7  C18 UNL     1      91.287 119.930 129.894  1.00  0.00     0.076 C 
HETATM    8  C19 UNL     1      92.450 119.644 128.970  1.00  0.00     0.152 C 
HETATM    9  C20 UNL     1      92.123 118.538 127.995  1.00  0.00     0.163 C 
ENDROOT
BRANCH   2  10
HETATM   10  C3  UNL     1      91.215 116.209 127.901  1.00  0.00     0.047 C 
BRANCH  10  11
HETATM   11  C4  UNL     1      91.993 115.114 127.334  1.00  0.00    -0.027 C 
HETATM   12  C5  UNL     1      92.290 115.114 126.045  1.00  0.00     0.009 C 
BRANCH  12  13
HETATM   13  C6  UNL     1      91.879 116.173 125.094  1.00  0.00     0.248 C 
BRANCH  13  14
HETATM   14  O1  UNL     1      90.776 115.750 124.345  1.00  0.00    -0.383 OA
ATOM     15  H1  UNL     1      89.989 116.191 124.642  1.00  0.00     0.210 HD
ENDBRANCH  13  14
BRANCH  13  16
HETATM   16  C7  UNL     1      93.021 116.451 124.111  1.00  0.00     0.416 C 
HETATM   17  F1  UNL     1      94.176 116.764 124.794  1.00  0.00    -0.168 F 
HETATM   18  F2  UNL     1      92.683 117.485 123.286  1.00  0.00    -0.168 F 
HETATM   19  F3  UNL     1      93.291 115.285 123.395  1.00  0.00    -0.168 F 
ENDBRANCH  13  16
ENDBRANCH  12  13
ENDBRANCH  10  11
ENDBRANCH   2  10
BRANCH   9  20
HETATM   20  O4  UNL     1      92.976 118.581 126.925  1.00  0.00    -0.392 OA
ATOM     21  H4  UNL     1      92.563 118.471 126.077  1.00  0.00     0.210 HD
ENDBRANCH   9  20
BRANCH   8  22
HETATM   22  O3  UNL     1      92.681 120.818 128.234  1.00  0.00    -0.393 OA
ATOM     23  H3  UNL     1      92.355 121.540 128.760  1.00  0.00     0.210 HD
ENDBRANCH   8  22
BRANCH   6  24
HETATM   24  C11 UNL     1      88.942 119.923 131.481  1.00  0.00     0.003 C 
HETATM   25  C12 UNL     1      88.501 120.067 132.707  1.00  0.00    -0.080 C 
HETATM   26  C13 UNL     1      88.615 119.009 133.746  1.00  0.00     0.034 C 
HETATM   27  C17 UNL     1      87.849 121.341 133.107  1.00  0.00     0.034 C 
HETATM   28  C14 UNL     1      88.082 119.602 135.040  1.00  0.00     0.004 C 
HETATM   29  C15 UNL     1      88.847 120.869 135.348  1.00  0.00     0.001 C 
HETATM   30  C16 UNL     1      88.610 121.890 134.286  1.00  0.00     0.004 C 
ENDBRANCH   6  24
TORSDOF 8
ENDMDL
MODEL 3
REMARK VINA RESULT: -8.953033436      3.500      4.362
REMARK  8 active torsions:
REMARK  status: ('A' for Active; 'I' for Inactive)
REMARK    1  A    between atoms: C2_2  and  C3_3 
REMARK    2  A    between atoms: C3_3  and  C4_4 
REMARK    3  A    between atoms: C5_5  and  C6_6 
REMARK    4  A    between atoms: C6_6  and  O1_7 
REMARK    5  A    between atoms: C6_6  and  C7_9 
REMARK    6  A    between atoms: C10_16  and  C11_17 
REMARK    7  A    between atoms: C19_25  and  O3_26 
REMARK    8  A    between atoms: C20_28  and  O4_29 
ROOT
HETATM    1  C1  UNL     1      93.556 116.187 129.288  1.00  0.00     0.027 C 
HETATM    2  C2  UNL     1      92.105 116.083 129.698  1.00  0.00     0.053 C 
HETATM    3  C8  UNL     1      91.889 117.136 130.729  1.00  0.00     0.167 C 
HETATM    4  O2  UNL     1      92.671 117.169 131.741  1.00  0.00    -0.292 OA
HETATM    5  C9  UNL     1      90.843 118.127 130.652  1.00  0.00    -0.009 C 
HETATM    6  C10 UNL     1      90.257 118.616 131.747  1.00  0.00     0.011 C 
HETATM    7  C18 UNL     1      90.410 118.615 129.319  1.00  0.00     0.076 C 
HETATM    8  C19 UNL     1      91.125 117.838 128.236  1.00  0.00     0.152 C 
HETATM    9  C20 UNL     1      91.179 116.362 128.558  1.00  0.00     0.163 C 
ENDROOT
BRANCH   2  10
HETATM   10  C3  UNL     1      91.799 114.774 130.388  1.00  0.00     0.047 C 
BRANCH  10  11
HETATM   11  C4  UNL     1      90.410 114.630 130.806  1.00  0.00    -0.027 C 
HETATM   12  C5  UNL     1      90.127 114.305 132.056  1.00  0.00     0.009 C 
BRANCH  12  13
HETATM   13  C6  UNL     1      91.143 114.064 133.107  1.00  0.00     0.248 C 
BRANCH  13  14
HETATM   14  O1  UNL     1      90.887 112.856 133.760  1.00  0.00    -0.383 OA
ATOM     15  H1  UNL     1      91.684 112.520 134.154  1.00  0.00     0.210 HD
ENDBRANCH  13  14
BRANCH  13  16
HETATM   16  C7  UNL     1      91.070 115.178 134.157  1.00  0.00     0.416 C 
HETATM   17  F1  UNL     1      90.737 114.656 135.387  1.00  0.00    -0.168 F 
HETATM   18  F2  UNL     1      90.138 116.105 133.786  1.00  0.00    -0.168 F 
HETATM   19  F3  UNL     1      92.336 115.745 134.299  1.00  0.00    -0.168 F 
ENDBRANCH  13  16
ENDBRANCH  12  13
ENDBRANCH  10  11
ENDBRANCH   2  10
BRANCH   9  20
HETATM   20  O4  UNL     1      91.425 115.638 127.423  1.00  0.00    -0.392 OA
ATOM     21  H4  UNL     1      91.589 114.713 127.564  1.00  0.00     0.210 HD
ENDBRANCH   9  20
BRANCH   8  22
HETATM   22  O3  UNL     1      90.375 117.999 127.060  1.00  0.00    -0.393 OA
ATOM     23  H3  UNL     1      90.009 117.147 126.849  1.00  0.00     0.210 HD
ENDBRANCH   8  22
BRANCH   6  24
HETATM   24  C11 UNL     1      89.207 119.611 131.681  1.00  0.00     0.003 C 
HETATM   25  C12 UNL     1      88.507 119.883 132.755  1.00  0.00    -0.080 C 
HETATM   26  C13 UNL     1      88.731 119.217 134.066  1.00  0.00     0.034 C 
HETATM   27  C17 UNL     1      87.430 120.904 132.689  1.00  0.00     0.034 C 
HETATM   28  C14 UNL     1      87.793 119.881 135.063  1.00  0.00     0.004 C 
HETATM   29  C15 UNL     1      88.054 121.369 135.062  1.00  0.00     0.001 C 
HETATM   30  C16 UNL     1      87.734 121.952 133.727  1.00  0.00     0.004 C 
ENDBRANCH   6  24
TORSDOF 8
ENDMDL
MODEL 4
REMARK VINA RESULT: -8.804878026      3.148      7.466
REMARK  8 active torsions:
REMARK  status: ('A' for Active; 'I' for Inactive)
REMARK    1  A    between atoms: C2_2  and  C3_3 
REMARK    2  A    between atoms: C3_3  and  C4_4 
REMARK    3  A    between atoms: C5_5  and  C6_6 
REMARK    4  A    between atoms: C6_6  and  O1_7 
REMARK    5  A    between atoms: C6_6  and  C7_9 
REMARK    6  A    between atoms: C10_16  and  C11_17 
REMARK    7  A    between atoms: C19_25  and  O3_26 
REMARK    8  A    between atoms: C20_28  and  O4_29 
ROOT
HETATM    1  C1  UNL     1      92.385 116.130 132.908  1.00  0.00     0.027 C 
HETATM    2  C2  UNL     1      91.497 116.400 131.715  1.00  0.00     0.053 C 
HETATM    3  C8  UNL     1      92.273 115.978 130.517  1.00  0.00     0.167 C 
HETATM    4  O2  UNL     1      93.451 116.451 130.354  1.00  0.00    -0.292 OA
HETATM    5  C9  UNL     1      91.772 115.060 129.522  1.00  0.00    -0.009 C 
HETATM    6  C10 UNL     1      92.120 115.157 128.238  1.00  0.00     0.011 C 
HETATM    7  C18 UNL     1      90.843 113.980 129.942  1.00  0.00     0.076 C 
HETATM    8  C19 UNL     1      90.503 114.143 131.407  1.00  0.00     0.152 C 
HETATM    9  C20 UNL     1      90.241 115.590 131.757  1.00  0.00     0.163 C 
ENDROOT
BRANCH   2  10
HETATM   10  C3  UNL     1      91.231 117.875 131.525  1.00  0.00     0.047 C 
BRANCH  10  11
HETATM   11  C4  UNL     1      90.125 118.170 130.621  1.00  0.00    -0.027 C 
HETATM   12  C5  UNL     1      90.352 118.812 129.488  1.00  0.00     0.009 C 
BRANCH  12  13
HETATM   13  C6  UNL     1      91.688 119.276 129.044  1.00  0.00     0.248 C 
BRANCH  13  14
HETATM   14  O1  UNL     1      91.751 120.672 129.076  1.00  0.00    -0.383 OA
ATOM     15  H1  UNL     1      92.647 120.957 129.212  1.00  0.00     0.210 HD
ENDBRANCH  13  14
BRANCH  13  16
HETATM   16  C7  UNL     1      91.927 118.839 127.595  1.00  0.00     0.416 C 
HETATM   17  F1  UNL     1      92.025 119.940 126.772  1.00  0.00    -0.168 F 
HETATM   18  F2  UNL     1      90.899 118.044 127.174  1.00  0.00    -0.168 F 
HETATM   19  F3  UNL     1      93.154 118.181 127.520  1.00  0.00    -0.168 F 
ENDBRANCH  13  16
ENDBRANCH  12  13
ENDBRANCH  10  11
ENDBRANCH   2  10
BRANCH   9  20
HETATM   20  O4  UNL     1      89.536 115.675 132.927  1.00  0.00    -0.392 OA
ATOM     21  H4  UNL     1      88.903 114.981 133.066  1.00  0.00     0.210 HD
ENDBRANCH   9  20
BRANCH   8  22
HETATM   22  O3  UNL     1      89.319 113.421 131.630  1.00  0.00    -0.393 OA
ATOM     23  H3  UNL     1      89.163 113.434 132.568  1.00  0.00     0.210 HD
ENDBRANCH   8  22
BRANCH   6  24
HETATM   24  C11 UNL     1      91.623 114.241 127.233  1.00  0.00     0.003 C 
HETATM   25  C12 UNL     1      91.837 114.496 125.965  1.00  0.00    -0.080 C 
HETATM   26  C13 UNL     1      92.575 115.695 125.486  1.00  0.00     0.034 C 
HETATM   27  C17 UNL     1      91.328 113.557 124.932  1.00  0.00     0.034 C 
HETATM   28  C14 UNL     1      92.691 115.566 123.975  1.00  0.00     0.004 C 
HETATM   29  C15 UNL     1      93.354 114.248 123.647  1.00  0.00     0.001 C 
HETATM   30  C16 UNL     1      92.504 113.111 124.104  1.00  0.00     0.004 C 
ENDBRANCH   6  24
TORSDOF 8
ENDMDL
MODEL 5
REMARK VINA RESULT: -8.745472418      2.839      3.440
REMARK  8 active torsions:
REMARK  status: ('A' for Active; 'I' for Inactive)
REMARK    1  A    between atoms: C2_2  and  C3_3 
REMARK    2  A    between atoms: C3_3  and  C4_4 
REMARK    3  A    between atoms: C5_5  and  C6_6 
REMARK    4  A    between atoms: C6_6  and  O1_7 
REMARK    5  A    between atoms: C6_6  and  C7_9 
REMARK    6  A    between atoms: C10_16  and  C11_17 
REMARK    7  A    between atoms: C19_25  and  O3_26 
REMARK    8  A    between atoms: C20_28  and  O4_29 
ROOT
HETATM    1  C1  UNL     1      93.236 116.781 129.335  1.00  0.00     0.027 C 
HETATM    2  C2  UNL     1      91.729 116.786 129.441  1.00  0.00     0.053 C 
HETATM    3  C8  UNL     1      91.406 117.438 130.739  1.00  0.00     0.167 C 
HETATM    4  O2  UNL     1      91.958 116.988 131.803  1.00  0.00    -0.292 OA
HETATM    5  C9  UNL     1      90.500 118.554 130.870  1.00  0.00    -0.009 C 
HETATM    6  C10 UNL     1      89.749 118.725 131.959  1.00  0.00     0.011 C 
HETATM    7  C18 UNL     1      90.405 119.537 129.762  1.00  0.00     0.076 C 
HETATM    8  C19 UNL     1      91.251 119.074 128.597  1.00  0.00     0.152 C 
HETATM    9  C20 UNL     1      91.094 117.591 128.353  1.00  0.00     0.163 C 
ENDROOT
BRANCH   2  10
HETATM   10  C3  UNL     1      91.160 115.389 129.538  1.00  0.00     0.047 C 
BRANCH  10  11
HETATM   11  C4  UNL     1      92.159 114.331 129.450  1.00  0.00    -0.027 C 
HETATM   12  C5  UNL     1      92.340 113.507 130.469  1.00  0.00     0.009 C 
BRANCH  12  13
HETATM   13  C6  UNL     1      91.583 113.575 131.741  1.00  0.00     0.248 C 
BRANCH  13  14
HETATM   14  O1  UNL     1      92.425 113.294 132.821  1.00  0.00    -0.383 OA
ATOM     15  H1  UNL     1      92.445 114.029 133.422  1.00  0.00     0.210 HD
ENDBRANCH  13  14
BRANCH  13  16
HETATM   16  C7  UNL     1      90.475 112.517 131.735  1.00  0.00     0.416 C 
HETATM   17  F1  UNL     1      89.261 113.096 131.439  1.00  0.00    -0.168 F 
HETATM   18  F2  UNL     1      90.406 111.910 132.957  1.00  0.00    -0.168 F 
HETATM   19  F3  UNL     1      90.733 111.601 130.716  1.00  0.00    -0.168 F 
ENDBRANCH  13  16
ENDBRANCH  12  13
ENDBRANCH  10  11
ENDBRANCH   2  10
BRANCH   9  20
HETATM   20  O4  UNL     1      91.500 117.273 127.085  1.00  0.00    -0.392 OA
ATOM     21  H4  UNL     1      91.702 118.017 126.530  1.00  0.00     0.210 HD
ENDBRANCH   9  20
BRANCH   8  22
HETATM   22  O3  UNL     1      90.784 119.754 127.461  1.00  0.00    -0.393 OA
ATOM     23  H3  UNL     1      89.838 119.800 127.539  1.00  0.00     0.210 HD
ENDBRANCH   8  22
BRANCH   6  24
HETATM   24  C11 UNL     1      88.838 119.841 132.101  1.00  0.00     0.003 C 
HETATM   25  C12 UNL     1      88.261 120.063 133.257  1.00  0.00    -0.080 C 
HETATM   26  C13 UNL     1      88.491 119.217 134.459  1.00  0.00     0.034 C 
HETATM   27  C17 UNL     1      87.326 121.208 133.403  1.00  0.00     0.034 C 
HETATM   28  C14 UNL     1      87.726 119.863 135.604  1.00  0.00     0.004 C 
HETATM   29  C15 UNL     1      88.181 121.296 135.748  1.00  0.00     0.001 C 
HETATM   30  C16 UNL     1      87.842 122.075 134.522  1.00  0.00     0.004 C 
ENDBRANCH   6  24
TORSDOF 8
ENDMDL
