MODEL 1
REMARK VINA RESULT: -8.939972843      0.000      0.000
REMARK  6 active torsions:
REMARK  status: ('A' for Active; 'I' for Inactive)
REMARK    1  A    between atoms: C5_7  and  C6_8 
REMARK    2  A    between atoms: C6_8  and  C7_9 
REMARK    3  A    between atoms: C7_9  and  N2_10 
REMARK    4  A    between atoms: C8_12  and  C9_13 
REMARK    5  A    between atoms: C8_12  and  C18_29 
REMARK    6  A    between atoms: C11_16  and  C12_17 
ROOT
HETATM    1  C9  UNL     1      92.088 117.758 126.493  1.00  0.00     0.009 A 
HETATM    2  C10 UNL     1      92.577 118.344 125.304  1.00  0.00     0.064 A 
HETATM    3  S1  UNL     1      92.773 117.036 124.257  1.00  0.00    -0.102 SA
HETATM    4  C11 UNL     1      92.260 115.769 125.261  1.00  0.00     0.020 A 
HETATM    5  C16 UNL     1      91.926 116.426 126.444  1.00  0.00    -0.033 A 
HETATM    6  C17 UNL     1      91.269 115.557 127.514  1.00  0.00     0.050 C 
ENDROOT
BRANCH   1   7
HETATM    7  C8  UNL     1      91.872 118.736 127.622  1.00  0.00     0.123 C 
HETATM    8  N2  UNL     1      90.653 119.056 127.868  1.00  0.00    -0.385 N 
ATOM      9  H2  UNL     1      90.036 118.566 127.219  1.00  0.00     0.159 HD
BRANCH   8  10
HETATM   10  C7  UNL     1      89.908 119.832 128.707  1.00  0.00     0.124 C 
BRANCH  10  11
HETATM   11  C6  UNL     1      89.704 119.076 130.038  1.00  0.00     0.060 C 
BRANCH  11  12
HETATM   12  C5  UNL     1      88.844 119.864 130.946  1.00  0.00    -0.034 A 
HETATM   13  C2  UNL     1      88.570 119.615 132.269  1.00  0.00    -0.039 A 
HETATM   14  C1  UNL     1      89.084 118.481 133.105  1.00  0.00     0.050 C 
HETATM   15  C3  UNL     1      87.725 120.631 132.665  1.00  0.00     0.095 A 
HETATM   16  N1  UNL     1      87.496 121.455 131.630  1.00  0.00    -0.374 N 
HETATM   17  C4  UNL     1      88.172 121.005 130.563  1.00  0.00     0.095 A 
ATOM     18  H1  UNL     1      86.905 122.286 131.651  1.00  0.00     0.164 HD
ENDBRANCH  11  12
ENDBRANCH  10  11
ENDBRANCH   8  10
BRANCH   7  19
HETATM   19  C18 UNL     1      92.867 119.424 128.431  1.00  0.00     0.433 C 
HETATM   20  F1  UNL     1      92.998 120.759 128.258  1.00  0.00    -0.165 F 
HETATM   21  F2  UNL     1      94.143 118.820 128.146  1.00  0.00    -0.165 F 
HETATM   22  F3  UNL     1      92.785 119.096 129.800  1.00  0.00    -0.165 F 
ENDBRANCH   7  19
ENDBRANCH   1   7
BRANCH   4  23
HETATM   23  C12 UNL     1      92.321 114.338 124.890  1.00  0.00     0.097 A 
HETATM   24  C13 UNL     1      92.309 113.142 125.675  1.00  0.00     0.075 A 
HETATM   25  C14 UNL     1      93.604 113.607 125.098  1.00  0.00     0.168 A 
HETATM   26  O1  UNL     1      94.046 113.051 123.888  1.00  0.00    -0.314 OA
HETATM   27  C15 UNL     1      93.257 113.515 122.852  1.00  0.00     0.214 C 
HETATM   28  N3  UNL     1      93.584 113.334 121.611  1.00  0.00    -0.365 N 
HETATM   29  N4  UNL     1      92.160 114.149 123.424  1.00  0.00    -0.340 N 
ATOM     30  H32 UNL     1      94.389 112.868 121.191  1.00  0.00     0.159 HD
ATOM     31  H31 UNL     1      93.002 113.676 120.846  1.00  0.00     0.159 HD
ATOM     32  H4  UNL     1      91.339 114.450 122.899  1.00  0.00     0.164 HD
ENDBRANCH   4  23
TORSDOF 6
ENDMDL
MODEL 2
REMARK VINA RESULT: -8.862655819      3.409      9.022
REMARK  6 active torsions:
REMARK  status: ('A' for Active; 'I' for Inactive)
REMARK    1  A    between atoms: C5_7  and  C6_8 
REMARK    2  A    between atoms: C6_8  and  C7_9 
REMARK    3  A    between atoms: C7_9  and  N2_10 
REMARK    4  A    between atoms: C8_12  and  C9_13 
REMARK    5  A    between atoms: C8_12  and  C18_29 
REMARK    6  A    between atoms: C11_16  and  C12_17 
ROOT
HETATM    1  C9  UNL     1      92.238 117.004 126.539  1.00  0.00     0.009 A 
HETATM    2  C10 UNL     1      92.597 118.141 125.782  1.00  0.00     0.064 A 
HETATM    3  S1  UNL     1      92.249 119.437 126.805  1.00  0.00    -0.102 SA
HETATM    4  C11 UNL     1      91.666 118.600 128.160  1.00  0.00     0.020 A 
HETATM    5  C16 UNL     1      91.766 117.266 127.769  1.00  0.00    -0.033 A 
HETATM    6  C17 UNL     1      91.455 116.238 128.854  1.00  0.00     0.050 C 
ENDROOT
BRANCH   1   7
HETATM    7  C8  UNL     1      92.414 115.694 125.810  1.00  0.00     0.123 C 
HETATM    8  N2  UNL     1      93.624 115.294 125.652  1.00  0.00    -0.385 N 
ATOM      9  H2  UNL     1      94.263 115.972 126.065  1.00  0.00     0.159 HD
BRANCH   8  10
HETATM   10  C7  UNL     1      94.339 114.264 125.113  1.00  0.00     0.124 C 
BRANCH  10  11
HETATM   11  C6  UNL     1      94.732 114.632 123.665  1.00  0.00     0.060 C 
BRANCH  11  12
HETATM   12  C5  UNL     1      94.456 113.498 122.758  1.00  0.00    -0.034 A 
HETATM   13  C2  UNL     1      95.359 112.778 122.016  1.00  0.00    -0.039 A 
HETATM   14  C1  UNL     1      96.845 112.974 121.953  1.00  0.00     0.050 C 
HETATM   15  C3  UNL     1      94.611 111.835 121.342  1.00  0.00     0.095 A 
HETATM   16  N1  UNL     1      93.315 111.980 121.660  1.00  0.00    -0.374 N 
HETATM   17  C4  UNL     1      93.194 112.994 122.528  1.00  0.00     0.095 A 
ATOM     18  H1  UNL     1      92.547 111.411 121.301  1.00  0.00     0.164 HD
ENDBRANCH  11  12
ENDBRANCH  10  11
ENDBRANCH   8  10
BRANCH   7  19
HETATM   19  C18 UNL     1      91.398 114.850 125.198  1.00  0.00     0.433 C 
HETATM   20  F1  UNL     1      91.106 115.069 123.896  1.00  0.00    -0.165 F 
HETATM   21  F2  UNL     1      90.184 115.026 125.953  1.00  0.00    -0.165 F 
HETATM   22  F3  UNL     1      91.599 113.477 125.448  1.00  0.00    -0.165 F 
ENDBRANCH   7  19
ENDBRANCH   1   7
BRANCH   4  23
HETATM   23  C12 UNL     1      91.099 119.254 129.361  1.00  0.00     0.097 A 
HETATM   24  C13 UNL     1      91.123 118.901 130.747  1.00  0.00     0.075 A 
HETATM   25  C14 UNL     1      89.870 118.671 129.970  1.00  0.00     0.168 A 
HETATM   26  O1  UNL     1      88.852 119.636 130.023  1.00  0.00    -0.314 OA
HETATM   27  C15 UNL     1      89.246 120.761 129.323  1.00  0.00     0.214 C 
HETATM   28  N3  UNL     1      88.412 121.708 129.030  1.00  0.00    -0.365 N 
HETATM   29  N4  UNL     1      90.602 120.621 129.051  1.00  0.00    -0.340 N 
ATOM     30  H32 UNL     1      87.416 121.811 129.229  1.00  0.00     0.159 HD
ATOM     31  H31 UNL     1      88.702 122.539 128.513  1.00  0.00     0.159 HD
ATOM     32  H4  UNL     1      91.188 121.369 128.682  1.00  0.00     0.164 HD
ENDBRANCH   4  23
TORSDOF 6
ENDMDL
MODEL 3
REMARK VINA RESULT: -8.739676502      4.952      6.088
REMARK  6 active torsions:
REMARK  status: ('A' for Active; 'I' for Inactive)
REMARK    1  A    between atoms: C5_7  and  C6_8 
REMARK    2  A    between atoms: C6_8  and  C7_9 
REMARK    3  A    between atoms: C7_9  and  N2_10 
REMARK    4  A    between atoms: C8_12  and  C9_13 
REMARK    5  A    between atoms: C8_12  and  C18_29 
REMARK    6  A    between atoms: C11_16  and  C12_17 
ROOT
HETATM    1  C9  UNL     1      90.330 119.027 130.953  1.00  0.00     0.009 A 
HETATM    2  C10 UNL     1      91.439 119.255 130.107  1.00  0.00     0.064 A 
HETATM    3  S1  UNL     1      92.475 117.966 130.437  1.00  0.00    -0.102 SA
HETATM    4  C11 UNL     1      91.564 117.141 131.606  1.00  0.00     0.020 A 
HETATM    5  C16 UNL     1      90.415 117.923 131.714  1.00  0.00    -0.033 A 
HETATM    6  C17 UNL     1      89.309 117.346 132.594  1.00  0.00     0.050 C 
ENDROOT
BRANCH   1   7
HETATM    7  C8  UNL     1      89.263 120.091 130.877  1.00  0.00     0.123 C 
HETATM    8  N2  UNL     1      89.030 120.737 131.962  1.00  0.00    -0.385 N 
ATOM      9  H2  UNL     1      89.639 120.388 132.702  1.00  0.00     0.159 HD
BRANCH   8  10
HETATM   10  C7  UNL     1      88.240 121.735 132.454  1.00  0.00     0.124 C 
BRANCH  10  11
HETATM   11  C6  UNL     1      88.872 122.277 133.755  1.00  0.00     0.060 C 
BRANCH  11  12
HETATM   12  C5  UNL     1      88.143 121.758 134.931  1.00  0.00    -0.034 A 
HETATM   13  C2  UNL     1      88.606 121.635 136.218  1.00  0.00    -0.039 A 
HETATM   14  C1  UNL     1      89.967 122.001 136.733  1.00  0.00     0.050 C 
HETATM   15  C3  UNL     1      87.554 121.105 136.937  1.00  0.00     0.095 A 
HETATM   16  N1  UNL     1      86.504 120.915 136.122  1.00  0.00    -0.374 N 
HETATM   17  C4  UNL     1      86.841 121.308 134.885  1.00  0.00     0.095 A 
ATOM     18  H1  UNL     1      85.599 120.533 136.398  1.00  0.00     0.164 HD
ENDBRANCH  11  12
ENDBRANCH  10  11
ENDBRANCH   8  10
BRANCH   7  19
HETATM   19  C18 UNL     1      88.407 120.440 129.752  1.00  0.00     0.433 C 
HETATM   20  F1  UNL     1      87.084 120.584 129.996  1.00  0.00    -0.165 F 
HETATM   21  F2  UNL     1      88.559 119.406 128.761  1.00  0.00    -0.165 F 
HETATM   22  F3  UNL     1      88.904 121.523 128.999  1.00  0.00    -0.165 F 
ENDBRANCH   7  19
ENDBRANCH   1   7
BRANCH   4  23
HETATM   23  C12 UNL     1      92.044 115.955 132.350  1.00  0.00     0.097 A 
HETATM   24  C13 UNL     1      92.603 115.803 133.657  1.00  0.00     0.075 A 
HETATM   25  C14 UNL     1      93.515 115.747 132.477  1.00  0.00     0.168 A 
HETATM   26  O1  UNL     1      93.874 114.495 131.956  1.00  0.00    -0.314 OA
HETATM   27  C15 UNL     1      92.785 113.931 131.318  1.00  0.00     0.214 C 
HETATM   28  N3  UNL     1      92.903 112.884 130.564  1.00  0.00    -0.365 N 
HETATM   29  N4  UNL     1      91.672 114.693 131.656  1.00  0.00    -0.340 N 
ATOM     30  H32 UNL     1      93.719 112.324 130.316  1.00  0.00     0.159 HD
ATOM     31  H31 UNL     1      92.099 112.467 130.093  1.00  0.00     0.159 HD
ATOM     32  H4  UNL     1      90.712 114.418 131.452  1.00  0.00     0.164 HD
ENDBRANCH   4  23
TORSDOF 6
ENDMDL
MODEL 4
REMARK VINA RESULT: -8.721559486      4.171      6.279
REMARK  6 active torsions:
REMARK  status: ('A' for Active; 'I' for Inactive)
REMARK    1  A    between atoms: C5_7  and  C6_8 
REMARK    2  A    between atoms: C6_8  and  C7_9 
REMARK    3  A    between atoms: C7_9  and  N2_10 
REMARK    4  A    between atoms: C8_12  and  C9_13 
REMARK    5  A    between atoms: C8_12  and  C18_29 
REMARK    6  A    between atoms: C11_16  and  C12_17 
ROOT
HETATM    1  C9  UNL     1      89.626 118.703 131.895  1.00  0.00     0.009 A 
HETATM    2  C10 UNL     1      89.248 117.533 132.591  1.00  0.00     0.064 A 
HETATM    3  S1  UNL     1      90.282 116.347 131.983  1.00  0.00    -0.102 SA
HETATM    4  C11 UNL     1      91.180 117.270 130.878  1.00  0.00     0.020 A 
HETATM    5  C16 UNL     1      90.632 118.543 131.020  1.00  0.00    -0.033 A 
HETATM    6  C17 UNL     1      91.347 119.654 130.254  1.00  0.00     0.050 C 
ENDROOT
BRANCH   1   7
HETATM    7  C8  UNL     1      88.799 119.919 132.235  1.00  0.00     0.123 C 
HETATM    8  N2  UNL     1      88.669 120.184 133.484  1.00  0.00    -0.385 N 
ATOM      9  H2  UNL     1      89.171 119.485 134.033  1.00  0.00     0.159 HD
BRANCH   8  10
HETATM   10  C7  UNL     1      88.083 121.087 134.322  1.00  0.00     0.124 C 
BRANCH  10  11
HETATM   11  C6  UNL     1      87.415 120.326 135.489  1.00  0.00     0.060 C 
BRANCH  11  12
HETATM   12  C5  UNL     1      87.662 121.029 136.765  1.00  0.00    -0.034 A 
HETATM   13  C2  UNL     1      86.949 120.923 137.934  1.00  0.00    -0.039 A 
HETATM   14  C1  UNL     1      85.747 120.061 138.189  1.00  0.00     0.050 C 
HETATM   15  C3  UNL     1      87.573 121.773 138.823  1.00  0.00     0.095 A 
HETATM   16  N1  UNL     1      88.614 122.368 138.219  1.00  0.00    -0.374 N 
HETATM   17  C4  UNL     1      88.690 121.928 136.955  1.00  0.00     0.095 A 
ATOM     18  H1  UNL     1      89.244 123.045 138.651  1.00  0.00     0.164 HD
ENDBRANCH  11  12
ENDBRANCH  10  11
ENDBRANCH   8  10
BRANCH   7  19
HETATM   19  C18 UNL     1      88.067 120.801 131.336  1.00  0.00     0.433 C 
HETATM   20  F1  UNL     1      88.324 122.126 131.416  1.00  0.00    -0.165 F 
HETATM   21  F2  UNL     1      86.664 120.610 131.599  1.00  0.00    -0.165 F 
HETATM   22  F3  UNL     1      88.088 120.360 129.997  1.00  0.00    -0.165 F 
ENDBRANCH   7  19
ENDBRANCH   1   7
BRANCH   4  23
HETATM   23  C12 UNL     1      92.192 116.709 129.955  1.00  0.00     0.097 A 
HETATM   24  C13 UNL     1      93.329 115.870 130.173  1.00  0.00     0.075 A 
HETATM   25  C14 UNL     1      93.548 117.327 129.933  1.00  0.00     0.168 A 
HETATM   26  O1  UNL     1      93.862 117.761 128.636  1.00  0.00    -0.314 OA
HETATM   27  C15 UNL     1      92.743 117.654 127.831  1.00  0.00     0.214 C 
HETATM   28  N3  UNL     1      92.697 118.191 126.653  1.00  0.00    -0.365 N 
HETATM   29  N4  UNL     1      91.801 116.911 128.534  1.00  0.00    -0.340 N 
ATOM     30  H32 UNL     1      93.388 118.736 126.137  1.00  0.00     0.159 HD
ATOM     31  H31 UNL     1      91.871 118.112 126.058  1.00  0.00     0.159 HD
ATOM     32  H4  UNL     1      90.942 116.548 128.123  1.00  0.00     0.164 HD
ENDBRANCH   4  23
TORSDOF 6
ENDMDL
MODEL 5
REMARK VINA RESULT: -8.679547367      1.904      2.315
REMARK  6 active torsions:
REMARK  status: ('A' for Active; 'I' for Inactive)
REMARK    1  A    between atoms: C5_7  and  C6_8 
REMARK    2  A    between atoms: C6_8  and  C7_9 
REMARK    3  A    between atoms: C7_9  and  N2_10 
REMARK    4  A    between atoms: C8_12  and  C9_13 
REMARK    5  A    between atoms: C8_12  and  C18_29 
REMARK    6  A    between atoms: C11_16  and  C12_17 
ROOT
HETATM    1  C9  UNL     1      93.194 116.310 125.792  1.00  0.00     0.009 A 
HETATM    2  C10 UNL     1      94.443 116.530 125.168  1.00  0.00     0.064 A 
HETATM    3  S1  UNL     1      94.634 115.193 124.157  1.00  0.00    -0.102 SA
HETATM    4  C11 UNL     1      93.194 114.360 124.488  1.00  0.00     0.020 A 
HETATM    5  C16 UNL     1      92.564 115.185 125.418  1.00  0.00    -0.033 A 
HETATM    6  C17 UNL     1      91.144 114.776 125.802  1.00  0.00     0.050 C 
ENDROOT
BRANCH   1   7
HETATM    7  C8  UNL     1      92.811 117.367 126.800  1.00  0.00     0.123 C 
HETATM    8  N2  UNL     1      92.822 117.003 128.031  1.00  0.00    -0.385 N 
ATOM      9  H2  UNL     1      93.098 116.024 128.094  1.00  0.00     0.159 HD
BRANCH   8  10
HETATM   10  C7  UNL     1      92.587 117.492 129.283  1.00  0.00     0.124 C 
BRANCH  10  11
HETATM   11  C6  UNL     1      91.188 117.027 129.746  1.00  0.00     0.060 C 
BRANCH  11  12
HETATM   12  C5  UNL     1      90.523 118.099 130.516  1.00  0.00    -0.034 A 
HETATM   13  C2  UNL     1      89.832 117.979 131.697  1.00  0.00    -0.039 A 
HETATM   14  C1  UNL     1      89.590 116.725 132.485  1.00  0.00     0.050 C 
HETATM   15  C3  UNL     1      89.410 119.255 132.006  1.00  0.00     0.095 A 
HETATM   16  N1  UNL     1      89.824 120.108 131.055  1.00  0.00    -0.374 N 
HETATM   17  C4  UNL     1      90.510 119.422 130.130  1.00  0.00     0.095 A 
ATOM     18  H1  UNL     1      89.646 121.112 131.039  1.00  0.00     0.164 HD
ENDBRANCH  11  12
ENDBRANCH  10  11
ENDBRANCH   8  10
BRANCH   7  19
HETATM   19  C18 UNL     1      92.360 118.730 126.560  1.00  0.00     0.433 C 
HETATM   20  F1  UNL     1      92.546 119.240 125.321  1.00  0.00    -0.165 F 
HETATM   21  F2  UNL     1      93.055 119.581 127.492  1.00  0.00    -0.165 F 
HETATM   22  F3  UNL     1      91.044 118.961 127.011  1.00  0.00    -0.165 F 
ENDBRANCH   7  19
ENDBRANCH   1   7
BRANCH   4  23
HETATM   23  C12 UNL     1      92.863 113.024 123.945  1.00  0.00     0.097 A 
HETATM   24  C13 UNL     1      92.545 111.782 124.580  1.00  0.00     0.075 A 
HETATM   25  C14 UNL     1      93.907 111.961 123.997  1.00  0.00     0.168 A 
HETATM   26  O1  UNL     1      94.163 111.470 122.708  1.00  0.00    -0.314 OA
HETATM   27  C15 UNL     1      93.510 112.256 121.777  1.00  0.00     0.214 C 
HETATM   28  N3  UNL     1      93.755 112.157 120.509  1.00  0.00    -0.365 N 
HETATM   29  N4  UNL     1      92.632 113.076 122.477  1.00  0.00    -0.340 N 
ATOM     30  H32 UNL     1      94.399 111.554 119.995  1.00  0.00     0.159 HD
ATOM     31  H31 UNL     1      93.273 112.736 119.821  1.00  0.00     0.159 HD
ATOM     32  H4  UNL     1      91.913 113.648 122.034  1.00  0.00     0.164 HD
ENDBRANCH   4  23
TORSDOF 6
ENDMDL
