MODEL 1
REMARK VINA RESULT: -10.358915771      0.000      0.000
REMARK  7 active torsions:
REMARK  status: ('A' for Active; 'I' for Inactive)
REMARK    1  A    between atoms: C2_2  and  N1_3 
REMARK    2  A    between atoms: N1_3  and  C3_5 
REMARK    3  A    between atoms: C3_5  and  C5_7 
REMARK    4  A    between atoms: C5_7  and  N2_8 
REMARK    5  A    between atoms: N2_8  and  C6_10 
REMARK    6  A    between atoms: C9_15  and  N4_16 
REMARK    7  A    between atoms: N4_16  and  C10_18 
ROOT
HETATM    1  C6  UNL     1      88.565 119.918 133.277  1.00  0.00     0.102 A 
HETATM    2  C7  UNL     1      89.458 119.198 132.536  1.00  0.00     0.079 A 
HETATM    3  C8  UNL     1      89.698 119.557 131.223  1.00  0.00     0.068 A 
HETATM    4  N3  UNL     1      90.560 118.884 130.449  1.00  0.00    -0.191 N 
ATOM      5  H3  UNL     1      91.063 118.083 130.829  1.00  0.00     0.184 HD
HETATM    6  C9  UNL     1      90.769 119.264 129.156  1.00  0.00     0.680 A 
HETATM    7  N6  UNL     1      90.107 120.301 128.684  1.00  0.00    -0.176 N 
ATOM      8  H6  UNL     1      90.270 120.575 127.715  1.00  0.00     0.186 HD
HETATM    9  C20 UNL     1      89.219 121.028 129.413  1.00  0.00     0.128 A 
HETATM   10  N7  UNL     1      88.630 122.024 128.847  1.00  0.00    -0.384 N 
ATOM     11  H71 UNL     1      87.964 122.570 129.394  1.00  0.00     0.157 HD
ATOM     12  H72 UNL     1      88.789 122.304 127.879  1.00  0.00     0.157 HD
HETATM   13  C21 UNL     1      89.002 120.648 130.728  1.00  0.00     0.051 A 
HETATM   14  C22 UNL     1      88.112 121.353 131.496  1.00  0.00     0.107 A 
HETATM   15  N8  UNL     1      87.902 120.970 132.787  1.00  0.00    -0.351 N 
ATOM     16  H8  UNL     1      87.244 121.482 133.375  1.00  0.00     0.166 HD
ENDROOT
BRANCH   6  17
HETATM   17  N4  UNL     1      91.603 118.581 128.462  1.00  0.00    -0.221 N 
ATOM     18  H4  UNL     1      92.558 118.565 128.819  1.00  0.00     0.178 HD
BRANCH  17  19
HETATM   19  C10 UNL     1      91.385 117.842 127.265  1.00  0.00     0.099 C 
HETATM   20  C11 UNL     1      91.287 116.370 127.626  1.00  0.00     0.026 C 
HETATM   21  C12 UNL     1      91.278 115.498 126.391  1.00  0.00     0.011 C 
HETATM   22  C13 UNL     1      92.489 115.706 125.519  1.00  0.00    -0.037 C 
HETATM   23  C14 UNL     1      93.750 115.327 126.250  1.00  0.00     0.037 C 
HETATM   24  C17 UNL     1      92.300 114.922 124.243  1.00  0.00     0.037 C 
HETATM   25  C18 UNL     1      92.524 117.170 125.140  1.00  0.00     0.011 C 
HETATM   26  C15 UNL     1      94.484 114.225 125.483  1.00  0.00     0.233 C 
HETATM   27  N5  UNL     1      93.557 113.124 125.346  1.00  0.00    -0.075 N 
HETATM   28  C16 UNL     1      92.498 113.439 124.430  1.00  0.00     0.233 C 
ATOM     29  H52 UNL     1      94.036 112.264 125.080  1.00  0.00     0.277 HD
ATOM     30  H51 UNL     1      93.192 112.829 126.251  1.00  0.00     0.277 HD
HETATM   31  C19 UNL     1      92.565 118.086 126.341  1.00  0.00     0.026 C 
ENDBRANCH  17  19
ENDBRANCH   6  17
BRANCH   1  32
HETATM   32  N2  UNL     1      88.340 119.569 134.503  1.00  0.00    -0.374 N 
ATOM     33  H2  UNL     1      88.779 118.721 134.860  1.00  0.00     0.161 HD
BRANCH  32  34
HETATM   34  C5  UNL     1      87.494 120.331 135.379  1.00  0.00     0.145 C 
BRANCH  34  35
HETATM   35  C3  UNL     1      88.193 120.766 136.653  1.00  0.00     0.090 C 
HETATM   36  C4  UNL     1      89.182 121.884 136.384  1.00  0.00     0.033 C 
BRANCH  35  37
HETATM   37  N1  UNL     1      87.266 121.174 137.656  1.00  0.00    -0.416 N 
ATOM     38  H1  UNL     1      86.924 122.133 137.726  1.00  0.00     0.153 HD
BRANCH  37  39
HETATM   39  C2  UNL     1      86.852 120.153 138.549  1.00  0.00     0.110 C 
HETATM   40  C1  UNL     1      85.372 119.987 138.576  1.00  0.00     0.026 C 
ENDBRANCH  37  39
ENDBRANCH  35  37
ENDBRANCH  34  35
ENDBRANCH  32  34
ENDBRANCH   1  32
TORSDOF 7
ENDMDL
MODEL 2
REMARK VINA RESULT: -10.261617621      1.053      1.518
REMARK  7 active torsions:
REMARK  status: ('A' for Active; 'I' for Inactive)
REMARK    1  A    between atoms: C2_2  and  N1_3 
REMARK    2  A    between atoms: N1_3  and  C3_5 
REMARK    3  A    between atoms: C3_5  and  C5_7 
REMARK    4  A    between atoms: C5_7  and  N2_8 
REMARK    5  A    between atoms: N2_8  and  C6_10 
REMARK    6  A    between atoms: C9_15  and  N4_16 
REMARK    7  A    between atoms: N4_16  and  C10_18 
ROOT
HETATM    1  C6  UNL     1      88.072 120.323 133.413  1.00  0.00     0.102 A 
HETATM    2  C7  UNL     1      89.149 119.628 132.942  1.00  0.00     0.079 A 
HETATM    3  C8  UNL     1      89.600 119.862 131.657  1.00  0.00     0.068 A 
HETATM    4  N3  UNL     1      90.650 119.207 131.143  1.00  0.00    -0.191 N 
ATOM      5  H3  UNL     1      91.141 118.514 131.707  1.00  0.00     0.184 HD
HETATM    6  C9  UNL     1      91.065 119.461 129.869  1.00  0.00     0.680 A 
HETATM    7  N6  UNL     1      90.416 120.359 129.157  1.00  0.00    -0.176 N 
ATOM      8  H6  UNL     1      90.735 120.539 128.204  1.00  0.00     0.186 HD
HETATM    9  C20 UNL     1      89.345 121.059 129.615  1.00  0.00     0.128 A 
HETATM   10  N7  UNL     1      88.788 121.915 128.829  1.00  0.00    -0.384 N 
ATOM     11  H71 UNL     1      87.985 122.441 129.173  1.00  0.00     0.157 HD
ATOM     12  H72 UNL     1      89.103 122.100 127.877  1.00  0.00     0.157 HD
HETATM   13  C21 UNL     1      88.918 120.807 130.909  1.00  0.00     0.051 A 
HETATM   14  C22 UNL     1      87.839 121.490 131.408  1.00  0.00     0.107 A 
HETATM   15  N8  UNL     1      87.423 121.233 132.681  1.00  0.00    -0.351 N 
ATOM     16  H8  UNL     1      86.623 121.732 133.071  1.00  0.00     0.166 HD
ENDROOT
BRANCH   6  17
HETATM   17  N4  UNL     1      92.072 118.801 129.430  1.00  0.00    -0.221 N 
ATOM     18  H4  UNL     1      92.983 119.227 129.602  1.00  0.00     0.178 HD
BRANCH  17  19
HETATM   19  C10 UNL     1      92.101 117.558 128.735  1.00  0.00     0.099 C 
HETATM   20  C11 UNL     1      93.456 117.418 128.066  1.00  0.00     0.026 C 
HETATM   21  C12 UNL     1      93.489 116.233 127.127  1.00  0.00     0.011 C 
HETATM   22  C13 UNL     1      92.425 116.300 126.062  1.00  0.00    -0.037 C 
HETATM   23  C14 UNL     1      92.626 117.500 125.176  1.00  0.00     0.037 C 
HETATM   24  C17 UNL     1      92.436 115.001 125.293  1.00  0.00     0.037 C 
HETATM   25  C18 UNL     1      91.089 116.388 126.767  1.00  0.00     0.011 C 
HETATM   26  C15 UNL     1      92.800 117.050 123.723  1.00  0.00     0.233 C 
HETATM   27  N5  UNL     1      93.922 116.137 123.703  1.00  0.00    -0.075 N 
HETATM   28  C16 UNL     1      93.599 114.893 124.341  1.00  0.00     0.233 C 
ATOM     29  H52 UNL     1      94.267 115.992 122.754  1.00  0.00     0.277 HD
ATOM     30  H51 UNL     1      94.755 116.561 124.111  1.00  0.00     0.277 HD
HETATM   31  C19 UNL     1      90.993 117.576 127.696  1.00  0.00     0.026 C 
ENDBRANCH  17  19
ENDBRANCH   6  17
BRANCH   1  32
HETATM   32  N2  UNL     1      87.649 120.091 134.615  1.00  0.00    -0.374 N 
ATOM     33  H2  UNL     1      87.521 119.123 134.910  1.00  0.00     0.161 HD
BRANCH  32  34
HETATM   34  C5  UNL     1      87.355 121.143 135.547  1.00  0.00     0.145 C 
BRANCH  34  35
HETATM   35  C3  UNL     1      88.175 121.058 136.820  1.00  0.00     0.090 C 
HETATM   36  C4  UNL     1      89.309 122.066 136.813  1.00  0.00     0.033 C 
BRANCH  35  37
HETATM   37  N1  UNL     1      87.372 121.244 137.984  1.00  0.00    -0.416 N 
ATOM     38  H1  UNL     1      87.172 122.168 138.368  1.00  0.00     0.153 HD
BRANCH  37  39
HETATM   39  C2  UNL     1      86.872 120.053 138.569  1.00  0.00     0.110 C 
HETATM   40  C1  UNL     1      85.383 120.003 138.571  1.00  0.00     0.026 C 
ENDBRANCH  37  39
ENDBRANCH  35  37
ENDBRANCH  34  35
ENDBRANCH  32  34
ENDBRANCH   1  32
TORSDOF 7
ENDMDL
MODEL 3
REMARK VINA RESULT: -10.193586153      0.705      1.438
REMARK  7 active torsions:
REMARK  status: ('A' for Active; 'I' for Inactive)
REMARK    1  A    between atoms: C2_2  and  N1_3 
REMARK    2  A    between atoms: N1_3  and  C3_5 
REMARK    3  A    between atoms: C3_5  and  C5_7 
REMARK    4  A    between atoms: C5_7  and  N2_8 
REMARK    5  A    between atoms: N2_8  and  C6_10 
REMARK    6  A    between atoms: C9_15  and  N4_16 
REMARK    7  A    between atoms: N4_16  and  C10_18 
ROOT
HETATM    1  C6  UNL     1      88.509 120.060 133.191  1.00  0.00     0.102 A 
HETATM    2  C7  UNL     1      89.420 119.332 132.479  1.00  0.00     0.079 A 
HETATM    3  C8  UNL     1      89.659 119.650 131.155  1.00  0.00     0.068 A 
HETATM    4  N3  UNL     1      90.538 118.968 130.409  1.00  0.00    -0.191 N 
ATOM      5  H3  UNL     1      91.056 118.191 130.819  1.00  0.00     0.184 HD
HETATM    6  C9  UNL     1      90.745 119.307 129.104  1.00  0.00     0.680 A 
HETATM    7  N6  UNL     1      90.064 120.313 128.594  1.00  0.00    -0.176 N 
ATOM      8  H6  UNL     1      90.226 120.556 127.617  1.00  0.00     0.186 HD
HETATM    9  C20 UNL     1      89.158 121.046 129.293  1.00  0.00     0.128 A 
HETATM   10  N7  UNL     1      88.551 122.010 128.690  1.00  0.00    -0.384 N 
ATOM     11  H71 UNL     1      87.872 122.561 129.215  1.00  0.00     0.157 HD
ATOM     12  H72 UNL     1      88.709 122.258 127.714  1.00  0.00     0.157 HD
HETATM   13  C21 UNL     1      88.943 120.708 130.620  1.00  0.00     0.051 A 
HETATM   14  C22 UNL     1      88.035 121.421 131.359  1.00  0.00     0.107 A 
HETATM   15  N8  UNL     1      87.827 121.079 132.662  1.00  0.00    -0.351 N 
ATOM     16  H8  UNL     1      87.156 121.598 133.229  1.00  0.00     0.166 HD
ENDROOT
BRANCH   6  17
HETATM   17  N4  UNL     1      91.596 118.617 128.439  1.00  0.00    -0.221 N 
ATOM     18  H4  UNL     1      92.526 118.554 128.852  1.00  0.00     0.178 HD
BRANCH  17  19
HETATM   19  C10 UNL     1      91.427 117.928 127.205  1.00  0.00     0.099 C 
HETATM   20  C11 UNL     1      91.255 116.450 127.505  1.00  0.00     0.026 C 
HETATM   21  C12 UNL     1      91.292 115.621 126.241  1.00  0.00     0.011 C 
HETATM   22  C13 UNL     1      92.562 115.812 125.453  1.00  0.00    -0.037 C 
HETATM   23  C14 UNL     1      93.760 115.361 126.246  1.00  0.00     0.037 C 
HETATM   24  C17 UNL     1      92.425 115.079 124.140  1.00  0.00     0.037 C 
HETATM   25  C18 UNL     1      92.672 117.286 125.130  1.00  0.00     0.011 C 
HETATM   26  C15 UNL     1      94.502 114.260 125.486  1.00  0.00     0.233 C 
HETATM   27  N5  UNL     1      93.547 113.200 125.252  1.00  0.00    -0.075 N 
HETATM   28  C16 UNL     1      92.559 113.585 124.286  1.00  0.00     0.233 C 
ATOM     29  H52 UNL     1      94.010 112.331 124.986  1.00  0.00     0.277 HD
ATOM     30  H51 UNL     1      93.115 112.888 126.123  1.00  0.00     0.277 HD
HETATM   31  C19 UNL     1      92.671 118.159 126.364  1.00  0.00     0.026 C 
ENDBRANCH  17  19
ENDBRANCH   6  17
BRANCH   1  32
HETATM   32  N2  UNL     1      88.285 119.749 134.428  1.00  0.00    -0.374 N 
ATOM     33  H2  UNL     1      87.683 118.951 134.632  1.00  0.00     0.161 HD
BRANCH  32  34
HETATM   34  C5  UNL     1      88.852 120.485 135.524  1.00  0.00     0.145 C 
BRANCH  34  35
HETATM   35  C3  UNL     1      87.810 121.199 136.364  1.00  0.00     0.090 C 
HETATM   36  C4  UNL     1      86.810 120.220 136.949  1.00  0.00     0.033 C 
BRANCH  35  37
HETATM   37  N1  UNL     1      88.404 121.964 137.410  1.00  0.00    -0.416 N 
ATOM     38  H1  UNL     1      87.879 122.267 138.231  1.00  0.00     0.153 HD
BRANCH  37  39
HETATM   39  C2  UNL     1      89.776 122.275 137.228  1.00  0.00     0.110 C 
HETATM   40  C1  UNL     1      90.377 122.918 138.430  1.00  0.00     0.026 C 
ENDBRANCH  37  39
ENDBRANCH  35  37
ENDBRANCH  34  35
ENDBRANCH  32  34
ENDBRANCH   1  32
TORSDOF 7
ENDMDL
MODEL 4
REMARK VINA RESULT: -10.173211520      1.571      2.276
REMARK  7 active torsions:
REMARK  status: ('A' for Active; 'I' for Inactive)
REMARK    1  A    between atoms: C2_2  and  N1_3 
REMARK    2  A    between atoms: N1_3  and  C3_5 
REMARK    3  A    between atoms: C3_5  and  C5_7 
REMARK    4  A    between atoms: C5_7  and  N2_8 
REMARK    5  A    between atoms: N2_8  and  C6_10 
REMARK    6  A    between atoms: C9_15  and  N4_16 
REMARK    7  A    between atoms: N4_16  and  C10_18 
ROOT
HETATM    1  C6  UNL     1      87.984 120.160 134.581  1.00  0.00     0.102 A 
HETATM    2  C7  UNL     1      88.756 119.232 133.941  1.00  0.00     0.079 A 
HETATM    3  C8  UNL     1      89.104 119.432 132.619  1.00  0.00     0.068 A 
HETATM    4  N3  UNL     1      89.855 118.554 131.942  1.00  0.00    -0.191 N 
ATOM      5  H3  UNL     1      90.189 117.709 132.405  1.00  0.00     0.184 HD
HETATM    6  C9  UNL     1      90.175 118.782 130.636  1.00  0.00     0.680 A 
HETATM    7  N6  UNL     1      89.732 119.878 130.056  1.00  0.00    -0.176 N 
ATOM      8  H6  UNL     1      89.977 120.037 129.078  1.00  0.00     0.186 HD
HETATM    9  C20 UNL     1      88.967 120.811 130.682  1.00  0.00     0.128 A 
HETATM   10  N7  UNL     1      88.590 121.846 130.015  1.00  0.00    -0.384 N 
ATOM     11  H71 UNL     1      88.017 122.546 130.485  1.00  0.00     0.157 HD
ATOM     12  H72 UNL     1      88.833 122.012 129.038  1.00  0.00     0.157 HD
HETATM   13  C21 UNL     1      88.638 120.586 132.010  1.00  0.00     0.051 A 
HETATM   14  C22 UNL     1      87.865 121.500 132.677  1.00  0.00     0.107 A 
HETATM   15  N8  UNL     1      87.542 121.269 133.982  1.00  0.00    -0.351 N 
ATOM     16  H8  UNL     1      86.968 121.938 134.496  1.00  0.00     0.166 HD
ENDROOT
BRANCH   6  17
HETATM   17  N4  UNL     1      90.895 117.905 130.038  1.00  0.00    -0.221 N 
ATOM     18  H4  UNL     1      90.755 116.943 130.344  1.00  0.00     0.178 HD
BRANCH  17  19
HETATM   19  C10 UNL     1      91.861 118.085 129.008  1.00  0.00     0.099 C 
HETATM   20  C11 UNL     1      91.129 118.438 127.725  1.00  0.00     0.026 C 
HETATM   21  C12 UNL     1      92.062 118.427 126.536  1.00  0.00     0.011 C 
HETATM   22  C13 UNL     1      92.760 117.105 126.350  1.00  0.00    -0.037 C 
HETATM   23  C14 UNL     1      91.766 116.008 126.071  1.00  0.00     0.037 C 
HETATM   24  C17 UNL     1      93.784 117.253 125.252  1.00  0.00     0.037 C 
HETATM   25  C18 UNL     1      93.516 116.812 127.627  1.00  0.00     0.011 C 
HETATM   26  C15 UNL     1      92.077 115.356 124.722  1.00  0.00     0.233 C 
HETATM   27  N5  UNL     1      92.048 116.410 123.734  1.00  0.00    -0.075 N 
HETATM   28  C16 UNL     1      93.168 117.296 123.877  1.00  0.00     0.233 C 
ATOM     29  H52 UNL     1      91.989 116.034 122.788  1.00  0.00     0.277 HD
ATOM     30  H51 UNL     1      91.164 116.919 123.757  1.00  0.00     0.277 HD
HETATM   31  C19 UNL     1      92.622 116.781 128.845  1.00  0.00     0.026 C 
ENDBRANCH  17  19
ENDBRANCH   6  17
BRANCH   1  32
HETATM   32  N2  UNL     1      87.655 119.960 135.817  1.00  0.00    -0.374 N 
ATOM     33  H2  UNL     1      88.204 119.302 136.370  1.00  0.00     0.161 HD
BRANCH  32  34
HETATM   34  C5  UNL     1      86.546 120.629 136.439  1.00  0.00     0.145 C 
BRANCH  34  35
HETATM   35  C3  UNL     1      86.624 120.629 137.954  1.00  0.00     0.090 C 
HETATM   36  C4  UNL     1      86.832 119.228 138.495  1.00  0.00     0.033 C 
BRANCH  35  37
HETATM   37  N1  UNL     1      87.655 121.490 138.433  1.00  0.00    -0.416 N 
ATOM     38  H1  UNL     1      88.358 121.897 137.815  1.00  0.00     0.153 HD
BRANCH  37  39
HETATM   39  C2  UNL     1      87.635 121.739 139.829  1.00  0.00     0.110 C 
HETATM   40  C1  UNL     1      86.512 122.633 140.230  1.00  0.00     0.026 C 
ENDBRANCH  37  39
ENDBRANCH  35  37
ENDBRANCH  34  35
ENDBRANCH  32  34
ENDBRANCH   1  32
TORSDOF 7
ENDMDL
MODEL 5
REMARK VINA RESULT: -10.118756623      1.232      1.550
REMARK  7 active torsions:
REMARK  status: ('A' for Active; 'I' for Inactive)
REMARK    1  A    between atoms: C2_2  and  N1_3 
REMARK    2  A    between atoms: N1_3  and  C3_5 
REMARK    3  A    between atoms: C3_5  and  C5_7 
REMARK    4  A    between atoms: C5_7  and  N2_8 
REMARK    5  A    between atoms: N2_8  and  C6_10 
REMARK    6  A    between atoms: C9_15  and  N4_16 
REMARK    7  A    between atoms: N4_16  and  C10_18 
ROOT
HETATM    1  C6  UNL     1      88.105 120.330 133.143  1.00  0.00     0.102 A 
HETATM    2  C7  UNL     1      89.298 119.840 132.693  1.00  0.00     0.079 A 
HETATM    3  C8  UNL     1      89.691 120.097 131.393  1.00  0.00     0.068 A 
HETATM    4  N3  UNL     1      90.849 119.639 130.897  1.00  0.00    -0.191 N 
ATOM      5  H3  UNL     1      91.468 119.084 131.487  1.00  0.00     0.184 HD
HETATM    6  C9  UNL     1      91.203 119.909 129.608  1.00  0.00     0.680 A 
HETATM    7  N6  UNL     1      90.387 120.626 128.863  1.00  0.00    -0.176 N 
ATOM      8  H6  UNL     1      90.662 120.820 127.900  1.00  0.00     0.186 HD
HETATM    9  C20 UNL     1      89.200 121.122 129.301  1.00  0.00     0.128 A 
HETATM   10  N7  UNL     1      88.482 121.812 128.482  1.00  0.00    -0.384 N 
ATOM     11  H71 UNL     1      87.591 122.185 128.811  1.00  0.00     0.157 HD
ATOM     12  H72 UNL     1      88.752 122.011 127.519  1.00  0.00     0.157 HD
HETATM   13  C21 UNL     1      88.833 120.852 130.610  1.00  0.00     0.051 A 
HETATM   14  C22 UNL     1      87.642 121.331 131.089  1.00  0.00     0.107 A 
HETATM   15  N8  UNL     1      87.287 121.057 132.377  1.00  0.00    -0.351 N 
ATOM     16  H8  UNL     1      86.405 121.405 132.753  1.00  0.00     0.166 HD
ENDROOT
BRANCH   6  17
HETATM   17  N4  UNL     1      92.320 119.442 129.188  1.00  0.00    -0.221 N 
ATOM     18  H4  UNL     1      93.142 119.735 129.715  1.00  0.00     0.178 HD
BRANCH  17  19
HETATM   19  C10 UNL     1      92.576 118.572 128.091  1.00  0.00     0.099 C 
HETATM   20  C11 UNL     1      91.254 117.979 127.636  1.00  0.00     0.026 C 
HETATM   21  C12 UNL     1      91.462 116.877 126.622  1.00  0.00     0.011 C 
HETATM   22  C13 UNL     1      92.343 115.767 127.136  1.00  0.00    -0.037 C 
HETATM   23  C14 UNL     1      91.712 115.086 128.322  1.00  0.00     0.037 C 
HETATM   24  C17 UNL     1      92.623 114.813 126.000  1.00  0.00     0.037 C 
HETATM   25  C18 UNL     1      93.664 116.388 127.531  1.00  0.00     0.011 C 
HETATM   26  C15 UNL     1      91.520 113.597 128.025  1.00  0.00     0.233 C 
HETATM   27  N5  UNL     1      90.712 113.513 126.829  1.00  0.00    -0.075 N 
HETATM   28  C16 UNL     1      91.444 113.933 125.669  1.00  0.00     0.233 C 
ATOM     29  H52 UNL     1      90.324 112.578 126.706  1.00  0.00     0.277 HD
ATOM     30  H51 UNL     1      89.841 114.034 126.929  1.00  0.00     0.277 HD
HETATM   31  C19 UNL     1      93.514 117.477 128.568  1.00  0.00     0.026 C 
ENDBRANCH  17  19
ENDBRANCH   6  17
BRANCH   1  32
HETATM   32  N2  UNL     1      87.740 120.075 134.359  1.00  0.00    -0.374 N 
ATOM     33  H2  UNL     1      87.680 119.102 134.659  1.00  0.00     0.161 HD
BRANCH  32  34
HETATM   34  C5  UNL     1      87.417 121.111 135.301  1.00  0.00     0.145 C 
BRANCH  34  35
HETATM   35  C3  UNL     1      88.196 121.001 136.598  1.00  0.00     0.090 C 
HETATM   36  C4  UNL     1      89.304 122.035 136.663  1.00  0.00     0.033 C 
BRANCH  35  37
HETATM   37  N1  UNL     1      87.350 121.128 137.738  1.00  0.00    -0.416 N 
ATOM     38  H1  UNL     1      87.143 122.031 138.167  1.00  0.00     0.153 HD
BRANCH  37  39
HETATM   39  C2  UNL     1      86.817 119.911 138.234  1.00  0.00     0.110 C 
HETATM   40  C1  UNL     1      85.391 120.041 138.645  1.00  0.00     0.026 C 
ENDBRANCH  37  39
ENDBRANCH  35  37
ENDBRANCH  34  35
ENDBRANCH  32  34
ENDBRANCH   1  32
TORSDOF 7
ENDMDL
