MODEL 1
REMARK VINA RESULT: -9.468440504      0.000      0.000
REMARK  8 active torsions:
REMARK  status: ('A' for Active; 'I' for Inactive)
REMARK    1  A    between atoms: N1_1  and  C1_4 
REMARK    2  A    between atoms: C6_14  and  N4_15 
REMARK    3  A    between atoms: N4_15  and  C7_17 
REMARK    4  A    between atoms: C11_25  and  O1_26 
REMARK    5  A    between atoms: O1_26  and  C12_27 
REMARK    6  A    between atoms: C12_27  and  C13_28 
REMARK    7  A    between atoms: C13_28  and  C14_29 
REMARK    8  A    between atoms: C14_29  and  N7_30 
ROOT
HETATM    1  C1  UNL     1      87.622 121.088 133.939  1.00  0.00     0.679 A 
HETATM    2  N2  UNL     1      87.630 121.873 132.864  1.00  0.00    -0.176 N 
ATOM      3  H2  UNL     1      87.138 122.767 132.873  1.00  0.00     0.186 HD
HETATM    4  C2  UNL     1      88.313 121.462 131.739  1.00  0.00     0.129 A 
HETATM    5  N3  UNL     1      88.325 122.185 130.764  1.00  0.00    -0.384 N 
ATOM      6  H31 UNL     1      88.829 121.881 129.931  1.00  0.00     0.157 HD
ATOM      7  H32 UNL     1      87.838 123.082 130.753  1.00  0.00     0.157 HD
HETATM    8  C3  UNL     1      88.982 120.229 131.754  1.00  0.00     0.060 A 
HETATM    9  C4  UNL     1      89.684 119.801 130.618  1.00  0.00    -0.028 A 
HETATM   10  C5  UNL     1      90.318 118.594 130.702  1.00  0.00     0.022 A 
HETATM   11  C6  UNL     1      90.261 117.824 131.878  1.00  0.00     0.112 A 
HETATM   12  N5  UNL     1      89.587 118.257 132.938  1.00  0.00    -0.327 N 
ATOM     13  H5  UNL     1      89.551 117.692 133.786  1.00  0.00     0.169 HD
HETATM   14  C10 UNL     1      88.938 119.466 132.890  1.00  0.00     0.137 A 
HETATM   15  N6  UNL     1      88.262 119.905 133.960  1.00  0.00    -0.176 N 
ATOM     16  H6  UNL     1      88.231 119.333 134.804  1.00  0.00     0.186 HD
HETATM   17  C11 UNL     1      91.026 118.276 129.461  1.00  0.00     0.159 C 
HETATM   18  C20 UNL     1      90.358 119.184 128.445  1.00  0.00     0.042 C 
HETATM   19  C21 UNL     1      89.884 120.381 129.285  1.00  0.00     0.043 C 
ENDROOT
BRANCH  17  20
HETATM   20  O1  UNL     1      92.357 118.726 129.537  1.00  0.00    -0.381 OA
BRANCH  20  21
HETATM   21  C12 UNL     1      92.831 118.855 128.244  1.00  0.00     0.171 C 
BRANCH  21  22
HETATM   22  C13 UNL     1      93.367 117.511 127.735  1.00  0.00     0.065 C 
BRANCH  22  23
HETATM   23  C14 UNL     1      93.022 117.418 126.248  1.00  0.00     0.125 C 
HETATM   24  C15 UNL     1      94.175 116.793 125.499  1.00  0.00     0.038 C 
HETATM   25  C16 UNL     1      94.077 115.283 125.507  1.00  0.00     0.002 C 
HETATM   26  C17 UNL     1      92.840 114.802 124.780  1.00  0.00     0.000 C 
HETATM   27  C18 UNL     1      91.747 115.837 124.774  1.00  0.00     0.002 C 
HETATM   28  C19 UNL     1      91.748 116.676 126.029  1.00  0.00     0.038 C 
BRANCH  23  29
HETATM   29  N7  UNL     1      92.872 118.770 125.748  1.00  0.00    -0.070 N 
ATOM     30  H73 UNL     1      93.415 119.452 126.278  1.00  0.00     0.275 HD
ATOM     31  H72 UNL     1      93.326 118.911 124.845  1.00  0.00     0.275 HD
ATOM     32  H71 UNL     1      91.876 118.983 125.730  1.00  0.00     0.275 HD
ENDBRANCH  23  29
ENDBRANCH  22  23
ENDBRANCH  21  22
ENDBRANCH  20  21
ENDBRANCH  17  20
BRANCH  11  33
HETATM   33  N4  UNL     1      90.866 116.676 131.943  1.00  0.00    -0.371 N 
ATOM     34  H4  UNL     1      91.876 116.646 132.082  1.00  0.00     0.161 HD
BRANCH  33  35
HETATM   35  C7  UNL     1      90.127 115.443 131.819  1.00  0.00     0.083 A 
HETATM   36  C8  UNL     1      90.623 114.392 130.868  1.00  0.00     0.027 A 
HETATM   37  C9  UNL     1      90.625 114.183 132.381  1.00  0.00     0.027 A 
ENDBRANCH  33  35
ENDBRANCH  11  33
BRANCH   1  38
HETATM   38  N1  UNL     1      86.981 121.461 135.010  1.00  0.00    -0.234 N 
ATOM     39  H12 UNL     1      87.337 122.263 135.530  1.00  0.00     0.174 HD
ATOM     40  H11 UNL     1      86.147 120.953 135.305  1.00  0.00     0.174 HD
ENDBRANCH   1  38
TORSDOF 8
ENDMDL
MODEL 2
REMARK VINA RESULT: -9.432108685      1.301      1.801
REMARK  8 active torsions:
REMARK  status: ('A' for Active; 'I' for Inactive)
REMARK    1  A    between atoms: N1_1  and  C1_4 
REMARK    2  A    between atoms: C6_14  and  N4_15 
REMARK    3  A    between atoms: N4_15  and  C7_17 
REMARK    4  A    between atoms: C11_25  and  O1_26 
REMARK    5  A    between atoms: O1_26  and  C12_27 
REMARK    6  A    between atoms: C12_27  and  C13_28 
REMARK    7  A    between atoms: C13_28  and  C14_29 
REMARK    8  A    between atoms: C14_29  and  N7_30 
ROOT
HETATM    1  C1  UNL     1      87.245 120.496 136.013  1.00  0.00     0.679 A 
HETATM    2  N2  UNL     1      87.117 121.498 135.147  1.00  0.00    -0.176 N 
ATOM      3  H2  UNL     1      86.602 122.341 135.404  1.00  0.00     0.186 HD
HETATM    4  C2  UNL     1      87.691 121.383 133.898  1.00  0.00     0.129 A 
HETATM    5  N3  UNL     1      87.580 122.304 133.115  1.00  0.00    -0.384 N 
ATOM      6  H31 UNL     1      88.005 122.219 132.191  1.00  0.00     0.157 HD
ATOM      7  H32 UNL     1      87.068 123.154 133.353  1.00  0.00     0.157 HD
HETATM    8  C3  UNL     1      88.395 120.214 133.572  1.00  0.00     0.060 A 
HETATM    9  C4  UNL     1      88.988 120.086 132.308  1.00  0.00    -0.028 A 
HETATM   10  C5  UNL     1      89.664 118.925 132.057  1.00  0.00     0.022 A 
HETATM   11  C6  UNL     1      89.753 117.912 133.030  1.00  0.00     0.112 A 
HETATM   12  N5  UNL     1      89.179 118.064 134.218  1.00  0.00    -0.327 N 
ATOM     13  H5  UNL     1      89.249 117.324 134.917  1.00  0.00     0.169 HD
HETATM   14  C10 UNL     1      88.493 119.217 134.506  1.00  0.00     0.137 A 
HETATM   15  N6  UNL     1      87.919 119.373 135.707  1.00  0.00    -0.176 N 
ATOM     16  H6  UNL     1      87.993 118.627 136.399  1.00  0.00     0.186 HD
HETATM   17  C11 UNL     1      90.248 118.927 130.715  1.00  0.00     0.159 C 
HETATM   18  C20 UNL     1      89.451 120.001 129.997  1.00  0.00     0.042 C 
HETATM   19  C21 UNL     1      89.031 120.956 131.127  1.00  0.00     0.043 C 
ENDROOT
BRANCH  17  20
HETATM   20  O1  UNL     1      91.566 119.419 130.765  1.00  0.00    -0.381 OA
BRANCH  20  21
HETATM   21  C12 UNL     1      91.910 119.828 129.489  1.00  0.00     0.171 C 
BRANCH  21  22
HETATM   22  C13 UNL     1      93.040 118.951 128.934  1.00  0.00     0.065 C 
BRANCH  22  23
HETATM   23  C14 UNL     1      92.624 118.507 127.532  1.00  0.00     0.125 C 
HETATM   24  C15 UNL     1      93.713 117.652 126.927  1.00  0.00     0.038 C 
HETATM   25  C16 UNL     1      93.549 116.200 127.321  1.00  0.00     0.002 C 
HETATM   26  C17 UNL     1      92.261 115.620 126.780  1.00  0.00     0.000 C 
HETATM   27  C18 UNL     1      91.215 116.677 126.549  1.00  0.00     0.002 C 
HETATM   28  C19 UNL     1      91.309 117.804 127.550  1.00  0.00     0.038 C 
BRANCH  23  29
HETATM   29  N7  UNL     1      92.511 119.695 126.711  1.00  0.00    -0.070 N 
ATOM     30  H73 UNL     1      92.433 120.552 127.260  1.00  0.00     0.275 HD
ATOM     31  H72 UNL     1      93.378 119.926 126.225  1.00  0.00     0.275 HD
ATOM     32  H71 UNL     1      91.725 119.558 126.076  1.00  0.00     0.275 HD
ENDBRANCH  23  29
ENDBRANCH  22  23
ENDBRANCH  21  22
ENDBRANCH  20  21
ENDBRANCH  17  20
BRANCH  11  33
HETATM   33  N4  UNL     1      90.395 116.812 132.776  1.00  0.00    -0.371 N 
ATOM     34  H4  UNL     1      91.363 116.713 133.082  1.00  0.00     0.161 HD
BRANCH  33  35
HETATM   35  C7  UNL     1      89.757 115.729 132.068  1.00  0.00     0.083 A 
HETATM   36  C8  UNL     1      90.518 115.022 130.985  1.00  0.00     0.027 A 
HETATM   37  C9  UNL     1      90.135 114.330 132.291  1.00  0.00     0.027 A 
ENDBRANCH  33  35
ENDBRANCH  11  33
BRANCH   1  38
HETATM   38  N1  UNL     1      86.707 120.589 137.196  1.00  0.00    -0.234 N 
ATOM     39  H12 UNL     1      87.011 119.935 137.917  1.00  0.00     0.174 HD
ATOM     40  H11 UNL     1      86.002 121.303 137.378  1.00  0.00     0.174 HD
ENDBRANCH   1  38
TORSDOF 8
ENDMDL
MODEL 3
REMARK VINA RESULT: -9.363678698      1.239      1.552
REMARK  8 active torsions:
REMARK  status: ('A' for Active; 'I' for Inactive)
REMARK    1  A    between atoms: N1_1  and  C1_4 
REMARK    2  A    between atoms: C6_14  and  N4_15 
REMARK    3  A    between atoms: N4_15  and  C7_17 
REMARK    4  A    between atoms: C11_25  and  O1_26 
REMARK    5  A    between atoms: O1_26  and  C12_27 
REMARK    6  A    between atoms: C12_27  and  C13_28 
REMARK    7  A    between atoms: C13_28  and  C14_29 
REMARK    8  A    between atoms: C14_29  and  N7_30 
ROOT
HETATM    1  C1  UNL     1      87.653 121.094 133.882  1.00  0.00     0.679 A 
HETATM    2  N2  UNL     1      87.700 121.863 132.796  1.00  0.00    -0.176 N 
ATOM      3  H2  UNL     1      87.225 122.766 132.781  1.00  0.00     0.186 HD
HETATM    4  C2  UNL     1      88.399 121.422 131.692  1.00  0.00     0.129 A 
HETATM    5  N3  UNL     1      88.448 122.131 130.708  1.00  0.00    -0.384 N 
ATOM      6  H31 UNL     1      88.965 121.805 129.891  1.00  0.00     0.157 HD
ATOM      7  H32 UNL     1      87.979 123.036 130.673  1.00  0.00     0.157 HD
HETATM    8  C3  UNL     1      89.044 120.177 131.741  1.00  0.00     0.060 A 
HETATM    9  C4  UNL     1      89.762 119.719 130.627  1.00  0.00    -0.028 A 
HETATM   10  C5  UNL     1      90.371 118.501 130.742  1.00  0.00     0.022 A 
HETATM   11  C6  UNL     1      90.273 117.749 131.928  1.00  0.00     0.112 A 
HETATM   12  N5  UNL     1      89.583 118.211 132.966  1.00  0.00    -0.327 N 
ATOM     13  H5  UNL     1      89.518 117.660 133.821  1.00  0.00     0.169 HD
HETATM   14  C10 UNL     1      88.960 119.431 132.886  1.00  0.00     0.137 A 
HETATM   15  N6  UNL     1      88.268 119.899 133.934  1.00  0.00    -0.176 N 
ATOM     16  H6  UNL     1      88.208 119.340 134.786  1.00  0.00     0.186 HD
HETATM   17  C11 UNL     1      91.100 118.151 129.523  1.00  0.00     0.159 C 
HETATM   18  C20 UNL     1      90.473 119.056 128.478  1.00  0.00     0.042 C 
HETATM   19  C21 UNL     1      90.004 120.275 129.291  1.00  0.00     0.043 C 
ENDROOT
BRANCH  17  20
HETATM   20  O1  UNL     1      92.438 118.576 129.622  1.00  0.00    -0.381 OA
BRANCH  20  21
HETATM   21  C12 UNL     1      93.193 117.791 128.770  1.00  0.00     0.171 C 
BRANCH  21  22
HETATM   22  C13 UNL     1      92.979 116.304 129.085  1.00  0.00     0.065 C 
BRANCH  22  23
HETATM   23  C14 UNL     1      93.180 115.531 127.781  1.00  0.00     0.125 C 
HETATM   24  C15 UNL     1      91.893 114.836 127.402  1.00  0.00     0.038 C 
HETATM   25  C16 UNL     1      90.995 115.749 126.598  1.00  0.00     0.002 C 
HETATM   26  C17 UNL     1      91.628 116.131 125.278  1.00  0.00     0.000 C 
HETATM   27  C18 UNL     1      93.130 116.061 125.328  1.00  0.00     0.002 C 
HETATM   28  C19 UNL     1      93.675 116.419 126.691  1.00  0.00     0.038 C 
BRANCH  23  29
HETATM   29  N7  UNL     1      94.164 114.498 128.031  1.00  0.00    -0.070 N 
ATOM     30  H73 UNL     1      94.541 114.093 127.173  1.00  0.00     0.275 HD
ATOM     31  H72 UNL     1      95.041 114.866 128.401  1.00  0.00     0.275 HD
ATOM     32  H71 UNL     1      93.735 113.804 128.642  1.00  0.00     0.275 HD
ENDBRANCH  23  29
ENDBRANCH  22  23
ENDBRANCH  21  22
ENDBRANCH  20  21
ENDBRANCH  17  20
BRANCH  11  33
HETATM   33  N4  UNL     1      90.853 116.591 132.023  1.00  0.00    -0.371 N 
ATOM     34  H4  UNL     1      91.860 116.544 132.180  1.00  0.00     0.161 HD
BRANCH  33  35
HETATM   35  C7  UNL     1      90.092 115.371 131.907  1.00  0.00     0.083 A 
HETATM   36  C8  UNL     1      90.543 114.324 130.929  1.00  0.00     0.027 A 
HETATM   37  C9  UNL     1      90.588 114.097 132.439  1.00  0.00     0.027 A 
ENDBRANCH  33  35
ENDBRANCH  11  33
BRANCH   1  38
HETATM   38  N1  UNL     1      86.995 121.496 134.932  1.00  0.00    -0.234 N 
ATOM     39  H12 UNL     1      86.073 121.097 135.105  1.00  0.00     0.174 HD
ATOM     40  H11 UNL     1      87.408 122.192 135.553  1.00  0.00     0.174 HD
ENDBRANCH   1  38
TORSDOF 8
ENDMDL
MODEL 4
REMARK VINA RESULT: -9.336300820      2.390      4.935
REMARK  8 active torsions:
REMARK  status: ('A' for Active; 'I' for Inactive)
REMARK    1  A    between atoms: N1_1  and  C1_4 
REMARK    2  A    between atoms: C6_14  and  N4_15 
REMARK    3  A    between atoms: N4_15  and  C7_17 
REMARK    4  A    between atoms: C11_25  and  O1_26 
REMARK    5  A    between atoms: O1_26  and  C12_27 
REMARK    6  A    between atoms: C12_27  and  C13_28 
REMARK    7  A    between atoms: C13_28  and  C14_29 
REMARK    8  A    between atoms: C14_29  and  N7_30 
ROOT
HETATM    1  C1  UNL     1      89.365 121.094 129.509  1.00  0.00     0.679 A 
HETATM    2  N2  UNL     1      89.313 120.494 130.696  1.00  0.00    -0.176 N 
ATOM      3  H2  UNL     1      88.858 120.951 131.487  1.00  0.00     0.186 HD
HETATM    4  C2  UNL     1      89.884 119.247 130.843  1.00  0.00     0.129 A 
HETATM    5  N3  UNL     1      89.826 118.700 131.925  1.00  0.00    -0.384 N 
ATOM      6  H31 UNL     1      90.248 117.777 132.034  1.00  0.00     0.157 HD
ATOM      7  H32 UNL     1      89.376 119.140 132.728  1.00  0.00     0.157 HD
HETATM    8  C3  UNL     1      90.503 118.642 129.739  1.00  0.00     0.060 A 
HETATM    9  C4  UNL     1      91.083 117.371 129.873  1.00  0.00    -0.028 A 
HETATM   10  C5  UNL     1      91.663 116.836 128.758  1.00  0.00     0.022 A 
HETATM   11  C6  UNL     1      91.675 117.538 127.538  1.00  0.00     0.112 A 
HETATM   12  N5  UNL     1      91.117 118.740 127.444  1.00  0.00    -0.327 N 
ATOM     13  H5  UNL     1      91.131 119.240 126.555  1.00  0.00     0.169 HD
HETATM   14  C10 UNL     1      90.523 119.308 128.543  1.00  0.00     0.137 A 
HETATM   15  N6  UNL     1      89.957 120.519 128.447  1.00  0.00    -0.176 N 
ATOM     16  H6  UNL     1      89.976 121.012 127.554  1.00  0.00     0.186 HD
HETATM   17  C11 UNL     1      92.210 115.506 129.028  1.00  0.00     0.159 C 
HETATM   18  C20 UNL     1      92.334 115.488 130.540  1.00  0.00     0.042 C 
HETATM   19  C21 UNL     1      91.228 116.450 131.006  1.00  0.00     0.043 C 
ENDROOT
BRANCH  17  20
HETATM   20  O1  UNL     1      91.252 114.521 128.725  1.00  0.00    -0.381 OA
BRANCH  20  21
HETATM   21  C12 UNL     1      91.905 113.483 128.086  1.00  0.00     0.171 C 
BRANCH  21  22
HETATM   22  C13 UNL     1      91.908 113.709 126.568  1.00  0.00     0.065 C 
BRANCH  22  23
HETATM   23  C14 UNL     1      93.140 113.001 126.006  1.00  0.00     0.125 C 
HETATM   24  C15 UNL     1      92.881 112.594 124.574  1.00  0.00     0.038 C 
HETATM   25  C16 UNL     1      93.221 113.717 123.617  1.00  0.00     0.002 C 
HETATM   26  C17 UNL     1      94.694 114.057 123.659  1.00  0.00     0.000 C 
HETATM   27  C18 UNL     1      95.323 113.694 124.977  1.00  0.00     0.002 C 
HETATM   28  C19 UNL     1      94.361 113.847 126.132  1.00  0.00     0.038 C 
BRANCH  23  29
HETATM   29  N7  UNL     1      93.331 111.782 126.765  1.00  0.00    -0.070 N 
ATOM     30  H73 UNL     1      93.658 111.955 127.717  1.00  0.00     0.275 HD
ATOM     31  H72 UNL     1      92.452 111.324 127.007  1.00  0.00     0.275 HD
ATOM     32  H71 UNL     1      93.959 111.182 126.232  1.00  0.00     0.275 HD
ENDBRANCH  23  29
ENDBRANCH  22  23
ENDBRANCH  21  22
ENDBRANCH  20  21
ENDBRANCH  17  20
BRANCH  11  33
HETATM   33  N4  UNL     1      92.234 117.019 126.487  1.00  0.00    -0.371 N 
ATOM     34  H4  UNL     1      92.199 116.009 126.345  1.00  0.00     0.161 HD
BRANCH  33  35
HETATM   35  C7  UNL     1      92.903 117.852 125.518  1.00  0.00     0.083 A 
HETATM   36  C8  UNL     1      94.254 117.434 125.011  1.00  0.00     0.027 A 
HETATM   37  C9  UNL     1      93.021 117.459 124.109  1.00  0.00     0.027 A 
ENDBRANCH  33  35
ENDBRANCH  11  33
BRANCH   1  38
HETATM   38  N1  UNL     1      88.832 122.272 129.355  1.00  0.00    -0.234 N 
ATOM     39  H12 UNL     1      88.959 122.746 128.461  1.00  0.00     0.174 HD
ATOM     40  H11 UNL     1      88.306 122.695 130.120  1.00  0.00     0.174 HD
ENDBRANCH   1  38
TORSDOF 8
ENDMDL
MODEL 5
REMARK VINA RESULT: -9.266080389      0.898      1.237
REMARK  8 active torsions:
REMARK  status: ('A' for Active; 'I' for Inactive)
REMARK    1  A    between atoms: N1_1  and  C1_4 
REMARK    2  A    between atoms: C6_14  and  N4_15 
REMARK    3  A    between atoms: N4_15  and  C7_17 
REMARK    4  A    between atoms: C11_25  and  O1_26 
REMARK    5  A    between atoms: O1_26  and  C12_27 
REMARK    6  A    between atoms: C12_27  and  C13_28 
REMARK    7  A    between atoms: C13_28  and  C14_29 
REMARK    8  A    between atoms: C14_29  and  N7_30 
ROOT
HETATM    1  C1  UNL     1      87.684 121.151 134.038  1.00  0.00     0.679 A 
HETATM    2  N2  UNL     1      87.701 121.920 132.952  1.00  0.00    -0.176 N 
ATOM      3  H2  UNL     1      87.232 122.826 132.953  1.00  0.00     0.186 HD
HETATM    4  C2  UNL     1      88.363 121.476 131.826  1.00  0.00     0.129 A 
HETATM    5  N3  UNL     1      88.384 122.185 130.841  1.00  0.00    -0.384 N 
ATOM      6  H31 UNL     1      88.874 121.857 130.008  1.00  0.00     0.157 HD
ATOM      7  H32 UNL     1      87.920 123.094 130.822  1.00  0.00     0.157 HD
HETATM    8  C3  UNL     1      89.001 120.227 131.853  1.00  0.00     0.060 A 
HETATM    9  C4  UNL     1      89.681 119.766 130.717  1.00  0.00    -0.028 A 
HETATM   10  C5  UNL     1      90.286 118.544 130.812  1.00  0.00     0.022 A 
HETATM   11  C6  UNL     1      90.220 117.792 132.000  1.00  0.00     0.112 A 
HETATM   12  N5  UNL     1      89.567 118.257 133.059  1.00  0.00    -0.327 N 
ATOM     13  H5  UNL     1      89.525 117.705 133.915  1.00  0.00     0.169 HD
HETATM   14  C10 UNL     1      88.949 119.481 133.001  1.00  0.00     0.137 A 
HETATM   15  N6  UNL     1      88.294 119.952 134.070  1.00  0.00    -0.176 N 
ATOM     16  H6  UNL     1      88.256 119.393 134.922  1.00  0.00     0.186 HD
HETATM   17  C11 UNL     1      90.974 118.191 129.570  1.00  0.00     0.159 C 
HETATM   18  C20 UNL     1      90.320 119.101 128.547  1.00  0.00     0.042 C 
HETATM   19  C21 UNL     1      89.883 120.322 129.374  1.00  0.00     0.043 C 
ENDROOT
BRANCH  17  20
HETATM   20  O1  UNL     1      92.317 118.608 129.628  1.00  0.00    -0.381 OA
BRANCH  20  21
HETATM   21  C12 UNL     1      92.824 118.570 128.341  1.00  0.00     0.171 C 
BRANCH  21  22
HETATM   22  C13 UNL     1      93.608 117.271 128.115  1.00  0.00     0.065 C 
BRANCH  22  23
HETATM   23  C14 UNL     1      92.941 116.535 126.953  1.00  0.00     0.125 C 
HETATM   24  C15 UNL     1      92.250 117.531 126.053  1.00  0.00     0.038 C 
HETATM   25  C16 UNL     1      93.203 118.083 125.015  1.00  0.00     0.002 C 
HETATM   26  C17 UNL     1      93.697 117.000 124.082  1.00  0.00     0.000 C 
HETATM   27  C18 UNL     1      93.654 115.638 124.720  1.00  0.00     0.002 C 
HETATM   28  C19 UNL     1      93.919 115.694 126.206  1.00  0.00     0.038 C 
BRANCH  23  29
HETATM   29  N7  UNL     1      91.912 115.680 127.509  1.00  0.00    -0.070 N 
ATOM     30  H73 UNL     1      91.024 116.164 127.645  1.00  0.00     0.275 HD
ATOM     31  H72 UNL     1      91.582 114.975 126.849  1.00  0.00     0.275 HD
ATOM     32  H71 UNL     1      92.279 115.276 128.371  1.00  0.00     0.275 HD
ENDBRANCH  23  29
ENDBRANCH  22  23
ENDBRANCH  21  22
ENDBRANCH  20  21
ENDBRANCH  17  20
BRANCH  11  33
HETATM   33  N4  UNL     1      90.796 116.631 132.076  1.00  0.00    -0.371 N 
ATOM     34  H4  UNL     1      91.786 116.574 132.316  1.00  0.00     0.161 HD
BRANCH  33  35
HETATM   35  C7  UNL     1      90.055 115.420 131.822  1.00  0.00     0.083 A 
HETATM   36  C8  UNL     1      90.595 114.431 130.829  1.00  0.00     0.027 A 
HETATM   37  C9  UNL     1      90.507 114.116 132.321  1.00  0.00     0.027 A 
ENDBRANCH  33  35
ENDBRANCH  11  33
BRANCH   1  38
HETATM   38  N1  UNL     1      87.062 121.555 135.109  1.00  0.00    -0.234 N 
ATOM     39  H12 UNL     1      86.082 121.299 135.224  1.00  0.00     0.174 HD
ATOM     40  H11 UNL     1      87.559 122.114 135.803  1.00  0.00     0.174 HD
ENDBRANCH   1  38
TORSDOF 8
ENDMDL
