MODEL 1
REMARK VINA RESULT: -9.250196904      0.000      0.000
REMARK  7 active torsions:
REMARK  status: ('A' for Active; 'I' for Inactive)
REMARK    1  A    between atoms: C2_2  and  N1_3 
REMARK    2  A    between atoms: N1_3  and  C3_5 
REMARK    3  A    between atoms: C4_10  and  N4_11 
REMARK    4  A    between atoms: N4_11  and  C5_13 
REMARK    5  A    between atoms: C8_21  and  C9_22 
REMARK    6  A    between atoms: N9_32  and  C15_34 
REMARK    7  A    between atoms: C15_34  and  C16_35 
ROOT
HETATM    1  C3  UNL     1      92.548 118.926 128.705  1.00  0.00     0.132 A 
HETATM    2  N2  UNL     1      92.346 120.268 128.539  1.00  0.00    -0.283 N 
ATOM      3  H2  UNL     1      92.971 120.888 128.023  1.00  0.00     0.188 HD
HETATM    4  N3  UNL     1      91.244 120.652 129.130  1.00  0.00    -0.283 N 
ATOM      5  H3  UNL     1      90.873 121.601 129.150  1.00  0.00     0.188 HD
HETATM    6  C4  UNL     1      90.689 119.573 129.703  1.00  0.00     0.134 A 
HETATM    7  C8  UNL     1      91.496 118.464 129.450  1.00  0.00     0.082 A 
ENDROOT
BRANCH   7   8
HETATM    8  C9  UNL     1      91.228 117.096 129.920  1.00  0.00     0.066 A 
HETATM    9  C10 UNL     1      90.763 116.861 131.200  1.00  0.00     0.119 A 
HETATM   10  N7  UNL     1      90.510 115.636 131.689  1.00  0.00    -0.362 N 
HETATM   11  C11 UNL     1      90.734 114.584 130.847  1.00  0.00     0.064 A 
ATOM     12  H7  UNL     1      90.168 115.498 132.640  1.00  0.00     0.165 HD
HETATM   13  C12 UNL     1      90.487 113.289 131.304  1.00  0.00     0.049 A 
HETATM   14  C19 UNL     1      91.195 114.775 129.568  1.00  0.00     0.104 A 
HETATM   15  C13 UNL     1      90.726 112.276 130.427  1.00  0.00     0.092 A 
HETATM   16  N8  UNL     1      91.181 112.476 129.167  1.00  0.00    -0.350 N 
HETATM   17  C14 UNL     1      91.434 113.703 128.680  1.00  0.00     0.134 A 
ATOM     18  H8  UNL     1      91.337 111.667 128.566  1.00  0.00     0.166 HD
HETATM   19  N9  UNL     1      91.850 113.993 127.547  1.00  0.00    -0.354 N 
ATOM     20  H9  UNL     1      91.943 115.006 127.473  1.00  0.00     0.166 HD
HETATM   21  N10 UNL     1      91.434 116.025 129.124  1.00  0.00    -0.349 N 
ATOM     22  H10 UNL     1      91.777 116.164 128.174  1.00  0.00     0.166 HD
BRANCH  19  23
HETATM   23  C15 UNL     1      92.229 113.415 126.354  1.00  0.00     0.067 C 
BRANCH  23  24
HETATM   24  C16 UNL     1      92.913 114.263 125.317  1.00  0.00     0.024 A 
HETATM   25  C17 UNL     1      92.782 113.774 123.868  1.00  0.00     0.010 A 
HETATM   26  C18 UNL     1      92.113 115.020 124.314  1.00  0.00     0.010 A 
ENDBRANCH  23  24
ENDBRANCH  19  23
ENDBRANCH   7   8
BRANCH   1  27
HETATM   27  N1  UNL     1      93.556 118.350 128.209  1.00  0.00    -0.375 N 
ATOM     28  H1  UNL     1      94.388 118.433 128.793  1.00  0.00     0.161 HD
BRANCH  27  29
HETATM   29  C2  UNL     1      93.785 117.623 127.037  1.00  0.00     0.116 C 
HETATM   30  C1  UNL     1      93.041 118.286 125.865  1.00  0.00     0.026 C 
ENDBRANCH  27  29
ENDBRANCH   1  27
BRANCH   6  31
HETATM   31  N4  UNL     1      89.481 119.489 130.451  1.00  0.00    -0.352 N 
ATOM     32  H4  UNL     1      88.772 118.820 130.152  1.00  0.00     0.163 HD
BRANCH  31  33
HETATM   33  C5  UNL     1      89.209 120.308 131.614  1.00  0.00     0.205 C 
HETATM   34  C6  UNL     1      88.125 121.313 131.424  1.00  0.00     0.171 C 
HETATM   35  N5  UNL     1      87.571 121.477 132.749  1.00  0.00    -0.339 N 
HETATM   36  C7  UNL     1      87.983 120.387 133.551  1.00  0.00     0.317 C 
ATOM     37  H5  UNL     1      86.980 122.250 133.055  1.00  0.00     0.164 HD
HETATM   38  O1  UNL     1      87.778 120.155 134.769  1.00  0.00    -0.247 OA
HETATM   39  N6  UNL     1      88.738 119.485 132.726  1.00  0.00    -0.320 N 
ATOM     40  H6  UNL     1      88.907 118.492 132.882  1.00  0.00     0.166 HD
ENDBRANCH  31  33
ENDBRANCH   6  31
TORSDOF 7
ENDMDL
MODEL 2
REMARK VINA RESULT: -9.134127558      1.982      3.131
REMARK  7 active torsions:
REMARK  status: ('A' for Active; 'I' for Inactive)
REMARK    1  A    between atoms: C2_2  and  N1_3 
REMARK    2  A    between atoms: N1_3  and  C3_5 
REMARK    3  A    between atoms: C4_10  and  N4_11 
REMARK    4  A    between atoms: N4_11  and  C5_13 
REMARK    5  A    between atoms: C8_21  and  C9_22 
REMARK    6  A    between atoms: N9_32  and  C15_34 
REMARK    7  A    between atoms: C15_34  and  C16_35 
ROOT
HETATM    1  C3  UNL     1      89.690 120.752 129.631  1.00  0.00     0.132 A 
HETATM    2  N2  UNL     1      89.029 121.925 129.393  1.00  0.00    -0.283 N 
ATOM      3  H2  UNL     1      89.202 122.534 128.592  1.00  0.00     0.188 HD
HETATM    4  N3  UNL     1      88.146 122.162 130.328  1.00  0.00    -0.283 N 
ATOM      5  H3  UNL     1      87.526 122.971 130.377  1.00  0.00     0.188 HD
HETATM    6  C4  UNL     1      88.201 121.152 131.210  1.00  0.00     0.134 A 
HETATM    7  C8  UNL     1      89.172 120.243 130.792  1.00  0.00     0.082 A 
ENDROOT
BRANCH   7   8
HETATM    8  C9  UNL     1      89.535 119.006 131.501  1.00  0.00     0.066 A 
HETATM    9  C10 UNL     1      89.217 118.828 132.834  1.00  0.00     0.119 A 
HETATM   10  N7  UNL     1      89.529 117.727 133.535  1.00  0.00    -0.362 N 
HETATM   11  C11 UNL     1      90.199 116.744 132.864  1.00  0.00     0.064 A 
ATOM     12  H7  UNL     1      89.279 117.629 134.519  1.00  0.00     0.165 HD
HETATM   13  C12 UNL     1      90.549 115.578 133.546  1.00  0.00     0.049 A 
HETATM   14  C19 UNL     1      90.534 116.881 131.539  1.00  0.00     0.104 A 
HETATM   15  C13 UNL     1      91.215 114.630 132.831  1.00  0.00     0.092 A 
HETATM   16  N8  UNL     1      91.540 114.776 131.525  1.00  0.00    -0.350 N 
HETATM   17  C14 UNL     1      91.227 115.880 130.824  1.00  0.00     0.134 A 
ATOM     18  H8  UNL     1      92.042 114.022 131.055  1.00  0.00     0.166 HD
HETATM   19  N9  UNL     1      91.477 116.111 129.631  1.00  0.00    -0.354 N 
ATOM     20  H9  UNL     1      91.113 117.031 129.385  1.00  0.00     0.166 HD
HETATM   21  N10 UNL     1      90.198 118.007 130.879  1.00  0.00    -0.349 N 
ATOM     22  H10 UNL     1      90.448 118.107 129.895  1.00  0.00     0.166 HD
BRANCH  19  23
HETATM   23  C15 UNL     1      92.079 115.551 128.524  1.00  0.00     0.067 C 
BRANCH  23  24
HETATM   24  C16 UNL     1      91.334 115.534 127.217  1.00  0.00     0.024 A 
HETATM   25  C17 UNL     1      92.151 115.101 125.993  1.00  0.00     0.010 A 
HETATM   26  C18 UNL     1      91.060 114.246 126.522  1.00  0.00     0.010 A 
ENDBRANCH  23  24
ENDBRANCH  19  23
ENDBRANCH   7   8
BRANCH   1  27
HETATM   27  N1  UNL     1      90.585 120.334 128.844  1.00  0.00    -0.375 N 
ATOM     28  H1  UNL     1      91.415 120.927 128.836  1.00  0.00     0.161 HD
BRANCH  27  29
HETATM   29  C2  UNL     1      90.691 119.238 127.982  1.00  0.00     0.116 C 
HETATM   30  C1  UNL     1      92.053 119.274 127.268  1.00  0.00     0.026 C 
ENDBRANCH  27  29
ENDBRANCH   1  27
BRANCH   6  31
HETATM   31  N4  UNL     1      87.428 120.963 132.389  1.00  0.00    -0.352 N 
ATOM     32  H4  UNL     1      86.700 120.249 132.381  1.00  0.00     0.163 HD
BRANCH  31  33
HETATM   33  C5  UNL     1      87.622 121.734 133.599  1.00  0.00     0.205 C 
HETATM   34  C6  UNL     1      86.990 121.149 134.815  1.00  0.00     0.171 C 
HETATM   35  N5  UNL     1      87.833 121.608 135.896  1.00  0.00    -0.339 N 
HETATM   36  C7  UNL     1      89.062 122.053 135.356  1.00  0.00     0.317 C 
ATOM     37  H5  UNL     1      87.583 121.610 136.885  1.00  0.00     0.164 HD
HETATM   38  O1  UNL     1      90.054 122.576 135.923  1.00  0.00    -0.247 OA
HETATM   39  N6  UNL     1      89.041 121.813 133.940  1.00  0.00    -0.320 N 
ATOM     40  H6  UNL     1      89.839 121.718 133.312  1.00  0.00     0.166 HD
ENDBRANCH  31  33
ENDBRANCH   6  31
TORSDOF 7
ENDMDL
MODEL 3
REMARK VINA RESULT: -9.079613373      2.670      5.289
REMARK  7 active torsions:
REMARK  status: ('A' for Active; 'I' for Inactive)
REMARK    1  A    between atoms: C2_2  and  N1_3 
REMARK    2  A    between atoms: N1_3  and  C3_5 
REMARK    3  A    between atoms: C4_10  and  N4_11 
REMARK    4  A    between atoms: N4_11  and  C5_13 
REMARK    5  A    between atoms: C8_21  and  C9_22 
REMARK    6  A    between atoms: N9_32  and  C15_34 
REMARK    7  A    between atoms: C15_34  and  C16_35 
ROOT
HETATM    1  C3  UNL     1      88.474 121.420 131.129  1.00  0.00     0.132 A 
HETATM    2  N2  UNL     1      88.387 122.219 130.023  1.00  0.00    -0.283 N 
ATOM      3  H2  UNL     1      87.967 123.148 130.012  1.00  0.00     0.188 HD
HETATM    4  N3  UNL     1      88.915 121.632 128.980  1.00  0.00    -0.283 N 
ATOM      5  H3  UNL     1      88.975 122.020 128.038  1.00  0.00     0.188 HD
HETATM    6  C4  UNL     1      89.363 120.429 129.369  1.00  0.00     0.134 A 
HETATM    7  C8  UNL     1      89.097 120.268 130.728  1.00  0.00     0.082 A 
ENDROOT
BRANCH   7   8
HETATM    8  C9  UNL     1      89.431 119.075 131.521  1.00  0.00     0.066 A 
HETATM    9  C10 UNL     1      89.043 118.966 132.843  1.00  0.00     0.119 A 
HETATM   10  N7  UNL     1      89.326 117.907 133.619  1.00  0.00    -0.362 N 
HETATM   11  C11 UNL     1      90.038 116.897 133.038  1.00  0.00     0.064 A 
ATOM     12  H7  UNL     1      89.025 117.860 134.592  1.00  0.00     0.165 HD
HETATM   13  C12 UNL     1      90.359 115.772 133.800  1.00  0.00     0.049 A 
HETATM   14  C19 UNL     1      90.442 116.965 131.727  1.00  0.00     0.104 A 
HETATM   15  C13 UNL     1      91.070 114.794 133.174  1.00  0.00     0.092 A 
HETATM   16  N8  UNL     1      91.463 114.873 131.881  1.00  0.00    -0.350 N 
HETATM   17  C14 UNL     1      91.179 115.934 131.106  1.00  0.00     0.134 A 
ATOM     18  H8  UNL     1      91.994 114.099 131.479  1.00  0.00     0.166 HD
HETATM   19  N9  UNL     1      91.490 116.103 129.916  1.00  0.00    -0.354 N 
ATOM     20  H9  UNL     1      91.133 117.005 129.602  1.00  0.00     0.166 HD
HETATM   21  N10 UNL     1      90.133 118.051 130.990  1.00  0.00    -0.349 N 
ATOM     22  H10 UNL     1      90.434 118.100 130.017  1.00  0.00     0.166 HD
BRANCH  19  23
HETATM   23  C15 UNL     1      92.154 115.490 128.874  1.00  0.00     0.067 C 
BRANCH  23  24
HETATM   24  C16 UNL     1      91.401 114.538 127.987  1.00  0.00     0.024 A 
HETATM   25  C17 UNL     1      91.310 114.938 126.509  1.00  0.00     0.010 A 
HETATM   26  C18 UNL     1      92.114 113.766 126.932  1.00  0.00     0.010 A 
ENDBRANCH  23  24
ENDBRANCH  19  23
ENDBRANCH   7   8
BRANCH   1  27
HETATM   27  N1  UNL     1      88.025 121.799 132.247  1.00  0.00    -0.375 N 
ATOM     28  H1  UNL     1      87.006 121.821 132.279  1.00  0.00     0.161 HD
BRANCH  27  29
HETATM   29  C2  UNL     1      88.616 122.196 133.450  1.00  0.00     0.116 C 
HETATM   30  C1  UNL     1      87.692 121.827 134.624  1.00  0.00     0.026 C 
ENDBRANCH  27  29
ENDBRANCH   1  27
BRANCH   6  31
HETATM   31  N4  UNL     1      90.019 119.434 128.592  1.00  0.00    -0.352 N 
ATOM     32  H4  UNL     1      89.561 118.531 128.473  1.00  0.00     0.163 HD
BRANCH  31  33
HETATM   33  C5  UNL     1      91.306 119.640 127.961  1.00  0.00     0.205 C 
HETATM   34  C6  UNL     1      92.464 119.641 128.899  1.00  0.00     0.171 C 
HETATM   35  N5  UNL     1      93.563 119.163 128.091  1.00  0.00    -0.339 N 
HETATM   36  C7  UNL     1      93.039 118.542 126.933  1.00  0.00     0.317 C 
ATOM     37  H5  UNL     1      94.553 119.257 128.319  1.00  0.00     0.164 HD
HETATM   38  O1  UNL     1      93.631 118.040 125.945  1.00  0.00    -0.247 OA
HETATM   39  N6  UNL     1      91.606 118.554 127.030  1.00  0.00    -0.320 N 
ATOM     40  H6  UNL     1      90.944 117.940 126.555  1.00  0.00     0.166 HD
ENDBRANCH  31  33
ENDBRANCH   6  31
TORSDOF 7
ENDMDL
MODEL 4
REMARK VINA RESULT: -9.054048508      1.968      4.461
REMARK  7 active torsions:
REMARK  status: ('A' for Active; 'I' for Inactive)
REMARK    1  A    between atoms: C2_2  and  N1_3 
REMARK    2  A    between atoms: N1_3  and  C3_5 
REMARK    3  A    between atoms: C4_10  and  N4_11 
REMARK    4  A    between atoms: N4_11  and  C5_13 
REMARK    5  A    between atoms: C8_21  and  C9_22 
REMARK    6  A    between atoms: N9_32  and  C15_34 
REMARK    7  A    between atoms: C15_34  and  C16_35 
ROOT
HETATM    1  C3  UNL     1      92.810 118.733 128.335  1.00  0.00     0.132 A 
HETATM    2  N2  UNL     1      92.633 120.088 128.316  1.00  0.00    -0.283 N 
ATOM      3  H2  UNL     1      93.241 120.745 127.826  1.00  0.00     0.188 HD
HETATM    4  N3  UNL     1      91.579 120.431 129.010  1.00  0.00    -0.283 N 
ATOM      5  H3  UNL     1      91.234 121.381 129.149  1.00  0.00     0.188 HD
HETATM    6  C4  UNL     1      91.033 119.310 129.507  1.00  0.00     0.134 A 
HETATM    7  C8  UNL     1      91.794 118.218 129.094  1.00  0.00     0.082 A 
ENDROOT
BRANCH   7   8
HETATM    8  C9  UNL     1      91.521 116.815 129.442  1.00  0.00     0.066 A 
HETATM    9  C10 UNL     1      91.577 115.818 128.486  1.00  0.00     0.119 A 
HETATM   10  N7  UNL     1      91.328 114.524 128.742  1.00  0.00    -0.362 N 
HETATM   11  C11 UNL     1      91.006 114.206 130.030  1.00  0.00     0.064 A 
ATOM     12  H7  UNL     1      91.378 113.814 128.011  1.00  0.00     0.165 HD
HETATM   13  C12 UNL     1      90.739 112.875 130.351  1.00  0.00     0.049 A 
HETATM   14  C19 UNL     1      90.941 115.166 131.011  1.00  0.00     0.104 A 
HETATM   15  C13 UNL     1      90.423 112.611 131.649  1.00  0.00     0.092 A 
HETATM   16  N8  UNL     1      90.362 113.566 132.607  1.00  0.00    -0.350 N 
HETATM   17  C14 UNL     1      90.610 114.862 132.349  1.00  0.00     0.134 A 
ATOM     18  H8  UNL     1      90.118 113.293 133.559  1.00  0.00     0.166 HD
HETATM   19  N9  UNL     1      90.581 115.808 133.151  1.00  0.00    -0.354 N 
ATOM     20  H9  UNL     1      90.815 116.671 132.660  1.00  0.00     0.166 HD
HETATM   21  N10 UNL     1      91.199 116.453 130.703  1.00  0.00    -0.349 N 
ATOM     22  H10 UNL     1      91.149 117.164 131.432  1.00  0.00     0.166 HD
BRANCH  19  23
HETATM   23  C15 UNL     1      90.340 116.095 134.478  1.00  0.00     0.067 C 
BRANCH  23  24
HETATM   24  C16 UNL     1      91.365 115.705 135.508  1.00  0.00     0.024 A 
HETATM   25  C17 UNL     1      90.805 115.172 136.833  1.00  0.00     0.010 A 
HETATM   26  C18 UNL     1      91.534 114.279 135.900  1.00  0.00     0.010 A 
ENDBRANCH  23  24
ENDBRANCH  19  23
ENDBRANCH   7   8
BRANCH   1  27
HETATM   27  N1  UNL     1      93.772 118.191 127.721  1.00  0.00    -0.375 N 
ATOM     28  H1  UNL     1      94.658 118.272 128.221  1.00  0.00     0.161 HD
BRANCH  27  29
HETATM   29  C2  UNL     1      93.892 117.503 126.510  1.00  0.00     0.116 C 
HETATM   30  C1  UNL     1      93.074 118.224 125.425  1.00  0.00     0.026 C 
ENDBRANCH  27  29
ENDBRANCH   1  27
BRANCH   6  31
HETATM   31  N4  UNL     1      89.871 119.175 130.317  1.00  0.00    -0.352 N 
ATOM     32  H4  UNL     1      89.416 118.264 130.363  1.00  0.00     0.163 HD
BRANCH  31  33
HETATM   33  C5  UNL     1      89.302 120.267 131.080  1.00  0.00     0.205 C 
HETATM   34  C6  UNL     1      88.220 121.014 130.380  1.00  0.00     0.171 C 
HETATM   35  N5  UNL     1      87.386 121.501 131.454  1.00  0.00    -0.339 N 
HETATM   36  C7  UNL     1      87.689 120.773 132.630  1.00  0.00     0.317 C 
ATOM     37  H5  UNL     1      86.693 122.246 131.379  1.00  0.00     0.164 HD
HETATM   38  O1  UNL     1      87.245 120.901 133.798  1.00  0.00    -0.247 OA
HETATM   39  N6  UNL     1      88.661 119.770 132.295  1.00  0.00    -0.320 N 
ATOM     40  H6  UNL     1      88.859 118.903 132.795  1.00  0.00     0.166 HD
ENDBRANCH  31  33
ENDBRANCH   6  31
TORSDOF 7
ENDMDL
MODEL 5
REMARK VINA RESULT: -8.958394320      2.405      5.025
REMARK  7 active torsions:
REMARK  status: ('A' for Active; 'I' for Inactive)
REMARK    1  A    between atoms: C2_2  and  N1_3 
REMARK    2  A    between atoms: N1_3  and  C3_5 
REMARK    3  A    between atoms: C4_10  and  N4_11 
REMARK    4  A    between atoms: N4_11  and  C5_13 
REMARK    5  A    between atoms: C8_21  and  C9_22 
REMARK    6  A    between atoms: N9_32  and  C15_34 
REMARK    7  A    between atoms: C15_34  and  C16_35 
ROOT
HETATM    1  C3  UNL     1      89.025 120.006 133.148  1.00  0.00     0.132 A 
HETATM    2  N2  UNL     1      88.829 121.235 132.582  1.00  0.00    -0.283 N 
ATOM      3  H2  UNL     1      88.496 122.058 133.086  1.00  0.00     0.188 HD
HETATM    4  N3  UNL     1      89.124 121.216 131.308  1.00  0.00    -0.283 N 
ATOM      5  H3  UNL     1      89.063 122.005 130.665  1.00  0.00     0.188 HD
HETATM    6  C4  UNL     1      89.522 119.972 130.999  1.00  0.00     0.134 A 
HETATM    7  C8  UNL     1      89.469 119.184 132.148  1.00  0.00     0.082 A 
ENDROOT
BRANCH   7   8
HETATM    8  C9  UNL     1      89.821 117.757 132.213  1.00  0.00     0.066 A 
HETATM    9  C10 UNL     1      89.565 117.011 133.348  1.00  0.00     0.119 A 
HETATM   10  N7  UNL     1      89.872 115.709 133.469  1.00  0.00    -0.362 N 
HETATM   11  C11 UNL     1      90.470 115.119 132.393  1.00  0.00     0.064 A 
ATOM     12  H7  UNL     1      89.669 115.188 134.323  1.00  0.00     0.165 HD
HETATM   13  C12 UNL     1      90.810 113.767 132.466  1.00  0.00     0.049 A 
HETATM   14  C19 UNL     1      90.741 115.825 131.246  1.00  0.00     0.104 A 
HETATM   15  C13 UNL     1      91.403 113.227 131.366  1.00  0.00     0.092 A 
HETATM   16  N8  UNL     1      91.666 113.934 130.242  1.00  0.00    -0.350 N 
HETATM   17  C14 UNL     1      91.359 115.236 130.121  1.00  0.00     0.134 A 
ATOM     18  H8  UNL     1      92.114 113.460 129.456  1.00  0.00     0.166 HD
HETATM   19  N9  UNL     1      91.556 115.970 129.140  1.00  0.00    -0.354 N 
ATOM     20  H9  UNL     1      91.214 116.907 129.348  1.00  0.00     0.166 HD
HETATM   21  N10 UNL     1      90.414 117.131 131.174  1.00  0.00    -0.349 N 
ATOM     22  H10 UNL     1      90.616 117.653 130.322  1.00  0.00     0.166 HD
BRANCH  19  23
HETATM   23  C15 UNL     1      92.078 115.952 127.864  1.00  0.00     0.067 C 
BRANCH  23  24
HETATM   24  C16 UNL     1      91.160 115.695 126.701  1.00  0.00     0.024 A 
HETATM   25  C17 UNL     1      91.791 115.843 125.311  1.00  0.00     0.010 A 
HETATM   26  C18 UNL     1      91.373 114.514 125.819  1.00  0.00     0.010 A 
ENDBRANCH  23  24
ENDBRANCH  19  23
ENDBRANCH   7   8
BRANCH   1  27
HETATM   27  N1  UNL     1      88.801 119.809 134.375  1.00  0.00    -0.375 N 
ATOM     28  H1  UNL     1      88.838 118.822 134.632  1.00  0.00     0.161 HD
BRANCH  27  29
HETATM   29  C2  UNL     1      88.514 120.642 135.461  1.00  0.00     0.116 C 
HETATM   30  C1  UNL     1      86.992 120.711 135.670  1.00  0.00     0.026 C 
ENDBRANCH  27  29
ENDBRANCH   1  27
BRANCH   6  31
HETATM   31  N4  UNL     1      89.951 119.467 129.740  1.00  0.00    -0.352 N 
ATOM     32  H4  UNL     1      89.409 118.720 129.307  1.00  0.00     0.163 HD
BRANCH  31  33
HETATM   33  C5  UNL     1      91.120 119.961 129.042  1.00  0.00     0.205 C 
HETATM   34  C6  UNL     1      92.420 119.491 129.600  1.00  0.00     0.171 C 
HETATM   35  N5  UNL     1      93.302 119.481 128.456  1.00  0.00    -0.339 N 
HETATM   36  C7  UNL     1      92.520 119.525 127.278  1.00  0.00     0.317 C 
ATOM     37  H5  UNL     1      94.321 119.448 128.492  1.00  0.00     0.164 HD
HETATM   38  O1  UNL     1      92.873 119.587 126.073  1.00  0.00    -0.247 OA
HETATM   39  N6  UNL     1      91.136 119.487 127.660  1.00  0.00    -0.320 N 
ATOM     40  H6  UNL     1      90.341 119.195 127.092  1.00  0.00     0.166 HD
ENDBRANCH  31  33
ENDBRANCH   6  31
TORSDOF 7
ENDMDL
