MODEL 1
REMARK VINA RESULT: -8.996044181      0.000      0.000
REMARK  10 active torsions:
REMARK  status: ('A' for Active; 'I' for Inactive)
REMARK    1  A    between atoms: C2_2  and  C3_3 
REMARK    2  A    between atoms: C3_3  and  N1_4 
REMARK    3  A    between atoms: N1_4  and  C4_6 
REMARK    4  A    between atoms: C5_9  and  N3_10 
REMARK    5  A    between atoms: N3_10  and  C6_12 
REMARK    6  A    between atoms: C6_12  and  C7_13 
REMARK    7  A    between atoms: C9_17  and  N5_18 
REMARK    8  A    between atoms: C11_28  and  N9_29 
REMARK    9  A    between atoms: N9_29  and  C12_31 
REMARK   10  A    between atoms: C15_34  and  O1_35 
ROOT
HETATM    1  C4  UNL     1      89.428 119.558 131.784  1.00  0.00     0.132 A 
HETATM    2  N2  UNL     1      89.384 118.632 132.750  1.00  0.00    -0.176 N 
ATOM      3  H2  UNL     1      88.920 118.866 133.627  1.00  0.00     0.186 HD
HETATM    4  C5  UNL     1      89.931 117.388 132.616  1.00  0.00     0.681 A 
HETATM    5  N7  UNL     1      90.529 117.113 131.459  1.00  0.00    -0.175 N 
ATOM      6  H7  UNL     1      90.947 116.192 131.334  1.00  0.00     0.186 HD
HETATM    7  C10 UNL     1      90.608 118.006 130.437  1.00  0.00     0.152 A 
HETATM    8  N8  UNL     1      91.213 117.704 129.289  1.00  0.00    -0.175 N 
ATOM      9  H8  UNL     1      91.628 116.779 129.172  1.00  0.00     0.186 HD
HETATM   10  C11 UNL     1      91.289 118.597 128.272  1.00  0.00     0.679 A 
HETATM   11  N10 UNL     1      90.747 119.811 128.420  1.00  0.00    -0.201 N 
ATOM     12  H10 UNL     1      90.803 120.483 127.655  1.00  0.00     0.183 HD
HETATM   13  C18 UNL     1      90.132 120.156 129.556  1.00  0.00     0.125 A 
HETATM   14  C19 UNL     1      90.055 119.254 130.583  1.00  0.00     0.069 A 
ENDROOT
BRANCH   4  15
HETATM   15  N3  UNL     1      89.838 116.559 133.610  1.00  0.00    -0.220 N 
ATOM     16  H3  UNL     1      88.966 116.518 134.138  1.00  0.00     0.178 HD
BRANCH  15  17
HETATM   17  C6  UNL     1      90.916 115.702 133.989  1.00  0.00     0.197 C 
BRANCH  17  18
HETATM   18  C7  UNL     1      90.803 115.277 135.410  1.00  0.00     0.060 A 
HETATM   19  C8  UNL     1      91.704 114.543 136.129  1.00  0.00     0.133 A 
HETATM   20  N4  UNL     1      91.278 114.340 137.376  1.00  0.00    -0.200 N 
HETATM   21  C9  UNL     1      90.075 114.963 137.446  1.00  0.00     0.676 A 
ATOM     22  H4  UNL     1      91.755 113.827 138.118  1.00  0.00     0.183 HD
HETATM   23  N6  UNL     1      89.788 115.531 136.255  1.00  0.00    -0.193 N 
ATOM     24  H6  UNL     1      88.945 116.061 136.034  1.00  0.00     0.184 HD
BRANCH  21  25
HETATM   25  N5  UNL     1      89.383 114.952 138.540  1.00  0.00    -0.234 N 
ATOM     26  H52 UNL     1      89.262 114.204 139.223  1.00  0.00     0.174 HD
ATOM     27  H51 UNL     1      88.855 115.773 138.834  1.00  0.00     0.174 HD
ENDBRANCH  21  25
ENDBRANCH  17  18
ENDBRANCH  15  17
ENDBRANCH   4  15
BRANCH   1  28
HETATM   28  N1  UNL     1      88.931 120.741 131.865  1.00  0.00    -0.372 N 
ATOM     29  H1  UNL     1      89.506 121.505 131.509  1.00  0.00     0.161 HD
BRANCH  28  30
HETATM   30  C3  UNL     1      87.660 121.093 132.399  1.00  0.00     0.147 C 
BRANCH  30  31
HETATM   31  C2  UNL     1      87.755 121.734 133.741  1.00  0.00    -0.018 C 
HETATM   32  C1  UNL     1      87.202 121.137 134.781  1.00  0.00     0.008 C 
ENDBRANCH  30  31
ENDBRANCH  28  30
ENDBRANCH   1  28
BRANCH  10  33
HETATM   33  N9  UNL     1      91.869 118.265 127.196  1.00  0.00    -0.221 N 
ATOM     34  H9  UNL     1      91.942 119.008 126.500  1.00  0.00     0.178 HD
BRANCH  33  35
HETATM   35  C12 UNL     1      92.436 117.013 126.802  1.00  0.00     0.099 C 
HETATM   36  C13 UNL     1      91.408 116.257 126.006  1.00  0.00     0.028 C 
HETATM   37  C14 UNL     1      91.787 115.821 124.650  1.00  0.00     0.034 C 
HETATM   38  C15 UNL     1      92.698 116.665 123.851  1.00  0.00     0.118 C 
HETATM   39  C16 UNL     1      93.172 117.896 124.599  1.00  0.00     0.034 C 
HETATM   40  C17 UNL     1      93.644 117.371 125.939  1.00  0.00     0.028 C 
BRANCH  38  41
HETATM   41  O1  UNL     1      93.861 115.946 123.481  1.00  0.00    -0.396 OA
ATOM     42  H1  UNL     1      94.466 116.501 123.003  1.00  0.00     0.210 HD
ENDBRANCH  38  41
ENDBRANCH  33  35
ENDBRANCH  10  33
TORSDOF 10
ENDMDL
MODEL 2
REMARK VINA RESULT: -8.969655163      3.783      7.461
REMARK  10 active torsions:
REMARK  status: ('A' for Active; 'I' for Inactive)
REMARK    1  A    between atoms: C2_2  and  C3_3 
REMARK    2  A    between atoms: C3_3  and  N1_4 
REMARK    3  A    between atoms: N1_4  and  C4_6 
REMARK    4  A    between atoms: C5_9  and  N3_10 
REMARK    5  A    between atoms: N3_10  and  C6_12 
REMARK    6  A    between atoms: C6_12  and  C7_13 
REMARK    7  A    between atoms: C9_17  and  N5_18 
REMARK    8  A    between atoms: C11_28  and  N9_29 
REMARK    9  A    between atoms: N9_29  and  C12_31 
REMARK   10  A    between atoms: C15_34  and  O1_35 
ROOT
HETATM    1  C4  UNL     1      91.806 117.368 127.514  1.00  0.00     0.132 A 
HETATM    2  N2  UNL     1      92.059 116.083 127.792  1.00  0.00    -0.176 N 
ATOM      3  H2  UNL     1      92.441 115.492 127.054  1.00  0.00     0.186 HD
HETATM    4  C5  UNL     1      91.830 115.526 129.018  1.00  0.00     0.681 A 
HETATM    5  N7  UNL     1      91.332 116.324 129.960  1.00  0.00    -0.175 N 
ATOM      6  H7  UNL     1      91.151 115.932 130.883  1.00  0.00     0.186 HD
HETATM    7  C10 UNL     1      91.053 117.637 129.745  1.00  0.00     0.152 A 
HETATM    8  N8  UNL     1      90.555 118.413 130.707  1.00  0.00    -0.175 N 
ATOM      9  H8  UNL     1      90.377 118.013 131.628  1.00  0.00     0.186 HD
HETATM   10  C11 UNL     1      90.279 119.722 130.489  1.00  0.00     0.679 A 
HETATM   11  N10 UNL     1      90.511 120.251 129.282  1.00  0.00    -0.201 N 
ATOM     12  H10 UNL     1      90.304 121.236 129.118  1.00  0.00     0.183 HD
HETATM   13  C18 UNL     1      91.009 119.508 128.289  1.00  0.00     0.125 A 
HETATM   14  C19 UNL     1      91.287 118.186 128.509  1.00  0.00     0.069 A 
ENDROOT
BRANCH   4  15
HETATM   15  N3  UNL     1      92.107 114.270 129.190  1.00  0.00    -0.220 N 
ATOM     16  H3  UNL     1      93.085 113.981 129.223  1.00  0.00     0.178 HD
BRANCH  15  17
HETATM   17  C6  UNL     1      91.088 113.280 129.336  1.00  0.00     0.197 C 
BRANCH  17  18
HETATM   18  C7  UNL     1      90.950 112.842 130.752  1.00  0.00     0.060 A 
HETATM   19  C8  UNL     1      90.145 113.387 131.712  1.00  0.00     0.133 A 
HETATM   20  N4  UNL     1      90.276 112.748 132.875  1.00  0.00    -0.200 N 
HETATM   21  C9  UNL     1      91.190 111.773 132.642  1.00  0.00     0.676 A 
ATOM     22  H4  UNL     1      89.793 112.949 133.750  1.00  0.00     0.183 HD
HETATM   23  N6  UNL     1      91.597 111.830 131.356  1.00  0.00    -0.193 N 
ATOM     24  H6  UNL     1      92.280 111.211 130.918  1.00  0.00     0.184 HD
BRANCH  21  25
HETATM   25  N5  UNL     1      91.551 110.962 133.583  1.00  0.00    -0.234 N 
ATOM     26  H52 UNL     1      91.249 110.922 134.557  1.00  0.00     0.174 HD
ATOM     27  H51 UNL     1      92.233 110.223 133.407  1.00  0.00     0.174 HD
ENDBRANCH  21  25
ENDBRANCH  17  18
ENDBRANCH  15  17
ENDBRANCH   4  15
BRANCH   1  28
HETATM   28  N1  UNL     1      92.002 117.935 126.378  1.00  0.00    -0.372 N 
ATOM     29  H1  UNL     1      91.178 118.297 125.898  1.00  0.00     0.161 HD
BRANCH  28  30
HETATM   30  C3  UNL     1      93.252 118.110 125.721  1.00  0.00     0.147 C 
BRANCH  30  31
HETATM   31  C2  UNL     1      93.239 117.618 124.314  1.00  0.00    -0.018 C 
HETATM   32  C1  UNL     1      92.521 116.551 124.011  1.00  0.00     0.008 C 
ENDBRANCH  30  31
ENDBRANCH  28  30
ENDBRANCH   1  28
BRANCH  10  33
HETATM   33  N9  UNL     1      89.811 120.424 131.433  1.00  0.00    -0.221 N 
ATOM     34  H9  UNL     1      90.402 121.204 131.723  1.00  0.00     0.178 HD
BRANCH  33  35
HETATM   35  C12 UNL     1      88.586 120.296 132.158  1.00  0.00     0.099 C 
HETATM   36  C13 UNL     1      88.857 119.510 133.412  1.00  0.00     0.028 C 
HETATM   37  C14 UNL     1      88.495 120.135 134.696  1.00  0.00     0.034 C 
HETATM   38  C15 UNL     1      88.611 121.600 134.841  1.00  0.00     0.118 C 
HETATM   39  C16 UNL     1      89.063 122.287 133.566  1.00  0.00     0.034 C 
HETATM   40  C17 UNL     1      88.160 121.724 132.488  1.00  0.00     0.028 C 
BRANCH  38  41
HETATM   41  O1  UNL     1      87.363 122.175 135.187  1.00  0.00    -0.396 OA
ATOM     42  H1  UNL     1      87.064 122.770 134.509  1.00  0.00     0.210 HD
ENDBRANCH  38  41
ENDBRANCH  33  35
ENDBRANCH  10  33
TORSDOF 10
ENDMDL
MODEL 3
REMARK VINA RESULT: -8.948964373      3.501      6.501
REMARK  10 active torsions:
REMARK  status: ('A' for Active; 'I' for Inactive)
REMARK    1  A    between atoms: C2_2  and  C3_3 
REMARK    2  A    between atoms: C3_3  and  N1_4 
REMARK    3  A    between atoms: N1_4  and  C4_6 
REMARK    4  A    between atoms: C5_9  and  N3_10 
REMARK    5  A    between atoms: N3_10  and  C6_12 
REMARK    6  A    between atoms: C6_12  and  C7_13 
REMARK    7  A    between atoms: C9_17  and  N5_18 
REMARK    8  A    between atoms: C11_28  and  N9_29 
REMARK    9  A    between atoms: N9_29  and  C12_31 
REMARK   10  A    between atoms: C15_34  and  O1_35 
ROOT
HETATM    1  C4  UNL     1      91.412 115.896 129.270  1.00  0.00     0.132 A 
HETATM    2  N2  UNL     1      91.248 117.221 129.170  1.00  0.00    -0.176 N 
ATOM      3  H2  UNL     1      91.101 117.759 130.024  1.00  0.00     0.186 HD
HETATM    4  C5  UNL     1      91.270 117.887 127.978  1.00  0.00     0.681 A 
HETATM    5  N7  UNL     1      91.465 117.157 126.882  1.00  0.00    -0.175 N 
ATOM      6  H7  UNL     1      91.484 117.631 125.979  1.00  0.00     0.186 HD
HETATM    7  C10 UNL     1      91.639 115.809 126.913  1.00  0.00     0.152 A 
HETATM    8  N8  UNL     1      91.834 115.103 125.799  1.00  0.00    -0.175 N 
ATOM      9  H8  UNL     1      91.852 115.585 124.900  1.00  0.00     0.186 HD
HETATM   10  C11 UNL     1      92.008 113.759 125.834  1.00  0.00     0.679 A 
HETATM   11  N10 UNL     1      91.985 113.124 127.011  1.00  0.00    -0.201 N 
ATOM     12  H10 UNL     1      92.117 112.113 127.038  1.00  0.00     0.183 HD
HETATM   13  C18 UNL     1      91.792 113.793 128.152  1.00  0.00     0.125 A 
HETATM   14  C19 UNL     1      91.616 115.150 128.117  1.00  0.00     0.069 A 
ENDROOT
BRANCH   4  15
HETATM   15  N3  UNL     1      91.101 119.174 127.983  1.00  0.00    -0.220 N 
ATOM     16  H3  UNL     1      90.819 119.638 127.120  1.00  0.00     0.178 HD
BRANCH  15  17
HETATM   17  C6  UNL     1      91.298 119.961 129.159  1.00  0.00     0.197 C 
BRANCH  17  18
HETATM   18  C7  UNL     1      90.005 120.289 129.819  1.00  0.00     0.060 A 
HETATM   19  C8  UNL     1      89.596 119.915 131.069  1.00  0.00     0.133 A 
HETATM   20  N4  UNL     1      88.376 120.380 131.338  1.00  0.00    -0.200 N 
HETATM   21  C9  UNL     1      88.004 121.066 130.227  1.00  0.00     0.676 A 
ATOM     22  H4  UNL     1      87.838 120.249 132.195  1.00  0.00     0.183 HD
HETATM   23  N6  UNL     1      88.992 121.010 129.309  1.00  0.00    -0.193 N 
ATOM     24  H6  UNL     1      88.972 121.442 128.384  1.00  0.00     0.184 HD
BRANCH  21  25
HETATM   25  N5  UNL     1      86.850 121.648 130.160  1.00  0.00    -0.234 N 
ATOM     26  H52 UNL     1      86.620 122.640 130.217  1.00  0.00     0.174 HD
ATOM     27  H51 UNL     1      85.996 121.105 130.030  1.00  0.00     0.174 HD
ENDBRANCH  21  25
ENDBRANCH  17  18
ENDBRANCH  15  17
ENDBRANCH   4  15
BRANCH   1  28
HETATM   28  N1  UNL     1      91.398 115.226 130.367  1.00  0.00    -0.372 N 
ATOM     29  H1  UNL     1      92.105 114.499 130.469  1.00  0.00     0.161 HD
BRANCH  28  30
HETATM   30  C3  UNL     1      90.494 115.396 131.453  1.00  0.00     0.147 C 
BRANCH  30  31
HETATM   31  C2  UNL     1      89.802 114.131 131.831  1.00  0.00    -0.018 C 
HETATM   32  C1  UNL     1      90.187 112.996 131.277  1.00  0.00     0.008 C 
ENDBRANCH  30  31
ENDBRANCH  28  30
ENDBRANCH   1  28
BRANCH  10  33
HETATM   33  N9  UNL     1      92.195 113.129 124.752  1.00  0.00    -0.221 N 
ATOM     34  H9  UNL     1      91.440 113.211 124.071  1.00  0.00     0.178 HD
BRANCH  33  35
HETATM   35  C12 UNL     1      93.297 112.319 124.335  1.00  0.00     0.099 C 
HETATM   36  C13 UNL     1      93.068 111.908 122.906  1.00  0.00     0.028 C 
HETATM   37  C14 UNL     1      94.119 112.243 121.928  1.00  0.00     0.034 C 
HETATM   38  C15 UNL     1      94.894 113.488 122.103  1.00  0.00     0.118 C 
HETATM   39  C16 UNL     1      94.510 114.254 123.354  1.00  0.00     0.034 C 
HETATM   40  C17 UNL     1      94.526 113.217 124.458  1.00  0.00     0.028 C 
BRANCH  38  41
HETATM   41  O1  UNL     1      96.279 113.210 122.211  1.00  0.00    -0.396 OA
ATOM     42  H1  UNL     1      96.784 114.014 122.261  1.00  0.00     0.210 HD
ENDBRANCH  38  41
ENDBRANCH  33  35
ENDBRANCH  10  33
TORSDOF 10
ENDMDL
MODEL 4
REMARK VINA RESULT: -8.925610211      1.216      1.922
REMARK  10 active torsions:
REMARK  status: ('A' for Active; 'I' for Inactive)
REMARK    1  A    between atoms: C2_2  and  C3_3 
REMARK    2  A    between atoms: C3_3  and  N1_4 
REMARK    3  A    between atoms: N1_4  and  C4_6 
REMARK    4  A    between atoms: C5_9  and  N3_10 
REMARK    5  A    between atoms: N3_10  and  C6_12 
REMARK    6  A    between atoms: C6_12  and  C7_13 
REMARK    7  A    between atoms: C9_17  and  N5_18 
REMARK    8  A    between atoms: C11_28  and  N9_29 
REMARK    9  A    between atoms: N9_29  and  C12_31 
REMARK   10  A    between atoms: C15_34  and  O1_35 
ROOT
HETATM    1  C4  UNL     1      89.482 118.031 132.951  1.00  0.00     0.132 A 
HETATM    2  N2  UNL     1      89.667 117.035 133.827  1.00  0.00    -0.176 N 
ATOM      3  H2  UNL     1      89.160 117.066 134.712  1.00  0.00     0.186 HD
HETATM    4  C5  UNL     1      90.500 115.980 133.592  1.00  0.00     0.681 A 
HETATM    5  N7  UNL     1      91.146 115.968 132.429  1.00  0.00    -0.175 N 
ATOM      6  H7  UNL     1      91.775 115.191 132.229  1.00  0.00     0.186 HD
HETATM    7  C10 UNL     1      91.003 116.945 131.494  1.00  0.00     0.152 A 
HETATM    8  N8  UNL     1      91.662 116.907 130.336  1.00  0.00    -0.175 N 
ATOM      9  H8  UNL     1      92.290 116.126 130.145  1.00  0.00     0.186 HD
HETATM   10  C11 UNL     1      91.517 117.883 129.406  1.00  0.00     0.679 A 
HETATM   11  N10 UNL     1      90.696 118.910 129.653  1.00  0.00    -0.201 N 
ATOM     12  H10 UNL     1      90.585 119.644 128.954  1.00  0.00     0.183 HD
HETATM   13  C18 UNL     1      90.017 118.988 130.803  1.00  0.00     0.125 A 
HETATM   14  C19 UNL     1      90.163 118.002 131.741  1.00  0.00     0.069 A 
ENDROOT
BRANCH   4  15
HETATM   15  N3  UNL     1      90.613 115.063 134.504  1.00  0.00    -0.220 N 
ATOM     16  H3  UNL     1      90.195 114.148 134.338  1.00  0.00     0.178 HD
BRANCH  15  17
HETATM   17  C6  UNL     1      91.303 115.295 135.733  1.00  0.00     0.197 C 
BRANCH  17  18
HETATM   18  C7  UNL     1      90.439 115.002 136.908  1.00  0.00     0.060 A 
HETATM   19  C8  UNL     1      89.160 115.434 137.124  1.00  0.00     0.133 A 
HETATM   20  N4  UNL     1      88.687 114.986 138.287  1.00  0.00    -0.200 N 
HETATM   21  C9  UNL     1      89.695 114.251 138.820  1.00  0.00     0.676 A 
ATOM     22  H4  UNL     1      87.765 115.159 138.689  1.00  0.00     0.183 HD
HETATM   23  N6  UNL     1      90.755 114.261 137.985  1.00  0.00    -0.193 N 
ATOM     24  H6  UNL     1      91.644 113.787 138.143  1.00  0.00     0.184 HD
BRANCH  21  25
HETATM   25  N5  UNL     1      89.558 113.670 139.969  1.00  0.00    -0.234 N 
ATOM     26  H52 UNL     1      89.131 112.770 140.194  1.00  0.00     0.174 HD
ATOM     27  H51 UNL     1      89.903 114.108 140.823  1.00  0.00     0.174 HD
ENDBRANCH  21  25
ENDBRANCH  17  18
ENDBRANCH  15  17
ENDBRANCH   4  15
BRANCH   1  28
HETATM   28  N1  UNL     1      88.712 119.044 133.128  1.00  0.00    -0.372 N 
ATOM     29  H1  UNL     1      88.017 119.224 132.404  1.00  0.00     0.161 HD
BRANCH  28  30
HETATM   30  C3  UNL     1      88.730 119.942 134.232  1.00  0.00     0.147 C 
BRANCH  30  31
HETATM   31  C2  UNL     1      87.579 120.888 134.226  1.00  0.00    -0.018 C 
HETATM   32  C1  UNL     1      86.890 121.072 135.338  1.00  0.00     0.008 C 
ENDBRANCH  30  31
ENDBRANCH  28  30
ENDBRANCH   1  28
BRANCH  10  33
HETATM   33  N9  UNL     1      92.159 117.804 128.318  1.00  0.00    -0.221 N 
ATOM     34  H9  UNL     1      93.147 117.569 128.417  1.00  0.00     0.178 HD
BRANCH  33  35
HETATM   35  C12 UNL     1      91.717 117.994 126.971  1.00  0.00     0.099 C 
HETATM   36  C13 UNL     1      92.805 118.702 126.211  1.00  0.00     0.028 C 
HETATM   37  C14 UNL     1      93.314 118.050 124.991  1.00  0.00     0.034 C 
HETATM   38  C15 UNL     1      93.370 116.576 124.933  1.00  0.00     0.118 C 
HETATM   39  C16 UNL     1      92.823 115.913 126.182  1.00  0.00     0.034 C 
HETATM   40  C17 UNL     1      91.488 116.588 126.420  1.00  0.00     0.028 C 
BRANCH  38  41
HETATM   41  O1  UNL     1      92.605 116.083 123.848  1.00  0.00    -0.396 OA
ATOM     42  H1  UNL     1      92.051 115.361 124.123  1.00  0.00     0.210 HD
ENDBRANCH  38  41
ENDBRANCH  33  35
ENDBRANCH  10  33
TORSDOF 10
ENDMDL
MODEL 5
REMARK VINA RESULT: -8.924977685      1.884      5.628
REMARK  10 active torsions:
REMARK  status: ('A' for Active; 'I' for Inactive)
REMARK    1  A    between atoms: C2_2  and  C3_3 
REMARK    2  A    between atoms: C3_3  and  N1_4 
REMARK    3  A    between atoms: N1_4  and  C4_6 
REMARK    4  A    between atoms: C5_9  and  N3_10 
REMARK    5  A    between atoms: N3_10  and  C6_12 
REMARK    6  A    between atoms: C6_12  and  C7_13 
REMARK    7  A    between atoms: C9_17  and  N5_18 
REMARK    8  A    between atoms: C11_28  and  N9_29 
REMARK    9  A    between atoms: N9_29  and  C12_31 
REMARK   10  A    between atoms: C15_34  and  O1_35 
ROOT
HETATM    1  C4  UNL     1      90.611 115.830 133.167  1.00  0.00     0.132 A 
HETATM    2  N2  UNL     1      89.821 116.782 133.680  1.00  0.00    -0.176 N 
ATOM      3  H2  UNL     1      89.482 116.670 134.635  1.00  0.00     0.186 HD
HETATM    4  C5  UNL     1      89.449 117.897 132.984  1.00  0.00     0.681 A 
HETATM    5  N7  UNL     1      89.909 118.014 131.741  1.00  0.00    -0.175 N 
ATOM      6  H7  UNL     1      89.644 118.837 131.200  1.00  0.00     0.186 HD
HETATM    7  C10 UNL     1      90.715 117.086 131.160  1.00  0.00     0.152 A 
HETATM    8  N8  UNL     1      91.162 117.230 129.913  1.00  0.00    -0.175 N 
ATOM      9  H8  UNL     1      90.892 118.057 129.379  1.00  0.00     0.186 HD
HETATM   10  C11 UNL     1      91.967 116.303 129.337  1.00  0.00     0.679 A 
HETATM   11  N10 UNL     1      92.322 115.218 130.034  1.00  0.00    -0.201 N 
ATOM     12  H10 UNL     1      92.928 114.521 129.602  1.00  0.00     0.183 HD
HETATM   13  C18 UNL     1      91.896 115.033 131.288  1.00  0.00     0.125 A 
HETATM   14  C19 UNL     1      91.083 115.970 131.868  1.00  0.00     0.069 A 
ENDROOT
BRANCH   4  15
HETATM   15  N3  UNL     1      88.679 118.764 133.568  1.00  0.00    -0.220 N 
ATOM     16  H3  UNL     1      87.894 118.430 134.126  1.00  0.00     0.178 HD
BRANCH  15  17
HETATM   17  C6  UNL     1      88.897 120.171 133.454  1.00  0.00     0.197 C 
BRANCH  17  18
HETATM   18  C7  UNL     1      88.435 120.690 132.139  1.00  0.00     0.060 A 
HETATM   19  C8  UNL     1      87.146 120.785 131.692  1.00  0.00     0.133 A 
HETATM   20  N4  UNL     1      87.096 121.292 130.461  1.00  0.00    -0.200 N 
HETATM   21  C9  UNL     1      88.389 121.525 130.120  1.00  0.00     0.676 A 
ATOM     22  H4  UNL     1      86.264 121.469 129.896  1.00  0.00     0.183 HD
HETATM   23  N6  UNL     1      89.198 121.160 131.137  1.00  0.00    -0.193 N 
ATOM     24  H6  UNL     1      90.216 121.230 131.144  1.00  0.00     0.184 HD
BRANCH  21  25
HETATM   25  N5  UNL     1      88.693 122.022 128.964  1.00  0.00    -0.234 N 
ATOM     26  H52 UNL     1      89.031 121.551 128.125  1.00  0.00     0.174 HD
ATOM     27  H51 UNL     1      88.606 123.022 128.785  1.00  0.00     0.174 HD
ENDBRANCH  21  25
ENDBRANCH  17  18
ENDBRANCH  15  17
ENDBRANCH   4  15
BRANCH   1  28
HETATM   28  N1  UNL     1      90.986 114.765 133.781  1.00  0.00    -0.372 N 
ATOM     29  H1  UNL     1      90.565 113.888 133.475  1.00  0.00     0.161 HD
BRANCH  28  30
HETATM   30  C3  UNL     1      91.930 114.685 134.842  1.00  0.00     0.147 C 
BRANCH  30  31
HETATM   31  C2  UNL     1      91.324 114.212 136.119  1.00  0.00    -0.018 C 
HETATM   32  C1  UNL     1      90.774 115.092 136.936  1.00  0.00     0.008 C 
ENDBRANCH  30  31
ENDBRANCH  28  30
ENDBRANCH   1  28
BRANCH  10  33
HETATM   33  N9  UNL     1      92.372 116.483 128.152  1.00  0.00    -0.221 N 
ATOM     34  H9  UNL     1      93.265 116.041 127.931  1.00  0.00     0.178 HD
BRANCH  33  35
HETATM   35  C12 UNL     1      91.776 117.208 127.073  1.00  0.00     0.099 C 
HETATM   36  C13 UNL     1      92.877 117.771 126.216  1.00  0.00     0.028 C 
HETATM   37  C14 UNL     1      92.868 117.420 124.784  1.00  0.00     0.034 C 
HETATM   38  C15 UNL     1      92.375 116.091 124.373  1.00  0.00     0.118 C 
HETATM   39  C16 UNL     1      91.879 115.257 125.538  1.00  0.00     0.034 C 
HETATM   40  C17 UNL     1      90.952 116.179 126.302  1.00  0.00     0.028 C 
BRANCH  38  41
HETATM   41  O1  UNL     1      91.288 116.211 123.472  1.00  0.00    -0.396 OA
ATOM     42  H1  UNL     1      91.589 116.180 122.571  1.00  0.00     0.210 HD
ENDBRANCH  38  41
ENDBRANCH  33  35
ENDBRANCH  10  33
TORSDOF 10
ENDMDL
