MODEL 1
REMARK VINA RESULT: -7.482894491      0.000      0.000
REMARK  17 active torsions:
REMARK  status: ('A' for Active; 'I' for Inactive)
REMARK    1  A    between atoms: C3_6  and  S1_7 
REMARK    2  A    between atoms: S1_7  and  N3_10 
REMARK    3  A    between atoms: N3_10  and  C4_11 
REMARK    4  A    between atoms: N3_10  and  C18_33 
REMARK    5  A    between atoms: C4_11  and  C5_12 
REMARK    6  A    between atoms: C5_12  and  N4_13 
REMARK    7  A    between atoms: C11_19  and  O3_20 
REMARK    8  A    between atoms: O3_20  and  C12_21 
REMARK    9  A    between atoms: C12_21  and  C13_22 
REMARK   10  A    between atoms: C13_22  and  O4_23 
REMARK   11  A    between atoms: C13_22  and  C14_25 
REMARK   12  A    between atoms: C14_25  and  O5_26 
REMARK   13  A    between atoms: O5_26  and  N5_27 
REMARK   14  A    between atoms: C18_33  and  C19_34 
REMARK   15  A    between atoms: N6_36  and  C21_37 
REMARK   16  A    between atoms: C21_37  and  C22_38 
REMARK   17  A    between atoms: C22_38  and  O8_39 
ROOT
HETATM    1  N3  UNL     1       3.467   7.712  81.074  1.00  0.00    -0.178 NA
ENDROOT
BRANCH   1   2
HETATM    2  S1  UNL     1       4.608   7.190  79.896  1.00  0.00     0.264 S 
HETATM    3  O1  UNL     1       4.445   8.085  78.698  1.00  0.00    -0.204 OA
HETATM    4  O2  UNL     1       4.294   5.795  79.410  1.00  0.00    -0.204 OA
BRANCH   2   5
HETATM    5  C3  UNL     1       6.239   7.238  80.461  1.00  0.00     0.161 A 
HETATM    6  N2  UNL     1       6.722   7.262  81.706  1.00  0.00    -0.341 N 
HETATM    7  C2  UNL     1       8.057   7.303  81.690  1.00  0.00     0.183 A 
ATOM      8  H2  UNL     1       6.150   7.251  82.550  1.00  0.00     0.167 HD
HETATM    9  N1  UNL     1       8.451   7.306  80.414  1.00  0.00    -0.354 N 
HETATM   10  C1  UNL     1       9.854   7.352  79.947  1.00  0.00     0.156 C 
HETATM   11  C23 UNL     1       7.356   7.266  79.657  1.00  0.00     0.134 A 
ENDBRANCH   2   5
ENDBRANCH   1   2
BRANCH   1  12
HETATM   12  C4  UNL     1       3.789   9.071  81.389  1.00  0.00     0.143 C 
BRANCH  12  13
HETATM   13  C5  UNL     1       3.974   9.436  82.805  1.00  0.00     0.288 C 
BRANCH  13  14
HETATM   14  N4  UNL     1       3.020  10.243  83.462  1.00  0.00     0.094 N 
HETATM   15  C6  UNL     1       2.097  10.913  82.572  1.00  0.00     0.277 C 
HETATM   16  C7  UNL     1       0.693  10.949  83.096  1.00  0.00     0.069 C 
HETATM   17  C8  UNL     1       0.286   9.551  83.371  1.00  0.00    -0.048 A 
HETATM   18  C9  UNL     1      -0.894   9.015  82.928  1.00  0.00     0.010 A 
HETATM   19  C16 UNL     1       1.175   8.801  84.109  1.00  0.00    -0.021 A 
HETATM   20  C10 UNL     1      -1.202   7.696  83.226  1.00  0.00     0.037 A 
HETATM   21  C11 UNL     1      -0.340   6.908  83.965  1.00  0.00     0.069 A 
HETATM   22  C15 UNL     1       0.866   7.524  84.394  1.00  0.00     0.046 A 
HETATM   23  C17 UNL     1       2.415   9.503  84.524  1.00  0.00     0.311 C 
BRANCH  21  24
HETATM   24  O3  UNL     1      -0.596   5.644  84.278  1.00  0.00    -0.349 OA
BRANCH  24  25
HETATM   25  C12 UNL     1      -1.410   4.777  84.857  1.00  0.00     0.209 C 
BRANCH  25  26
HETATM   26  C13 UNL     1      -1.524   4.701  86.350  1.00  0.00     0.168 C 
BRANCH  26  27
HETATM   27  O4  UNL     1      -2.374   5.593  86.951  1.00  0.00    -0.391 OA
ATOM     28  H4  UNL     1      -2.249   6.511  86.744  1.00  0.00     0.210 HD
ENDBRANCH  26  27
BRANCH  26  29
HETATM   29  C14 UNL     1      -2.008   3.307  86.784  1.00  0.00     0.241 C 
BRANCH  29  30
HETATM   30  O5  UNL     1      -0.926   2.485  87.131  1.00  0.00    -0.219 OA
BRANCH  30  31
HETATM   31  N5  UNL     1      -0.192   1.931  86.108  1.00  0.00     0.005 N 
HETATM   32  O6  UNL     1       0.941   2.374  85.793  1.00  0.00    -0.511 OA
HETATM   33  O7  UNL     1      -0.704   0.865  85.409  1.00  0.00    -0.511 OA
ENDBRANCH  30  31
ENDBRANCH  29  30
ENDBRANCH  26  29
ENDBRANCH  25  26
ENDBRANCH  24  25
ENDBRANCH  21  24
ENDBRANCH  13  14
ENDBRANCH  12  13
ENDBRANCH   1  12
BRANCH   1  34
HETATM   34  C18 UNL     1       2.123   7.496  80.713  1.00  0.00     0.109 C 
BRANCH  34  35
HETATM   35  C19 UNL     1       1.648   6.117  81.156  1.00  0.00     0.078 A 
HETATM   36  C20 UNL     1       0.529   5.455  80.709  1.00  0.00     0.143 A 
HETATM   37  N6  UNL     1       0.491   4.283  81.370  1.00  0.00    -0.285 N 
HETATM   38  N7  UNL     1       1.541   4.222  82.192  1.00  0.00    -0.240 N 
HETATM   39  N8  UNL     1       2.244   5.327  82.067  1.00  0.00    -0.284 N 
ATOM     40  H7  UNL     1       1.762   3.445  82.815  1.00  0.00     0.208 HD
ATOM     41  H8  UNL     1       3.099   5.548  82.577  1.00  0.00     0.188 HD
BRANCH  37  42
HETATM   42  C21 UNL     1      -0.509   3.243  81.231  1.00  0.00     0.175 C 
BRANCH  42  43
HETATM   43  C22 UNL     1       0.083   1.870  81.498  1.00  0.00     0.185 C 
BRANCH  43  44
HETATM   44  O8  UNL     1       0.111   1.684  82.868  1.00  0.00    -0.399 OA
ATOM     45  H8  UNL     1       0.706   0.967  83.050  1.00  0.00     0.209 HD
ENDBRANCH  43  44
ENDBRANCH  42  43
ENDBRANCH  37  42
ENDBRANCH  34  35
ENDBRANCH   1  34
TORSDOF 17
ENDMDL
MODEL 2
REMARK VINA RESULT: -7.123291026      2.585      3.847
REMARK  17 active torsions:
REMARK  status: ('A' for Active; 'I' for Inactive)
REMARK    1  A    between atoms: C3_6  and  S1_7 
REMARK    2  A    between atoms: S1_7  and  N3_10 
REMARK    3  A    between atoms: N3_10  and  C4_11 
REMARK    4  A    between atoms: N3_10  and  C18_33 
REMARK    5  A    between atoms: C4_11  and  C5_12 
REMARK    6  A    between atoms: C5_12  and  N4_13 
REMARK    7  A    between atoms: C11_19  and  O3_20 
REMARK    8  A    between atoms: O3_20  and  C12_21 
REMARK    9  A    between atoms: C12_21  and  C13_22 
REMARK   10  A    between atoms: C13_22  and  O4_23 
REMARK   11  A    between atoms: C13_22  and  C14_25 
REMARK   12  A    between atoms: C14_25  and  O5_26 
REMARK   13  A    between atoms: O5_26  and  N5_27 
REMARK   14  A    between atoms: C18_33  and  C19_34 
REMARK   15  A    between atoms: N6_36  and  C21_37 
REMARK   16  A    between atoms: C21_37  and  C22_38 
REMARK   17  A    between atoms: C22_38  and  O8_39 
ROOT
HETATM    1  N3  UNL     1       2.683   7.363  81.503  1.00  0.00    -0.178 NA
ENDROOT
BRANCH   1   2
HETATM    2  S1  UNL     1       3.534   5.965  80.971  1.00  0.00     0.264 S 
HETATM    3  O1  UNL     1       2.881   5.509  79.696  1.00  0.00    -0.204 OA
HETATM    4  O2  UNL     1       3.373   4.822  81.944  1.00  0.00    -0.204 OA
BRANCH   2   5
HETATM    5  C3  UNL     1       5.218   6.252  80.711  1.00  0.00     0.161 A 
HETATM    6  N2  UNL     1       6.108   6.908  81.460  1.00  0.00    -0.341 N 
HETATM    7  C2  UNL     1       7.310   6.895  80.878  1.00  0.00     0.183 A 
ATOM      8  H2  UNL     1       5.898   7.356  82.352  1.00  0.00     0.167 HD
HETATM    9  N1  UNL     1       7.202   6.220  79.731  1.00  0.00    -0.354 N 
HETATM   10  C1  UNL     1       8.300   5.974  78.771  1.00  0.00     0.156 C 
HETATM   11  C23 UNL     1       5.935   5.823  79.618  1.00  0.00     0.134 A 
ENDBRANCH   2   5
ENDBRANCH   1   2
BRANCH   1  12
HETATM   12  C4  UNL     1       3.317   7.800  82.710  1.00  0.00     0.143 C 
BRANCH  12  13
HETATM   13  C5  UNL     1       3.670   9.226  82.837  1.00  0.00     0.288 C 
BRANCH  13  14
HETATM   14  N4  UNL     1       2.839  10.100  83.572  1.00  0.00     0.094 N 
HETATM   15  C6  UNL     1       2.097  11.038  82.758  1.00  0.00     0.277 C 
HETATM   16  C7  UNL     1       0.695  11.259  83.243  1.00  0.00     0.069 C 
HETATM   17  C8  UNL     1       0.035   9.935  83.309  1.00  0.00    -0.048 A 
HETATM   18  C9  UNL     1      -1.196   9.684  82.763  1.00  0.00     0.010 A 
HETATM   19  C16 UNL     1       0.737   8.945  83.960  1.00  0.00    -0.021 A 
HETATM   20  C10 UNL     1      -1.747   8.416  82.866  1.00  0.00     0.037 A 
HETATM   21  C11 UNL     1      -1.077   7.395  83.512  1.00  0.00     0.069 A 
HETATM   22  C15 UNL     1       0.194   7.719  84.056  1.00  0.00     0.046 A 
HETATM   23  C17 UNL     1       2.058   9.349  84.503  1.00  0.00     0.311 C 
BRANCH  21  24
HETATM   24  O3  UNL     1      -1.568   6.168  83.639  1.00  0.00    -0.349 OA
BRANCH  24  25
HETATM   25  C12 UNL     1      -1.342   4.894  83.912  1.00  0.00     0.209 C 
BRANCH  25  26
HETATM   26  C13 UNL     1      -0.066   4.228  83.492  1.00  0.00     0.168 C 
BRANCH  26  27
HETATM   27  O4  UNL     1       0.413   3.239  84.309  1.00  0.00    -0.391 OA
ATOM     28  H4  UNL     1       1.162   3.456  84.852  1.00  0.00     0.210 HD
ENDBRANCH  26  27
BRANCH  26  29
HETATM   29  C14 UNL     1      -0.228   3.581  82.105  1.00  0.00     0.241 C 
BRANCH  29  30
HETATM   30  O5  UNL     1      -0.150   4.544  81.089  1.00  0.00    -0.219 OA
BRANCH  30  31
HETATM   31  N5  UNL     1      -0.590   4.187  79.836  1.00  0.00     0.005 N 
HETATM   32  O6  UNL     1      -0.095   4.687  78.795  1.00  0.00    -0.511 OA
HETATM   33  O7  UNL     1      -1.595   3.259  79.711  1.00  0.00    -0.511 OA
ENDBRANCH  30  31
ENDBRANCH  29  30
ENDBRANCH  26  29
ENDBRANCH  25  26
ENDBRANCH  24  25
ENDBRANCH  21  24
ENDBRANCH  13  14
ENDBRANCH  12  13
ENDBRANCH   1  12
BRANCH   1  34
HETATM   34  C18 UNL     1       2.541   8.362  80.521  1.00  0.00     0.109 C 
BRANCH  34  35
HETATM   35  C19 UNL     1       1.112   8.418  79.993  1.00  0.00     0.078 A 
HETATM   36  C20 UNL     1       0.458   9.529  79.517  1.00  0.00     0.143 A 
HETATM   37  N6  UNL     1      -0.778   9.124  79.170  1.00  0.00    -0.285 N 
HETATM   38  N7  UNL     1      -0.886   7.818  79.421  1.00  0.00    -0.240 N 
HETATM   39  N8  UNL     1       0.252   7.385  79.919  1.00  0.00    -0.284 N 
ATOM     40  H7  UNL     1      -1.716   7.248  79.255  1.00  0.00     0.208 HD
ATOM     41  H8  UNL     1       0.450   6.425  80.202  1.00  0.00     0.188 HD
BRANCH  37  42
HETATM   42  C21 UNL     1      -1.834   9.947  78.612  1.00  0.00     0.175 C 
BRANCH  42  43
HETATM   43  C22 UNL     1      -2.638   9.182  77.575  1.00  0.00     0.185 C 
BRANCH  43  44
HETATM   44  O8  UNL     1      -3.583   8.430  78.249  1.00  0.00    -0.399 OA
ATOM     45  H8  UNL     1      -4.344   8.981  78.387  1.00  0.00     0.209 HD
ENDBRANCH  43  44
ENDBRANCH  42  43
ENDBRANCH  37  42
ENDBRANCH  34  35
ENDBRANCH   1  34
TORSDOF 17
ENDMDL
MODEL 3
REMARK VINA RESULT: -7.062937669      1.796      2.284
REMARK  17 active torsions:
REMARK  status: ('A' for Active; 'I' for Inactive)
REMARK    1  A    between atoms: C3_6  and  S1_7 
REMARK    2  A    between atoms: S1_7  and  N3_10 
REMARK    3  A    between atoms: N3_10  and  C4_11 
REMARK    4  A    between atoms: N3_10  and  C18_33 
REMARK    5  A    between atoms: C4_11  and  C5_12 
REMARK    6  A    between atoms: C5_12  and  N4_13 
REMARK    7  A    between atoms: C11_19  and  O3_20 
REMARK    8  A    between atoms: O3_20  and  C12_21 
REMARK    9  A    between atoms: C12_21  and  C13_22 
REMARK   10  A    between atoms: C13_22  and  O4_23 
REMARK   11  A    between atoms: C13_22  and  C14_25 
REMARK   12  A    between atoms: C14_25  and  O5_26 
REMARK   13  A    between atoms: O5_26  and  N5_27 
REMARK   14  A    between atoms: C18_33  and  C19_34 
REMARK   15  A    between atoms: N6_36  and  C21_37 
REMARK   16  A    between atoms: C21_37  and  C22_38 
REMARK   17  A    between atoms: C22_38  and  O8_39 
ROOT
HETATM    1  N3  UNL     1       3.627   6.939  81.740  1.00  0.00    -0.178 NA
ENDROOT
BRANCH   1   2
HETATM    2  S1  UNL     1       4.809   6.441  80.594  1.00  0.00     0.264 S 
HETATM    3  O1  UNL     1       4.825   4.937  80.601  1.00  0.00    -0.204 OA
HETATM    4  O2  UNL     1       6.195   6.867  81.016  1.00  0.00    -0.204 OA
BRANCH   2   5
HETATM    5  C3  UNL     1       4.500   7.028  78.999  1.00  0.00     0.161 A 
HETATM    6  N2  UNL     1       4.368   8.279  78.550  1.00  0.00    -0.341 N 
HETATM    7  C2  UNL     1       4.127   8.282  77.236  1.00  0.00     0.183 A 
ATOM      8  H2  UNL     1       4.440   9.115  79.130  1.00  0.00     0.167 HD
HETATM    9  N1  UNL     1       4.102   7.013  76.822  1.00  0.00    -0.354 N 
HETATM   10  C1  UNL     1       3.859   6.565  75.434  1.00  0.00     0.156 C 
HETATM   11  C23 UNL     1       4.328   6.241  77.884  1.00  0.00     0.134 A 
ENDBRANCH   2   5
ENDBRANCH   1   2
BRANCH   1  12
HETATM   12  C4  UNL     1       4.134   8.120  82.373  1.00  0.00     0.143 C 
BRANCH  12  13
HETATM   13  C5  UNL     1       3.646   9.429  81.902  1.00  0.00     0.288 C 
BRANCH  13  14
HETATM   14  N4  UNL     1       3.082  10.347  82.815  1.00  0.00     0.094 N 
HETATM   15  C6  UNL     1       2.047  11.185  82.250  1.00  0.00     0.277 C 
HETATM   16  C7  UNL     1       0.898  11.415  83.185  1.00  0.00     0.069 C 
HETATM   17  C8  UNL     1       0.381  10.087  83.587  1.00  0.00    -0.048 A 
HETATM   18  C9  UNL     1      -0.948   9.755  83.540  1.00  0.00     0.010 A 
HETATM   19  C16 UNL     1       1.323   9.180  84.019  1.00  0.00    -0.021 A 
HETATM   20  C10 UNL     1      -1.354   8.489  83.932  1.00  0.00     0.037 A 
HETATM   21  C11 UNL     1      -0.441   7.549  84.373  1.00  0.00     0.069 A 
HETATM   22  C15 UNL     1       0.920   7.955  84.399  1.00  0.00     0.046 A 
HETATM   23  C17 UNL     1       2.725   9.666  84.020  1.00  0.00     0.311 C 
BRANCH  21  24
HETATM   24  O3  UNL     1      -0.785   6.328  84.763  1.00  0.00    -0.349 OA
BRANCH  24  25
HETATM   25  C12 UNL     1      -1.678   5.551  85.351  1.00  0.00     0.209 C 
BRANCH  25  26
HETATM   26  C13 UNL     1      -1.270   4.551  86.391  1.00  0.00     0.168 C 
BRANCH  26  27
HETATM   27  O4  UNL     1      -1.705   4.776  87.670  1.00  0.00    -0.391 OA
ATOM     28  H4  UNL     1      -1.956   4.014  88.178  1.00  0.00     0.210 HD
ENDBRANCH  26  27
BRANCH  26  29
HETATM   29  C14 UNL     1      -1.777   3.147  86.018  1.00  0.00     0.241 C 
BRANCH  29  30
HETATM   30  O5  UNL     1      -1.128   2.666  84.872  1.00  0.00    -0.219 OA
BRANCH  30  31
HETATM   31  N5  UNL     1      -0.003   1.896  85.052  1.00  0.00     0.005 N 
HETATM   32  O6  UNL     1       0.926   2.254  85.819  1.00  0.00    -0.511 OA
HETATM   33  O7  UNL     1       0.116   0.705  84.380  1.00  0.00    -0.511 OA
ENDBRANCH  30  31
ENDBRANCH  29  30
ENDBRANCH  26  29
ENDBRANCH  25  26
ENDBRANCH  24  25
ENDBRANCH  21  24
ENDBRANCH  13  14
ENDBRANCH  12  13
ENDBRANCH   1  12
BRANCH   1  34
HETATM   34  C18 UNL     1       2.328   7.070  81.212  1.00  0.00     0.109 C 
BRANCH  34  35
HETATM   35  C19 UNL     1       1.491   5.827  81.492  1.00  0.00     0.078 A 
HETATM   36  C20 UNL     1       0.594   5.235  80.635  1.00  0.00     0.143 A 
HETATM   37  N6  UNL     1       0.080   4.178  81.293  1.00  0.00    -0.285 N 
HETATM   38  N7  UNL     1       0.635   4.119  82.506  1.00  0.00    -0.240 N 
HETATM   39  N8  UNL     1       1.488   5.112  82.632  1.00  0.00    -0.284 N 
ATOM     40  H7  UNL     1       0.431   3.417  83.218  1.00  0.00     0.208 HD
ATOM     41  H8  UNL     1       2.054   5.308  83.458  1.00  0.00     0.188 HD
BRANCH  37  42
HETATM   42  C21 UNL     1      -0.909   3.244  80.792  1.00  0.00     0.175 C 
BRANCH  42  43
HETATM   43  C22 UNL     1      -0.296   1.879  80.533  1.00  0.00     0.185 C 
BRANCH  43  44
HETATM   44  O8  UNL     1       0.088   1.354  81.753  1.00  0.00    -0.399 OA
ATOM     45  H8  UNL     1       0.814   0.762  81.596  1.00  0.00     0.209 HD
ENDBRANCH  43  44
ENDBRANCH  42  43
ENDBRANCH  37  42
ENDBRANCH  34  35
ENDBRANCH   1  34
TORSDOF 17
ENDMDL
MODEL 4
REMARK VINA RESULT: -6.940000892      2.560      3.316
REMARK  17 active torsions:
REMARK  status: ('A' for Active; 'I' for Inactive)
REMARK    1  A    between atoms: C3_6  and  S1_7 
REMARK    2  A    between atoms: S1_7  and  N3_10 
REMARK    3  A    between atoms: N3_10  and  C4_11 
REMARK    4  A    between atoms: N3_10  and  C18_33 
REMARK    5  A    between atoms: C4_11  and  C5_12 
REMARK    6  A    between atoms: C5_12  and  N4_13 
REMARK    7  A    between atoms: C11_19  and  O3_20 
REMARK    8  A    between atoms: O3_20  and  C12_21 
REMARK    9  A    between atoms: C12_21  and  C13_22 
REMARK   10  A    between atoms: C13_22  and  O4_23 
REMARK   11  A    between atoms: C13_22  and  C14_25 
REMARK   12  A    between atoms: C14_25  and  O5_26 
REMARK   13  A    between atoms: O5_26  and  N5_27 
REMARK   14  A    between atoms: C18_33  and  C19_34 
REMARK   15  A    between atoms: N6_36  and  C21_37 
REMARK   16  A    between atoms: C21_37  and  C22_38 
REMARK   17  A    between atoms: C22_38  and  O8_39 
ROOT
HETATM    1  N3  UNL     1       2.576   8.008  80.666  1.00  0.00    -0.178 NA
ENDROOT
BRANCH   1   2
HETATM    2  S1  UNL     1       3.193   6.446  81.042  1.00  0.00     0.264 S 
HETATM    3  O1  UNL     1       2.371   5.450  80.272  1.00  0.00    -0.204 OA
HETATM    4  O2  UNL     1       2.983   6.111  82.499  1.00  0.00    -0.204 OA
BRANCH   2   5
HETATM    5  C3  UNL     1       4.867   6.265  80.657  1.00  0.00     0.161 A 
HETATM    6  N2  UNL     1       5.955   6.550  81.378  1.00  0.00    -0.341 N 
HETATM    7  C2  UNL     1       7.062   6.258  80.691  1.00  0.00     0.183 A 
ATOM      8  H2  UNL     1       5.941   6.936  82.322  1.00  0.00     0.167 HD
HETATM    9  N1  UNL     1       6.691   5.777  79.502  1.00  0.00    -0.354 N 
HETATM   10  C1  UNL     1       7.607   5.336  78.428  1.00  0.00     0.156 C 
HETATM   11  C23 UNL     1       5.359   5.776  79.469  1.00  0.00     0.134 A 
ENDBRANCH   2   5
ENDBRANCH   1   2
BRANCH   1  12
HETATM   12  C4  UNL     1       3.547   8.958  81.120  1.00  0.00     0.143 C 
BRANCH  12  13
HETATM   13  C5  UNL     1       3.541   9.337  82.545  1.00  0.00     0.288 C 
BRANCH  13  14
HETATM   14  N4  UNL     1       2.676  10.355  83.004  1.00  0.00     0.094 N 
HETATM   15  C6  UNL     1       1.847  10.939  81.973  1.00  0.00     0.277 C 
HETATM   16  C7  UNL     1       0.449  11.228  82.434  1.00  0.00     0.069 C 
HETATM   17  C8  UNL     1      -0.117   9.962  82.954  1.00  0.00    -0.048 A 
HETATM   18  C9  UNL     1      -1.345   9.483  82.581  1.00  0.00     0.010 A 
HETATM   19  C16 UNL     1       0.671   9.274  83.850  1.00  0.00    -0.021 A 
HETATM   20  C10 UNL     1      -1.805   8.288  83.112  1.00  0.00     0.037 A 
HETATM   21  C11 UNL     1      -1.047   7.567  84.015  1.00  0.00     0.069 A 
HETATM   22  C15 UNL     1       0.216   8.118  84.361  1.00  0.00     0.046 A 
HETATM   23  C17 UNL     1       1.978   9.902  84.166  1.00  0.00     0.311 C 
BRANCH  21  24
HETATM   24  O3  UNL     1      -1.450   6.421  84.553  1.00  0.00    -0.349 OA
BRANCH  24  25
HETATM   25  C12 UNL     1      -1.443   5.100  84.506  1.00  0.00     0.209 C 
BRANCH  25  26
HETATM   26  C13 UNL     1      -1.319   4.283  85.757  1.00  0.00     0.168 C 
BRANCH  26  27
HETATM   27  O4  UNL     1      -2.253   3.298  85.947  1.00  0.00    -0.391 OA
ATOM     28  H4  UNL     1      -2.192   2.800  86.754  1.00  0.00     0.210 HD
ENDBRANCH  26  27
BRANCH  26  29
HETATM   29  C14 UNL     1       0.047   3.577  85.806  1.00  0.00     0.241 C 
BRANCH  29  30
HETATM   30  O5  UNL     1       0.438   3.148  84.529  1.00  0.00    -0.219 OA
BRANCH  30  31
HETATM   31  N5  UNL     1       0.101   1.869  84.154  1.00  0.00     0.005 N 
HETATM   32  O6  UNL     1       0.130   1.504  82.952  1.00  0.00    -0.511 OA
HETATM   33  O7  UNL     1      -0.278   0.961  85.113  1.00  0.00    -0.511 OA
ENDBRANCH  30  31
ENDBRANCH  29  30
ENDBRANCH  26  29
ENDBRANCH  25  26
ENDBRANCH  24  25
ENDBRANCH  21  24
ENDBRANCH  13  14
ENDBRANCH  12  13
ENDBRANCH   1  12
BRANCH   1  34
HETATM   34  C18 UNL     1       2.185   8.167  79.323  1.00  0.00     0.109 C 
BRANCH  34  35
HETATM   35  C19 UNL     1       0.668   8.262  79.198  1.00  0.00     0.078 A 
HETATM   36  C20 UNL     1      -0.056   9.381  78.861  1.00  0.00     0.143 A 
HETATM   37  N6  UNL     1      -1.352   9.014  78.880  1.00  0.00    -0.285 N 
HETATM   38  N7  UNL     1      -1.427   7.724  79.215  1.00  0.00    -0.240 N 
HETATM   39  N8  UNL     1      -0.210   7.264  79.408  1.00  0.00    -0.284 N 
ATOM     40  H7  UNL     1      -2.287   7.184  79.305  1.00  0.00     0.208 HD
ATOM     41  H8  UNL     1       0.029   6.308  79.673  1.00  0.00     0.188 HD
BRANCH  37  42
HETATM   42  C21 UNL     1      -2.494   9.858  78.589  1.00  0.00     0.175 C 
BRANCH  42  43
HETATM   43  C22 UNL     1      -3.618   9.062  77.948  1.00  0.00     0.185 C 
BRANCH  43  44
HETATM   44  O8  UNL     1      -3.117   8.483  76.796  1.00  0.00    -0.399 OA
ATOM     45  H8  UNL     1      -3.578   8.863  76.059  1.00  0.00     0.209 HD
ENDBRANCH  43  44
ENDBRANCH  42  43
ENDBRANCH  37  42
ENDBRANCH  34  35
ENDBRANCH   1  34
TORSDOF 17
ENDMDL
MODEL 5
REMARK VINA RESULT: -6.892910863      5.477      7.320
REMARK  17 active torsions:
REMARK  status: ('A' for Active; 'I' for Inactive)
REMARK    1  A    between atoms: C3_6  and  S1_7 
REMARK    2  A    between atoms: S1_7  and  N3_10 
REMARK    3  A    between atoms: N3_10  and  C4_11 
REMARK    4  A    between atoms: N3_10  and  C18_33 
REMARK    5  A    between atoms: C4_11  and  C5_12 
REMARK    6  A    between atoms: C5_12  and  N4_13 
REMARK    7  A    between atoms: C11_19  and  O3_20 
REMARK    8  A    between atoms: O3_20  and  C12_21 
REMARK    9  A    between atoms: C12_21  and  C13_22 
REMARK   10  A    between atoms: C13_22  and  O4_23 
REMARK   11  A    between atoms: C13_22  and  C14_25 
REMARK   12  A    between atoms: C14_25  and  O5_26 
REMARK   13  A    between atoms: O5_26  and  N5_27 
REMARK   14  A    between atoms: C18_33  and  C19_34 
REMARK   15  A    between atoms: N6_36  and  C21_37 
REMARK   16  A    between atoms: C21_37  and  C22_38 
REMARK   17  A    between atoms: C22_38  and  O8_39 
ROOT
HETATM    1  N3  UNL     1       8.497   3.624  77.945  1.00  0.00    -0.178 NA
ENDROOT
BRANCH   1   2
HETATM    2  S1  UNL     1      10.183   3.812  77.659  1.00  0.00     0.264 S 
HETATM    3  O1  UNL     1      10.845   2.523  78.060  1.00  0.00    -0.204 OA
HETATM    4  O2  UNL     1      10.776   4.873  78.555  1.00  0.00    -0.204 OA
BRANCH   2   5
HETATM    5  C3  UNL     1      10.556   4.190  76.015  1.00  0.00     0.161 A 
HETATM    6  N2  UNL     1      10.197   5.235  75.266  1.00  0.00    -0.341 N 
HETATM    7  C2  UNL     1      10.705   5.127  74.036  1.00  0.00     0.183 A 
ATOM      8  H2  UNL     1       9.615   6.009  75.589  1.00  0.00     0.167 HD
HETATM    9  N1  UNL     1      11.406   3.993  73.981  1.00  0.00    -0.354 N 
HETATM   10  C1  UNL     1      12.131   3.485  72.796  1.00  0.00     0.156 C 
HETATM   11  C23 UNL     1      11.324   3.413  75.178  1.00  0.00     0.134 A 
ENDBRANCH   2   5
ENDBRANCH   1   2
BRANCH   1  12
HETATM   12  C4  UNL     1       7.989   4.915  78.297  1.00  0.00     0.143 C 
BRANCH  12  13
HETATM   13  C5  UNL     1       6.548   5.047  78.580  1.00  0.00     0.288 C 
BRANCH  13  14
HETATM   14  N4  UNL     1       5.854   6.218  78.204  1.00  0.00     0.094 N 
HETATM   15  C6  UNL     1       4.898   6.023  77.136  1.00  0.00     0.277 C 
HETATM   16  C7  UNL     1       3.629   6.798  77.333  1.00  0.00     0.069 C 
HETATM   17  C8  UNL     1       3.076   6.416  78.653  1.00  0.00    -0.048 A 
HETATM   18  C9  UNL     1       1.770   6.046  78.839  1.00  0.00     0.010 A 
HETATM   19  C16 UNL     1       3.961   6.452  79.709  1.00  0.00    -0.021 A 
HETATM   20  C10 UNL     1       1.328   5.701  80.107  1.00  0.00     0.037 A 
HETATM   21  C11 UNL     1       2.182   5.724  81.194  1.00  0.00     0.069 A 
HETATM   22  C15 UNL     1       3.523   6.117  80.934  1.00  0.00     0.046 A 
HETATM   23  C17 UNL     1       5.344   6.868  79.370  1.00  0.00     0.311 C 
BRANCH  21  24
HETATM   24  O3  UNL     1       1.802   5.407  82.425  1.00  0.00    -0.349 OA
BRANCH  24  25
HETATM   25  C12 UNL     1       1.274   5.804  83.571  1.00  0.00     0.209 C 
BRANCH  25  26
HETATM   26  C13 UNL     1      -0.188   5.631  83.851  1.00  0.00     0.168 C 
BRANCH  26  27
HETATM   27  O4  UNL     1      -1.004   5.423  82.770  1.00  0.00    -0.391 OA
ATOM     28  H4  UNL     1      -1.332   6.195  82.325  1.00  0.00     0.210 HD
ENDBRANCH  26  27
BRANCH  26  29
HETATM   29  C14 UNL     1      -0.420   4.432  84.786  1.00  0.00     0.241 C 
BRANCH  29  30
HETATM   30  O5  UNL     1      -0.320   3.221  84.086  1.00  0.00    -0.219 OA
BRANCH  30  31
HETATM   31  N5  UNL     1       0.107   2.115  84.783  1.00  0.00     0.005 N 
HETATM   32  O6  UNL     1      -0.193   0.950  84.419  1.00  0.00    -0.511 OA
HETATM   33  O7  UNL     1       0.881   2.280  85.904  1.00  0.00    -0.511 OA
ENDBRANCH  30  31
ENDBRANCH  29  30
ENDBRANCH  26  29
ENDBRANCH  25  26
ENDBRANCH  24  25
ENDBRANCH  21  24
ENDBRANCH  13  14
ENDBRANCH  12  13
ENDBRANCH   1  12
BRANCH   1  34
HETATM   34  C18 UNL     1       7.801   2.986  76.900  1.00  0.00     0.109 C 
BRANCH  34  35
HETATM   35  C19 UNL     1       8.162   1.507  76.819  1.00  0.00     0.078 A 
HETATM   36  C20 UNL     1       8.575   0.826  75.699  1.00  0.00     0.143 A 
HETATM   37  N6  UNL     1       8.773  -0.450  76.081  1.00  0.00    -0.285 N 
HETATM   38  N7  UNL     1       8.494  -0.555  77.382  1.00  0.00    -0.240 N 
HETATM   39  N8  UNL     1       8.124   0.624  77.834  1.00  0.00    -0.284 N 
ATOM     40  H7  UNL     1       8.557  -1.410  77.935  1.00  0.00     0.208 HD
ATOM     41  H8  UNL     1       7.853   0.834  78.795  1.00  0.00     0.188 HD
BRANCH  37  42
HETATM   42  C21 UNL     1       9.216  -1.546  75.242  1.00  0.00     0.175 C 
BRANCH  42  43
HETATM   43  C22 UNL     1      10.108  -2.504  76.013  1.00  0.00     0.185 C 
BRANCH  43  44
HETATM   44  O8  UNL     1      11.202  -1.788  76.462  1.00  0.00    -0.399 OA
ATOM     45  H8  UNL     1      10.968  -0.868  76.452  1.00  0.00     0.209 HD
ENDBRANCH  43  44
ENDBRANCH  42  43
ENDBRANCH  37  42
ENDBRANCH  34  35
ENDBRANCH   1  34
TORSDOF 17
ENDMDL
