MODEL 1
REMARK VINA RESULT: -7.251892056      0.000      0.000
REMARK  18 active torsions:
REMARK  status: ('A' for Active; 'I' for Inactive)
REMARK    1  A    between atoms: O1_2  and  C2_3 
REMARK    2  A    between atoms: C2_3  and  C3_5 
REMARK    3  A    between atoms: N1_7  and  C5_8 
REMARK    4  A    between atoms: C5_8  and  C6_9 
REMARK    5  A    between atoms: C6_9  and  O3_10 
REMARK    6  A    between atoms: C6_9  and  N2_12 
REMARK    7  A    between atoms: N2_12  and  C7_13 
REMARK    8  A    between atoms: N2_12  and  C9_17 
REMARK    9  A    between atoms: C7_13  and  C8_14 
REMARK   10  A    between atoms: C8_14  and  O4_15 
REMARK   11  A    between atoms: C9_17  and  C10_18 
REMARK   12  A    between atoms: C10_18  and  N3_19 
REMARK   13  A    between atoms: N4_22  and  C13_23 
REMARK   14  A    between atoms: C13_23  and  C14_24 
REMARK   15  A    between atoms: N6_28  and  C16_29 
REMARK   16  A    between atoms: C16_29  and  C17_30 
REMARK   17  A    between atoms: C17_30  and  C18_31 
REMARK   18  A    between atoms: C18_31  and  N7_32 
ROOT
HETATM    1  N3  UNL     1       7.930   6.117  77.909  1.00  0.00     0.096 N 
HETATM    2  C11 UNL     1       8.052   6.483  79.313  1.00  0.00     0.292 C 
HETATM    3  C12 UNL     1       6.977   5.899  80.146  1.00  0.00     0.152 C 
HETATM    4  N4  UNL     1       5.630   6.041  79.637  1.00  0.00    -0.386 N 
HETATM    5  C26 UNL     1       5.469   5.922  78.244  1.00  0.00     0.088 C 
HETATM    6  C27 UNL     1       6.624   6.357  77.420  1.00  0.00     0.317 C 
ENDROOT
BRANCH   1   7
HETATM    7  C10 UNL     1       8.435   4.768  77.759  1.00  0.00     0.292 C 
BRANCH   7   8
HETATM    8  C9  UNL     1       8.221   4.210  76.407  1.00  0.00     0.149 C 
BRANCH   8   9
HETATM    9  N2  UNL     1       8.704   2.828  76.307  1.00  0.00    -0.383 N 
BRANCH   9  10
HETATM   10  C6  UNL     1       7.720   1.890  76.076  1.00  0.00     0.235 C 
BRANCH  10  11
HETATM   11  C5  UNL     1       7.650   0.550  76.629  1.00  0.00     0.203 C 
BRANCH  11  12
HETATM   12  N1  UNL     1       8.582  -0.468  76.209  1.00  0.00    -0.282 N 
HETATM   13  C4  UNL     1       8.707  -1.730  76.649  1.00  0.00     0.149 A 
HETATM   14  C3  UNL     1       9.721  -2.367  75.982  1.00  0.00     0.141 A 
HETATM   15  N10 UNL     1      10.193  -1.444  75.134  1.00  0.00    -0.279 N 
HETATM   16  N9  UNL     1       9.526  -0.328  75.267  1.00  0.00    -0.240 N 
ATOM     17  H10 UNL     1      10.962  -1.590  74.480  1.00  0.00     0.189 HD
ATOM     18  H9  UNL     1       9.697   0.523  74.732  1.00  0.00     0.208 HD
BRANCH  14  19
HETATM   19  C2  UNL     1      10.197  -3.745  76.131  1.00  0.00     0.312 C 
HETATM   20  O2  UNL     1      11.349  -4.055  75.743  1.00  0.00    -0.258 OA
BRANCH  19  21
HETATM   21  O1  UNL     1       9.409  -4.729  76.692  1.00  0.00    -0.321 OA
HETATM   22  C1  UNL     1       9.766  -6.075  76.849  1.00  0.00     0.213 C 
ENDBRANCH  19  21
ENDBRANCH  14  19
ENDBRANCH  11  12
ENDBRANCH  10  11
BRANCH  10  23
HETATM   23  O3  UNL     1       7.543   1.770  74.668  1.00  0.00    -0.375 OA
ATOM     24  H3  UNL     1       7.687   2.632  74.295  1.00  0.00     0.212 HD
ENDBRANCH  10  23
ENDBRANCH   9  10
BRANCH   9  25
HETATM   25  C7  UNL     1       9.749   2.634  77.240  1.00  0.00     0.145 C 
BRANCH  25  26
HETATM   26  C8  UNL     1      11.140   2.533  76.666  1.00  0.00     0.183 C 
BRANCH  26  27
HETATM   27  O4  UNL     1      11.528   1.173  76.587  1.00  0.00    -0.399 OA
ATOM     28  H4  UNL     1      12.445   1.087  76.819  1.00  0.00     0.209 HD
ENDBRANCH  26  27
ENDBRANCH  25  26
ENDBRANCH   9  25
ENDBRANCH   8   9
ENDBRANCH   7   8
ENDBRANCH   1   7
BRANCH   4  29
HETATM   29  C13 UNL     1       4.882   7.018  80.334  1.00  0.00     0.163 C 
BRANCH  29  30
HETATM   30  C14 UNL     1       3.428   6.876  80.220  1.00  0.00    -0.006 A 
HETATM   31  C15 UNL     1       2.517   7.657  79.564  1.00  0.00     0.117 A 
HETATM   32  N5  UNL     1       1.286   7.147  79.688  1.00  0.00    -0.309 N 
HETATM   33  N6  UNL     1       1.407   6.057  80.410  1.00  0.00    -0.303 N 
ATOM     34  H5  UNL     1       0.425   7.529  79.298  1.00  0.00     0.186 HD
HETATM   35  C25 UNL     1       2.671   5.840  80.761  1.00  0.00     0.120 A 
BRANCH  33  36
HETATM   36  C16 UNL     1       0.274   5.182  80.746  1.00  0.00     0.150 C 
BRANCH  36  37
HETATM   37  C17 UNL     1       0.776   4.373  81.938  1.00  0.00     0.052 C 
BRANCH  37  38
HETATM   38  C18 UNL     1      -0.326   4.284  82.951  1.00  0.00     0.274 C 
BRANCH  38  39
HETATM   39  N7  UNL     1      -0.159   5.186  84.061  1.00  0.00     0.090 N 
HETATM   40  C19 UNL     1      -1.390   5.796  84.475  1.00  0.00     0.274 C 
HETATM   41  C20 UNL     1      -1.858   5.465  85.848  1.00  0.00     0.060 C 
HETATM   42  C21 UNL     1      -2.128   4.008  86.040  1.00  0.00     0.273 C 
HETATM   43  N8  UNL     1      -0.940   3.429  86.645  1.00  0.00     0.086 N 
HETATM   44  C22 UNL     1      -1.287   2.039  86.984  1.00  0.00     0.309 C 
HETATM   45  C23 UNL     1       0.136   3.320  85.672  1.00  0.00     0.302 C 
HETATM   46  C24 UNL     1       0.600   4.629  85.144  1.00  0.00     0.302 C 
ENDBRANCH  38  39
ENDBRANCH  37  38
ENDBRANCH  36  37
ENDBRANCH  33  36
ENDBRANCH  29  30
ENDBRANCH   4  29
TORSDOF 18
ENDMDL
MODEL 2
REMARK VINA RESULT: -7.236623019      4.456     12.070
REMARK  18 active torsions:
REMARK  status: ('A' for Active; 'I' for Inactive)
REMARK    1  A    between atoms: O1_2  and  C2_3 
REMARK    2  A    between atoms: C2_3  and  C3_5 
REMARK    3  A    between atoms: N1_7  and  C5_8 
REMARK    4  A    between atoms: C5_8  and  C6_9 
REMARK    5  A    between atoms: C6_9  and  O3_10 
REMARK    6  A    between atoms: C6_9  and  N2_12 
REMARK    7  A    between atoms: N2_12  and  C7_13 
REMARK    8  A    between atoms: N2_12  and  C9_17 
REMARK    9  A    between atoms: C7_13  and  C8_14 
REMARK   10  A    between atoms: C8_14  and  O4_15 
REMARK   11  A    between atoms: C9_17  and  C10_18 
REMARK   12  A    between atoms: C10_18  and  N3_19 
REMARK   13  A    between atoms: N4_22  and  C13_23 
REMARK   14  A    between atoms: C13_23  and  C14_24 
REMARK   15  A    between atoms: N6_28  and  C16_29 
REMARK   16  A    between atoms: C16_29  and  C17_30 
REMARK   17  A    between atoms: C17_30  and  C18_31 
REMARK   18  A    between atoms: C18_31  and  N7_32 
ROOT
HETATM    1  N3  UNL     1       4.039   8.082  80.630  1.00  0.00     0.096 N 
HETATM    2  C11 UNL     1       4.580   8.471  79.336  1.00  0.00     0.292 C 
HETATM    3  C12 UNL     1       5.070   7.313  78.556  1.00  0.00     0.152 C 
HETATM    4  N4  UNL     1       5.915   6.378  79.268  1.00  0.00    -0.386 N 
HETATM    5  C26 UNL     1       5.580   6.125  80.611  1.00  0.00     0.088 C 
HETATM    6  C27 UNL     1       4.933   7.245  81.338  1.00  0.00     0.317 C 
ENDROOT
BRANCH   1   7
HETATM    7  C10 UNL     1       2.705   7.561  80.414  1.00  0.00     0.292 C 
BRANCH   7   8
HETATM    8  C9  UNL     1       1.987   7.250  81.668  1.00  0.00     0.149 C 
BRANCH   8   9
HETATM    9  N2  UNL     1       0.583   6.905  81.419  1.00  0.00    -0.383 N 
BRANCH   9  10
HETATM   10  C6  UNL     1      -0.321   7.553  82.234  1.00  0.00     0.235 C 
BRANCH  10  11
HETATM   11  C5  UNL     1      -0.954   7.018  83.426  1.00  0.00     0.203 C 
BRANCH  11  12
HETATM   12  N1  UNL     1      -0.397   5.872  84.103  1.00  0.00    -0.282 N 
HETATM   13  C4  UNL     1      -0.940   4.660  84.296  1.00  0.00     0.149 A 
HETATM   14  C3  UNL     1      -0.073   3.856  84.990  1.00  0.00     0.141 A 
HETATM   15  N10 UNL     1       1.000   4.630  85.203  1.00  0.00    -0.279 N 
HETATM   16  N9  UNL     1       0.811   5.814  84.683  1.00  0.00    -0.240 N 
ATOM     17  H10 UNL     1       1.842   4.337  85.698  1.00  0.00     0.189 HD
ATOM     18  H9  UNL     1       1.483   6.580  84.713  1.00  0.00     0.208 HD
BRANCH  14  19
HETATM   19  C2  UNL     1      -0.245   2.463  85.409  1.00  0.00     0.312 C 
HETATM   20  O2  UNL     1       0.758   1.725  85.560  1.00  0.00    -0.258 OA
BRANCH  19  21
HETATM   21  O1  UNL     1      -1.494   1.925  85.648  1.00  0.00    -0.321 OA
HETATM   22  C1  UNL     1      -2.408   2.372  86.611  1.00  0.00     0.213 C 
ENDBRANCH  19  21
ENDBRANCH  14  19
ENDBRANCH  11  12
ENDBRANCH  10  11
BRANCH  10  23
HETATM   23  O3  UNL     1      -1.357   8.085  81.415  1.00  0.00    -0.375 OA
ATOM     24  H3  UNL     1      -1.049   8.921  81.085  1.00  0.00     0.212 HD
ENDBRANCH  10  23
ENDBRANCH   9  10
BRANCH   9  25
HETATM   25  C7  UNL     1       0.492   5.529  81.109  1.00  0.00     0.145 C 
BRANCH  25  26
HETATM   26  C8  UNL     1       0.067   5.193  79.701  1.00  0.00     0.183 C 
BRANCH  26  27
HETATM   27  O4  UNL     1      -0.738   6.237  79.182  1.00  0.00    -0.399 OA
ATOM     28  H4  UNL     1      -0.983   6.039  78.287  1.00  0.00     0.209 HD
ENDBRANCH  26  27
ENDBRANCH  25  26
ENDBRANCH   9  25
ENDBRANCH   8   9
ENDBRANCH   7   8
ENDBRANCH   1   7
BRANCH   4  29
HETATM   29  C13 UNL     1       7.278   6.493  78.910  1.00  0.00     0.163 C 
BRANCH  29  30
HETATM   30  C14 UNL     1       7.818   5.348  78.172  1.00  0.00    -0.006 A 
HETATM   31  C15 UNL     1       9.115   5.011  77.896  1.00  0.00     0.117 A 
HETATM   32  N5  UNL     1       9.165   3.859  77.218  1.00  0.00    -0.309 N 
HETATM   33  N6  UNL     1       7.922   3.464  77.062  1.00  0.00    -0.303 N 
ATOM     34  H5  UNL     1      10.003   3.381  76.887  1.00  0.00     0.186 HD
HETATM   35  C25 UNL     1       7.065   4.319  77.613  1.00  0.00     0.120 A 
BRANCH  33  36
HETATM   36  C16 UNL     1       7.552   2.211  76.386  1.00  0.00     0.150 C 
BRANCH  36  37
HETATM   37  C17 UNL     1       8.018   1.124  77.349  1.00  0.00     0.052 C 
BRANCH  37  38
HETATM   38  C18 UNL     1       8.348  -0.105  76.556  1.00  0.00     0.274 C 
BRANCH  38  39
HETATM   39  N7  UNL     1       9.108   0.168  75.365  1.00  0.00     0.090 N 
HETATM   40  C19 UNL     1      10.495   0.422  75.633  1.00  0.00     0.274 C 
HETATM   41  C20 UNL     1      11.463  -0.554  75.064  1.00  0.00     0.060 C 
HETATM   42  C21 UNL     1      11.273  -1.941  75.586  1.00  0.00     0.273 C 
HETATM   43  N8  UNL     1      10.462  -2.656  74.614  1.00  0.00     0.086 N 
HETATM   44  C22 UNL     1      10.431  -4.060  75.058  1.00  0.00     0.309 C 
HETATM   45  C23 UNL     1       9.077  -2.215  74.670  1.00  0.00     0.302 C 
HETATM   46  C24 UNL     1       8.890  -0.784  74.314  1.00  0.00     0.302 C 
ENDBRANCH  38  39
ENDBRANCH  37  38
ENDBRANCH  36  37
ENDBRANCH  33  36
ENDBRANCH  29  30
ENDBRANCH   4  29
TORSDOF 18
ENDMDL
MODEL 3
REMARK VINA RESULT: -6.963983160      4.380     12.262
REMARK  18 active torsions:
REMARK  status: ('A' for Active; 'I' for Inactive)
REMARK    1  A    between atoms: O1_2  and  C2_3 
REMARK    2  A    between atoms: C2_3  and  C3_5 
REMARK    3  A    between atoms: N1_7  and  C5_8 
REMARK    4  A    between atoms: C5_8  and  C6_9 
REMARK    5  A    between atoms: C6_9  and  O3_10 
REMARK    6  A    between atoms: C6_9  and  N2_12 
REMARK    7  A    between atoms: N2_12  and  C7_13 
REMARK    8  A    between atoms: N2_12  and  C9_17 
REMARK    9  A    between atoms: C7_13  and  C8_14 
REMARK   10  A    between atoms: C8_14  and  O4_15 
REMARK   11  A    between atoms: C9_17  and  C10_18 
REMARK   12  A    between atoms: C10_18  and  N3_19 
REMARK   13  A    between atoms: N4_22  and  C13_23 
REMARK   14  A    between atoms: C13_23  and  C14_24 
REMARK   15  A    between atoms: N6_28  and  C16_29 
REMARK   16  A    between atoms: C16_29  and  C17_30 
REMARK   17  A    between atoms: C17_30  and  C18_31 
REMARK   18  A    between atoms: C18_31  and  N7_32 
ROOT
HETATM    1  N3  UNL     1       5.175   6.894  78.772  1.00  0.00     0.096 N 
HETATM    2  C11 UNL     1       5.571   7.425  77.475  1.00  0.00     0.292 C 
HETATM    3  C12 UNL     1       6.022   6.367  76.544  1.00  0.00     0.152 C 
HETATM    4  N4  UNL     1       6.966   5.410  77.079  1.00  0.00    -0.386 N 
HETATM    5  C26 UNL     1       6.775   5.018  78.417  1.00  0.00     0.088 C 
HETATM    6  C27 UNL     1       6.163   6.036  79.307  1.00  0.00     0.317 C 
ENDROOT
BRANCH   1   7
HETATM    7  C10 UNL     1       3.845   6.337  78.633  1.00  0.00     0.292 C 
BRANCH   7   8
HETATM    8  C9  UNL     1       2.901   6.812  79.666  1.00  0.00     0.149 C 
BRANCH   8   9
HETATM    9  N2  UNL     1       2.307   5.698  80.413  1.00  0.00    -0.383 N 
BRANCH   9  10
HETATM   10  C6  UNL     1       0.928   5.674  80.410  1.00  0.00     0.235 C 
BRANCH  10  11
HETATM   11  C5  UNL     1       0.077   4.570  80.815  1.00  0.00     0.203 C 
BRANCH  11  12
HETATM   12  N1  UNL     1      -0.133   4.276  82.212  1.00  0.00    -0.282 N 
HETATM   13  C4  UNL     1       0.001   3.107  82.857  1.00  0.00     0.149 A 
HETATM   14  C3  UNL     1      -0.295   3.263  84.188  1.00  0.00     0.141 A 
HETATM   15  N10 UNL     1      -0.607   4.560  84.309  1.00  0.00    -0.279 N 
HETATM   16  N9  UNL     1      -0.513   5.156  83.150  1.00  0.00    -0.240 N 
ATOM     17  H10 UNL     1      -0.879   5.016  85.180  1.00  0.00     0.189 HD
ATOM     18  H9  UNL     1      -0.701   6.145  82.983  1.00  0.00     0.208 HD
BRANCH  14  19
HETATM   19  C2  UNL     1      -0.272   2.264  85.258  1.00  0.00     0.312 C 
HETATM   20  O2  UNL     1       0.818   1.925  85.777  1.00  0.00    -0.258 OA
BRANCH  19  21
HETATM   21  O1  UNL     1      -1.430   1.673  85.725  1.00  0.00    -0.321 OA
HETATM   22  C1  UNL     1      -2.430   2.308  86.473  1.00  0.00     0.213 C 
ENDBRANCH  19  21
ENDBRANCH  14  19
ENDBRANCH  11  12
ENDBRANCH  10  11
BRANCH  10  23
HETATM   23  O3  UNL     1       0.479   6.098  79.127  1.00  0.00    -0.375 OA
ATOM     24  H3  UNL     1       0.858   6.954  78.968  1.00  0.00     0.212 HD
ENDBRANCH  10  23
ENDBRANCH   9  10
BRANCH   9  25
HETATM   25  C7  UNL     1       3.079   5.454  81.572  1.00  0.00     0.145 C 
BRANCH  25  26
HETATM   26  C8  UNL     1       2.876   6.415  82.717  1.00  0.00     0.183 C 
BRANCH  26  27
HETATM   27  O4  UNL     1       2.390   5.716  83.849  1.00  0.00    -0.399 OA
ATOM     28  H4  UNL     1       1.877   6.302  84.393  1.00  0.00     0.209 HD
ENDBRANCH  26  27
ENDBRANCH  25  26
ENDBRANCH   9  25
ENDBRANCH   8   9
ENDBRANCH   7   8
ENDBRANCH   1   7
BRANCH   4  29
HETATM   29  C13 UNL     1       8.283   5.618  76.606  1.00  0.00     0.163 C 
BRANCH  29  30
HETATM   30  C14 UNL     1       8.844   4.501  75.841  1.00  0.00    -0.006 A 
HETATM   31  C15 UNL     1       8.702   4.182  74.518  1.00  0.00     0.117 A 
HETATM   32  N5  UNL     1       9.415   3.089  74.221  1.00  0.00    -0.309 N 
HETATM   33  N6  UNL     1      10.005   2.715  75.333  1.00  0.00    -0.303 N 
ATOM     34  H5  UNL     1       9.487   2.636  73.310  1.00  0.00     0.186 HD
HETATM   35  C25 UNL     1       9.699   3.524  76.344  1.00  0.00     0.120 A 
BRANCH  33  36
HETATM   36  C16 UNL     1      10.912   1.561  75.418  1.00  0.00     0.150 C 
BRANCH  36  37
HETATM   37  C17 UNL     1      10.570   0.734  74.183  1.00  0.00     0.052 C 
BRANCH  37  38
HETATM   38  C18 UNL     1      10.668  -0.719  74.540  1.00  0.00     0.274 C 
BRANCH  38  39
HETATM   39  N7  UNL     1       9.765  -1.555  73.794  1.00  0.00     0.090 N 
HETATM   40  C19 UNL     1      10.429  -2.335  72.788  1.00  0.00     0.274 C 
HETATM   41  C20 UNL     1      10.382  -3.811  72.964  1.00  0.00     0.060 C 
HETATM   42  C21 UNL     1      11.035  -4.273  74.225  1.00  0.00     0.273 C 
HETATM   43  N8  UNL     1       9.984  -4.437  75.216  1.00  0.00     0.086 N 
HETATM   44  C22 UNL     1      10.621  -5.054  76.392  1.00  0.00     0.309 C 
HETATM   45  C23 UNL     1       9.507  -3.145  75.684  1.00  0.00     0.302 C 
HETATM   46  C24 UNL     1       8.876  -2.320  74.621  1.00  0.00     0.302 C 
ENDBRANCH  38  39
ENDBRANCH  37  38
ENDBRANCH  36  37
ENDBRANCH  33  36
ENDBRANCH  29  30
ENDBRANCH   4  29
TORSDOF 18
ENDMDL
MODEL 4
REMARK VINA RESULT: -6.946483771      1.946      3.199
REMARK  18 active torsions:
REMARK  status: ('A' for Active; 'I' for Inactive)
REMARK    1  A    between atoms: O1_2  and  C2_3 
REMARK    2  A    between atoms: C2_3  and  C3_5 
REMARK    3  A    between atoms: N1_7  and  C5_8 
REMARK    4  A    between atoms: C5_8  and  C6_9 
REMARK    5  A    between atoms: C6_9  and  O3_10 
REMARK    6  A    between atoms: C6_9  and  N2_12 
REMARK    7  A    between atoms: N2_12  and  C7_13 
REMARK    8  A    between atoms: N2_12  and  C9_17 
REMARK    9  A    between atoms: C7_13  and  C8_14 
REMARK   10  A    between atoms: C8_14  and  O4_15 
REMARK   11  A    between atoms: C9_17  and  C10_18 
REMARK   12  A    between atoms: C10_18  and  N3_19 
REMARK   13  A    between atoms: N4_22  and  C13_23 
REMARK   14  A    between atoms: C13_23  and  C14_24 
REMARK   15  A    between atoms: N6_28  and  C16_29 
REMARK   16  A    between atoms: C16_29  and  C17_30 
REMARK   17  A    between atoms: C17_30  and  C18_31 
REMARK   18  A    between atoms: C18_31  and  N7_32 
ROOT
HETATM    1  N3  UNL     1       7.505   5.769  78.094  1.00  0.00     0.096 N 
HETATM    2  C11 UNL     1       7.372   6.105  79.504  1.00  0.00     0.292 C 
HETATM    3  C12 UNL     1       6.098   5.627  80.082  1.00  0.00     0.152 C 
HETATM    4  N4  UNL     1       4.904   5.913  79.315  1.00  0.00    -0.386 N 
HETATM    5  C26 UNL     1       5.021   5.827  77.916  1.00  0.00     0.088 C 
HETATM    6  C27 UNL     1       6.359   6.148  77.358  1.00  0.00     0.317 C 
ENDROOT
BRANCH   1   7
HETATM    7  C10 UNL     1       7.894   4.376  78.006  1.00  0.00     0.292 C 
BRANCH   7   8
HETATM    8  C9  UNL     1       7.651   3.783  76.674  1.00  0.00     0.149 C 
BRANCH   8   9
HETATM    9  N2  UNL     1       8.587   2.690  76.387  1.00  0.00    -0.383 N 
BRANCH   9  10
HETATM   10  C6  UNL     1       8.051   1.653  75.652  1.00  0.00     0.235 C 
BRANCH  10  11
HETATM   11  C5  UNL     1       8.767   0.515  75.106  1.00  0.00     0.203 C 
BRANCH  11  12
HETATM   12  N1  UNL     1       8.687  -0.778  75.741  1.00  0.00    -0.282 N 
HETATM   13  C4  UNL     1       9.322  -1.916  75.420  1.00  0.00     0.149 A 
HETATM   14  C3  UNL     1       8.965  -2.919  76.284  1.00  0.00     0.141 A 
HETATM   15  N10 UNL     1       8.099  -2.340  77.126  1.00  0.00    -0.279 N 
HETATM   16  N9  UNL     1       7.935  -1.083  76.809  1.00  0.00    -0.240 N 
ATOM     17  H10 UNL     1       7.635  -2.811  77.903  1.00  0.00     0.189 HD
ATOM     18  H9  UNL     1       7.324  -0.430  77.300  1.00  0.00     0.208 HD
BRANCH  14  19
HETATM   19  C2  UNL     1       9.417  -4.312  76.315  1.00  0.00     0.312 C 
HETATM   20  O2  UNL     1       9.026  -5.079  77.227  1.00  0.00    -0.258 OA
BRANCH  19  21
HETATM   21  O1  UNL     1      10.273  -4.819  75.357  1.00  0.00    -0.321 OA
HETATM   22  C1  UNL     1      10.336  -6.154  74.938  1.00  0.00     0.213 C 
ENDBRANCH  19  21
ENDBRANCH  14  19
ENDBRANCH  11  12
ENDBRANCH  10  11
BRANCH  10  23
HETATM   23  O3  UNL     1       7.284   2.212  74.590  1.00  0.00    -0.375 OA
ATOM     24  H3  UNL     1       6.597   2.733  74.988  1.00  0.00     0.212 HD
ENDBRANCH  10  23
ENDBRANCH   9  10
BRANCH   9  25
HETATM   25  C7  UNL     1       9.420   2.487  77.511  1.00  0.00     0.145 C 
BRANCH  25  26
HETATM   26  C8  UNL     1      10.897   2.690  77.286  1.00  0.00     0.183 C 
BRANCH  26  27
HETATM   27  O4  UNL     1      11.475   1.493  76.793  1.00  0.00    -0.399 OA
ATOM     28  H4  UNL     1      10.852   1.042  76.236  1.00  0.00     0.209 HD
ENDBRANCH  26  27
ENDBRANCH  25  26
ENDBRANCH   9  25
ENDBRANCH   8   9
ENDBRANCH   7   8
ENDBRANCH   1   7
BRANCH   4  29
HETATM   29  C13 UNL     1       4.131   6.955  79.877  1.00  0.00     0.163 C 
BRANCH  29  30
HETATM   30  C14 UNL     1       2.851   6.528  80.450  1.00  0.00    -0.006 A 
HETATM   31  C15 UNL     1       1.604   6.494  79.888  1.00  0.00     0.117 A 
HETATM   32  N5  UNL     1       0.712   6.001  80.756  1.00  0.00    -0.309 N 
HETATM   33  N6  UNL     1       1.376   5.724  81.854  1.00  0.00    -0.303 N 
ATOM     34  H5  UNL     1      -0.286   5.868  80.596  1.00  0.00     0.186 HD
HETATM   35  C25 UNL     1       2.667   6.020  81.733  1.00  0.00     0.120 A 
BRANCH  33  36
HETATM   36  C16 UNL     1       0.753   5.129  83.046  1.00  0.00     0.150 C 
BRANCH  36  37
HETATM   37  C17 UNL     1       0.991   6.165  84.140  1.00  0.00     0.052 C 
BRANCH  37  38
HETATM   38  C18 UNL     1      -0.290   6.906  84.381  1.00  0.00     0.274 C 
BRANCH  38  39
HETATM   39  N7  UNL     1      -0.097   8.293  84.714  1.00  0.00     0.090 N 
HETATM   40  C19 UNL     1       1.225   8.761  84.410  1.00  0.00     0.274 C 
HETATM   41  C20 UNL     1       1.322   9.824  83.373  1.00  0.00     0.060 C 
HETATM   42  C21 UNL     1       0.809   9.390  82.039  1.00  0.00     0.273 C 
HETATM   43  N8  UNL     1      -0.564   9.856  81.938  1.00  0.00     0.086 N 
HETATM   44  C22 UNL     1      -0.994   9.573  80.557  1.00  0.00     0.309 C 
HETATM   45  C23 UNL     1      -1.446   9.057  82.775  1.00  0.00     0.302 C 
HETATM   46  C24 UNL     1      -1.138   9.151  84.226  1.00  0.00     0.302 C 
ENDBRANCH  38  39
ENDBRANCH  37  38
ENDBRANCH  36  37
ENDBRANCH  33  36
ENDBRANCH  29  30
ENDBRANCH   4  29
TORSDOF 18
ENDMDL
MODEL 5
REMARK VINA RESULT: -6.889946342      4.662     11.842
REMARK  18 active torsions:
REMARK  status: ('A' for Active; 'I' for Inactive)
REMARK    1  A    between atoms: O1_2  and  C2_3 
REMARK    2  A    between atoms: C2_3  and  C3_5 
REMARK    3  A    between atoms: N1_7  and  C5_8 
REMARK    4  A    between atoms: C5_8  and  C6_9 
REMARK    5  A    between atoms: C6_9  and  O3_10 
REMARK    6  A    between atoms: C6_9  and  N2_12 
REMARK    7  A    between atoms: N2_12  and  C7_13 
REMARK    8  A    between atoms: N2_12  and  C9_17 
REMARK    9  A    between atoms: C7_13  and  C8_14 
REMARK   10  A    between atoms: C8_14  and  O4_15 
REMARK   11  A    between atoms: C9_17  and  C10_18 
REMARK   12  A    between atoms: C10_18  and  N3_19 
REMARK   13  A    between atoms: N4_22  and  C13_23 
REMARK   14  A    between atoms: C13_23  and  C14_24 
REMARK   15  A    between atoms: N6_28  and  C16_29 
REMARK   16  A    between atoms: C16_29  and  C17_30 
REMARK   17  A    between atoms: C17_30  and  C18_31 
REMARK   18  A    between atoms: C18_31  and  N7_32 
ROOT
HETATM    1  N3  UNL     1       3.259   8.912  82.723  1.00  0.00     0.096 N 
HETATM    2  C11 UNL     1       4.496   9.569  82.326  1.00  0.00     0.292 C 
HETATM    3  C12 UNL     1       5.024   9.055  81.043  1.00  0.00     0.152 C 
HETATM    4  N4  UNL     1       5.077   7.614  80.909  1.00  0.00    -0.386 N 
HETATM    5  C26 UNL     1       4.011   6.891  81.476  1.00  0.00     0.088 C 
HETATM    6  C27 UNL     1       3.377   7.504  82.670  1.00  0.00     0.317 C 
ENDROOT
BRANCH   1   7
HETATM    7  C10 UNL     1       2.181   9.497  81.953  1.00  0.00     0.292 C 
BRANCH   7   8
HETATM    8  C9  UNL     1       0.877   9.457  82.647  1.00  0.00     0.149 C 
BRANCH   8   9
HETATM    9  N2  UNL     1      -0.055   8.527  82.000  1.00  0.00    -0.383 N 
BRANCH   9  10
HETATM   10  C6  UNL     1      -0.371   7.415  82.752  1.00  0.00     0.235 C 
BRANCH  10  11
HETATM   11  C5  UNL     1      -0.004   6.040  82.465  1.00  0.00     0.203 C 
BRANCH  11  12
HETATM   12  N1  UNL     1       0.204   5.096  83.536  1.00  0.00    -0.282 N 
HETATM   13  C4  UNL     1      -0.416   3.927  83.763  1.00  0.00     0.149 A 
HETATM   14  C3  UNL     1       0.085   3.335  84.894  1.00  0.00     0.141 A 
HETATM   15  N10 UNL     1       1.021   4.190  85.330  1.00  0.00    -0.279 N 
HETATM   16  N9  UNL     1       1.092   5.224  84.534  1.00  0.00    -0.240 N 
ATOM     17  H10 UNL     1       1.595   4.053  86.162  1.00  0.00     0.189 HD
ATOM     18  H9  UNL     1       1.728   6.012  84.653  1.00  0.00     0.208 HD
BRANCH  14  19
HETATM   19  C2  UNL     1      -0.287   2.057  85.506  1.00  0.00     0.312 C 
HETATM   20  O2  UNL     1      -0.241   1.002  84.830  1.00  0.00    -0.258 OA
BRANCH  19  21
HETATM   21  O1  UNL     1      -0.693   1.974  86.823  1.00  0.00    -0.321 OA
HETATM   22  C1  UNL     1      -1.455   2.929  87.508  1.00  0.00     0.213 C 
ENDBRANCH  19  21
ENDBRANCH  14  19
ENDBRANCH  11  12
ENDBRANCH  10  11
BRANCH  10  23
HETATM   23  O3  UNL     1      -1.774   7.429  82.999  1.00  0.00    -0.375 OA
ATOM     24  H3  UNL     1      -2.101   8.268  82.698  1.00  0.00     0.212 HD
ENDBRANCH  10  23
ENDBRANCH   9  10
BRANCH   9  25
HETATM   25  C7  UNL     1       0.237   8.465  80.619  1.00  0.00     0.145 C 
BRANCH  25  26
HETATM   26  C8  UNL     1      -0.950   8.495  79.689  1.00  0.00     0.183 C 
BRANCH  26  27
HETATM   27  O4  UNL     1      -1.261   7.179  79.266  1.00  0.00    -0.399 OA
ATOM     28  H4  UNL     1      -1.242   7.134  78.317  1.00  0.00     0.209 HD
ENDBRANCH  26  27
ENDBRANCH  25  26
ENDBRANCH   9  25
ENDBRANCH   8   9
ENDBRANCH   7   8
ENDBRANCH   1   7
BRANCH   4  29
HETATM   29  C13 UNL     1       6.390   7.104  81.020  1.00  0.00     0.163 C 
BRANCH  29  30
HETATM   30  C14 UNL     1       7.010   6.722  79.747  1.00  0.00    -0.006 A 
HETATM   31  C15 UNL     1       8.010   7.329  79.039  1.00  0.00     0.117 A 
HETATM   32  N5  UNL     1       8.298   6.626  77.938  1.00  0.00    -0.309 N 
HETATM   33  N6  UNL     1       7.496   5.586  77.940  1.00  0.00    -0.303 N 
ATOM     34  H5  UNL     1       9.001   6.854  77.234  1.00  0.00     0.186 HD
HETATM   35  C25 UNL     1       6.696   5.588  79.003  1.00  0.00     0.120 A 
BRANCH  33  36
HETATM   36  C16 UNL     1       7.522   4.545  76.902  1.00  0.00     0.150 C 
BRANCH  36  37
HETATM   37  C17 UNL     1       7.819   3.264  77.675  1.00  0.00     0.052 C 
BRANCH  37  38
HETATM   38  C18 UNL     1       8.921   2.528  76.972  1.00  0.00     0.274 C 
BRANCH  38  39
HETATM   39  N7  UNL     1       8.640   2.265  75.585  1.00  0.00     0.090 N 
HETATM   40  C19 UNL     1       9.785   2.450  74.739  1.00  0.00     0.274 C 
HETATM   41  C20 UNL     1      10.288   1.236  74.041  1.00  0.00     0.060 C 
HETATM   42  C21 UNL     1      10.737   0.164  74.979  1.00  0.00     0.273 C 
HETATM   43  N8  UNL     1       9.630  -0.765  75.129  1.00  0.00     0.086 N 
HETATM   44  C22 UNL     1      10.148  -1.899  75.914  1.00  0.00     0.309 C 
HETATM   45  C23 UNL     1       8.578  -0.189  75.952  1.00  0.00     0.302 C 
HETATM   46  C24 UNL     1       7.955   1.024  75.363  1.00  0.00     0.302 C 
ENDBRANCH  38  39
ENDBRANCH  37  38
ENDBRANCH  36  37
ENDBRANCH  33  36
ENDBRANCH  29  30
ENDBRANCH   4  29
TORSDOF 18
ENDMDL
