MODEL 1
REMARK VINA RESULT: -7.272351613      0.000      0.000
REMARK  10 active torsions:
REMARK  status: ('A' for Active; 'I' for Inactive)
REMARK    1  A    between atoms: N1_1  and  C1_5 
REMARK    2  A    between atoms: C1_5  and  C2_6 
REMARK    3  A    between atoms: C2_6  and  N2_7 
REMARK    4  A    between atoms: N3_10  and  C5_11 
REMARK    5  A    between atoms: C6_14  and  N5_15 
REMARK       I    between atoms: N5_15  and  C7_17 
REMARK    6  A    between atoms: C7_17  and  C8_19 
REMARK    7  A    between atoms: C8_19  and  N6_20 
REMARK    8  A    between atoms: C8_19  and  C9_24 
REMARK    9  A    between atoms: C9_24  and  O2_25 
REMARK   10  A    between atoms: C10_29  and  N8_30 
ROOT
HETATM    1  C5  UNL     1      18.882   8.224  13.983  1.00  0.00     0.710 A 
HETATM    2  N4  UNL     1      17.848   7.531  14.459  1.00  0.00    -0.021 N 
ATOM      3  H4  UNL     1      17.202   7.980  15.110  1.00  0.00     0.203 HD
HETATM    4  C6  UNL     1      17.638   6.247  14.097  1.00  0.00     0.714 A 
HETATM    5  N7  UNL     1      18.505   5.690  13.240  1.00  0.00    -0.021 N 
ATOM      6  H7  UNL     1      18.351   4.721  12.963  1.00  0.00     0.203 HD
HETATM    7  C10 UNL     1      19.581   6.345  12.718  1.00  0.00     0.716 A 
HETATM    8  N12 UNL     1      19.732   7.607  13.113  1.00  0.00    -0.021 N 
ATOM      9  H12 UNL     1      20.523   8.139  12.747  1.00  0.00     0.203 HD
ENDROOT
BRANCH   1  10
HETATM   10  N3  UNL     1      19.117   9.586  14.382  1.00  0.00    -0.207 N 
HETATM   11  C4  UNL     1      20.274   9.902  15.230  1.00  0.00     0.186 C 
HETATM   12  C3  UNL     1      21.109  10.886  14.441  1.00  0.00     0.083 C 
HETATM   13  N2  UNL     1      20.393  12.001  13.970  1.00  0.00    -0.369 N 
HETATM   14  C17 UNL     1      19.097  11.824  13.489  1.00  0.00     0.083 C 
HETATM   15  C16 UNL     1      18.285  10.694  14.010  1.00  0.00     0.186 C 
BRANCH  13  16
HETATM   16  C2  UNL     1      20.828  13.282  14.374  1.00  0.00     0.154 C 
BRANCH  16  17
HETATM   17  C1  UNL     1      21.873  13.237  15.463  1.00  0.00     0.249 C 
BRANCH  17  18
HETATM   18  N1  UNL     1      21.670  14.368  16.342  1.00  0.00    -0.078 N 
ATOM     19  H13 UNL     1      22.073  15.229  15.972  1.00  0.00     0.274 HD
ATOM     20  H12 UNL     1      20.697  14.670  16.372  1.00  0.00     0.274 HD
ATOM     21  H11 UNL     1      22.036  14.131  17.265  1.00  0.00     0.274 HD
ENDBRANCH  17  18
ENDBRANCH  16  17
ENDBRANCH  13  16
ENDBRANCH   1  10
BRANCH   4  22
HETATM   22  N5  UNL     1      16.642   5.547  14.552  1.00  0.00    -0.157 N 
HETATM   23  C7  UNL     1      16.334   4.230  14.211  1.00  0.00     0.268 C 
HETATM   24  O1  UNL     1      15.277   3.897  13.590  1.00  0.00    -0.270 OA
ATOM     25  H5  UNL     1      16.025   6.005  15.224  1.00  0.00     0.187 HD
BRANCH  23  26
HETATM   26  C8  UNL     1      17.276   3.140  14.583  1.00  0.00     0.298 C 
BRANCH  26  27
HETATM   27  N6  UNL     1      17.277   2.089  13.581  1.00  0.00    -0.064 N 
ATOM     28  H63 UNL     1      18.197   1.661  13.486  1.00  0.00     0.275 HD
ATOM     29  H62 UNL     1      16.757   1.270  13.896  1.00  0.00     0.275 HD
ATOM     30  H61 UNL     1      16.929   2.435  12.688  1.00  0.00     0.275 HD
ENDBRANCH  26  27
BRANCH  26  31
HETATM   31  C9  UNL     1      16.932   2.545  15.933  1.00  0.00     0.206 C 
BRANCH  31  32
HETATM   32  O2  UNL     1      17.721   1.451  16.227  1.00  0.00    -0.398 OA
ATOM     33  H2  UNL     1      17.224   0.761  16.649  1.00  0.00     0.209 HD
ENDBRANCH  31  32
ENDBRANCH  26  31
ENDBRANCH  23  26
ENDBRANCH   4  22
BRANCH   7  34
HETATM   34  N8  UNL     1      20.425   5.637  11.812  1.00  0.00    -0.150 N 
HETATM   35  C11 UNL     1      21.230   6.451  10.870  1.00  0.00     0.178 C 
HETATM   36  C12 UNL     1      22.302   5.667  10.198  1.00  0.00     0.139 A 
HETATM   37  C13 UNL     1      23.685   6.223  10.176  1.00  0.00     0.133 A 
HETATM   38  N9  UNL     1      22.737   4.608  11.140  1.00  0.00    -0.252 N 
HETATM   39  C14 UNL     1      24.027   5.198  11.217  1.00  0.00     0.240 A 
HETATM   40  O3  UNL     1      25.068   4.950  11.905  1.00  0.00    -0.272 OA
HETATM   41  N10 UNL     1      21.697   3.686  11.399  1.00  0.00    -0.268 N 
HETATM   42  C15 UNL     1      20.540   4.230  11.734  1.00  0.00     0.224 C 
ATOM     43  H10 UNL     1      21.829   2.677  11.332  1.00  0.00     0.190 HD
HETATM   44  N11 UNL     1      19.411   3.432  11.983  1.00  0.00    -0.061 NA
ENDBRANCH   7  34
TORSDOF 10
ENDMDL
MODEL 2
REMARK VINA RESULT: -7.185042764      4.570      7.629
REMARK  10 active torsions:
REMARK  status: ('A' for Active; 'I' for Inactive)
REMARK    1  A    between atoms: N1_1  and  C1_5 
REMARK    2  A    between atoms: C1_5  and  C2_6 
REMARK    3  A    between atoms: C2_6  and  N2_7 
REMARK    4  A    between atoms: N3_10  and  C5_11 
REMARK    5  A    between atoms: C6_14  and  N5_15 
REMARK       I    between atoms: N5_15  and  C7_17 
REMARK    6  A    between atoms: C7_17  and  C8_19 
REMARK    7  A    between atoms: C8_19  and  N6_20 
REMARK    8  A    between atoms: C8_19  and  C9_24 
REMARK    9  A    between atoms: C9_24  and  O2_25 
REMARK   10  A    between atoms: C10_29  and  N8_30 
ROOT
HETATM    1  C5  UNL     1      18.291   4.671  13.012  1.00  0.00     0.710 A 
HETATM    2  N4  UNL     1      19.528   4.203  12.852  1.00  0.00    -0.021 N 
ATOM      3  H4  UNL     1      19.939   3.619  13.580  1.00  0.00     0.203 HD
HETATM    4  C6  UNL     1      20.247   4.488  11.745  1.00  0.00     0.714 A 
HETATM    5  N7  UNL     1      19.674   5.257  10.809  1.00  0.00    -0.021 N 
ATOM      6  H7  UNL     1      20.213   5.475   9.971  1.00  0.00     0.203 HD
HETATM    7  C10 UNL     1      18.413   5.766  10.913  1.00  0.00     0.716 A 
HETATM    8  N12 UNL     1      17.757   5.449  12.026  1.00  0.00    -0.021 N 
ATOM      9  H12 UNL     1      16.808   5.806  12.149  1.00  0.00     0.203 HD
ENDROOT
BRANCH   1  10
HETATM   10  N3  UNL     1      17.530   4.384  14.199  1.00  0.00    -0.207 N 
HETATM   11  C4  UNL     1      16.177   4.937  14.343  1.00  0.00     0.186 C 
HETATM   12  C3  UNL     1      15.257   3.746  14.494  1.00  0.00     0.083 C 
HETATM   13  N2  UNL     1      15.642   2.844  15.503  1.00  0.00    -0.369 N 
HETATM   14  C17 UNL     1      16.995   2.559  15.680  1.00  0.00     0.083 C 
HETATM   15  C16 UNL     1      18.003   3.580  15.289  1.00  0.00     0.186 C 
BRANCH  13  16
HETATM   16  C2  UNL     1      14.726   2.591  16.546  1.00  0.00     0.154 C 
BRANCH  16  17
HETATM   17  C1  UNL     1      15.355   1.905  17.735  1.00  0.00     0.249 C 
BRANCH  17  18
HETATM   18  N1  UNL     1      15.364   0.479  17.493  1.00  0.00    -0.078 N 
ATOM     19  H13 UNL     1      14.424   0.090  17.411  1.00  0.00     0.274 HD
ATOM     20  H12 UNL     1      15.694   0.244  16.557  1.00  0.00     0.274 HD
ATOM     21  H11 UNL     1      15.912   0.029  18.226  1.00  0.00     0.274 HD
ENDBRANCH  17  18
ENDBRANCH  16  17
ENDBRANCH  13  16
ENDBRANCH   1  10
BRANCH   4  22
HETATM   22  N5  UNL     1      21.458   4.051  11.567  1.00  0.00    -0.157 N 
HETATM   23  C7  UNL     1      22.447   4.652  10.789  1.00  0.00     0.268 C 
HETATM   24  O1  UNL     1      22.931   4.122   9.740  1.00  0.00    -0.270 OA
ATOM     25  H5  UNL     1      21.709   3.184  12.043  1.00  0.00     0.187 HD
BRANCH  23  26
HETATM   26  C8  UNL     1      22.980   5.983  11.186  1.00  0.00     0.298 C 
BRANCH  26  27
HETATM   27  N6  UNL     1      23.115   6.854  10.033  1.00  0.00    -0.064 N 
ATOM     28  H63 UNL     1      23.864   6.545   9.413  1.00  0.00     0.275 HD
ATOM     29  H62 UNL     1      22.330   6.751   9.390  1.00  0.00     0.275 HD
ATOM     30  H61 UNL     1      23.241   7.824  10.320  1.00  0.00     0.275 HD
ENDBRANCH  26  27
BRANCH  26  31
HETATM   31  C9  UNL     1      24.322   5.859  11.879  1.00  0.00     0.206 C 
BRANCH  31  32
HETATM   32  O2  UNL     1      24.602   4.552  12.225  1.00  0.00    -0.398 OA
ATOM     33  H2  UNL     1      24.546   4.416  13.164  1.00  0.00     0.209 HD
ENDBRANCH  31  32
ENDBRANCH  26  31
ENDBRANCH  23  26
ENDBRANCH   4  22
BRANCH   7  34
HETATM   34  N8  UNL     1      17.921   6.568   9.842  1.00  0.00    -0.150 N 
HETATM   35  C11 UNL     1      18.888   7.480   9.186  1.00  0.00     0.178 C 
HETATM   36  C12 UNL     1      18.385   8.029   7.897  1.00  0.00     0.139 A 
HETATM   37  C13 UNL     1      19.273   7.966   6.701  1.00  0.00     0.133 A 
HETATM   38  N9  UNL     1      17.496   7.007   7.295  1.00  0.00    -0.252 N 
HETATM   39  C14 UNL     1      18.396   6.855   6.207  1.00  0.00     0.240 A 
HETATM   40  O3  UNL     1      18.437   6.075   5.202  1.00  0.00    -0.272 OA
HETATM   41  N10 UNL     1      16.346   6.788   8.090  1.00  0.00    -0.268 N 
HETATM   42  C15 UNL     1      16.588   6.571   9.371  1.00  0.00     0.224 C 
ATOM     43  H10 UNL     1      15.402   6.797   7.703  1.00  0.00     0.190 HD
HETATM   44  N11 UNL     1      15.535   6.375  10.281  1.00  0.00    -0.061 NA
ENDBRANCH   7  34
TORSDOF 10
ENDMDL
MODEL 3
REMARK VINA RESULT: -7.170657530      1.479      5.642
REMARK  10 active torsions:
REMARK  status: ('A' for Active; 'I' for Inactive)
REMARK    1  A    between atoms: N1_1  and  C1_5 
REMARK    2  A    between atoms: C1_5  and  C2_6 
REMARK    3  A    between atoms: C2_6  and  N2_7 
REMARK    4  A    between atoms: N3_10  and  C5_11 
REMARK    5  A    between atoms: C6_14  and  N5_15 
REMARK       I    between atoms: N5_15  and  C7_17 
REMARK    6  A    between atoms: C7_17  and  C8_19 
REMARK    7  A    between atoms: C8_19  and  N6_20 
REMARK    8  A    between atoms: C8_19  and  C9_24 
REMARK    9  A    between atoms: C9_24  and  O2_25 
REMARK   10  A    between atoms: C10_29  and  N8_30 
ROOT
HETATM    1  C5  UNL     1      19.562   7.758  13.554  1.00  0.00     0.710 A 
HETATM    2  N4  UNL     1      20.624   7.265  12.919  1.00  0.00    -0.021 N 
ATOM      3  H4  UNL     1      21.426   7.870  12.740  1.00  0.00     0.203 HD
HETATM    4  C6  UNL     1      20.660   5.979  12.509  1.00  0.00     0.714 A 
HETATM    5  N7  UNL     1      19.591   5.212  12.762  1.00  0.00    -0.021 N 
ATOM      6  H7  UNL     1      19.614   4.240  12.454  1.00  0.00     0.203 HD
HETATM    7  C10 UNL     1      18.475   5.656  13.406  1.00  0.00     0.716 A 
HETATM    8  N12 UNL     1      18.501   6.932  13.786  1.00  0.00    -0.021 N 
ATOM      9  H12 UNL     1      17.688   7.310  14.273  1.00  0.00     0.203 HD
ENDROOT
BRANCH   1  10
HETATM   10  N3  UNL     1      19.514   9.133  13.975  1.00  0.00    -0.207 N 
HETATM   11  C4  UNL     1      20.259   9.549  15.171  1.00  0.00     0.186 C 
HETATM   12  C3  UNL     1      21.227  10.613  14.706  1.00  0.00     0.083 C 
HETATM   13  N2  UNL     1      20.629  11.661  13.982  1.00  0.00    -0.369 N 
HETATM   14  C17 UNL     1      19.611  11.367  13.077  1.00  0.00     0.083 C 
HETATM   15  C16 UNL     1      18.773  10.161  13.303  1.00  0.00     0.186 C 
BRANCH  13  16
HETATM   16  C2  UNL     1      20.772  12.973  14.482  1.00  0.00     0.154 C 
BRANCH  16  17
HETATM   17  C1  UNL     1      21.975  13.138  15.380  1.00  0.00     0.249 C 
BRANCH  17  18
HETATM   18  N1  UNL     1      21.688  14.174  16.348  1.00  0.00    -0.078 N 
ATOM     19  H13 UNL     1      20.780  14.612  16.195  1.00  0.00     0.274 HD
ATOM     20  H12 UNL     1      21.509  13.800  17.279  1.00  0.00     0.274 HD
ATOM     21  H11 UNL     1      22.454  14.849  16.338  1.00  0.00     0.274 HD
ENDBRANCH  17  18
ENDBRANCH  16  17
ENDBRANCH  13  16
ENDBRANCH   1  10
BRANCH   4  22
HETATM   22  N5  UNL     1      21.681   5.474  11.882  1.00  0.00    -0.157 N 
HETATM   23  C7  UNL     1      22.767   6.183  11.367  1.00  0.00     0.268 C 
HETATM   24  O1  UNL     1      23.027   6.262  10.126  1.00  0.00    -0.270 OA
ATOM     25  H5  UNL     1      21.690   4.462  11.753  1.00  0.00     0.187 HD
BRANCH  23  26
HETATM   26  C8  UNL     1      23.684   6.894  12.299  1.00  0.00     0.298 C 
BRANCH  26  27
HETATM   27  N6  UNL     1      24.137   8.149  11.728  1.00  0.00    -0.064 N 
ATOM     28  H63 UNL     1      23.662   8.355  10.850  1.00  0.00     0.275 HD
ATOM     29  H62 UNL     1      23.813   8.948  12.271  1.00  0.00     0.275 HD
ATOM     30  H61 UNL     1      25.151   8.155  11.617  1.00  0.00     0.275 HD
ENDBRANCH  26  27
BRANCH  26  31
HETATM   31  C9  UNL     1      24.886   6.042  12.652  1.00  0.00     0.206 C 
BRANCH  31  32
HETATM   32  O2  UNL     1      24.730   4.736  12.231  1.00  0.00    -0.398 OA
ATOM     33  H2  UNL     1      25.460   4.190  12.499  1.00  0.00     0.209 HD
ENDBRANCH  31  32
ENDBRANCH  26  31
ENDBRANCH  23  26
ENDBRANCH   4  22
BRANCH   7  34
HETATM   34  N8  UNL     1      17.407   4.735  13.616  1.00  0.00    -0.150 N 
HETATM   35  C11 UNL     1      17.450   3.470  12.844  1.00  0.00     0.178 C 
HETATM   36  C12 UNL     1      16.495   2.448  13.352  1.00  0.00     0.139 A 
HETATM   37  C13 UNL     1      16.994   1.064  13.594  1.00  0.00     0.133 A 
HETATM   38  N9  UNL     1      16.356   2.657  14.814  1.00  0.00    -0.252 N 
HETATM   39  C14 UNL     1      16.939   1.385  15.057  1.00  0.00     0.240 A 
HETATM   40  O3  UNL     1      17.281   0.761  16.113  1.00  0.00    -0.272 OA
HETATM   41  N10 UNL     1      15.764   3.908  15.104  1.00  0.00    -0.268 N 
HETATM   42  C15 UNL     1      16.312   4.940  14.486  1.00  0.00     0.224 C 
ATOM     43  H10 UNL     1      14.975   4.007  15.743  1.00  0.00     0.190 HD
HETATM   44  N11 UNL     1      15.799   6.237  14.655  1.00  0.00    -0.061 NA
ENDBRANCH   7  34
TORSDOF 10
ENDMDL
MODEL 4
REMARK VINA RESULT: -7.134306107      3.002      6.541
REMARK  10 active torsions:
REMARK  status: ('A' for Active; 'I' for Inactive)
REMARK    1  A    between atoms: N1_1  and  C1_5 
REMARK    2  A    between atoms: C1_5  and  C2_6 
REMARK    3  A    between atoms: C2_6  and  N2_7 
REMARK    4  A    between atoms: N3_10  and  C5_11 
REMARK    5  A    between atoms: C6_14  and  N5_15 
REMARK       I    between atoms: N5_15  and  C7_17 
REMARK    6  A    between atoms: C7_17  and  C8_19 
REMARK    7  A    between atoms: C8_19  and  N6_20 
REMARK    8  A    between atoms: C8_19  and  C9_24 
REMARK    9  A    between atoms: C9_24  and  O2_25 
REMARK   10  A    between atoms: C10_29  and  N8_30 
ROOT
HETATM    1  C5  UNL     1      19.209   5.045  11.247  1.00  0.00     0.710 A 
HETATM    2  N4  UNL     1      18.472   3.969  11.521  1.00  0.00    -0.021 N 
ATOM      3  H4  UNL     1      18.828   3.045  11.278  1.00  0.00     0.203 HD
HETATM    4  C6  UNL     1      17.264   4.080  12.114  1.00  0.00     0.714 A 
HETATM    5  N7  UNL     1      16.829   5.310  12.421  1.00  0.00    -0.021 N 
ATOM      6  H7  UNL     1      15.918   5.399  12.869  1.00  0.00     0.203 HD
HETATM    7  C10 UNL     1      17.535   6.448  12.167  1.00  0.00     0.716 A 
HETATM    8  N12 UNL     1      18.717   6.273  11.583  1.00  0.00    -0.021 N 
ATOM      9  H12 UNL     1      19.283   7.096  11.375  1.00  0.00     0.203 HD
ENDROOT
BRANCH   1  10
HETATM   10  N3  UNL     1      20.489   4.930  10.599  1.00  0.00    -0.207 N 
HETATM   11  C4  UNL     1      20.689   5.544   9.280  1.00  0.00     0.186 C 
HETATM   12  C3  UNL     1      21.819   6.534   9.450  1.00  0.00     0.083 C 
HETATM   13  N2  UNL     1      22.977   5.992  10.037  1.00  0.00    -0.369 N 
HETATM   14  C17 UNL     1      22.846   5.076  11.078  1.00  0.00     0.083 C 
HETATM   15  C16 UNL     1      21.618   4.241  11.153  1.00  0.00     0.186 C 
BRANCH  13  16
HETATM   16  C2  UNL     1      24.181   6.060   9.304  1.00  0.00     0.154 C 
BRANCH  16  17
HETATM   17  C1  UNL     1      24.701   4.704   8.889  1.00  0.00     0.249 C 
BRANCH  17  18
HETATM   18  N1  UNL     1      24.031   4.308   7.670  1.00  0.00    -0.078 N 
ATOM     19  H13 UNL     1      23.133   4.777   7.546  1.00  0.00     0.274 HD
ATOM     20  H12 UNL     1      24.492   4.669   6.835  1.00  0.00     0.274 HD
ATOM     21  H11 UNL     1      23.946   3.291   7.662  1.00  0.00     0.274 HD
ENDBRANCH  17  18
ENDBRANCH  16  17
ENDBRANCH  13  16
ENDBRANCH   1  10
BRANCH   4  22
HETATM   22  N5  UNL     1      16.522   3.048  12.385  1.00  0.00    -0.157 N 
HETATM   23  C7  UNL     1      16.733   2.127  13.411  1.00  0.00     0.268 C 
HETATM   24  O1  UNL     1      17.007   0.903  13.207  1.00  0.00    -0.270 OA
ATOM     25  H5  UNL     1      15.707   2.897  11.790  1.00  0.00     0.187 HD
BRANCH  23  26
HETATM   26  C8  UNL     1      16.636   2.575  14.826  1.00  0.00     0.298 C 
BRANCH  26  27
HETATM   27  N6  UNL     1      17.830   3.295  15.227  1.00  0.00    -0.064 N 
ATOM     28  H63 UNL     1      17.611   4.065  15.859  1.00  0.00     0.275 HD
ATOM     29  H62 UNL     1      18.411   2.741  15.855  1.00  0.00     0.275 HD
ATOM     30  H61 UNL     1      18.355   3.614  14.413  1.00  0.00     0.275 HD
ENDBRANCH  26  27
BRANCH  26  31
HETATM   31  C9  UNL     1      16.418   1.405  15.765  1.00  0.00     0.206 C 
BRANCH  31  32
HETATM   32  O2  UNL     1      17.610   0.809  16.125  1.00  0.00    -0.398 OA
ATOM     33  H2  UNL     1      18.179   1.411  16.592  1.00  0.00     0.209 HD
ENDBRANCH  31  32
ENDBRANCH  26  31
ENDBRANCH  23  26
ENDBRANCH   4  22
BRANCH   7  34
HETATM   34  N8  UNL     1      16.959   7.696  12.548  1.00  0.00    -0.150 N 
HETATM   35  C11 UNL     1      17.686   8.487  13.570  1.00  0.00     0.178 C 
HETATM   36  C12 UNL     1      17.201   9.891  13.669  1.00  0.00     0.139 A 
HETATM   37  C13 UNL     1      18.204  10.994  13.655  1.00  0.00     0.133 A 
HETATM   38  N9  UNL     1      16.731  10.295  12.323  1.00  0.00    -0.252 N 
HETATM   39  C14 UNL     1      17.758  11.273  12.251  1.00  0.00     0.240 A 
HETATM   40  O3  UNL     1      18.147  12.075  11.342  1.00  0.00    -0.272 OA
HETATM   41  N10 UNL     1      15.610   9.534  11.915  1.00  0.00    -0.268 N 
HETATM   42  C15 UNL     1      15.750   8.226  12.041  1.00  0.00     0.224 C 
ATOM     43  H10 UNL     1      14.759   9.962  11.552  1.00  0.00     0.190 HD
HETATM   44  N11 UNL     1      14.702   7.353  11.707  1.00  0.00    -0.061 NA
ENDBRANCH   7  34
TORSDOF 10
ENDMDL
MODEL 5
REMARK VINA RESULT: -7.109643596      1.621      5.941
REMARK  10 active torsions:
REMARK  status: ('A' for Active; 'I' for Inactive)
REMARK    1  A    between atoms: N1_1  and  C1_5 
REMARK    2  A    between atoms: C1_5  and  C2_6 
REMARK    3  A    between atoms: C2_6  and  N2_7 
REMARK    4  A    between atoms: N3_10  and  C5_11 
REMARK    5  A    between atoms: C6_14  and  N5_15 
REMARK       I    between atoms: N5_15  and  C7_17 
REMARK    6  A    between atoms: C7_17  and  C8_19 
REMARK    7  A    between atoms: C8_19  and  N6_20 
REMARK    8  A    between atoms: C8_19  and  C9_24 
REMARK    9  A    between atoms: C9_24  and  O2_25 
REMARK   10  A    between atoms: C10_29  and  N8_30 
ROOT
HETATM    1  C5  UNL     1      19.019   7.223  13.897  1.00  0.00     0.710 A 
HETATM    2  N4  UNL     1      20.046   6.662  13.261  1.00  0.00    -0.021 N 
ATOM      3  H4  UNL     1      20.851   7.235  13.007  1.00  0.00     0.203 HD
HETATM    4  C6  UNL     1      20.042   5.348  12.946  1.00  0.00     0.714 A 
HETATM    5  N7  UNL     1      18.970   4.625  13.297  1.00  0.00    -0.021 N 
ATOM      6  H7  UNL     1      18.963   3.633  13.062  1.00  0.00     0.203 HD
HETATM    7  C10 UNL     1      17.889   5.140  13.949  1.00  0.00     0.716 A 
HETATM    8  N12 UNL     1      17.954   6.439  14.231  1.00  0.00    -0.021 N 
ATOM      9  H12 UNL     1      17.168   6.869  14.720  1.00  0.00     0.203 HD
ENDROOT
BRANCH   1  10
HETATM   10  N3  UNL     1      19.014   8.626  14.217  1.00  0.00    -0.207 N 
HETATM   11  C4  UNL     1      20.114   9.192  15.008  1.00  0.00     0.186 C 
HETATM   12  C3  UNL     1      20.740  10.262  14.143  1.00  0.00     0.083 C 
HETATM   13  N2  UNL     1      19.824  11.203  13.637  1.00  0.00    -0.369 N 
HETATM   14  C17 UNL     1      18.571  10.770  13.210  1.00  0.00     0.083 C 
HETATM   15  C16 UNL     1      17.987   9.544  13.815  1.00  0.00     0.186 C 
BRANCH  13  16
HETATM   16  C2  UNL     1      20.029  12.561  13.960  1.00  0.00     0.154 C 
BRANCH  16  17
HETATM   17  C1  UNL     1      21.345  12.813  14.658  1.00  0.00     0.249 C 
BRANCH  17  18
HETATM   18  N1  UNL     1      21.242  14.050  15.400  1.00  0.00    -0.078 N 
ATOM     19  H13 UNL     1      21.948  14.732  15.124  1.00  0.00     0.274 HD
ATOM     20  H12 UNL     1      20.417  14.592  15.145  1.00  0.00     0.274 HD
ATOM     21  H11 UNL     1      21.275  13.835  16.397  1.00  0.00     0.274 HD
ENDBRANCH  17  18
ENDBRANCH  16  17
ENDBRANCH  13  16
ENDBRANCH   1  10
BRANCH   4  22
HETATM   22  N5  UNL     1      21.028   4.778  12.320  1.00  0.00    -0.157 N 
HETATM   23  C7  UNL     1      21.849   5.369  11.360  1.00  0.00     0.268 C 
HETATM   24  O1  UNL     1      21.882   5.001  10.144  1.00  0.00    -0.270 OA
ATOM     25  H5  UNL     1      21.220   3.803  12.552  1.00  0.00     0.187 HD
BRANCH  23  26
HETATM   26  C8  UNL     1      22.743   6.491  11.754  1.00  0.00     0.298 C 
BRANCH  26  27
HETATM   27  N6  UNL     1      22.803   7.499  10.712  1.00  0.00    -0.064 N 
ATOM     28  H63 UNL     1      23.634   8.083  10.801  1.00  0.00     0.275 HD
ATOM     29  H62 UNL     1      23.001   7.087   9.800  1.00  0.00     0.275 HD
ATOM     30  H61 UNL     1      21.951   8.059  10.694  1.00  0.00     0.275 HD
ENDBRANCH  26  27
BRANCH  26  31
HETATM   31  C9  UNL     1      24.145   6.003  12.060  1.00  0.00     0.206 C 
BRANCH  31  32
HETATM   32  O2  UNL     1      24.220   4.625  12.055  1.00  0.00    -0.398 OA
ATOM     33  H2  UNL     1      24.873   4.310  11.441  1.00  0.00     0.209 HD
ENDBRANCH  31  32
ENDBRANCH  26  31
ENDBRANCH  23  26
ENDBRANCH   4  22
BRANCH   7  34
HETATM   34  N8  UNL     1      16.814   4.259  14.268  1.00  0.00    -0.150 N 
HETATM   35  C11 UNL     1      17.122   2.809  14.305  1.00  0.00     0.178 C 
HETATM   36  C12 UNL     1      16.048   2.005  14.951  1.00  0.00     0.139 A 
HETATM   37  C13 UNL     1      16.429   1.019  16.002  1.00  0.00     0.133 A 
HETATM   38  N9  UNL     1      15.409   2.860  15.979  1.00  0.00    -0.252 N 
HETATM   39  C14 UNL     1      15.868   1.987  17.000  1.00  0.00     0.240 A 
HETATM   40  O3  UNL     1      15.820   2.017  18.272  1.00  0.00    -0.272 OA
HETATM   41  N10 UNL     1      14.754   3.971  15.396  1.00  0.00    -0.268 N 
HETATM   42  C15 UNL     1      15.484   4.658  14.536  1.00  0.00     0.224 C 
ATOM     43  H10 UNL     1      13.792   4.222  15.623  1.00  0.00     0.190 HD
HETATM   44  N11 UNL     1      14.947   5.764  13.855  1.00  0.00    -0.061 NA
ENDBRANCH   7  34
TORSDOF 10
ENDMDL
