MODEL 1
REMARK VINA RESULT: -6.458234644      0.000      0.000
REMARK  10 active torsions:
REMARK  status: ('A' for Active; 'I' for Inactive)
REMARK    1  A    between atoms: C2_3  and  N2_4 
REMARK    2  A    between atoms: N2_4  and  N3_6 
REMARK    3  A    between atoms: N6_21  and  C9_22 
REMARK    4  A    between atoms: C9_22  and  C10_23 
REMARK    5  A    between atoms: C10_23  and  C11_24 
REMARK    6  A    between atoms: C11_24  and  N7_25 
REMARK       I    between atoms: N8_28  and  C14_29 
REMARK    7  A    between atoms: C14_29  and  C15_31 
REMARK    8  A    between atoms: C15_31  and  O5_32 
REMARK    9  A    between atoms: C15_31  and  C16_34 
REMARK   10  A    between atoms: C16_34  and  O6_35 
ROOT
HETATM    1  C1  UNL     1      20.166   4.975   9.886  1.00  0.00     0.161 C 
HETATM    2  N1  UNL     1      19.237   6.024  10.153  1.00  0.00    -0.297 N 
HETATM    3  C2  UNL     1      17.956   5.846   9.809  1.00  0.00     0.194 C 
HETATM    4  C3  UNL     1      16.868   6.310  10.580  1.00  0.00     0.292 C 
HETATM    5  O1  UNL     1      15.857   5.604  10.487  1.00  0.00    -0.264 OA
HETATM    6  N4  UNL     1      16.823   7.394  11.369  1.00  0.00    -0.304 N 
ATOM      7  H4  UNL     1      15.885   7.753  11.548  1.00  0.00     0.171 HD
HETATM    8  C4  UNL     1      17.807   8.081  11.960  1.00  0.00     0.147 A 
HETATM    9  C5  UNL     1      19.168   7.966  11.680  1.00  0.00     0.152 A 
HETATM   10  C6  UNL     1      19.797   7.120  10.762  1.00  0.00     0.280 C 
HETATM   11  O2  UNL     1      20.979   7.390  10.476  1.00  0.00    -0.265 OA
HETATM   12  N5  UNL     1      19.844   8.832  12.465  1.00  0.00    -0.296 N 
HETATM   13  C7  UNL     1      21.301   9.002  12.458  1.00  0.00     0.161 C 
HETATM   14  C8  UNL     1      18.934   9.448  13.194  1.00  0.00     0.330 A 
HETATM   15  O3  UNL     1      19.201  10.335  14.052  1.00  0.00    -0.246 OA
HETATM   16  N6  UNL     1      17.681   9.015  12.914  1.00  0.00    -0.283 N 
ENDROOT
BRANCH  16  17
HETATM   17  C9  UNL     1      16.448   9.434  13.510  1.00  0.00     0.137 C 
BRANCH  17  18
HETATM   18  C10 UNL     1      15.740   8.427  14.342  1.00  0.00     0.050 C 
BRANCH  18  19
HETATM   19  C11 UNL     1      16.581   7.646  15.280  1.00  0.00     0.274 C 
BRANCH  19  20
HETATM   20  N7  UNL     1      16.748   6.265  14.910  1.00  0.00     0.091 N 
HETATM   21  C12 UNL     1      15.680   5.843  14.060  1.00  0.00     0.292 C 
HETATM   22  C13 UNL     1      15.696   4.331  13.836  1.00  0.00     0.156 C 
HETATM   23  N8  UNL     1      17.024   3.906  13.504  1.00  0.00    -0.347 N 
HETATM   24  C14 UNL     1      17.285   2.983  12.457  1.00  0.00     0.250 C 
HETATM   25  C17 UNL     1      18.144   4.427  14.251  1.00  0.00     0.156 C 
HETATM   26  O4  UNL     1      18.509   2.667  12.186  1.00  0.00    -0.270 OA
HETATM   27  C18 UNL     1      18.055   5.917  14.473  1.00  0.00     0.292 C 
BRANCH  24  28
HETATM   28  C15 UNL     1      16.289   2.322  11.608  1.00  0.00     0.233 C 
BRANCH  28  29
HETATM   29  O5  UNL     1      16.513   2.694  10.252  1.00  0.00    -0.384 OA
ATOM     30  H5  UNL     1      15.689   2.660   9.781  1.00  0.00     0.210 HD
ENDBRANCH  28  29
BRANCH  28  31
HETATM   31  C16 UNL     1      16.530   0.804  11.593  1.00  0.00     0.205 C 
BRANCH  31  32
HETATM   32  O6  UNL     1      16.916   0.305  12.815  1.00  0.00    -0.398 OA
ATOM     33  H6  UNL     1      16.650  -0.596  12.952  1.00  0.00     0.209 HD
ENDBRANCH  31  32
ENDBRANCH  28  31
ENDBRANCH  24  28
ENDBRANCH  19  20
ENDBRANCH  18  19
ENDBRANCH  17  18
ENDBRANCH  16  17
BRANCH   3  34
HETATM   34  N2  UNL     1      17.702   5.261   8.739  1.00  0.00    -0.287 N 
ATOM     35  H2  UNL     1      17.859   4.253   8.741  1.00  0.00     0.188 HD
BRANCH  34  36
HETATM   36  N3  UNL     1      17.248   5.777   7.576  1.00  0.00    -0.343 N 
ATOM     37  H32 UNL     1      16.402   6.340   7.667  1.00  0.00     0.176 HD
ATOM     38  H31 UNL     1      17.634   5.679   6.637  1.00  0.00     0.176 HD
ENDBRANCH  34  36
ENDBRANCH   3  34
TORSDOF 10
ENDMDL
MODEL 2
REMARK VINA RESULT: -6.104689636      2.487      5.851
REMARK  10 active torsions:
REMARK  status: ('A' for Active; 'I' for Inactive)
REMARK    1  A    between atoms: C2_3  and  N2_4 
REMARK    2  A    between atoms: N2_4  and  N3_6 
REMARK    3  A    between atoms: N6_21  and  C9_22 
REMARK    4  A    between atoms: C9_22  and  C10_23 
REMARK    5  A    between atoms: C10_23  and  C11_24 
REMARK    6  A    between atoms: C11_24  and  N7_25 
REMARK       I    between atoms: N8_28  and  C14_29 
REMARK    7  A    between atoms: C14_29  and  C15_31 
REMARK    8  A    between atoms: C15_31  and  O5_32 
REMARK    9  A    between atoms: C15_31  and  C16_34 
REMARK   10  A    between atoms: C16_34  and  O6_35 
ROOT
HETATM    1  C1  UNL     1      16.979   0.372  12.608  1.00  0.00     0.161 C 
HETATM    2  N1  UNL     1      17.068   1.686  13.157  1.00  0.00    -0.297 N 
HETATM    3  C2  UNL     1      17.042   1.825  14.488  1.00  0.00     0.194 C 
HETATM    4  C3  UNL     1      17.815   2.777  15.189  1.00  0.00     0.292 C 
HETATM    5  O1  UNL     1      18.140   2.412  16.324  1.00  0.00    -0.264 OA
HETATM    6  N4  UNL     1      18.213   3.985  14.764  1.00  0.00    -0.304 N 
ATOM      7  H4  UNL     1      18.439   4.645  15.508  1.00  0.00     0.171 HD
HETATM    8  C4  UNL     1      18.361   4.466  13.524  1.00  0.00     0.147 A 
HETATM    9  C5  UNL     1      17.883   3.877  12.355  1.00  0.00     0.152 A 
HETATM   10  C6  UNL     1      17.182   2.676  12.213  1.00  0.00     0.280 C 
HETATM   11  O2  UNL     1      16.610   2.492  11.121  1.00  0.00    -0.265 OA
HETATM   12  N5  UNL     1      18.212   4.664  11.309  1.00  0.00    -0.296 N 
HETATM   13  C7  UNL     1      17.881   4.376   9.910  1.00  0.00     0.161 C 
HETATM   14  C8  UNL     1      18.864   5.691  11.819  1.00  0.00     0.330 A 
HETATM   15  O3  UNL     1      19.330   6.641  11.131  1.00  0.00    -0.246 OA
HETATM   16  N6  UNL     1      18.975   5.604  13.166  1.00  0.00    -0.283 N 
ENDROOT
BRANCH  16  17
HETATM   17  C9  UNL     1      19.625   6.515  14.060  1.00  0.00     0.137 C 
BRANCH  17  18
HETATM   18  C10 UNL     1      19.039   7.876  14.158  1.00  0.00     0.050 C 
BRANCH  18  19
HETATM   19  C11 UNL     1      17.660   7.957  14.695  1.00  0.00     0.274 C 
BRANCH  19  20
HETATM   20  N7  UNL     1      16.649   8.168  13.691  1.00  0.00     0.091 N 
HETATM   21  C12 UNL     1      17.192   8.880  12.578  1.00  0.00     0.292 C 
HETATM   22  C13 UNL     1      16.103   9.323  11.602  1.00  0.00     0.156 C 
HETATM   23  N8  UNL     1      15.222   8.225  11.330  1.00  0.00    -0.347 N 
HETATM   24  C14 UNL     1      14.774   7.920  10.018  1.00  0.00     0.250 C 
HETATM   25  C17 UNL     1      14.768   7.392  12.419  1.00  0.00     0.156 C 
HETATM   26  O4  UNL     1      14.008   6.894   9.836  1.00  0.00    -0.270 OA
HETATM   27  C18 UNL     1      15.879   7.017  13.368  1.00  0.00     0.292 C 
BRANCH  24  28
HETATM   28  C15 UNL     1      15.095   8.657   8.792  1.00  0.00     0.233 C 
BRANCH  28  29
HETATM   29  O5  UNL     1      15.400   7.729   7.757  1.00  0.00    -0.384 OA
ATOM     30  H5  UNL     1      15.938   8.160   7.103  1.00  0.00     0.210 HD
ENDBRANCH  28  29
BRANCH  28  31
HETATM   31  C16 UNL     1      13.841   9.369   8.258  1.00  0.00     0.205 C 
BRANCH  31  32
HETATM   32  O6  UNL     1      12.807   8.506   7.977  1.00  0.00    -0.398 OA
ATOM     33  H6  UNL     1      11.994   8.746   8.404  1.00  0.00     0.209 HD
ENDBRANCH  31  32
ENDBRANCH  28  31
ENDBRANCH  24  28
ENDBRANCH  19  20
ENDBRANCH  18  19
ENDBRANCH  17  18
ENDBRANCH  16  17
BRANCH   3  34
HETATM   34  N2  UNL     1      16.281   1.094  15.149  1.00  0.00    -0.287 N 
ATOM     35  H2  UNL     1      16.235   0.120  14.850  1.00  0.00     0.188 HD
BRANCH  34  36
HETATM   36  N3  UNL     1      15.506   1.413  16.209  1.00  0.00    -0.343 N 
ATOM     37  H32 UNL     1      16.021   1.563  17.077  1.00  0.00     0.176 HD
ATOM     38  H31 UNL     1      14.492   1.521  16.253  1.00  0.00     0.176 HD
ENDBRANCH  34  36
ENDBRANCH   3  34
TORSDOF 10
ENDMDL
MODEL 3
REMARK VINA RESULT: -6.007506186      2.292      4.927
REMARK  10 active torsions:
REMARK  status: ('A' for Active; 'I' for Inactive)
REMARK    1  A    between atoms: C2_3  and  N2_4 
REMARK    2  A    between atoms: N2_4  and  N3_6 
REMARK    3  A    between atoms: N6_21  and  C9_22 
REMARK    4  A    between atoms: C9_22  and  C10_23 
REMARK    5  A    between atoms: C10_23  and  C11_24 
REMARK    6  A    between atoms: C11_24  and  N7_25 
REMARK       I    between atoms: N8_28  and  C14_29 
REMARK    7  A    between atoms: C14_29  and  C15_31 
REMARK    8  A    between atoms: C15_31  and  O5_32 
REMARK    9  A    between atoms: C15_31  and  C16_34 
REMARK   10  A    between atoms: C16_34  and  O6_35 
ROOT
HETATM    1  C1  UNL     1      19.923   9.052  15.253  1.00  0.00     0.161 C 
HETATM    2  N1  UNL     1      19.710   8.820  13.861  1.00  0.00    -0.297 N 
HETATM    3  C2  UNL     1      20.770   8.551  13.089  1.00  0.00     0.194 C 
HETATM    4  C3  UNL     1      20.744   7.625  12.022  1.00  0.00     0.292 C 
HETATM    5  O1  UNL     1      21.828   7.066  11.825  1.00  0.00    -0.264 OA
HETATM    6  N4  UNL     1      19.705   7.307  11.236  1.00  0.00    -0.304 N 
ATOM      7  H4  UNL     1      19.961   6.911  10.332  1.00  0.00     0.171 HD
HETATM    8  C4  UNL     1      18.389   7.426  11.443  1.00  0.00     0.147 A 
HETATM    9  C5  UNL     1      17.783   8.159  12.462  1.00  0.00     0.152 A 
HETATM   10  C6  UNL     1      18.394   8.897  13.481  1.00  0.00     0.280 C 
HETATM   11  O2  UNL     1      17.667   9.698  14.099  1.00  0.00    -0.265 OA
HETATM   12  N5  UNL     1      16.444   8.052  12.333  1.00  0.00    -0.296 N 
HETATM   13  C7  UNL     1      15.466   8.688  13.223  1.00  0.00     0.161 C 
HETATM   14  C8  UNL     1      16.240   7.285  11.280  1.00  0.00     0.330 A 
HETATM   15  O3  UNL     1      15.097   6.963  10.853  1.00  0.00    -0.246 OA
HETATM   16  N6  UNL     1      17.403   6.883  10.713  1.00  0.00    -0.283 N 
ENDROOT
BRANCH  16  17
HETATM   17  C9  UNL     1      17.583   6.036   9.572  1.00  0.00     0.137 C 
BRANCH  17  18
HETATM   18  C10 UNL     1      17.876   4.606   9.851  1.00  0.00     0.050 C 
BRANCH  18  19
HETATM   19  C11 UNL     1      16.767   3.813  10.433  1.00  0.00     0.274 C 
BRANCH  19  20
HETATM   20  N7  UNL     1      17.094   3.168  11.677  1.00  0.00     0.091 N 
HETATM   21  C12 UNL     1      16.643   3.954  12.781  1.00  0.00     0.292 C 
HETATM   22  C13 UNL     1      17.172   3.422  14.112  1.00  0.00     0.156 C 
HETATM   23  N8  UNL     1      16.978   2.003  14.177  1.00  0.00    -0.347 N 
HETATM   24  C14 UNL     1      16.485   1.358  15.342  1.00  0.00     0.250 C 
HETATM   25  C17 UNL     1      17.287   1.190  13.024  1.00  0.00     0.156 C 
HETATM   26  O4  UNL     1      16.300   0.078  15.323  1.00  0.00    -0.270 OA
HETATM   27  C18 UNL     1      16.771   1.784  11.736  1.00  0.00     0.292 C 
BRANCH  24  28
HETATM   28  C15 UNL     1      16.144   1.997  16.616  1.00  0.00     0.233 C 
BRANCH  28  29
HETATM   29  O5  UNL     1      15.163   3.002  16.384  1.00  0.00    -0.384 OA
ATOM     30  H5  UNL     1      15.265   3.691  17.030  1.00  0.00     0.210 HD
ENDBRANCH  28  29
BRANCH  28  31
HETATM   31  C16 UNL     1      15.409   1.002  17.529  1.00  0.00     0.205 C 
BRANCH  31  32
HETATM   32  O6  UNL     1      14.164   0.655  17.059  1.00  0.00    -0.398 OA
ATOM     33  H6  UNL     1      13.478   0.759  17.708  1.00  0.00     0.209 HD
ENDBRANCH  31  32
ENDBRANCH  28  31
ENDBRANCH  24  28
ENDBRANCH  19  20
ENDBRANCH  18  19
ENDBRANCH  17  18
ENDBRANCH  16  17
BRANCH   3  34
HETATM   34  N2  UNL     1      21.834   9.163  13.302  1.00  0.00    -0.287 N 
ATOM     35  H2  UNL     1      22.236   9.037  14.230  1.00  0.00     0.188 HD
BRANCH  34  36
HETATM   36  N3  UNL     1      22.529   9.971  12.472  1.00  0.00    -0.343 N 
ATOM     37  H32 UNL     1      22.595   9.632  11.512  1.00  0.00     0.176 HD
ATOM     38  H31 UNL     1      22.987  10.859  12.677  1.00  0.00     0.176 HD
ENDBRANCH  34  36
ENDBRANCH   3  34
TORSDOF 10
ENDMDL
MODEL 4
REMARK VINA RESULT: -5.983527434      3.218      5.188
REMARK  10 active torsions:
REMARK  status: ('A' for Active; 'I' for Inactive)
REMARK    1  A    between atoms: C2_3  and  N2_4 
REMARK    2  A    between atoms: N2_4  and  N3_6 
REMARK    3  A    between atoms: N6_21  and  C9_22 
REMARK    4  A    between atoms: C9_22  and  C10_23 
REMARK    5  A    between atoms: C10_23  and  C11_24 
REMARK    6  A    between atoms: C11_24  and  N7_25 
REMARK       I    between atoms: N8_28  and  C14_29 
REMARK    7  A    between atoms: C14_29  and  C15_31 
REMARK    8  A    between atoms: C15_31  and  O5_32 
REMARK    9  A    between atoms: C15_31  and  C16_34 
REMARK   10  A    between atoms: C16_34  and  O6_35 
ROOT
HETATM    1  C1  UNL     1      25.094   5.275   9.379  1.00  0.00     0.161 C 
HETATM    2  N1  UNL     1      23.729   5.128   9.768  1.00  0.00    -0.297 N 
HETATM    3  C2  UNL     1      23.401   5.350  11.046  1.00  0.00     0.194 C 
HETATM    4  C3  UNL     1      22.199   5.973  11.448  1.00  0.00     0.292 C 
HETATM    5  O1  UNL     1      22.302   6.617  12.498  1.00  0.00    -0.264 OA
HETATM    6  N4  UNL     1      21.009   5.938  10.830  1.00  0.00    -0.304 N 
ATOM      7  H4  UNL     1      20.210   6.134  11.433  1.00  0.00     0.171 HD
HETATM    8  C4  UNL     1      20.699   5.687   9.553  1.00  0.00     0.147 A 
HETATM    9  C5  UNL     1      21.554   5.146   8.595  1.00  0.00     0.152 A 
HETATM   10  C6  UNL     1      22.893   4.774   8.738  1.00  0.00     0.280 C 
HETATM   11  O2  UNL     1      23.369   4.052   7.840  1.00  0.00    -0.265 OA
HETATM   12  N5  UNL     1      20.877   5.025   7.432  1.00  0.00    -0.296 N 
HETATM   13  C7  UNL     1      21.443   4.493   6.188  1.00  0.00     0.161 C 
HETATM   14  C8  UNL     1      19.661   5.476   7.672  1.00  0.00     0.330 A 
HETATM   15  O3  UNL     1      18.742   5.517   6.808  1.00  0.00    -0.246 OA
HETATM   16  N6  UNL     1      19.516   5.888   8.954  1.00  0.00    -0.283 N 
ENDROOT
BRANCH  16  17
HETATM   17  C9  UNL     1      18.354   6.449   9.576  1.00  0.00     0.137 C 
BRANCH  17  18
HETATM   18  C10 UNL     1      17.830   5.732  10.767  1.00  0.00     0.050 C 
BRANCH  18  19
HETATM   19  C11 UNL     1      17.698   6.534  12.007  1.00  0.00     0.274 C 
BRANCH  19  20
HETATM   20  N7  UNL     1      17.468   5.750  13.192  1.00  0.00     0.091 N 
HETATM   21  C12 UNL     1      16.311   4.929  13.032  1.00  0.00     0.292 C 
HETATM   22  C13 UNL     1      15.903   4.260  14.344  1.00  0.00     0.156 C 
HETATM   23  N8  UNL     1      17.055   3.679  14.970  1.00  0.00    -0.347 N 
HETATM   24  C14 UNL     1      17.031   2.382  15.546  1.00  0.00     0.250 C 
HETATM   25  C17 UNL     1      18.289   4.428  15.019  1.00  0.00     0.156 C 
HETATM   26  O4  UNL     1      18.115   1.903  16.064  1.00  0.00    -0.270 OA
HETATM   27  C18 UNL     1      18.620   5.095  13.708  1.00  0.00     0.292 C 
BRANCH  24  28
HETATM   28  C15 UNL     1      15.877   1.482  15.623  1.00  0.00     0.233 C 
BRANCH  28  29
HETATM   29  O5  UNL     1      16.324   0.138  15.482  1.00  0.00    -0.384 OA
ATOM     30  H5  UNL     1      17.242   0.090  15.725  1.00  0.00     0.210 HD
ENDBRANCH  28  29
BRANCH  28  31
HETATM   31  C16 UNL     1      15.283   1.501  17.041  1.00  0.00     0.205 C 
BRANCH  31  32
HETATM   32  O6  UNL     1      15.795   0.517  17.855  1.00  0.00    -0.398 OA
ATOM     33  H6  UNL     1      16.499   0.824  18.413  1.00  0.00     0.209 HD
ENDBRANCH  31  32
ENDBRANCH  28  31
ENDBRANCH  24  28
ENDBRANCH  19  20
ENDBRANCH  18  19
ENDBRANCH  17  18
ENDBRANCH  16  17
BRANCH   3  34
HETATM   34  N2  UNL     1      24.183   4.966  11.937  1.00  0.00    -0.287 N 
ATOM     35  H2  UNL     1      24.241   3.957  12.066  1.00  0.00     0.188 HD
BRANCH  34  36
HETATM   36  N3  UNL     1      24.965   5.704  12.755  1.00  0.00    -0.343 N 
ATOM     37  H32 UNL     1      25.835   5.247  13.031  1.00  0.00     0.176 HD
ATOM     38  H31 UNL     1      24.802   6.640  13.126  1.00  0.00     0.176 HD
ENDBRANCH  34  36
ENDBRANCH   3  34
TORSDOF 10
ENDMDL
MODEL 5
REMARK VINA RESULT: -5.860444400      2.297      3.714
REMARK  10 active torsions:
REMARK  status: ('A' for Active; 'I' for Inactive)
REMARK    1  A    between atoms: C2_3  and  N2_4 
REMARK    2  A    between atoms: N2_4  and  N3_6 
REMARK    3  A    between atoms: N6_21  and  C9_22 
REMARK    4  A    between atoms: C9_22  and  C10_23 
REMARK    5  A    between atoms: C10_23  and  C11_24 
REMARK    6  A    between atoms: C11_24  and  N7_25 
REMARK       I    between atoms: N8_28  and  C14_29 
REMARK    7  A    between atoms: C14_29  and  C15_31 
REMARK    8  A    between atoms: C15_31  and  O5_32 
REMARK    9  A    between atoms: C15_31  and  C16_34 
REMARK   10  A    between atoms: C16_34  and  O6_35 
ROOT
HETATM    1  C1  UNL     1      20.798   4.975   8.240  1.00  0.00     0.161 C 
HETATM    2  N1  UNL     1      20.022   5.482   9.325  1.00  0.00    -0.297 N 
HETATM    3  C2  UNL     1      20.556   5.469  10.552  1.00  0.00     0.194 C 
HETATM    4  C3  UNL     1      20.356   6.496  11.501  1.00  0.00     0.292 C 
HETATM    5  O1  UNL     1      21.312   6.651  12.271  1.00  0.00    -0.264 OA
HETATM    6  N4  UNL     1      19.282   7.285  11.645  1.00  0.00    -0.304 N 
ATOM      7  H4  UNL     1      19.177   7.698  12.571  1.00  0.00     0.171 HD
HETATM    8  C4  UNL     1      18.324   7.617  10.772  1.00  0.00     0.147 A 
HETATM    9  C5  UNL     1      18.085   7.002   9.545  1.00  0.00     0.152 A 
HETATM   10  C6  UNL     1      18.784   5.945   8.954  1.00  0.00     0.280 C 
HETATM   11  O2  UNL     1      18.223   5.373   7.999  1.00  0.00    -0.265 OA
HETATM   12  N5  UNL     1      17.028   7.602   8.959  1.00  0.00    -0.296 N 
HETATM   13  C7  UNL     1      16.474   7.231   7.652  1.00  0.00     0.161 C 
HETATM   14  C8  UNL     1      16.637   8.545   9.794  1.00  0.00     0.330 A 
HETATM   15  O3  UNL     1      15.664   9.320   9.578  1.00  0.00    -0.246 OA
HETATM   16  N6  UNL     1      17.405   8.585  10.910  1.00  0.00    -0.283 N 
ENDROOT
BRANCH  16  17
HETATM   17  C9  UNL     1      17.298   9.477  12.025  1.00  0.00     0.137 C 
BRANCH  17  18
HETATM   18  C10 UNL     1      16.391   9.057  13.124  1.00  0.00     0.050 C 
BRANCH  18  19
HETATM   19  C11 UNL     1      17.005   8.249  14.205  1.00  0.00     0.274 C 
BRANCH  19  20
HETATM   20  N7  UNL     1      16.626   6.861  14.190  1.00  0.00     0.091 N 
HETATM   21  C12 UNL     1      17.743   6.035  14.521  1.00  0.00     0.292 C 
HETATM   22  C13 UNL     1      17.443   4.554  14.290  1.00  0.00     0.156 C 
HETATM   23  N8  UNL     1      16.172   4.223  14.866  1.00  0.00    -0.347 N 
HETATM   24  C14 UNL     1      15.970   3.043  15.628  1.00  0.00     0.250 C 
HETATM   25  C17 UNL     1      15.052   5.114  14.674  1.00  0.00     0.156 C 
HETATM   26  O4  UNL     1      14.807   2.821  16.150  1.00  0.00    -0.270 OA
HETATM   27  C18 UNL     1      15.417   6.564  14.879  1.00  0.00     0.292 C 
BRANCH  24  28
HETATM   28  C15 UNL     1      16.965   2.004  15.911  1.00  0.00     0.233 C 
BRANCH  28  29
HETATM   29  O5  UNL     1      16.556   1.267  17.057  1.00  0.00    -0.384 OA
ATOM     30  H5  UNL     1      16.769   0.350  16.928  1.00  0.00     0.210 HD
ENDBRANCH  28  29
BRANCH  28  31
HETATM   31  C16 UNL     1      16.956   0.944  14.797  1.00  0.00     0.205 C 
BRANCH  31  32
HETATM   32  O6  UNL     1      16.589  -0.305  15.242  1.00  0.00    -0.398 OA
ATOM     33  H6  UNL     1      17.331  -0.871  15.419  1.00  0.00     0.209 HD
ENDBRANCH  31  32
ENDBRANCH  28  31
ENDBRANCH  24  28
ENDBRANCH  19  20
ENDBRANCH  18  19
ENDBRANCH  17  18
ENDBRANCH  16  17
BRANCH   3  34
HETATM   34  N2  UNL     1      21.247   4.490  10.891  1.00  0.00    -0.287 N 
ATOM     35  H2  UNL     1      22.072   4.314  10.318  1.00  0.00     0.188 HD
BRANCH  34  36
HETATM   36  N3  UNL     1      21.055   3.629  11.914  1.00  0.00    -0.343 N 
ATOM     37  H32 UNL     1      21.543   2.738  11.812  1.00  0.00     0.176 HD
ATOM     38  H31 UNL     1      20.497   3.750  12.759  1.00  0.00     0.176 HD
ENDBRANCH  34  36
ENDBRANCH   3  34
TORSDOF 10
ENDMDL
