MODEL 1
REMARK VINA RESULT: -7.477952100      0.000      0.000
REMARK  8 active torsions:
REMARK  status: ('A' for Active; 'I' for Inactive)
REMARK    1  A    between atoms: C3_7  and  C4_8 
REMARK    2  A    between atoms: C4_8  and  N3_9 
REMARK       I    between atoms: N4_12  and  C7_13 
REMARK    3  A    between atoms: C7_13  and  C8_15 
REMARK    4  A    between atoms: C8_15  and  N5_16 
REMARK    5  A    between atoms: C10_21  and  N7_22 
REMARK    6  A    between atoms: N7_22  and  N8_24 
REMARK       I    between atoms: N8_24  and  C11_26 
REMARK    7  A    between atoms: N11_33  and  C13_34 
REMARK    8  A    between atoms: C13_34  and  C14_35 
ROOT
HETATM    1  N5  UNL     1      16.911   6.240  13.518  1.00  0.00    -0.228 N 
HETATM    2  C9  UNL     1      15.655   6.208  13.992  1.00  0.00     0.343 A 
HETATM    3  O2  UNL     1      14.946   7.266  13.918  1.00  0.00    -0.245 OA
HETATM    4  N6  UNL     1      15.074   5.139  14.546  1.00  0.00    -0.287 N 
ATOM      5  H6  UNL     1      14.113   5.182  14.888  1.00  0.00     0.172 HD
HETATM    6  C10 UNL     1      15.791   4.007  14.641  1.00  0.00     0.195 A 
HETATM    7  C12 UNL     1      17.079   4.048  14.153  1.00  0.00     0.308 A 
HETATM    8  O3  UNL     1      17.782   3.009  14.223  1.00  0.00    -0.262 OA
HETATM    9  N11 UNL     1      17.638   5.141  13.599  1.00  0.00    -0.238 N 
ENDROOT
BRANCH   1  10
HETATM   10  C8  UNL     1      17.429   7.441  12.945  1.00  0.00     0.257 C 
BRANCH  10  11
HETATM   11  C7  UNL     1      18.530   8.048  13.730  1.00  0.00     0.239 C 
HETATM   12  N4  UNL     1      19.652   8.644  13.150  1.00  0.00    -0.347 N 
HETATM   13  C6  UNL     1      20.710   9.228  13.935  1.00  0.00     0.156 C 
HETATM   14  C15 UNL     1      19.787   8.690  11.716  1.00  0.00     0.156 C 
HETATM   15  C5  UNL     1      21.800   9.779  13.005  1.00  0.00     0.292 C 
HETATM   16  N3  UNL     1      22.197   8.806  12.014  1.00  0.00     0.098 N 
HETATM   17  C16 UNL     1      21.129   8.151  11.339  1.00  0.00     0.292 C 
HETATM   18  O1  UNL     1      18.449   8.027  14.982  1.00  0.00    -0.271 OA
BRANCH  16  19
HETATM   19  C4  UNL     1      23.188   7.887  12.541  1.00  0.00     0.350 C 
BRANCH  19  20
HETATM   20  C3  UNL     1      23.137   6.589  11.828  1.00  0.00     0.126 A 
HETATM   21  N2  UNL     1      22.523   5.445  12.102  1.00  0.00    -0.286 N 
HETATM   22  N1  UNL     1      22.771   4.552  11.163  1.00  0.00    -0.288 N 
ATOM     23  H2  UNL     1      21.940   5.279  12.923  1.00  0.00     0.188 HD
HETATM   24  C2  UNL     1      23.571   5.111  10.237  1.00  0.00     0.093 A 
ATOM     25  H1  UNL     1      22.415   3.597  11.142  1.00  0.00     0.188 HD
HETATM   26  C1  UNL     1      24.096   4.447   8.996  1.00  0.00     0.090 C 
HETATM   27  N12 UNL     1      23.793   6.365  10.652  1.00  0.00    -0.332 N 
ATOM     28  H12 UNL     1      24.366   7.051  10.161  1.00  0.00     0.168 HD
ENDBRANCH  19  20
ENDBRANCH  16  19
ENDBRANCH  10  11
ENDBRANCH   1  10
BRANCH   9  29
HETATM   29  C13 UNL     1      19.001   5.089  13.112  1.00  0.00     0.266 C 
BRANCH  29  30
HETATM   30  C14 UNL     1      19.130   4.230  11.908  1.00  0.00     0.193 C 
HETATM   31  O4  UNL     1      20.063   3.387  11.905  1.00  0.00    -0.647 OA
HETATM   32  O5  UNL     1      18.268   4.361  10.855  1.00  0.00    -0.647 OA
ENDBRANCH  29  30
ENDBRANCH   9  29
BRANCH   6  33
HETATM   33  N7  UNL     1      15.237   2.980  15.172  1.00  0.00    -0.278 N 
ATOM     34  H7  UNL     1      14.539   2.490  14.612  1.00  0.00     0.189 HD
BRANCH  33  35
HETATM   35  N8  UNL     1      15.497   2.477  16.428  1.00  0.00    -0.272 N 
HETATM   36  C11 UNL     1      15.782   1.097  16.577  1.00  0.00     0.200 C 
HETATM   37  N9  UNL     1      15.572   0.488  17.690  1.00  0.00    -0.372 N 
HETATM   38  N10 UNL     1      16.309   0.387  15.469  1.00  0.00    -0.062 NA
ATOM     39  H92 UNL     1      15.193   0.999  18.487  1.00  0.00     0.158 HD
ATOM     40  H91 UNL     1      15.778  -0.505  17.797  1.00  0.00     0.158 HD
ATOM     41  H8  UNL     1      15.484   3.091  17.242  1.00  0.00     0.189 HD
ENDBRANCH  33  35
ENDBRANCH   6  33
TORSDOF 8
ENDMDL
MODEL 2
REMARK VINA RESULT: -7.420872884      2.431      3.902
REMARK  8 active torsions:
REMARK  status: ('A' for Active; 'I' for Inactive)
REMARK    1  A    between atoms: C3_7  and  C4_8 
REMARK    2  A    between atoms: C4_8  and  N3_9 
REMARK       I    between atoms: N4_12  and  C7_13 
REMARK    3  A    between atoms: C7_13  and  C8_15 
REMARK    4  A    between atoms: C8_15  and  N5_16 
REMARK    5  A    between atoms: C10_21  and  N7_22 
REMARK    6  A    between atoms: N7_22  and  N8_24 
REMARK       I    between atoms: N8_24  and  C11_26 
REMARK    7  A    between atoms: N11_33  and  C13_34 
REMARK    8  A    between atoms: C13_34  and  C14_35 
ROOT
HETATM    1  N5  UNL     1      17.742   5.166  12.536  1.00  0.00    -0.228 N 
HETATM    2  C9  UNL     1      18.045   3.862  12.450  1.00  0.00     0.343 A 
HETATM    3  O2  UNL     1      18.849   3.478  11.537  1.00  0.00    -0.245 OA
HETATM    4  N6  UNL     1      17.566   2.910  13.259  1.00  0.00    -0.287 N 
ATOM      5  H6  UNL     1      17.838   1.934  13.140  1.00  0.00     0.172 HD
HETATM    6  C10 UNL     1      16.716   3.277  14.234  1.00  0.00     0.195 A 
HETATM    7  C12 UNL     1      16.410   4.618  14.314  1.00  0.00     0.308 A 
HETATM    8  O3  UNL     1      15.619   5.001  15.212  1.00  0.00    -0.262 OA
HETATM    9  N11 UNL     1      16.909   5.553  13.484  1.00  0.00    -0.238 N 
ENDROOT
BRANCH   1  10
HETATM   10  C8  UNL     1      18.315   6.096  11.616  1.00  0.00     0.257 C 
BRANCH  10  11
HETATM   11  C7  UNL     1      19.765   6.320  11.822  1.00  0.00     0.239 C 
HETATM   12  N4  UNL     1      20.687   6.411  10.776  1.00  0.00    -0.347 N 
HETATM   13  C6  UNL     1      22.092   6.630  11.003  1.00  0.00     0.156 C 
HETATM   14  C15 UNL     1      20.247   6.283   9.411  1.00  0.00     0.156 C 
HETATM   15  C5  UNL     1      22.834   6.662   9.659  1.00  0.00     0.292 C 
HETATM   16  N3  UNL     1      22.484   5.531   8.831  1.00  0.00     0.098 N 
HETATM   17  C16 UNL     1      21.092   5.259   8.724  1.00  0.00     0.292 C 
HETATM   18  O1  UNL     1      20.186   6.436  12.998  1.00  0.00    -0.271 OA
BRANCH  16  19
HETATM   19  C4  UNL     1      23.270   4.359   9.175  1.00  0.00     0.350 C 
BRANCH  19  20
HETATM   20  C3  UNL     1      23.480   3.498   7.988  1.00  0.00     0.126 A 
HETATM   21  N2  UNL     1      23.260   3.694   6.694  1.00  0.00    -0.286 N 
HETATM   22  N1  UNL     1      23.605   2.626   6.001  1.00  0.00    -0.288 N 
ATOM     23  H2  UNL     1      22.879   4.551   6.292  1.00  0.00     0.188 HD
HETATM   24  C2  UNL     1      24.067   1.691   6.850  1.00  0.00     0.093 A 
ATOM     25  H1  UNL     1      23.534   2.526   4.988  1.00  0.00     0.188 HD
HETATM   26  C1  UNL     1      24.566   0.323   6.482  1.00  0.00     0.090 C 
HETATM   27  N12 UNL     1      23.988   2.233   8.072  1.00  0.00    -0.332 N 
ATOM     28  H12 UNL     1      24.266   1.770   8.937  1.00  0.00     0.168 HD
ENDBRANCH  19  20
ENDBRANCH  16  19
ENDBRANCH  10  11
ENDBRANCH   1  10
BRANCH   9  29
HETATM   29  C13 UNL     1      16.528   6.942  13.647  1.00  0.00     0.266 C 
BRANCH  29  30
HETATM   30  C14 UNL     1      15.192   7.225  13.064  1.00  0.00     0.193 C 
HETATM   31  O4  UNL     1      14.361   7.814  13.801  1.00  0.00    -0.647 OA
HETATM   32  O5  UNL     1      14.890   6.855  11.783  1.00  0.00    -0.647 OA
ENDBRANCH  29  30
ENDBRANCH   9  29
BRANCH   6  33
HETATM   33  N7  UNL     1      16.255   2.368  15.010  1.00  0.00    -0.278 N 
ATOM     34  H7  UNL     1      15.772   1.585  14.570  1.00  0.00     0.189 HD
BRANCH  33  35
HETATM   35  N8  UNL     1      16.352   2.350  16.385  1.00  0.00    -0.272 N 
HETATM   36  C11 UNL     1      15.270   1.846  17.149  1.00  0.00     0.200 C 
HETATM   37  N9  UNL     1      15.085   2.214  18.368  1.00  0.00    -0.372 N 
HETATM   38  N10 UNL     1      14.384   0.920  16.546  1.00  0.00    -0.062 NA
ATOM     39  H92 UNL     1      15.723   2.881  18.801  1.00  0.00     0.158 HD
ATOM     40  H91 UNL     1      14.307   1.851  18.918  1.00  0.00     0.158 HD
ATOM     41  H8  UNL     1      17.192   2.695  16.847  1.00  0.00     0.189 HD
ENDBRANCH  33  35
ENDBRANCH   6  33
TORSDOF 8
ENDMDL
MODEL 3
REMARK VINA RESULT: -7.376558968      2.980      4.669
REMARK  8 active torsions:
REMARK  status: ('A' for Active; 'I' for Inactive)
REMARK    1  A    between atoms: C3_7  and  C4_8 
REMARK    2  A    between atoms: C4_8  and  N3_9 
REMARK       I    between atoms: N4_12  and  C7_13 
REMARK    3  A    between atoms: C7_13  and  C8_15 
REMARK    4  A    between atoms: C8_15  and  N5_16 
REMARK    5  A    between atoms: C10_21  and  N7_22 
REMARK    6  A    between atoms: N7_22  and  N8_24 
REMARK       I    between atoms: N8_24  and  C11_26 
REMARK    7  A    between atoms: N11_33  and  C13_34 
REMARK    8  A    between atoms: C13_34  and  C14_35 
ROOT
HETATM    1  N5  UNL     1      17.346   4.010  11.524  1.00  0.00    -0.228 N 
HETATM    2  C9  UNL     1      16.455   3.007  11.564  1.00  0.00     0.343 A 
HETATM    3  O2  UNL     1      15.804   2.724  10.505  1.00  0.00    -0.245 OA
HETATM    4  N6  UNL     1      16.188   2.264  12.644  1.00  0.00    -0.287 N 
ATOM      5  H6  UNL     1      15.496   1.514  12.607  1.00  0.00     0.172 HD
HETATM    6  C10 UNL     1      16.855   2.534  13.779  1.00  0.00     0.195 A 
HETATM    7  C12 UNL     1      17.768   3.565  13.729  1.00  0.00     0.308 A 
HETATM    8  O3  UNL     1      18.412   3.848  14.769  1.00  0.00    -0.262 OA
HETATM    9  N11 UNL     1      18.016   4.296  12.625  1.00  0.00    -0.238 N 
ENDROOT
BRANCH   1  10
HETATM   10  C8  UNL     1      17.551   4.737  10.312  1.00  0.00     0.257 C 
BRANCH  10  11
HETATM   11  C7  UNL     1      16.665   5.917  10.169  1.00  0.00     0.239 C 
HETATM   12  N4  UNL     1      17.135   7.232  10.127  1.00  0.00    -0.347 N 
HETATM   13  C6  UNL     1      16.253   8.362   9.986  1.00  0.00     0.156 C 
HETATM   14  C15 UNL     1      18.546   7.499  10.225  1.00  0.00     0.156 C 
HETATM   15  C5  UNL     1      17.072   9.661   9.992  1.00  0.00     0.292 C 
HETATM   16  N3  UNL     1      17.999   9.701  11.099  1.00  0.00     0.098 N 
HETATM   17  C16 UNL     1      18.771   8.521  11.292  1.00  0.00     0.292 C 
HETATM   18  O1  UNL     1      15.429   5.723  10.081  1.00  0.00    -0.271 OA
BRANCH  16  19
HETATM   19  C4  UNL     1      17.355  10.168  12.313  1.00  0.00     0.350 C 
BRANCH  19  20
HETATM   20  C3  UNL     1      17.262   9.079  13.313  1.00  0.00     0.126 A 
HETATM   21  N2  UNL     1      18.097   8.662  14.257  1.00  0.00    -0.286 N 
HETATM   22  N1  UNL     1      17.578   7.643  14.914  1.00  0.00    -0.288 N 
ATOM     23  H2  UNL     1      19.012   9.072  14.447  1.00  0.00     0.188 HD
HETATM   24  C2  UNL     1      16.366   7.370  14.399  1.00  0.00     0.093 A 
ATOM     25  H1  UNL     1      18.022   7.144  15.685  1.00  0.00     0.188 HD
HETATM   26  C1  UNL     1      15.430   6.286  14.852  1.00  0.00     0.090 C 
HETATM   27  N12 UNL     1      16.177   8.257  13.415  1.00  0.00    -0.332 N 
ATOM     28  H12 UNL     1      15.344   8.311  12.827  1.00  0.00     0.168 HD
ENDBRANCH  19  20
ENDBRANCH  16  19
ENDBRANCH  10  11
ENDBRANCH   1  10
BRANCH   9  29
HETATM   29  C13 UNL     1      18.995   5.362  12.669  1.00  0.00     0.266 C 
BRANCH  29  30
HETATM   30  C14 UNL     1      20.323   4.920  12.171  1.00  0.00     0.193 C 
HETATM   31  O4  UNL     1      21.194   5.811  12.000  1.00  0.00    -0.647 OA
HETATM   32  O5  UNL     1      20.575   3.602  11.913  1.00  0.00    -0.647 OA
ENDBRANCH  29  30
ENDBRANCH   9  29
BRANCH   6  33
HETATM   33  N7  UNL     1      16.602   1.824  14.815  1.00  0.00    -0.278 N 
ATOM     34  H7  UNL     1      16.513   0.818  14.677  1.00  0.00     0.189 HD
BRANCH  33  35
HETATM   35  N8  UNL     1      16.436   2.295  16.100  1.00  0.00    -0.272 N 
HETATM   36  C11 UNL     1      15.618   1.572  17.003  1.00  0.00     0.200 C 
HETATM   37  N9  UNL     1      15.054   2.151  18.003  1.00  0.00    -0.372 N 
HETATM   38  N10 UNL     1      15.429   0.184  16.789  1.00  0.00    -0.062 NA
ATOM     39  H92 UNL     1      15.190   3.150  18.157  1.00  0.00     0.158 HD
ATOM     40  H91 UNL     1      14.466   1.630  18.653  1.00  0.00     0.158 HD
ATOM     41  H8  UNL     1      16.897   3.154  16.397  1.00  0.00     0.189 HD
ENDBRANCH  33  35
ENDBRANCH   6  33
TORSDOF 8
ENDMDL
MODEL 4
REMARK VINA RESULT: -7.337744136      1.377      2.618
REMARK  8 active torsions:
REMARK  status: ('A' for Active; 'I' for Inactive)
REMARK    1  A    between atoms: C3_7  and  C4_8 
REMARK    2  A    between atoms: C4_8  and  N3_9 
REMARK       I    between atoms: N4_12  and  C7_13 
REMARK    3  A    between atoms: C7_13  and  C8_15 
REMARK    4  A    between atoms: C8_15  and  N5_16 
REMARK    5  A    between atoms: C10_21  and  N7_22 
REMARK    6  A    between atoms: N7_22  and  N8_24 
REMARK       I    between atoms: N8_24  and  C11_26 
REMARK    7  A    between atoms: N11_33  and  C13_34 
REMARK    8  A    between atoms: C13_34  and  C14_35 
ROOT
HETATM    1  N5  UNL     1      18.141   6.546  13.416  1.00  0.00    -0.228 N 
HETATM    2  C9  UNL     1      18.939   5.515  13.097  1.00  0.00     0.343 A 
HETATM    3  O2  UNL     1      19.999   5.747  12.425  1.00  0.00    -0.245 OA
HETATM    4  N6  UNL     1      18.713   4.240  13.431  1.00  0.00    -0.287 N 
ATOM      5  H6  UNL     1      19.362   3.502  13.155  1.00  0.00     0.172 HD
HETATM    6  C10 UNL     1      17.606   3.958  14.139  1.00  0.00     0.195 A 
HETATM    7  C12 UNL     1      16.792   5.021  14.462  1.00  0.00     0.308 A 
HETATM    8  O3  UNL     1      15.747   4.799  15.124  1.00  0.00    -0.262 OA
HETATM    9  N11 UNL     1      17.047   6.296  14.112  1.00  0.00    -0.238 N 
ENDROOT
BRANCH   1  10
HETATM   10  C8  UNL     1      18.482   7.870  13.006  1.00  0.00     0.257 C 
BRANCH  10  11
HETATM   11  C7  UNL     1      19.705   8.398  13.656  1.00  0.00     0.239 C 
HETATM   12  N4  UNL     1      20.757   8.989  12.954  1.00  0.00    -0.347 N 
HETATM   13  C6  UNL     1      21.936   9.495  13.610  1.00  0.00     0.156 C 
HETATM   14  C15 UNL     1      20.692   9.110  11.520  1.00  0.00     0.156 C 
HETATM   15  C5  UNL     1      22.907  10.062  12.564  1.00  0.00     0.292 C 
HETATM   16  N3  UNL     1      23.122   9.133  11.479  1.00  0.00     0.098 N 
HETATM   17  C16 UNL     1      21.946   8.551  10.930  1.00  0.00     0.292 C 
HETATM   18  O1  UNL     1      19.798   8.310  14.904  1.00  0.00    -0.271 OA
BRANCH  16  19
HETATM   19  C4  UNL     1      24.142   8.155  11.814  1.00  0.00     0.350 C 
BRANCH  19  20
HETATM   20  C3  UNL     1      23.676   6.783  11.509  1.00  0.00     0.126 A 
HETATM   21  N2  UNL     1      23.019   5.883  12.231  1.00  0.00    -0.286 N 
HETATM   22  N1  UNL     1      22.821   4.784  11.528  1.00  0.00    -0.288 N 
ATOM     23  H2  UNL     1      22.711   6.022  13.193  1.00  0.00     0.188 HD
HETATM   24  C2  UNL     1      23.358   4.950  10.307  1.00  0.00     0.093 A 
ATOM     25  H1  UNL     1      22.341   3.947  11.857  1.00  0.00     0.188 HD
HETATM   26  C1  UNL     1      23.359   3.945   9.189  1.00  0.00     0.090 C 
HETATM   27  N12 UNL     1      23.883   6.182  10.300  1.00  0.00    -0.332 N 
ATOM     28  H12 UNL     1      24.365   6.609   9.509  1.00  0.00     0.168 HD
ENDBRANCH  19  20
ENDBRANCH  16  19
ENDBRANCH  10  11
ENDBRANCH   1  10
BRANCH   9  29
HETATM   29  C13 UNL     1      16.130   7.350  14.498  1.00  0.00     0.266 C 
BRANCH  29  30
HETATM   30  C14 UNL     1      15.168   7.676  13.415  1.00  0.00     0.193 C 
HETATM   31  O4  UNL     1      15.300   8.792  12.851  1.00  0.00    -0.647 OA
HETATM   32  O5  UNL     1      14.187   6.795  13.055  1.00  0.00    -0.647 OA
ENDBRANCH  29  30
ENDBRANCH   9  29
BRANCH   6  33
HETATM   33  N7  UNL     1      17.386   2.737  14.460  1.00  0.00    -0.278 N 
ATOM     34  H7  UNL     1      17.350   2.058  13.700  1.00  0.00     0.189 HD
BRANCH  33  35
HETATM   35  N8  UNL     1      17.195   2.257  15.737  1.00  0.00    -0.272 N 
HETATM   36  C11 UNL     1      16.543   1.011  15.919  1.00  0.00     0.200 C 
HETATM   37  N9  UNL     1      15.930   0.732  17.014  1.00  0.00    -0.372 N 
HETATM   38  N10 UNL     1      16.578   0.065  14.866  1.00  0.00    -0.062 NA
ATOM     39  H92 UNL     1      15.904   1.414  17.772  1.00  0.00     0.158 HD
ATOM     40  H91 UNL     1      15.461  -0.164  17.145  1.00  0.00     0.158 HD
ATOM     41  H8  UNL     1      17.518   2.791  16.543  1.00  0.00     0.189 HD
ENDBRANCH  33  35
ENDBRANCH   6  33
TORSDOF 8
ENDMDL
MODEL 5
REMARK VINA RESULT: -7.288634953      2.162      2.866
REMARK  8 active torsions:
REMARK  status: ('A' for Active; 'I' for Inactive)
REMARK    1  A    between atoms: C3_7  and  C4_8 
REMARK    2  A    between atoms: C4_8  and  N3_9 
REMARK       I    between atoms: N4_12  and  C7_13 
REMARK    3  A    between atoms: C7_13  and  C8_15 
REMARK    4  A    between atoms: C8_15  and  N5_16 
REMARK    5  A    between atoms: C10_21  and  N7_22 
REMARK    6  A    between atoms: N7_22  and  N8_24 
REMARK       I    between atoms: N8_24  and  C11_26 
REMARK    7  A    between atoms: N11_33  and  C13_34 
REMARK    8  A    between atoms: C13_34  and  C14_35 
ROOT
HETATM    1  N5  UNL     1      16.794   5.284  13.186  1.00  0.00    -0.228 N 
HETATM    2  C9  UNL     1      16.085   5.940  14.118  1.00  0.00     0.343 A 
HETATM    3  O2  UNL     1      16.092   7.216  14.108  1.00  0.00    -0.245 OA
HETATM    4  N6  UNL     1      15.355   5.357  15.075  1.00  0.00    -0.287 N 
ATOM      5  H6  UNL     1      14.838   5.915  15.755  1.00  0.00     0.172 HD
HETATM    6  C10 UNL     1      15.323   4.014  15.116  1.00  0.00     0.195 A 
HETATM    7  C12 UNL     1      16.054   3.348  14.156  1.00  0.00     0.308 A 
HETATM    8  O3  UNL     1      16.050   2.092  14.161  1.00  0.00    -0.262 OA
HETATM    9  N11 UNL     1      16.780   3.964  13.204  1.00  0.00    -0.238 N 
ENDROOT
BRANCH   1  10
HETATM   10  C8  UNL     1      17.538   6.012  12.209  1.00  0.00     0.257 C 
BRANCH  10  11
HETATM   11  C7  UNL     1      18.976   6.154  12.539  1.00  0.00     0.239 C 
HETATM   12  N4  UNL     1      19.973   6.336  11.578  1.00  0.00    -0.347 N 
HETATM   13  C6  UNL     1      21.364   6.472  11.925  1.00  0.00     0.156 C 
HETATM   14  C15 UNL     1      19.628   6.395  10.181  1.00  0.00     0.156 C 
HETATM   15  C5  UNL     1      22.201   6.639  10.648  1.00  0.00     0.292 C 
HETATM   16  N3  UNL     1      21.878   5.633   9.664  1.00  0.00     0.098 N 
HETATM   17  C16 UNL     1      20.489   5.430   9.430  1.00  0.00     0.292 C 
HETATM   18  O1  UNL     1      19.315   6.108  13.746  1.00  0.00    -0.271 OA
BRANCH  16  19
HETATM   19  C4  UNL     1      22.602   4.399   9.910  1.00  0.00     0.350 C 
BRANCH  19  20
HETATM   20  C3  UNL     1      23.350   3.976   8.704  1.00  0.00     0.126 A 
HETATM   21  N2  UNL     1      23.827   2.798   8.318  1.00  0.00    -0.286 N 
HETATM   22  N1  UNL     1      24.433   2.907   7.151  1.00  0.00    -0.288 N 
ATOM     23  H2  UNL     1      23.739   1.932   8.850  1.00  0.00     0.188 HD
HETATM   24  C2  UNL     1      24.359   4.187   6.744  1.00  0.00     0.093 A 
ATOM     25  H1  UNL     1      24.882   2.147   6.641  1.00  0.00     0.188 HD
HETATM   26  C1  UNL     1      24.918   4.749   5.468  1.00  0.00     0.090 C 
HETATM   27  N12 UNL     1      23.691   4.840   7.703  1.00  0.00    -0.332 N 
ATOM     28  H12 UNL     1      23.470   5.835   7.689  1.00  0.00     0.168 HD
ENDBRANCH  19  20
ENDBRANCH  16  19
ENDBRANCH  10  11
ENDBRANCH   1  10
BRANCH   9  29
HETATM   29  C13 UNL     1      17.517   3.179  12.235  1.00  0.00     0.266 C 
BRANCH  29  30
HETATM   30  C14 UNL     1      16.746   2.970  10.984  1.00  0.00     0.193 C 
HETATM   31  O4  UNL     1      17.256   3.402   9.919  1.00  0.00    -0.647 OA
HETATM   32  O5  UNL     1      15.535   2.334  11.001  1.00  0.00    -0.647 OA
ENDBRANCH  29  30
ENDBRANCH   9  29
BRANCH   6  33
HETATM   33  N7  UNL     1      14.626   3.451  16.033  1.00  0.00    -0.278 N 
ATOM     34  H7  UNL     1      14.083   4.063  16.642  1.00  0.00     0.189 HD
BRANCH  33  35
HETATM   35  N8  UNL     1      14.541   2.097  16.271  1.00  0.00    -0.272 N 
HETATM   36  C11 UNL     1      15.090   1.567  17.465  1.00  0.00     0.200 C 
HETATM   37  N9  UNL     1      15.463   0.339  17.540  1.00  0.00    -0.372 N 
HETATM   38  N10 UNL     1      15.224   2.419  18.589  1.00  0.00    -0.062 NA
ATOM     39  H92 UNL     1      15.367  -0.274  16.731  1.00  0.00     0.158 HD
ATOM     40  H91 UNL     1      15.858  -0.042  18.400  1.00  0.00     0.158 HD
ATOM     41  H8  UNL     1      14.087   1.482  15.595  1.00  0.00     0.189 HD
ENDBRANCH  33  35
ENDBRANCH   6  33
TORSDOF 8
ENDMDL
