MODEL 1
REMARK VINA RESULT: -9.218909880      0.000      0.000
REMARK  5 active torsions:
REMARK  status: ('A' for Active; 'I' for Inactive)
REMARK    1  A    between atoms: N1_2  and  C2_5 
REMARK    2  A    between atoms: C4_8  and  C5_9 
REMARK    3  A    between atoms: C5_9  and  N2_10 
REMARK    4  A    between atoms: C9_16  and  C10_17 
REMARK    5  A    between atoms: C11_22  and  C12_23 
ROOT
HETATM    1  C2  UNL     1      -3.492   0.880  11.592  1.00  0.00     0.249 C 
HETATM    2  C3  UNL     1      -4.459   1.138  12.671  1.00  0.00     0.211 C 
HETATM    3  O1  UNL     1      -3.933   1.726  13.861  1.00  0.00    -0.349 OA
HETATM    4  C4  UNL     1      -3.576   3.105  14.079  1.00  0.00     0.100 C 
HETATM    5  C9  UNL     1      -3.084   3.983  13.191  1.00  0.00     0.163 C 
HETATM    6  N4  UNL     1      -2.778   3.791  11.783  1.00  0.00    -0.214 N 
HETATM    7  N5  UNL     1      -3.374   4.901  11.166  1.00  0.00    -0.091 NA
HETATM    8  C11 UNL     1      -3.969   4.154   9.983  1.00  0.00     0.349 C 
HETATM    9  N10 UNL     1      -4.426   2.845  10.384  1.00  0.00    -0.035 N 
ATOM     10 1H10 UNL     1      -5.153   2.502   9.757  1.00  0.00     0.280 HD
ATOM     11 2H10 UNL     1      -4.965   2.895  11.248  1.00  0.00     0.280 HD
HETATM   12  C17 UNL     1      -3.333   1.879  10.500  1.00  0.00     0.314 C 
HETATM   13  C18 UNL     1      -2.183   2.816  10.960  1.00  0.00     0.273 C 
HETATM   14  O5  UNL     1      -1.029   2.583  10.567  1.00  0.00    -0.269 OA
ENDROOT
BRANCH   8  15
HETATM   15  C12 UNL     1      -4.949   4.997   9.323  1.00  0.00     0.065 A 
HETATM   16  C13 UNL     1      -5.552   6.089   9.893  1.00  0.00     0.079 A 
HETATM   17  C14 UNL     1      -6.484   6.855   9.215  1.00  0.00     0.135 A 
HETATM   18  N6  UNL     1      -7.198   7.937   9.528  1.00  0.00    -0.336 N 
HETATM   19  N8  UNL     1      -6.802   6.513   7.961  1.00  0.00    -0.188 N 
HETATM   20  C15 UNL     1      -7.969   8.283   8.481  1.00  0.00     0.199 A 
ATOM     21  H6  UNL     1      -7.166   8.427  10.422  1.00  0.00     0.168 HD
HETATM   22  N7  UNL     1      -7.698   7.379   7.526  1.00  0.00    -0.284 N 
ATOM     23  H7  UNL     1      -8.123   7.363   6.599  1.00  0.00     0.188 HD
HETATM   24  C16 UNL     1      -6.213   5.429   7.375  1.00  0.00     0.347 A 
HETATM   25  O4  UNL     1      -6.572   5.182   6.196  1.00  0.00    -0.245 OA
HETATM   26  N9  UNL     1      -5.317   4.704   8.049  1.00  0.00    -0.307 N 
ATOM     27  H9  UNL     1      -4.892   3.899   7.589  1.00  0.00     0.170 HD
ENDBRANCH   8  15
BRANCH   5  28
HETATM   28  C10 UNL     1      -2.810   5.286  13.610  1.00  0.00     0.231 C 
HETATM   29  O2  UNL     1      -3.516   6.292  13.868  1.00  0.00    -0.643 OA
HETATM   30  O3  UNL     1      -1.428   5.652  13.824  1.00  0.00    -0.643 OA
ENDBRANCH   5  28
BRANCH   1  31
HETATM   31  N1  UNL     1      -3.854  -0.388  10.937  1.00  0.00    -0.070 N 
HETATM   32  C1  UNL     1      -3.265  -1.526  11.591  1.00  0.00     0.267 C 
ATOM     33  H12 UNL     1      -3.620  -0.371   9.945  1.00  0.00     0.277 HD
ATOM     34  H11 UNL     1      -4.866  -0.489  10.864  1.00  0.00     0.277 HD
ENDBRANCH   1  31
BRANCH   4  35
HETATM   35  C5  UNL     1      -3.787   3.535  15.412  1.00  0.00     0.195 C 
BRANCH  35  36
HETATM   36  N2  UNL     1      -4.910   2.725  16.021  1.00  0.00    -0.352 N 
HETATM   37  C6  UNL     1      -6.147   3.249  16.074  1.00  0.00     0.142 A 
HETATM   38  S1  UNL     1      -7.067   2.021  16.805  1.00  0.00    -0.069 SA
HETATM   39  C7  UNL     1      -5.827   0.874  17.018  1.00  0.00     0.103 A 
HETATM   40  N3  UNL     1      -5.875  -0.452  17.595  1.00  0.00    -0.093 NA
HETATM   41  C8  UNL     1      -4.739   1.528  16.494  1.00  0.00     0.125 A 
ENDBRANCH  35  36
ENDBRANCH   4  35
TORSDOF 5
ENDMDL
MODEL 2
REMARK VINA RESULT: -8.876737887      1.339      1.607
REMARK  5 active torsions:
REMARK  status: ('A' for Active; 'I' for Inactive)
REMARK    1  A    between atoms: N1_2  and  C2_5 
REMARK    2  A    between atoms: C4_8  and  C5_9 
REMARK    3  A    between atoms: C5_9  and  N2_10 
REMARK    4  A    between atoms: C9_16  and  C10_17 
REMARK    5  A    between atoms: C11_22  and  C12_23 
ROOT
HETATM    1  C2  UNL     1      -3.919   1.429  11.266  1.00  0.00     0.249 C 
HETATM    2  C3  UNL     1      -4.733   1.576  12.483  1.00  0.00     0.211 C 
HETATM    3  O1  UNL     1      -4.032   1.957  13.667  1.00  0.00    -0.349 OA
HETATM    4  C4  UNL     1      -3.560   3.270  14.027  1.00  0.00     0.100 C 
HETATM    5  C9  UNL     1      -3.118   4.242  13.214  1.00  0.00     0.163 C 
HETATM    6  N4  UNL     1      -2.993   4.242  11.766  1.00  0.00    -0.214 N 
HETATM    7  N5  UNL     1      -3.582   5.458  11.389  1.00  0.00    -0.091 NA
HETATM    8  C11 UNL     1      -4.361   4.922  10.199  1.00  0.00     0.349 C 
HETATM    9  N10 UNL     1      -4.855   3.594  10.470  1.00  0.00    -0.035 N 
ATOM     10 1H10 UNL     1      -5.672   3.382   9.897  1.00  0.00     0.280 HD
ATOM     11 2H10 UNL     1      -5.284   3.543  11.393  1.00  0.00     0.280 HD
HETATM   12  C17 UNL     1      -3.823   2.568  10.312  1.00  0.00     0.314 C 
HETATM   13  C18 UNL     1      -2.566   3.369  10.748  1.00  0.00     0.273 C 
HETATM   14  O5  UNL     1      -1.485   3.138  10.184  1.00  0.00    -0.269 OA
ENDROOT
BRANCH   8  15
HETATM   15  C12 UNL     1      -5.353   5.900   9.790  1.00  0.00     0.065 A 
HETATM   16  C13 UNL     1      -5.610   6.258   8.491  1.00  0.00     0.079 A 
HETATM   17  C14 UNL     1      -6.567   7.201   8.162  1.00  0.00     0.135 A 
HETATM   18  N6  UNL     1      -7.003   7.716   7.011  1.00  0.00    -0.336 N 
HETATM   19  N8  UNL     1      -7.262   7.779   9.148  1.00  0.00    -0.188 N 
HETATM   20  C15 UNL     1      -7.969   8.618   7.262  1.00  0.00     0.199 A 
ATOM     21  H6  UNL     1      -6.658   7.466   6.084  1.00  0.00     0.168 HD
HETATM   22  N7  UNL     1      -8.105   8.632   8.597  1.00  0.00    -0.284 N 
ATOM     23  H7  UNL     1      -8.764   9.216   9.112  1.00  0.00     0.188 HD
HETATM   24  C16 UNL     1      -7.021   7.436  10.449  1.00  0.00     0.347 A 
HETATM   25  O4  UNL     1      -7.721   8.029  11.309  1.00  0.00    -0.245 OA
HETATM   26  N9  UNL     1      -6.093   6.524  10.743  1.00  0.00    -0.307 N 
ATOM     27  H9  UNL     1      -5.932   6.286  11.722  1.00  0.00     0.170 HD
ENDBRANCH   8  15
BRANCH   5  28
HETATM   28  C10 UNL     1      -2.709   5.455  13.772  1.00  0.00     0.231 C 
HETATM   29  O2  UNL     1      -3.308   6.425  14.297  1.00  0.00    -0.643 OA
HETATM   30  O3  UNL     1      -1.294   5.746  13.796  1.00  0.00    -0.643 OA
ENDBRANCH   5  28
BRANCH   1  31
HETATM   31  N1  UNL     1      -4.441   0.290  10.493  1.00  0.00    -0.070 N 
HETATM   32  C1  UNL     1      -4.323  -0.953  11.208  1.00  0.00     0.267 C 
ATOM     33  H12 UNL     1      -3.996   0.231   9.577  1.00  0.00     0.277 HD
ATOM     34  H11 UNL     1      -5.403   0.455  10.196  1.00  0.00     0.277 HD
ENDBRANCH   1  31
BRANCH   4  35
HETATM   35  C5  UNL     1      -3.582   3.511  15.423  1.00  0.00     0.195 C 
BRANCH  35  36
HETATM   36  N2  UNL     1      -4.737   2.752  16.037  1.00  0.00    -0.352 N 
HETATM   37  C6  UNL     1      -5.947   3.335  16.108  1.00  0.00     0.142 A 
HETATM   38  S1  UNL     1      -6.918   2.146  16.839  1.00  0.00    -0.069 SA
HETATM   39  C7  UNL     1      -5.733   0.939  17.029  1.00  0.00     0.103 A 
HETATM   40  N3  UNL     1      -5.840  -0.389  17.596  1.00  0.00    -0.093 NA
HETATM   41  C8  UNL     1      -4.619   1.544  16.499  1.00  0.00     0.125 A 
ENDBRANCH  35  36
ENDBRANCH   4  35
TORSDOF 5
ENDMDL
MODEL 3
REMARK VINA RESULT: -8.540004201      3.380      7.774
REMARK  5 active torsions:
REMARK  status: ('A' for Active; 'I' for Inactive)
REMARK    1  A    between atoms: N1_2  and  C2_5 
REMARK    2  A    between atoms: C4_8  and  C5_9 
REMARK    3  A    between atoms: C5_9  and  N2_10 
REMARK    4  A    between atoms: C9_16  and  C10_17 
REMARK    5  A    between atoms: C11_22  and  C12_23 
ROOT
HETATM    1  C2  UNL     1      -0.842   5.398  11.855  1.00  0.00     0.249 C 
HETATM    2  C3  UNL     1      -1.395   6.584  12.528  1.00  0.00     0.211 C 
HETATM    3  O1  UNL     1      -2.247   7.416  11.739  1.00  0.00    -0.349 OA
HETATM    4  C4  UNL     1      -3.623   7.182  11.385  1.00  0.00     0.100 C 
HETATM    5  C9  UNL     1      -4.233   6.007  11.161  1.00  0.00     0.163 C 
HETATM    6  N4  UNL     1      -3.682   4.663  11.211  1.00  0.00    -0.214 N 
HETATM    7  N5  UNL     1      -4.619   3.956  11.980  1.00  0.00    -0.091 NA
HETATM    8  C11 UNL     1      -3.617   3.188  12.828  1.00  0.00     0.349 C 
HETATM    9  N10 UNL     1      -2.468   4.008  13.126  1.00  0.00    -0.035 N 
ATOM     10 1H10 UNL     1      -2.002   3.691  13.976  1.00  0.00     0.280 HD
ATOM     11 2H10 UNL     1      -2.752   4.939  13.433  1.00  0.00     0.280 HD
HETATM   12  C17 UNL     1      -1.527   4.086  12.008  1.00  0.00     0.314 C 
HETATM   13  C18 UNL     1      -2.512   3.991  10.811  1.00  0.00     0.273 C 
HETATM   14  O5  UNL     1      -2.149   3.392   9.785  1.00  0.00    -0.269 OA
ENDROOT
BRANCH   8  15
HETATM   15  C12 UNL     1      -4.298   2.605  13.969  1.00  0.00     0.065 A 
HETATM   16  C13 UNL     1      -5.131   3.290  14.818  1.00  0.00     0.079 A 
HETATM   17  C14 UNL     1      -5.751   2.680  15.894  1.00  0.00     0.135 A 
HETATM   18  N6  UNL     1      -6.584   3.104  16.846  1.00  0.00    -0.336 N 
HETATM   19  N8  UNL     1      -5.527   1.379  16.108  1.00  0.00    -0.188 N 
HETATM   20  C15 UNL     1      -6.888   2.080  17.662  1.00  0.00     0.199 A 
ATOM     21  H6  UNL     1      -6.935   4.057  16.940  1.00  0.00     0.168 HD
HETATM   22  N7  UNL     1      -6.217   1.024  17.176  1.00  0.00    -0.284 N 
ATOM     23  H7  UNL     1      -6.236   0.085  17.574  1.00  0.00     0.188 HD
HETATM   24  C16 UNL     1      -4.701   0.678  15.274  1.00  0.00     0.347 A 
HETATM   25  O4  UNL     1      -4.549  -0.539  15.551  1.00  0.00    -0.245 OA
HETATM   26  N9  UNL     1      -4.113   1.288  14.242  1.00  0.00    -0.307 N 
ATOM     27  H9  UNL     1      -3.501   0.742  13.635  1.00  0.00     0.170 HD
ENDBRANCH   8  15
BRANCH   5  28
HETATM   28  C10 UNL     1      -5.590   6.001  10.833  1.00  0.00     0.231 C 
HETATM   29  O2  UNL     1      -6.650   6.180  11.481  1.00  0.00    -0.643 OA
HETATM   30  O3  UNL     1      -5.953   5.741   9.458  1.00  0.00    -0.643 OA
ENDBRANCH   5  28
BRANCH   1  31
HETATM   31  N1  UNL     1       0.538   5.197  12.328  1.00  0.00    -0.070 N 
HETATM   32  C1  UNL     1       1.415   4.752  11.278  1.00  0.00     0.267 C 
ATOM     33  H12 UNL     1       0.566   4.561  13.125  1.00  0.00     0.277 HD
ATOM     34  H11 UNL     1       0.899   6.038  12.778  1.00  0.00     0.277 HD
ENDBRANCH   1  31
BRANCH   4  35
HETATM   35  C5  UNL     1      -4.382   8.372  11.268  1.00  0.00     0.195 C 
BRANCH  35  36
HETATM   36  N2  UNL     1      -3.872   9.170  10.088  1.00  0.00    -0.352 N 
HETATM   37  C6  UNL     1      -3.327  10.381  10.297  1.00  0.00     0.142 A 
HETATM   38  S1  UNL     1      -2.892  10.895   8.737  1.00  0.00    -0.069 SA
HETATM   39  C7  UNL     1      -3.427   9.532   7.868  1.00  0.00     0.103 A 
HETATM   40  N3  UNL     1      -3.380   9.257   6.447  1.00  0.00    -0.093 NA
HETATM   41  C8  UNL     1      -3.927   8.733   8.867  1.00  0.00     0.125 A 
ENDBRANCH  35  36
ENDBRANCH   4  35
TORSDOF 5
ENDMDL
MODEL 4
REMARK VINA RESULT: -8.534037224      3.374      7.071
REMARK  5 active torsions:
REMARK  status: ('A' for Active; 'I' for Inactive)
REMARK    1  A    between atoms: N1_2  and  C2_5 
REMARK    2  A    between atoms: C4_8  and  C5_9 
REMARK    3  A    between atoms: C5_9  and  N2_10 
REMARK    4  A    between atoms: C9_16  and  C10_17 
REMARK    5  A    between atoms: C11_22  and  C12_23 
ROOT
HETATM    1  C2  UNL     1      -1.665   3.972  10.478  1.00  0.00     0.249 C 
HETATM    2  C3  UNL     1      -1.360   5.215  11.205  1.00  0.00     0.211 C 
HETATM    3  O1  UNL     1      -2.035   6.390  10.757  1.00  0.00    -0.349 OA
HETATM    4  C4  UNL     1      -3.400   6.773  11.013  1.00  0.00     0.100 C 
HETATM    5  C9  UNL     1      -4.470   5.975  11.164  1.00  0.00     0.163 C 
HETATM    6  N4  UNL     1      -4.548   4.525  11.111  1.00  0.00    -0.214 N 
HETATM    7  N5  UNL     1      -5.292   4.197  12.254  1.00  0.00    -0.091 NA
HETATM    8  C11 UNL     1      -4.443   3.014  12.691  1.00  0.00     0.349 C 
HETATM    9  N10 UNL     1      -3.048   3.261  12.422  1.00  0.00    -0.035 N 
ATOM     10 1H10 UNL     1      -2.452   2.705  13.035  1.00  0.00     0.280 HD
ATOM     11 2H10 UNL     1      -2.775   4.194  12.729  1.00  0.00     0.280 HD
HETATM   12  C17 UNL     1      -2.700   3.048  11.016  1.00  0.00     0.314 C 
HETATM   13  C18 UNL     1      -4.029   3.472  10.334  1.00  0.00     0.273 C 
HETATM   14  O5  UNL     1      -4.393   2.873   9.309  1.00  0.00    -0.269 OA
ENDROOT
BRANCH   8  15
HETATM   15  C12 UNL     1      -4.776   2.660  14.058  1.00  0.00     0.065 A 
HETATM   16  C13 UNL     1      -5.757   3.260  14.805  1.00  0.00     0.079 A 
HETATM   17  C14 UNL     1      -6.028   2.882  16.109  1.00  0.00     0.135 A 
HETATM   18  N6  UNL     1      -6.902   3.291  17.030  1.00  0.00    -0.336 N 
HETATM   19  N8  UNL     1      -5.305   1.896  16.651  1.00  0.00    -0.188 N 
HETATM   20  C15 UNL     1      -6.737   2.570  18.153  1.00  0.00     0.199 A 
ATOM     21  H6  UNL     1      -7.588   4.035  16.902  1.00  0.00     0.168 HD
HETATM   22  N7  UNL     1      -5.739   1.713  17.884  1.00  0.00    -0.284 N 
ATOM     23  H7  UNL     1      -5.370   1.022  18.537  1.00  0.00     0.188 HD
HETATM   24  C16 UNL     1      -4.324   1.283  15.923  1.00  0.00     0.347 A 
HETATM   25  O4  UNL     1      -3.696   0.367  16.513  1.00  0.00    -0.245 OA
HETATM   26  N9  UNL     1      -4.080   1.666  14.668  1.00  0.00    -0.307 N 
ATOM     27  H9  UNL     1      -3.342   1.193  14.146  1.00  0.00     0.170 HD
ENDBRANCH   8  15
BRANCH   5  28
HETATM   28  C10 UNL     1      -5.715   6.555  11.415  1.00  0.00     0.231 C 
HETATM   29  O2  UNL     1      -6.237   7.114  12.411  1.00  0.00    -0.643 OA
HETATM   30  O3  UNL     1      -6.687   6.562  10.346  1.00  0.00    -0.643 OA
ENDBRANCH   5  28
BRANCH   1  31
HETATM   31  N1  UNL     1      -0.427   3.182  10.369  1.00  0.00    -0.070 N 
HETATM   32  C1  UNL     1       0.483   3.728   9.397  1.00  0.00     0.267 C 
ATOM     33  H12 UNL     1      -0.631   2.202  10.172  1.00  0.00     0.277 HD
ATOM     34  H11 UNL     1       0.024   3.076  11.277  1.00  0.00     0.277 HD
ENDBRANCH   1  31
BRANCH   4  35
HETATM   35  C5  UNL     1      -3.582   8.175  11.104  1.00  0.00     0.195 C 
BRANCH  35  36
HETATM   36  N2  UNL     1      -2.599   8.736  12.108  1.00  0.00    -0.352 N 
HETATM   37  C6  UNL     1      -1.754   9.711  11.728  1.00  0.00     0.142 A 
HETATM   38  S1  UNL     1      -0.866  10.038  13.140  1.00  0.00    -0.069 SA
HETATM   39  C7  UNL     1      -1.613   8.907  14.171  1.00  0.00     0.103 A 
HETATM   40  N3  UNL     1      -1.363   8.613  15.566  1.00  0.00    -0.093 NA
HETATM   41  C8  UNL     1      -2.535   8.324  13.337  1.00  0.00     0.125 A 
ENDBRANCH  35  36
ENDBRANCH   4  35
TORSDOF 5
ENDMDL
MODEL 5
REMARK VINA RESULT: -8.470244122      2.580      4.168
REMARK  5 active torsions:
REMARK  status: ('A' for Active; 'I' for Inactive)
REMARK    1  A    between atoms: N1_2  and  C2_5 
REMARK    2  A    between atoms: C4_8  and  C5_9 
REMARK    3  A    between atoms: C5_9  and  N2_10 
REMARK    4  A    between atoms: C9_16  and  C10_17 
REMARK    5  A    between atoms: C11_22  and  C12_23 
ROOT
HETATM    1  C2  UNL     1      -1.420   5.124  12.471  1.00  0.00     0.249 C 
HETATM    2  C3  UNL     1      -1.952   3.853  11.953  1.00  0.00     0.211 C 
HETATM    3  O1  UNL     1      -2.590   3.001  12.905  1.00  0.00    -0.349 OA
HETATM    4  C4  UNL     1      -3.913   3.135  13.458  1.00  0.00     0.100 C 
HETATM    5  C9  UNL     1      -4.592   4.264  13.717  1.00  0.00     0.163 C 
HETATM    6  N4  UNL     1      -4.188   5.646  13.515  1.00  0.00    -0.214 N 
HETATM    7  N5  UNL     1      -5.294   6.217  12.869  1.00  0.00    -0.091 NA
HETATM    8  C11 UNL     1      -4.512   7.014  11.838  1.00  0.00     0.349 C 
HETATM    9  N10 UNL     1      -3.347   6.281  11.403  1.00  0.00    -0.035 N 
ATOM     10 1H10 UNL     1      -3.048   6.584  10.477  1.00  0.00     0.280 HD
ATOM     11 2H10 UNL     1      -3.582   5.312  11.192  1.00  0.00     0.280 HD
HETATM   12  C17 UNL     1      -2.245   6.358  12.363  1.00  0.00     0.314 C 
HETATM   13  C18 UNL     1      -3.041   6.442  13.694  1.00  0.00     0.273 C 
HETATM   14  O5  UNL     1      -2.587   7.134  14.619  1.00  0.00    -0.269 OA
ENDROOT
BRANCH   8  15
HETATM   15  C12 UNL     1      -5.410   7.462  10.790  1.00  0.00     0.065 A 
HETATM   16  C13 UNL     1      -5.722   8.773  10.533  1.00  0.00     0.079 A 
HETATM   17  C14 UNL     1      -6.590   9.141   9.521  1.00  0.00     0.135 A 
HETATM   18  N6  UNL     1      -7.050  10.310   9.073  1.00  0.00    -0.336 N 
HETATM   19  N8  UNL     1      -7.140   8.180   8.770  1.00  0.00    -0.188 N 
HETATM   20  C15 UNL     1      -7.888  10.097   8.044  1.00  0.00     0.199 A 
ATOM     21  H6  UNL     1      -6.803  11.225   9.452  1.00  0.00     0.168 HD
HETATM   22  N7  UNL     1      -7.921   8.765   7.882  1.00  0.00    -0.284 N 
ATOM     23  H7  UNL     1      -8.471   8.276   7.175  1.00  0.00     0.188 HD
HETATM   24  C16 UNL     1      -6.843   6.868   9.008  1.00  0.00     0.347 A 
HETATM   25  O4  UNL     1      -7.406   6.034   8.254  1.00  0.00    -0.245 OA
HETATM   26  N9  UNL     1      -6.003   6.537   9.991  1.00  0.00    -0.307 N 
ATOM     27  H9  UNL     1      -5.798   5.550  10.149  1.00  0.00     0.170 HD
ENDBRANCH   8  15
BRANCH   5  28
HETATM   28  C10 UNL     1      -5.878   4.171  14.253  1.00  0.00     0.231 C 
HETATM   29  O2  UNL     1      -6.358   4.293  15.407  1.00  0.00    -0.643 OA
HETATM   30  O3  UNL     1      -6.967   3.870  13.353  1.00  0.00    -0.643 OA
ENDBRANCH   5  28
BRANCH   1  31
HETATM   31  N1  UNL     1      -0.154   5.415  11.779  1.00  0.00    -0.070 N 
HETATM   32  C1  UNL     1       0.447   4.232  11.222  1.00  0.00     0.267 C 
ATOM     33  H12 UNL     1       0.498   5.905  12.391  1.00  0.00     0.277 HD
ATOM     34  H11 UNL     1      -0.280   6.134  11.066  1.00  0.00     0.277 HD
ENDBRANCH   1  31
BRANCH   4  35
HETATM   35  C5  UNL     1      -4.527   1.893  13.752  1.00  0.00     0.195 C 
BRANCH  35  36
HETATM   36  N2  UNL     1      -4.330   0.956  12.581  1.00  0.00    -0.352 N 
HETATM   37  C6  UNL     1      -4.779   1.315  11.365  1.00  0.00     0.142 A 
HETATM   38  S1  UNL     1      -4.342   0.003  10.377  1.00  0.00    -0.069 SA
HETATM   39  C7  UNL     1      -3.596  -0.964  11.563  1.00  0.00     0.103 A 
HETATM   40  N3  UNL     1      -2.972  -2.265  11.445  1.00  0.00    -0.093 NA
HETATM   41  C8  UNL     1      -3.732  -0.192  12.690  1.00  0.00     0.125 A 
ENDBRANCH  35  36
ENDBRANCH   4  35
TORSDOF 5
ENDMDL
