MODEL 1
REMARK VINA RESULT: -7.564512811      0.000      0.000
REMARK  12 active torsions:
REMARK  status: ('A' for Active; 'I' for Inactive)
REMARK    1  A    between atoms: C2_2  and  N1_3 
REMARK       I    between atoms: N1_3  and  C3_5 
REMARK    2  A    between atoms: C3_5  and  C4_7 
REMARK    3  A    between atoms: C4_7  and  O2_8 
REMARK    4  A    between atoms: C5_11  and  N2_12 
REMARK    5  A    between atoms: C7_16  and  N4_17 
REMARK    6  A    between atoms: N4_17  and  C8_19 
REMARK    7  A    between atoms: C8_19  and  C9_20 
REMARK    8  A    between atoms: C10_21  and  C11_22 
REMARK    9  A    between atoms: C11_22  and  O4_23 
REMARK   10  A    between atoms: O4_23  and  C12_24 
REMARK   11  A    between atoms: C20_42  and  C21_43 
REMARK   12  A    between atoms: C21_43  and  O7_44 
ROOT
HETATM    1  N2  UNL     1      -3.671   5.216  10.144  1.00  0.00    -0.244 N 
HETATM    2  C6  UNL     1      -4.891   5.137   9.588  1.00  0.00     0.210 A 
HETATM    3  N3  UNL     1      -5.686   6.231   9.446  1.00  0.00    -0.187 N 
ATOM      4  H3  UNL     1      -6.611   6.153   9.022  1.00  0.00     0.185 HD
HETATM    5  C7  UNL     1      -5.216   7.435   9.883  1.00  0.00     0.683 A 
HETATM    6  N8  UNL     1      -3.997   7.533  10.441  1.00  0.00    -0.141 N 
ATOM      7  H8  UNL     1      -3.646   8.434  10.767  1.00  0.00     0.189 HD
HETATM    8  C19 UNL     1      -3.247   6.417  10.560  1.00  0.00     0.345 A 
HETATM    9  O5  UNL     1      -2.108   6.518  11.084  1.00  0.00    -0.246 OA
ENDROOT
BRANCH   5  10
HETATM   10  N4  UNL     1      -6.013   8.429   9.719  1.00  0.00    -0.215 N 
ATOM     11  H4  UNL     1      -5.996   8.933   8.832  1.00  0.00     0.178 HD
BRANCH  10  12
HETATM   12  C8  UNL     1      -6.927   8.858  10.740  1.00  0.00     0.232 C 
BRANCH  12  13
HETATM   13  C9  UNL     1      -7.090   7.771  11.705  1.00  0.00    -0.084 C 
HETATM   14  C10 UNL     1      -7.207   6.855  12.504  1.00  0.00    -0.078 C 
BRANCH  14  15
HETATM   15  C11 UNL     1      -7.323   5.754  13.465  1.00  0.00     0.269 C 
BRANCH  15  16
HETATM   16  O4  UNL     1      -6.377   5.955  14.479  1.00  0.00    -0.343 OA
BRANCH  16  17
HETATM   17  C12 UNL     1      -5.526   4.924  14.818  1.00  0.00     0.064 A 
HETATM   18  C13 UNL     1      -4.225   5.123  14.693  1.00  0.00     0.052 A 
HETATM   19  C14 UNL     1      -3.757   6.335  14.232  1.00  0.00     0.106 A 
HETATM   20  C16 UNL     1      -3.339   4.111  15.024  1.00  0.00     0.116 A 
HETATM   21  N5  UNL     1      -2.428   6.504  14.116  1.00  0.00    -0.361 N 
HETATM   22  C15 UNL     1      -1.547   5.528  14.435  1.00  0.00     0.181 A 
ATOM     23  H5  UNL     1      -2.072   7.398  13.776  1.00  0.00     0.166 HD
HETATM   24  N6  UNL     1      -2.014   4.350  14.883  1.00  0.00    -0.338 N 
ATOM     25  H6  UNL     1      -1.350   3.614  15.124  1.00  0.00     0.168 HD
HETATM   26  N7  UNL     1      -3.761   2.992  15.449  1.00  0.00    -0.375 N 
HETATM   27  C17 UNL     1      -5.125   2.605  15.646  1.00  0.00     0.128 A 
ATOM     28  H7  UNL     1      -3.052   2.293  15.674  1.00  0.00     0.161 HD
HETATM   29  C18 UNL     1      -6.128   3.667  15.301  1.00  0.00     0.085 A 
ENDBRANCH  16  17
ENDBRANCH  15  16
ENDBRANCH  14  15
ENDBRANCH  12  13
ENDBRANCH  10  12
ENDBRANCH   5  10
BRANCH   1  30
HETATM   30  C5  UNL     1      -2.812   4.063  10.305  1.00  0.00     0.386 C 
HETATM   31  O3  UNL     1      -3.527   2.947   9.935  1.00  0.00    -0.296 OA
HETATM   32  C4  UNL     1      -3.728   2.182  11.101  1.00  0.00     0.278 C 
HETATM   33  C20 UNL     1      -2.467   2.503  11.873  1.00  0.00     0.222 C 
HETATM   34  O6  UNL     1      -2.378   3.888  11.595  1.00  0.00    -0.330 OA
BRANCH  32  35
HETATM   35  C3  UNL     1      -3.910   0.761  10.801  1.00  0.00     0.283 C 
HETATM   36  N1  UNL     1      -4.003  -0.173  11.862  1.00  0.00    -0.357 N 
ATOM     37  H1  UNL     1      -3.945   0.133  12.833  1.00  0.00     0.162 HD
HETATM   38  O1  UNL     1      -3.982   0.381   9.617  1.00  0.00    -0.267 OA
BRANCH  36  39
HETATM   39  C2  UNL     1      -4.182  -1.572  11.534  1.00  0.00     0.118 C 
HETATM   40  C1  UNL     1      -2.870  -2.304  11.448  1.00  0.00     0.026 C 
ENDBRANCH  36  39
ENDBRANCH  32  35
BRANCH  32  41
HETATM   41  O2  UNL     1      -4.781   2.700  11.869  1.00  0.00    -0.356 OA
ATOM     42  H2  UNL     1      -5.515   2.974  11.333  1.00  0.00     0.213 HD
ENDBRANCH  32  41
BRANCH  33  43
HETATM   43  C21 UNL     1      -1.247   1.809  11.340  1.00  0.00     0.202 C 
BRANCH  43  44
HETATM   44  O7  UNL     1      -0.088   2.507  11.754  1.00  0.00    -0.398 OA
ATOM     45  H7  UNL     1       0.220   2.149  12.579  1.00  0.00     0.209 HD
ENDBRANCH  43  44
ENDBRANCH  33  43
ENDBRANCH   1  30
TORSDOF 12
ENDMDL
MODEL 2
REMARK VINA RESULT: -7.469318664      0.855      2.178
REMARK  12 active torsions:
REMARK  status: ('A' for Active; 'I' for Inactive)
REMARK    1  A    between atoms: C2_2  and  N1_3 
REMARK       I    between atoms: N1_3  and  C3_5 
REMARK    2  A    between atoms: C3_5  and  C4_7 
REMARK    3  A    between atoms: C4_7  and  O2_8 
REMARK    4  A    between atoms: C5_11  and  N2_12 
REMARK    5  A    between atoms: C7_16  and  N4_17 
REMARK    6  A    between atoms: N4_17  and  C8_19 
REMARK    7  A    between atoms: C8_19  and  C9_20 
REMARK    8  A    between atoms: C10_21  and  C11_22 
REMARK    9  A    between atoms: C11_22  and  O4_23 
REMARK   10  A    between atoms: O4_23  and  C12_24 
REMARK   11  A    between atoms: C20_42  and  C21_43 
REMARK   12  A    between atoms: C21_43  and  O7_44 
ROOT
HETATM    1  N2  UNL     1      -3.563   5.312  10.108  1.00  0.00    -0.244 N 
HETATM    2  C6  UNL     1      -3.324   6.357  10.917  1.00  0.00     0.210 A 
HETATM    3  N3  UNL     1      -4.122   7.457  10.920  1.00  0.00    -0.187 N 
ATOM      4  H3  UNL     1      -3.926   8.243  11.540  1.00  0.00     0.185 HD
HETATM    5  C7  UNL     1      -5.191   7.486  10.073  1.00  0.00     0.683 A 
HETATM    6  N8  UNL     1      -5.446   6.449   9.257  1.00  0.00    -0.141 N 
ATOM      7  H8  UNL     1      -6.246   6.469   8.624  1.00  0.00     0.189 HD
HETATM    8  C19 UNL     1      -4.623   5.378   9.292  1.00  0.00     0.345 A 
HETATM    9  O5  UNL     1      -4.869   4.413   8.525  1.00  0.00    -0.246 OA
ENDROOT
BRANCH   5  10
HETATM   10  N4  UNL     1      -5.906   8.552  10.123  1.00  0.00    -0.215 N 
ATOM     11  H4  UNL     1      -5.723   9.299   9.453  1.00  0.00     0.178 HD
BRANCH  10  12
HETATM   12  C8  UNL     1      -6.954   8.730  11.088  1.00  0.00     0.232 C 
BRANCH  12  13
HETATM   13  C9  UNL     1      -7.022   7.533  11.926  1.00  0.00    -0.084 C 
HETATM   14  C10 UNL     1      -7.064   6.524  12.613  1.00  0.00    -0.078 C 
BRANCH  14  15
HETATM   15  C11 UNL     1      -7.091   5.308  13.433  1.00  0.00     0.269 C 
BRANCH  15  16
HETATM   16  O4  UNL     1      -6.401   5.567  14.624  1.00  0.00    -0.343 OA
BRANCH  16  17
HETATM   17  C12 UNL     1      -5.130   5.058  14.789  1.00  0.00     0.064 A 
HETATM   18  C13 UNL     1      -5.004   3.861  15.338  1.00  0.00     0.052 A 
HETATM   19  C14 UNL     1      -6.127   3.163  15.725  1.00  0.00     0.106 A 
HETATM   20  C16 UNL     1      -3.744   3.317  15.519  1.00  0.00     0.116 A 
HETATM   21  N5  UNL     1      -5.964   1.949  16.280  1.00  0.00    -0.361 N 
HETATM   22  C15 UNL     1      -4.741   1.400  16.465  1.00  0.00     0.181 A 
ATOM     23  H5  UNL     1      -6.789   1.424  16.571  1.00  0.00     0.166 HD
HETATM   24  N6  UNL     1      -3.653   2.090  16.084  1.00  0.00    -0.338 N 
ATOM     25  H6  UNL     1      -2.731   1.677  16.223  1.00  0.00     0.168 HD
HETATM   26  N7  UNL     1      -2.704   3.954  15.165  1.00  0.00    -0.375 N 
HETATM   27  C17 UNL     1      -2.654   5.250  14.560  1.00  0.00     0.128 A 
ATOM     28  H7  UNL     1      -1.809   3.492  15.329  1.00  0.00     0.161 HD
HETATM   29  C18 UNL     1      -3.995   5.886  14.340  1.00  0.00     0.085 A 
ENDBRANCH  16  17
ENDBRANCH  15  16
ENDBRANCH  14  15
ENDBRANCH  12  13
ENDBRANCH  10  12
ENDBRANCH   5  10
BRANCH   1  30
HETATM   30  C5  UNL     1      -2.725   4.132  10.091  1.00  0.00     0.386 C 
HETATM   31  O3  UNL     1      -3.539   3.038   9.898  1.00  0.00    -0.296 OA
HETATM   32  C4  UNL     1      -3.504   2.285  11.088  1.00  0.00     0.278 C 
HETATM   33  C20 UNL     1      -2.096   2.567  11.563  1.00  0.00     0.222 C 
HETATM   34  O6  UNL     1      -2.026   3.948  11.257  1.00  0.00    -0.330 OA
BRANCH  32  35
HETATM   35  C3  UNL     1      -3.791   0.869  10.850  1.00  0.00     0.283 C 
HETATM   36  N1  UNL     1      -3.828  -0.031  11.942  1.00  0.00    -0.357 N 
ATOM     37  H1  UNL     1      -3.656   0.295  12.893  1.00  0.00     0.162 HD
HETATM   38  O1  UNL     1      -4.002   0.465   9.690  1.00  0.00    -0.267 OA
BRANCH  36  39
HETATM   39  C2  UNL     1      -4.113  -1.425  11.676  1.00  0.00     0.118 C 
HETATM   40  C1  UNL     1      -2.859  -2.228  11.458  1.00  0.00     0.026 C 
ENDBRANCH  36  39
ENDBRANCH  32  35
BRANCH  32  41
HETATM   41  O2  UNL     1      -4.348   2.840  12.061  1.00  0.00    -0.356 OA
ATOM     42  H2  UNL     1      -3.874   3.095  12.843  1.00  0.00     0.213 HD
ENDBRANCH  32  41
BRANCH  33  43
HETATM   43  C21 UNL     1      -1.043   1.832  10.785  1.00  0.00     0.202 C 
BRANCH  43  44
HETATM   44  O7  UNL     1       0.039   2.702  10.516  1.00  0.00    -0.398 OA
ATOM     45  H7  UNL     1      -0.283   3.483  10.081  1.00  0.00     0.209 HD
ENDBRANCH  43  44
ENDBRANCH  33  43
ENDBRANCH   1  30
TORSDOF 12
ENDMDL
MODEL 3
REMARK VINA RESULT: -7.334085117      2.801      6.244
REMARK  12 active torsions:
REMARK  status: ('A' for Active; 'I' for Inactive)
REMARK    1  A    between atoms: C2_2  and  N1_3 
REMARK       I    between atoms: N1_3  and  C3_5 
REMARK    2  A    between atoms: C3_5  and  C4_7 
REMARK    3  A    between atoms: C4_7  and  O2_8 
REMARK    4  A    between atoms: C5_11  and  N2_12 
REMARK    5  A    between atoms: C7_16  and  N4_17 
REMARK    6  A    between atoms: N4_17  and  C8_19 
REMARK    7  A    between atoms: C8_19  and  C9_20 
REMARK    8  A    between atoms: C10_21  and  C11_22 
REMARK    9  A    between atoms: C11_22  and  O4_23 
REMARK   10  A    between atoms: O4_23  and  C12_24 
REMARK   11  A    between atoms: C20_42  and  C21_43 
REMARK   12  A    between atoms: C21_43  and  O7_44 
ROOT
HETATM    1  N2  UNL     1      -2.773   3.350  11.597  1.00  0.00    -0.244 N 
HETATM    2  C6  UNL     1      -2.705   3.916  12.813  1.00  0.00     0.210 A 
HETATM    3  N3  UNL     1      -3.769   3.925  13.659  1.00  0.00    -0.187 N 
ATOM      4  H3  UNL     1      -3.701   4.360  14.579  1.00  0.00     0.185 HD
HETATM    5  C7  UNL     1      -4.930   3.338  13.248  1.00  0.00     0.683 A 
HETATM    6  N8  UNL     1      -5.016   2.765  12.035  1.00  0.00    -0.141 N 
ATOM      7  H8  UNL     1      -5.884   2.325  11.728  1.00  0.00     0.189 HD
HETATM    8  C19 UNL     1      -3.931   2.783  11.231  1.00  0.00     0.345 A 
HETATM    9  O5  UNL     1      -4.020   2.246  10.098  1.00  0.00    -0.246 OA
ENDROOT
BRANCH   5  10
HETATM   10  N4  UNL     1      -5.897   3.379  14.093  1.00  0.00    -0.215 N 
ATOM     11  H4  UNL     1      -6.404   2.518  14.302  1.00  0.00     0.178 HD
BRANCH  10  12
HETATM   12  C8  UNL     1      -6.291   4.591  14.753  1.00  0.00     0.232 C 
BRANCH  12  13
HETATM   13  C9  UNL     1      -6.678   5.569  13.736  1.00  0.00    -0.084 C 
HETATM   14  C10 UNL     1      -6.983   6.396  12.891  1.00  0.00    -0.078 C 
BRANCH  14  15
HETATM   15  C11 UNL     1      -7.325   7.392  11.870  1.00  0.00     0.269 C 
BRANCH  15  16
HETATM   16  O4  UNL     1      -6.311   7.395  10.903  1.00  0.00    -0.343 OA
BRANCH  16  17
HETATM   17  C12 UNL     1      -6.655   7.461   9.569  1.00  0.00     0.064 A 
HETATM   18  C13 UNL     1      -6.118   6.580   8.743  1.00  0.00     0.052 A 
HETATM   19  C14 UNL     1      -5.244   5.631   9.225  1.00  0.00     0.106 A 
HETATM   20  C16 UNL     1      -6.440   6.615   7.396  1.00  0.00     0.116 A 
HETATM   21  N5  UNL     1      -4.716   4.749   8.358  1.00  0.00    -0.361 N 
HETATM   22  C15 UNL     1      -5.018   4.768   7.039  1.00  0.00     0.181 A 
ATOM     23  H5  UNL     1      -4.067   4.043   8.706  1.00  0.00     0.166 HD
HETATM   24  N6  UNL     1      -5.872   5.697   6.579  1.00  0.00    -0.338 N 
ATOM     25  H6  UNL     1      -6.100   5.711   5.585  1.00  0.00     0.168 HD
HETATM   26  N7  UNL     1      -7.245   7.486   6.943  1.00  0.00    -0.375 N 
HETATM   27  C17 UNL     1      -7.914   8.509   7.688  1.00  0.00     0.128 A 
ATOM     28  H7  UNL     1      -7.436   7.453   5.941  1.00  0.00     0.161 HD
HETATM   29  C18 UNL     1      -7.600   8.516   9.155  1.00  0.00     0.085 A 
ENDBRANCH  16  17
ENDBRANCH  15  16
ENDBRANCH  14  15
ENDBRANCH  12  13
ENDBRANCH  10  12
ENDBRANCH   5  10
BRANCH   1  30
HETATM   30  C5  UNL     1      -1.652   3.330  10.682  1.00  0.00     0.386 C 
HETATM   31  O3  UNL     1      -0.577   3.910  11.317  1.00  0.00    -0.296 OA
HETATM   32  C4  UNL     1      -0.305   5.119  10.646  1.00  0.00     0.278 C 
HETATM   33  C20 UNL     1      -0.715   4.758   9.234  1.00  0.00     0.222 C 
HETATM   34  O6  UNL     1      -1.890   4.022   9.521  1.00  0.00    -0.330 OA
BRANCH  32  35
HETATM   35  C3  UNL     1       1.095   5.521  10.786  1.00  0.00     0.283 C 
HETATM   36  N1  UNL     1       1.961   4.768  11.615  1.00  0.00    -0.357 N 
ATOM     37  H1  UNL     1       1.620   3.948  12.117  1.00  0.00     0.162 HD
HETATM   38  O1  UNL     1       1.518   6.522  10.176  1.00  0.00    -0.267 OA
BRANCH  36  39
HETATM   39  C2  UNL     1       3.340   5.190  11.735  1.00  0.00     0.118 C 
HETATM   40  C1  UNL     1       3.582   5.983  12.992  1.00  0.00     0.026 C 
ENDBRANCH  36  39
ENDBRANCH  32  35
BRANCH  32  41
HETATM   41  O2  UNL     1      -1.190   6.130  11.048  1.00  0.00    -0.356 OA
ATOM     42  H2  UNL     1      -1.357   6.109  11.983  1.00  0.00     0.213 HD
ENDBRANCH  32  41
BRANCH  33  43
HETATM   43  C21 UNL     1       0.270   3.869   8.534  1.00  0.00     0.202 C 
BRANCH  43  44
HETATM   44  O7  UNL     1      -0.196   3.584   7.229  1.00  0.00    -0.398 OA
ATOM     45  H7  UNL     1       0.157   4.222   6.620  1.00  0.00     0.209 HD
ENDBRANCH  43  44
ENDBRANCH  33  43
ENDBRANCH   1  30
TORSDOF 12
ENDMDL
MODEL 4
REMARK VINA RESULT: -7.204123067      6.016      9.648
REMARK  12 active torsions:
REMARK  status: ('A' for Active; 'I' for Inactive)
REMARK    1  A    between atoms: C2_2  and  N1_3 
REMARK       I    between atoms: N1_3  and  C3_5 
REMARK    2  A    between atoms: C3_5  and  C4_7 
REMARK    3  A    between atoms: C4_7  and  O2_8 
REMARK    4  A    between atoms: C5_11  and  N2_12 
REMARK    5  A    between atoms: C7_16  and  N4_17 
REMARK    6  A    between atoms: N4_17  and  C8_19 
REMARK    7  A    between atoms: C8_19  and  C9_20 
REMARK    8  A    between atoms: C10_21  and  C11_22 
REMARK    9  A    between atoms: C11_22  and  O4_23 
REMARK   10  A    between atoms: O4_23  and  C12_24 
REMARK   11  A    between atoms: C20_42  and  C21_43 
REMARK   12  A    between atoms: C21_43  and  O7_44 
ROOT
HETATM    1  N2  UNL     1      -2.271   3.982  12.217  1.00  0.00    -0.244 N 
HETATM    2  C6  UNL     1      -2.400   3.198  11.135  1.00  0.00     0.210 A 
HETATM    3  N3  UNL     1      -1.390   3.043  10.238  1.00  0.00    -0.187 N 
ATOM      4  H3  UNL     1      -1.505   2.444   9.420  1.00  0.00     0.185 HD
HETATM    5  C7  UNL     1      -0.219   3.708  10.458  1.00  0.00     0.683 A 
HETATM    6  N8  UNL     1      -0.071   4.497  11.537  1.00  0.00    -0.141 N 
ATOM      7  H8  UNL     1       0.804   4.993  11.702  1.00  0.00     0.189 HD
HETATM    8  C19 UNL     1      -1.105   4.617  12.398  1.00  0.00     0.345 A 
HETATM    9  O5  UNL     1      -0.959   5.357  13.404  1.00  0.00    -0.246 OA
ENDROOT
BRANCH   5  10
HETATM   10  N4  UNL     1       0.696   3.520   9.576  1.00  0.00    -0.215 N 
ATOM     11  H4  UNL     1       0.506   2.889   8.797  1.00  0.00     0.178 HD
BRANCH  10  12
HETATM   12  C8  UNL     1       1.976   4.165   9.647  1.00  0.00     0.232 C 
BRANCH  12  13
HETATM   13  C9  UNL     1       2.724   3.849   8.430  1.00  0.00    -0.084 C 
HETATM   14  C10 UNL     1       3.338   3.567   7.413  1.00  0.00    -0.078 C 
BRANCH  14  15
HETATM   15  C11 UNL     1       4.055   3.215   6.183  1.00  0.00     0.269 C 
BRANCH  15  16
HETATM   16  O4  UNL     1       3.896   1.840   5.961  1.00  0.00    -0.343 OA
BRANCH  16  17
HETATM   17  C12 UNL     1       4.958   0.994   6.203  1.00  0.00     0.064 A 
HETATM   18  C13 UNL     1       4.870  -0.254   5.775  1.00  0.00     0.052 A 
HETATM   19  C14 UNL     1       3.738  -0.673   5.110  1.00  0.00     0.106 A 
HETATM   20  C16 UNL     1       5.916  -1.134   5.999  1.00  0.00     0.116 A 
HETATM   21  N5  UNL     1       3.680  -1.949   4.688  1.00  0.00    -0.361 N 
HETATM   22  C15 UNL     1       4.692  -2.823   4.898  1.00  0.00     0.181 A 
ATOM     23  H5  UNL     1       2.847  -2.269   4.195  1.00  0.00     0.166 HD
HETATM   24  N6  UNL     1       5.791  -2.404   5.547  1.00  0.00    -0.338 N 
ATOM     25  H6  UNL     1       6.554  -3.062   5.705  1.00  0.00     0.168 HD
HETATM   26  N7  UNL     1       6.962  -0.757   6.612  1.00  0.00    -0.375 N 
HETATM   27  C17 UNL     1       7.227   0.548   7.139  1.00  0.00     0.128 A 
ATOM     28  H7  UNL     1       7.692  -1.457   6.741  1.00  0.00     0.161 HD
HETATM   29  C18 UNL     1       6.123   1.541   6.924  1.00  0.00     0.085 A 
ENDBRANCH  16  17
ENDBRANCH  15  16
ENDBRANCH  14  15
ENDBRANCH  12  13
ENDBRANCH  10  12
ENDBRANCH   5  10
BRANCH   1  30
HETATM   30  C5  UNL     1      -3.334   4.160  13.183  1.00  0.00     0.386 C 
HETATM   31  O3  UNL     1      -3.060   3.357  14.267  1.00  0.00    -0.296 OA
HETATM   32  C4  UNL     1      -4.046   2.351  14.295  1.00  0.00     0.278 C 
HETATM   33  C20 UNL     1      -5.231   3.099  13.721  1.00  0.00     0.222 C 
HETATM   34  O6  UNL     1      -4.570   3.816  12.694  1.00  0.00    -0.330 OA
BRANCH  32  35
HETATM   35  C3  UNL     1      -4.257   1.826  15.644  1.00  0.00     0.283 C 
HETATM   36  N1  UNL     1      -5.534   1.342  16.016  1.00  0.00    -0.357 N 
ATOM     37  H1  UNL     1      -6.310   1.355  15.354  1.00  0.00     0.162 HD
HETATM   38  O1  UNL     1      -3.313   1.809  16.458  1.00  0.00    -0.267 OA
BRANCH  36  39
HETATM   39  C2  UNL     1      -5.713   0.830  17.358  1.00  0.00     0.118 C 
HETATM   40  C1  UNL     1      -6.286   1.866  18.288  1.00  0.00     0.026 C 
ENDBRANCH  36  39
ENDBRANCH  32  35
BRANCH  32  41
HETATM   41  O2  UNL     1      -3.758   1.336  13.370  1.00  0.00    -0.356 OA
ATOM     42  H2  UNL     1      -3.984   0.476  13.701  1.00  0.00     0.213 HD
ENDBRANCH  32  41
BRANCH  33  43
HETATM   43  C21 UNL     1      -5.851   4.067  14.685  1.00  0.00     0.202 C 
BRANCH  43  44
HETATM   44  O7  UNL     1      -6.599   5.031  13.969  1.00  0.00    -0.398 OA
ATOM     45  H7  UNL     1      -6.717   5.805  14.508  1.00  0.00     0.209 HD
ENDBRANCH  43  44
ENDBRANCH  33  43
ENDBRANCH   1  30
TORSDOF 12
ENDMDL
MODEL 5
REMARK VINA RESULT: -7.184810936      3.653      5.646
REMARK  12 active torsions:
REMARK  status: ('A' for Active; 'I' for Inactive)
REMARK    1  A    between atoms: C2_2  and  N1_3 
REMARK       I    between atoms: N1_3  and  C3_5 
REMARK    2  A    between atoms: C3_5  and  C4_7 
REMARK    3  A    between atoms: C4_7  and  O2_8 
REMARK    4  A    between atoms: C5_11  and  N2_12 
REMARK    5  A    between atoms: C7_16  and  N4_17 
REMARK    6  A    between atoms: N4_17  and  C8_19 
REMARK    7  A    between atoms: C8_19  and  C9_20 
REMARK    8  A    between atoms: C10_21  and  C11_22 
REMARK    9  A    between atoms: C11_22  and  O4_23 
REMARK   10  A    between atoms: O4_23  and  C12_24 
REMARK   11  A    between atoms: C20_42  and  C21_43 
REMARK   12  A    between atoms: C21_43  and  O7_44 
ROOT
HETATM    1  N2  UNL     1      -0.542   4.426  10.886  1.00  0.00    -0.244 N 
HETATM    2  C6  UNL     1      -0.564   5.752  11.100  1.00  0.00     0.210 A 
HETATM    3  N3  UNL     1      -0.897   6.278  12.308  1.00  0.00    -0.187 N 
ATOM      4  H3  UNL     1      -0.910   7.288  12.453  1.00  0.00     0.185 HD
HETATM    5  C7  UNL     1      -1.216   5.422  13.322  1.00  0.00     0.683 A 
HETATM    6  N8  UNL     1      -1.198   4.092  13.127  1.00  0.00    -0.141 N 
ATOM      7  H8  UNL     1      -1.435   3.453  13.886  1.00  0.00     0.189 HD
HETATM    8  C19 UNL     1      -0.860   3.620  11.908  1.00  0.00     0.345 A 
HETATM    9  O5  UNL     1      -0.847   2.375  11.734  1.00  0.00    -0.246 OA
ENDROOT
BRANCH   5  10
HETATM   10  N4  UNL     1      -1.521   5.980  14.438  1.00  0.00    -0.215 N 
ATOM     11  H4  UNL     1      -1.017   5.702  15.281  1.00  0.00     0.178 HD
BRANCH  10  12
HETATM   12  C8  UNL     1      -2.544   6.981  14.543  1.00  0.00     0.232 C 
BRANCH  12  13
HETATM   13  C9  UNL     1      -3.818   6.316  14.817  1.00  0.00    -0.084 C 
HETATM   14  C10 UNL     1      -4.886   5.760  15.025  1.00  0.00    -0.078 C 
BRANCH  14  15
HETATM   15  C11 UNL     1      -6.165   5.081  15.252  1.00  0.00     0.269 C 
BRANCH  15  16
HETATM   16  O4  UNL     1      -6.317   4.093  14.270  1.00  0.00    -0.343 OA
BRANCH  16  17
HETATM   17  C12 UNL     1      -5.532   2.960  14.329  1.00  0.00     0.064 A 
HETATM   18  C13 UNL     1      -5.020   2.496  13.202  1.00  0.00     0.052 A 
HETATM   19  C14 UNL     1      -5.279   3.144  12.014  1.00  0.00     0.106 A 
HETATM   20  C16 UNL     1      -4.227   1.361  13.222  1.00  0.00     0.116 A 
HETATM   21  N5  UNL     1      -4.744   2.646  10.885  1.00  0.00    -0.361 N 
HETATM   22  C15 UNL     1      -3.966   1.539  10.884  1.00  0.00     0.181 A 
ATOM     23  H5  UNL     1      -4.930   3.119  10.000  1.00  0.00     0.166 HD
HETATM   24  N6  UNL     1      -3.720   0.915  12.048  1.00  0.00    -0.338 N 
ATOM     25  H6  UNL     1      -3.134   0.080  12.049  1.00  0.00     0.168 HD
HETATM   26  N7  UNL     1      -3.984   0.758  14.312  1.00  0.00    -0.375 N 
HETATM   27  C17 UNL     1      -4.451   1.117  15.617  1.00  0.00     0.128 A 
ATOM     28  H7  UNL     1      -3.392  -0.071  14.252  1.00  0.00     0.161 HD
HETATM   29  C18 UNL     1      -5.316   2.342  15.652  1.00  0.00     0.085 A 
ENDBRANCH  16  17
ENDBRANCH  15  16
ENDBRANCH  14  15
ENDBRANCH  12  13
ENDBRANCH  10  12
ENDBRANCH   5  10
BRANCH   1  30
HETATM   30  C5  UNL     1      -0.190   3.848   9.607  1.00  0.00     0.386 C 
HETATM   31  O3  UNL     1       1.141   3.501   9.651  1.00  0.00    -0.296 OA
HETATM   32  C4  UNL     1       1.818   4.349   8.753  1.00  0.00     0.278 C 
HETATM   33  C20 UNL     1       0.747   4.565   7.705  1.00  0.00     0.222 C 
HETATM   34  O6  UNL     1      -0.376   4.709   8.555  1.00  0.00    -0.330 OA
BRANCH  32  35
HETATM   35  C3  UNL     1       3.049   3.742   8.245  1.00  0.00     0.283 C 
HETATM   36  N1  UNL     1       3.582   4.171   7.006  1.00  0.00    -0.357 N 
ATOM     37  H1  UNL     1       3.119   4.899   6.462  1.00  0.00     0.162 HD
HETATM   38  O1  UNL     1       3.619   2.852   8.904  1.00  0.00    -0.267 OA
BRANCH  36  39
HETATM   39  C2  UNL     1       4.801   3.551   6.529  1.00  0.00     0.118 C 
HETATM   40  C1  UNL     1       4.527   2.479   5.508  1.00  0.00     0.026 C 
ENDBRANCH  36  39
ENDBRANCH  32  35
BRANCH  32  41
HETATM   41  O2  UNL     1       2.045   5.610   9.323  1.00  0.00    -0.356 OA
ATOM     42  H2  UNL     1       1.237   6.083   9.482  1.00  0.00     0.213 HD
ENDBRANCH  32  41
BRANCH  33  43
HETATM   43  C21 UNL     1       0.542   3.381   6.806  1.00  0.00     0.202 C 
BRANCH  43  44
HETATM   44  O7  UNL     1       0.871   3.735   5.476  1.00  0.00    -0.398 OA
ATOM     45  H7  UNL     1       1.089   2.952   4.984  1.00  0.00     0.209 HD
ENDBRANCH  43  44
ENDBRANCH  33  43
ENDBRANCH   1  30
TORSDOF 12
ENDMDL
