MODEL 1
REMARK VINA RESULT: -8.520450664      0.000      0.000
REMARK  9 active torsions:
REMARK  status: ('A' for Active; 'I' for Inactive)
REMARK    1  A    between atoms: C4_7  and  S1_8 
REMARK    2  A    between atoms: S1_8  and  C5_9 
REMARK    3  A    between atoms: S1_8  and  N5_23 
REMARK    4  A    between atoms: C5_9  and  N3_10 
REMARK    5  A    between atoms: C5_9  and  C10_20 
REMARK       I    between atoms: N3_10  and  C6_12 
REMARK    6  A    between atoms: C6_12  and  C7_14 
REMARK    7  A    between atoms: C7_14  and  N4_17 
REMARK    8  A    between atoms: N4_17  and  O2_18 
REMARK    9  A    between atoms: C13_28  and  N7_29 
ROOT
HETATM    1  S1  UNL     1      -2.972   3.167  12.291  1.00  0.00    -0.029 SA
ENDROOT
BRANCH   1   2
HETATM    2  C4  UNL     1      -4.162   3.718  13.415  1.00  0.00     0.110 A 
HETATM    3  C3  UNL     1      -4.603   2.897  14.440  1.00  0.00     0.083 A 
HETATM    4  N2  UNL     1      -4.114   1.656  14.582  1.00  0.00    -0.349 N 
HETATM    5  C18 UNL     1      -5.542   3.364  15.308  1.00  0.00     0.063 A 
HETATM    6  C2  UNL     1      -4.570   0.894  15.592  1.00  0.00     0.186 A 
ATOM      7  H2  UNL     1      -3.410   1.297  13.936  1.00  0.00     0.166 HD
HETATM    8  N1  UNL     1      -5.493   1.305  16.474  1.00  0.00    -0.314 N 
HETATM    9  C1  UNL     1      -5.973   0.469  17.555  1.00  0.00     0.160 C 
HETATM   10  C19 UNL     1      -5.981   2.552  16.326  1.00  0.00     0.260 A 
HETATM   11  O5  UNL     1      -6.845   3.001  17.115  1.00  0.00    -0.267 OA
HETATM   12  C17 UNL     1      -6.037   4.643  15.152  1.00  0.00     0.036 A 
HETATM   13  C16 UNL     1      -5.586   5.446  14.126  1.00  0.00     0.090 A 
HETATM   14  N10 UNL     1      -4.659   4.958  13.284  1.00  0.00    -0.358 N 
ATOM     15  H10 UNL     1      -4.322   5.548  12.523  1.00  0.00     0.166 HD
ENDBRANCH   1   2
BRANCH   1  16
HETATM   16  C5  UNL     1      -3.661   2.781  10.706  1.00  0.00     0.265 C 
BRANCH  16  17
HETATM   17  N3  UNL     1      -4.598   3.763  10.258  1.00  0.00    -0.336 N 
HETATM   18  C6  UNL     1      -4.261   4.696   9.244  1.00  0.00     0.245 C 
HETATM   19  O1  UNL     1      -3.119   4.681   8.715  1.00  0.00    -0.271 OA
ATOM     20  H3  UNL     1      -5.528   3.794  10.675  1.00  0.00     0.164 HD
BRANCH  18  21
HETATM   21  C7  UNL     1      -5.230   5.727   8.766  1.00  0.00     0.130 C 
HETATM   22  C8  UNL     1      -5.937   5.129   7.552  1.00  0.00     0.046 C 
HETATM   23  C9  UNL     1      -4.562   7.014   8.404  1.00  0.00     0.046 C 
BRANCH  21  24
HETATM   24  N4  UNL     1      -6.241   5.994   9.769  1.00  0.00    -0.084 NA
BRANCH  24  25
HETATM   25  O2  UNL     1      -5.611   6.559  10.827  1.00  0.00    -0.295 OA
ATOM     26  H2  UNL     1      -5.988   6.177  11.611  1.00  0.00     0.238 HD
ENDBRANCH  24  25
ENDBRANCH  21  24
ENDBRANCH  18  21
ENDBRANCH  16  17
BRANCH  16  27
HETATM   27  C10 UNL     1      -4.335   1.463  10.741  1.00  0.00     0.208 C 
HETATM   28  O3  UNL     1      -5.264   1.243  11.542  1.00  0.00    -0.646 OA
HETATM   29  O4  UNL     1      -3.939   0.435   9.872  1.00  0.00    -0.646 OA
ENDBRANCH  16  27
ENDBRANCH   1  16
BRANCH   1  30
HETATM   30  N5  UNL     1      -1.589   4.145  12.185  1.00  0.00    -0.266 N 
HETATM   31  C11 UNL     1      -1.182   5.042  13.090  1.00  0.00     0.197 A 
HETATM   32  N6  UNL     1      -0.031   5.640  12.668  1.00  0.00    -0.345 N 
HETATM   33  C12 UNL     1       0.293   5.110  11.474  1.00  0.00     0.122 A 
ATOM     34  H6  UNL     1       0.492   6.360  13.167  1.00  0.00     0.167 HD
HETATM   35  C13 UNL     1       1.349   5.328  10.579  1.00  0.00     0.131 A 
HETATM   36  C15 UNL     1      -0.698   4.168  11.181  1.00  0.00     0.150 A 
HETATM   37  N8  UNL     1       1.409   4.633   9.438  1.00  0.00    -0.337 N 
HETATM   38  C14 UNL     1       0.463   3.731   9.155  1.00  0.00     0.183 A 
ATOM     39  H8  UNL     1       2.175   4.791   8.785  1.00  0.00     0.168 HD
HETATM   40  N9  UNL     1      -0.565   3.510  10.012  1.00  0.00    -0.336 N 
ATOM     41  H9  UNL     1      -1.267   2.814   9.761  1.00  0.00     0.168 HD
BRANCH  35  42
HETATM   42  N7  UNL     1       2.251   6.208  10.880  1.00  0.00    -0.383 N 
ATOM     43  H72 UNL     1       2.158   6.801  11.705  1.00  0.00     0.157 HD
ATOM     44  H71 UNL     1       3.066   6.302  10.274  1.00  0.00     0.157 HD
ENDBRANCH  35  42
ENDBRANCH   1  30
TORSDOF 9
ENDMDL
MODEL 2
REMARK VINA RESULT: -8.239462158      1.761      3.461
REMARK  9 active torsions:
REMARK  status: ('A' for Active; 'I' for Inactive)
REMARK    1  A    between atoms: C4_7  and  S1_8 
REMARK    2  A    between atoms: S1_8  and  C5_9 
REMARK    3  A    between atoms: S1_8  and  N5_23 
REMARK    4  A    between atoms: C5_9  and  N3_10 
REMARK    5  A    between atoms: C5_9  and  C10_20 
REMARK       I    between atoms: N3_10  and  C6_12 
REMARK    6  A    between atoms: C6_12  and  C7_14 
REMARK    7  A    between atoms: C7_14  and  N4_17 
REMARK    8  A    between atoms: N4_17  and  O2_18 
REMARK    9  A    between atoms: C13_28  and  N7_29 
ROOT
HETATM    1  S1  UNL     1      -2.927   4.037  12.870  1.00  0.00    -0.029 SA
ENDROOT
BRANCH   1   2
HETATM    2  C4  UNL     1      -4.244   4.288  13.959  1.00  0.00     0.110 A 
HETATM    3  C3  UNL     1      -4.633   3.293  14.841  1.00  0.00     0.083 A 
HETATM    4  N2  UNL     1      -3.995   2.113  14.867  1.00  0.00    -0.349 N 
HETATM    5  C18 UNL     1      -5.675   3.525  15.685  1.00  0.00     0.063 A 
HETATM    6  C2  UNL     1      -4.407   1.176  15.740  1.00  0.00     0.186 A 
ATOM      7  H2  UNL     1      -3.214   1.930  14.237  1.00  0.00     0.166 HD
HETATM    8  N1  UNL     1      -5.427   1.352  16.592  1.00  0.00    -0.314 N 
HETATM    9  C1  UNL     1      -5.856   0.331  17.525  1.00  0.00     0.160 C 
HETATM   10  C19 UNL     1      -6.064   2.539  16.561  1.00  0.00     0.260 A 
HETATM   11  O5  UNL     1      -7.025   2.772  17.331  1.00  0.00    -0.267 OA
HETATM   12  C17 UNL     1      -6.323   4.743  15.648  1.00  0.00     0.036 A 
HETATM   13  C16 UNL     1      -5.921   5.721  14.765  1.00  0.00     0.090 A 
HETATM   14  N10 UNL     1      -4.890   5.464  13.943  1.00  0.00    -0.358 N 
ATOM     15  H10 UNL     1      -4.589   6.184  13.286  1.00  0.00     0.166 HD
ENDBRANCH   1   2
BRANCH   1  16
HETATM   16  C5  UNL     1      -3.465   3.562  11.250  1.00  0.00     0.265 C 
BRANCH  16  17
HETATM   17  N3  UNL     1      -3.020   2.255  10.882  1.00  0.00    -0.336 N 
HETATM   18  C6  UNL     1      -3.718   1.093  11.301  1.00  0.00     0.245 C 
HETATM   19  O1  UNL     1      -4.751   1.189  12.012  1.00  0.00    -0.271 OA
ATOM     20  H3  UNL     1      -2.183   2.154  10.307  1.00  0.00     0.164 HD
BRANCH  18  21
HETATM   21  C7  UNL     1      -3.265  -0.279  10.924  1.00  0.00     0.130 C 
HETATM   22  C8  UNL     1      -4.185  -1.257  11.652  1.00  0.00     0.046 C 
HETATM   23  C9  UNL     1      -1.837  -0.529  11.288  1.00  0.00     0.046 C 
BRANCH  21  24
HETATM   24  N4  UNL     1      -3.429  -0.507   9.503  1.00  0.00    -0.084 NA
BRANCH  24  25
HETATM   25  O2  UNL     1      -4.417   0.317   9.079  1.00  0.00    -0.295 OA
ATOM     26  H2  UNL     1      -5.056  -0.223   8.629  1.00  0.00     0.238 HD
ENDBRANCH  24  25
ENDBRANCH  21  24
ENDBRANCH  18  21
ENDBRANCH  16  17
BRANCH  16  27
HETATM   27  C10 UNL     1      -2.981   4.530  10.240  1.00  0.00     0.208 C 
HETATM   28  O3  UNL     1      -3.513   5.651  10.122  1.00  0.00    -0.646 OA
HETATM   29  O4  UNL     1      -1.911   4.202   9.392  1.00  0.00    -0.646 OA
ENDBRANCH  16  27
ENDBRANCH   1  16
BRANCH   1  30
HETATM   30  N5  UNL     1      -1.782   5.290  12.839  1.00  0.00    -0.266 N 
HETATM   31  C11 UNL     1      -1.961   6.537  13.289  1.00  0.00     0.197 A 
HETATM   32  N6  UNL     1      -0.824   7.267  13.100  1.00  0.00    -0.345 N 
HETATM   33  C12 UNL     1       0.088   6.465  12.520  1.00  0.00     0.122 A 
ATOM     34  H6  UNL     1      -0.689   8.246  13.353  1.00  0.00     0.167 HD
HETATM   35  C13 UNL     1       1.409   6.659  12.097  1.00  0.00     0.131 A 
HETATM   36  C15 UNL     1      -0.530   5.220  12.361  1.00  0.00     0.150 A 
HETATM   37  N8  UNL     1       2.084   5.649  11.539  1.00  0.00    -0.337 N 
HETATM   38  C14 UNL     1       1.498   4.457  11.386  1.00  0.00     0.183 A 
ATOM     39  H8  UNL     1       3.046   5.787  11.230  1.00  0.00     0.168 HD
HETATM   40  N9  UNL     1       0.219   4.255  11.790  1.00  0.00    -0.336 N 
ATOM     41  H9  UNL     1      -0.195   3.332  11.656  1.00  0.00     0.168 HD
BRANCH  35  42
HETATM   42  N7  UNL     1       1.952   7.824  12.259  1.00  0.00    -0.383 N 
ATOM     43  H72 UNL     1       2.965   7.943  12.238  1.00  0.00     0.157 HD
ATOM     44  H71 UNL     1       1.347   8.631  12.408  1.00  0.00     0.157 HD
ENDBRANCH  35  42
ENDBRANCH   1  30
TORSDOF 9
ENDMDL
MODEL 3
REMARK VINA RESULT: -8.166225444      3.056      6.982
REMARK  9 active torsions:
REMARK  status: ('A' for Active; 'I' for Inactive)
REMARK    1  A    between atoms: C4_7  and  S1_8 
REMARK    2  A    between atoms: S1_8  and  C5_9 
REMARK    3  A    between atoms: S1_8  and  N5_23 
REMARK    4  A    between atoms: C5_9  and  N3_10 
REMARK    5  A    between atoms: C5_9  and  C10_20 
REMARK       I    between atoms: N3_10  and  C6_12 
REMARK    6  A    between atoms: C6_12  and  C7_14 
REMARK    7  A    between atoms: C7_14  and  N4_17 
REMARK    8  A    between atoms: N4_17  and  O2_18 
REMARK    9  A    between atoms: C13_28  and  N7_29 
ROOT
HETATM    1  S1  UNL     1      -4.336   4.672  12.911  1.00  0.00    -0.029 SA
ENDROOT
BRANCH   1   2
HETATM    2  C4  UNL     1      -5.625   5.729  12.460  1.00  0.00     0.110 A 
HETATM    3  C3  UNL     1      -5.593   6.412  11.256  1.00  0.00     0.083 A 
HETATM    4  N2  UNL     1      -4.559   6.266  10.413  1.00  0.00    -0.349 N 
HETATM    5  C18 UNL     1      -6.626   7.237  10.932  1.00  0.00     0.063 A 
HETATM    6  C2  UNL     1      -4.570   6.948   9.254  1.00  0.00     0.186 A 
ATOM      7  H2  UNL     1      -3.780   5.650  10.648  1.00  0.00     0.166 HD
HETATM    8  N1  UNL     1      -5.562   7.773   8.888  1.00  0.00    -0.314 N 
HETATM    9  C1  UNL     1      -5.556   8.500   7.635  1.00  0.00     0.160 C 
HETATM   10  C19 UNL     1      -6.597   7.916   9.738  1.00  0.00     0.260 A 
HETATM   11  O5  UNL     1      -7.558   8.670   9.458  1.00  0.00    -0.267 OA
HETATM   12  C17 UNL     1      -7.684   7.378  11.808  1.00  0.00     0.036 A 
HETATM   13  C16 UNL     1      -7.699   6.690  13.002  1.00  0.00     0.090 A 
HETATM   14  N10 UNL     1      -6.665   5.883  13.295  1.00  0.00    -0.358 N 
ATOM     15  H10 UNL     1      -6.671   5.372  14.178  1.00  0.00     0.166 HD
ENDBRANCH   1   2
BRANCH   1  16
HETATM   16  C5  UNL     1      -4.108   4.587  14.665  1.00  0.00     0.265 C 
BRANCH  16  17
HETATM   17  N3  UNL     1      -5.060   3.733  15.305  1.00  0.00    -0.336 N 
HETATM   18  C6  UNL     1      -4.654   2.563  15.996  1.00  0.00     0.245 C 
HETATM   19  O1  UNL     1      -3.437   2.247  16.059  1.00  0.00    -0.271 OA
ATOM     20  H3  UNL     1      -6.051   3.970  15.264  1.00  0.00     0.164 HD
BRANCH  18  21
HETATM   21  C7  UNL     1      -5.637   1.662  16.669  1.00  0.00     0.130 C 
HETATM   22  C8  UNL     1      -7.018   2.065  16.157  1.00  0.00     0.046 C 
HETATM   23  C9  UNL     1      -5.578   1.763  18.158  1.00  0.00     0.046 C 
BRANCH  21  24
HETATM   24  N4  UNL     1      -5.419   0.281  16.288  1.00  0.00    -0.084 NA
BRANCH  24  25
HETATM   25  O2  UNL     1      -5.842  -0.487  17.321  1.00  0.00    -0.295 OA
ATOM     26  H2  UNL     1      -5.445  -1.343  17.212  1.00  0.00     0.238 HD
ENDBRANCH  24  25
ENDBRANCH  21  24
ENDBRANCH  18  21
ENDBRANCH  16  17
BRANCH  16  27
HETATM   27  C10 UNL     1      -4.203   5.937  15.266  1.00  0.00     0.208 C 
HETATM   28  O3  UNL     1      -5.199   6.268  15.938  1.00  0.00    -0.646 OA
HETATM   29  O4  UNL     1      -3.172   6.872  15.088  1.00  0.00    -0.646 OA
ENDBRANCH  16  27
ENDBRANCH   1  16
BRANCH   1  30
HETATM   30  N5  UNL     1      -4.386   3.140  12.181  1.00  0.00    -0.266 N 
HETATM   31  C11 UNL     1      -5.486   2.432  11.900  1.00  0.00     0.197 A 
HETATM   32  N6  UNL     1      -5.140   1.248  11.317  1.00  0.00    -0.345 N 
HETATM   33  C12 UNL     1      -3.798   1.209  11.229  1.00  0.00     0.122 A 
ATOM     34  H6  UNL     1      -5.784   0.521  11.003  1.00  0.00     0.167 HD
HETATM   35  C13 UNL     1      -2.893   0.263  10.731  1.00  0.00     0.131 A 
HETATM   36  C15 UNL     1      -3.334   2.409  11.778  1.00  0.00     0.150 A 
HETATM   37  N8  UNL     1      -1.579   0.507  10.781  1.00  0.00    -0.337 N 
HETATM   38  C14 UNL     1      -1.132   1.653  11.304  1.00  0.00     0.183 A 
ATOM     39  H8  UNL     1      -0.919  -0.181  10.420  1.00  0.00     0.168 HD
HETATM   40  N9  UNL     1      -1.997   2.579  11.791  1.00  0.00    -0.336 N 
ATOM     41  H9  UNL     1      -1.618   3.441  12.183  1.00  0.00     0.168 HD
BRANCH  35  42
HETATM   42  N7  UNL     1      -3.355  -0.839  10.229  1.00  0.00    -0.383 N 
ATOM     43  H72 UNL     1      -3.869  -1.508  10.803  1.00  0.00     0.157 HD
ATOM     44  H71 UNL     1      -3.196  -1.032   9.240  1.00  0.00     0.157 HD
ENDBRANCH  35  42
ENDBRANCH   1  30
TORSDOF 9
ENDMDL
MODEL 4
REMARK VINA RESULT: -8.078636422      2.360      6.829
REMARK  9 active torsions:
REMARK  status: ('A' for Active; 'I' for Inactive)
REMARK    1  A    between atoms: C4_7  and  S1_8 
REMARK    2  A    between atoms: S1_8  and  C5_9 
REMARK    3  A    between atoms: S1_8  and  N5_23 
REMARK    4  A    between atoms: C5_9  and  N3_10 
REMARK    5  A    between atoms: C5_9  and  C10_20 
REMARK       I    between atoms: N3_10  and  C6_12 
REMARK    6  A    between atoms: C6_12  and  C7_14 
REMARK    7  A    between atoms: C7_14  and  N4_17 
REMARK    8  A    between atoms: N4_17  and  O2_18 
REMARK    9  A    between atoms: C13_28  and  N7_29 
ROOT
HETATM    1  S1  UNL     1      -4.279   4.964  11.891  1.00  0.00    -0.029 SA
ENDROOT
BRANCH   1   2
HETATM    2  C4  UNL     1      -2.572   5.183  12.035  1.00  0.00     0.110 A 
HETATM    3  C3  UNL     1      -2.036   6.439  12.267  1.00  0.00     0.083 A 
HETATM    4  N2  UNL     1      -2.832   7.512  12.386  1.00  0.00    -0.349 N 
HETATM    5  C18 UNL     1      -0.686   6.576  12.375  1.00  0.00     0.063 A 
HETATM    6  C2  UNL     1      -2.269   8.713  12.612  1.00  0.00     0.186 A 
ATOM      7  H2  UNL     1      -3.845   7.419  12.306  1.00  0.00     0.166 HD
HETATM    8  N1  UNL     1      -0.946   8.902  12.726  1.00  0.00    -0.314 N 
HETATM    9  C1  UNL     1      -0.357  10.203  12.969  1.00  0.00     0.160 C 
HETATM   10  C19 UNL     1      -0.151   7.821  12.606  1.00  0.00     0.260 A 
HETATM   11  O5  UNL     1       1.094   7.926  12.702  1.00  0.00    -0.267 OA
HETATM   12  C17 UNL     1       0.123   5.464  12.251  1.00  0.00     0.036 A 
HETATM   13  C16 UNL     1      -0.429   4.222  12.021  1.00  0.00     0.090 A 
HETATM   14  N10 UNL     1      -1.764   4.117  11.918  1.00  0.00    -0.358 N 
ATOM     15  H10 UNL     1      -2.177   3.201  11.747  1.00  0.00     0.166 HD
ENDBRANCH   1   2
BRANCH   1  16
HETATM   16  C5  UNL     1      -4.712   3.816  10.613  1.00  0.00     0.265 C 
BRANCH  16  17
HETATM   17  N3  UNL     1      -3.824   2.697  10.552  1.00  0.00    -0.336 N 
HETATM   18  C6  UNL     1      -4.238   1.404  10.962  1.00  0.00     0.245 C 
HETATM   19  O1  UNL     1      -5.405   1.213  11.393  1.00  0.00    -0.271 OA
ATOM     20  H3  UNL     1      -2.874   2.831  10.207  1.00  0.00     0.164 HD
BRANCH  18  21
HETATM   21  C7  UNL     1      -3.322   0.226  10.904  1.00  0.00     0.130 C 
HETATM   22  C8  UNL     1      -3.839  -0.778  11.932  1.00  0.00     0.046 C 
HETATM   23  C9  UNL     1      -1.902   0.592  11.193  1.00  0.00     0.046 C 
BRANCH  21  24
HETATM   24  N4  UNL     1      -3.383  -0.414   9.605  1.00  0.00    -0.084 NA
BRANCH  24  25
HETATM   25  O2  UNL     1      -4.377   0.190   8.911  1.00  0.00    -0.295 OA
ATOM     26  H2  UNL     1      -4.383  -0.195   8.042  1.00  0.00     0.238 HD
ENDBRANCH  24  25
ENDBRANCH  21  24
ENDBRANCH  18  21
ENDBRANCH  16  17
BRANCH  16  27
HETATM   27  C10 UNL     1      -4.718   4.489   9.294  1.00  0.00     0.208 C 
HETATM   28  O3  UNL     1      -3.701   4.491   8.574  1.00  0.00    -0.646 OA
HETATM   29  O4  UNL     1      -5.873   5.138   8.829  1.00  0.00    -0.646 OA
ENDBRANCH  16  27
ENDBRANCH   1  16
BRANCH   1  30
HETATM   30  N5  UNL     1      -5.080   4.649  13.354  1.00  0.00    -0.266 N 
HETATM   31  C11 UNL     1      -5.934   5.466  13.981  1.00  0.00     0.197 A 
HETATM   32  N6  UNL     1      -6.380   4.880  15.130  1.00  0.00    -0.345 N 
HETATM   33  C12 UNL     1      -5.796   3.672  15.229  1.00  0.00     0.122 A 
ATOM     34  H6  UNL     1      -7.039   5.286  15.795  1.00  0.00     0.167 HD
HETATM   35  C13 UNL     1      -5.869   2.643  16.176  1.00  0.00     0.131 A 
HETATM   36  C15 UNL     1      -4.978   3.539  14.102  1.00  0.00     0.150 A 
HETATM   37  N8  UNL     1      -5.153   1.527  16.003  1.00  0.00    -0.337 N 
HETATM   38  C14 UNL     1      -4.370   1.395  14.927  1.00  0.00     0.183 A 
ATOM     39  H8  UNL     1      -5.204   0.776  16.692  1.00  0.00     0.168 HD
HETATM   40  N9  UNL     1      -4.289   2.384  14.002  1.00  0.00    -0.336 N 
ATOM     41  H9  UNL     1      -3.681   2.247  13.194  1.00  0.00     0.168 HD
BRANCH  35  42
HETATM   42  N7  UNL     1      -6.636   2.798  17.208  1.00  0.00    -0.383 N 
ATOM     43  H72 UNL     1      -7.516   2.289  17.295  1.00  0.00     0.157 HD
ATOM     44  H71 UNL     1      -6.345   3.442  17.944  1.00  0.00     0.157 HD
ENDBRANCH  35  42
ENDBRANCH   1  30
TORSDOF 9
ENDMDL
MODEL 5
REMARK VINA RESULT: -7.997501932      1.202      1.647
REMARK  9 active torsions:
REMARK  status: ('A' for Active; 'I' for Inactive)
REMARK    1  A    between atoms: C4_7  and  S1_8 
REMARK    2  A    between atoms: S1_8  and  C5_9 
REMARK    3  A    between atoms: S1_8  and  N5_23 
REMARK    4  A    between atoms: C5_9  and  N3_10 
REMARK    5  A    between atoms: C5_9  and  C10_20 
REMARK       I    between atoms: N3_10  and  C6_12 
REMARK    6  A    between atoms: C6_12  and  C7_14 
REMARK    7  A    between atoms: C7_14  and  N4_17 
REMARK    8  A    between atoms: N4_17  and  O2_18 
REMARK    9  A    between atoms: C13_28  and  N7_29 
ROOT
HETATM    1  S1  UNL     1      -3.026   3.341  12.266  1.00  0.00    -0.029 SA
ENDROOT
BRANCH   1   2
HETATM    2  C4  UNL     1      -4.236   3.829  13.397  1.00  0.00     0.110 A 
HETATM    3  C3  UNL     1      -4.643   2.977  14.410  1.00  0.00     0.083 A 
HETATM    4  N2  UNL     1      -4.106   1.754  14.534  1.00  0.00    -0.349 N 
HETATM    5  C18 UNL     1      -5.599   3.394  15.285  1.00  0.00     0.063 A 
HETATM    6  C2  UNL     1      -4.532   0.959  15.533  1.00  0.00     0.186 A 
ATOM      7  H2  UNL     1      -3.390   1.432  13.882  1.00  0.00     0.166 HD
HETATM    8  N1  UNL     1      -5.470   1.321  16.420  1.00  0.00    -0.314 N 
HETATM    9  C1  UNL     1      -5.916   0.452  17.489  1.00  0.00     0.160 C 
HETATM   10  C19 UNL     1      -6.006   2.550  16.291  1.00  0.00     0.260 A 
HETATM   11  O5  UNL     1      -6.886   2.953  17.086  1.00  0.00    -0.267 OA
HETATM   12  C17 UNL     1      -6.144   4.655  15.147  1.00  0.00     0.036 A 
HETATM   13  C16 UNL     1      -5.725   5.490  14.133  1.00  0.00     0.090 A 
HETATM   14  N10 UNL     1      -4.780   5.051  13.284  1.00  0.00    -0.358 N 
ATOM     15  H10 UNL     1      -4.468   5.664  12.532  1.00  0.00     0.166 HD
ENDBRANCH   1   2
BRANCH   1  16
HETATM   16  C5  UNL     1      -3.708   2.879  10.698  1.00  0.00     0.265 C 
BRANCH  16  17
HETATM   17  N3  UNL     1      -4.675   3.816  10.219  1.00  0.00    -0.336 N 
HETATM   18  C6  UNL     1      -4.348   4.767   9.218  1.00  0.00     0.245 C 
HETATM   19  O1  UNL     1      -3.190   4.806   8.728  1.00  0.00    -0.271 OA
ATOM     20  H3  UNL     1      -5.619   3.802  10.604  1.00  0.00     0.164 HD
BRANCH  18  21
HETATM   21  C7  UNL     1      -5.348   5.751   8.707  1.00  0.00     0.130 C 
HETATM   22  C8  UNL     1      -6.023   5.101   7.501  1.00  0.00     0.046 C 
HETATM   23  C9  UNL     1      -4.723   7.053   8.322  1.00  0.00     0.046 C 
BRANCH  21  24
HETATM   24  N4  UNL     1      -6.377   6.005   9.695  1.00  0.00    -0.084 NA
BRANCH  24  25
HETATM   25  O2  UNL     1      -5.760   6.510  10.791  1.00  0.00    -0.295 OA
ATOM     26  H2  UNL     1      -6.281   6.257  11.544  1.00  0.00     0.238 HD
ENDBRANCH  24  25
ENDBRANCH  21  24
ENDBRANCH  18  21
ENDBRANCH  16  17
BRANCH  16  27
HETATM   27  C10 UNL     1      -4.343   1.544  10.783  1.00  0.00     0.208 C 
HETATM   28  O3  UNL     1      -5.293   1.338  11.562  1.00  0.00    -0.646 OA
HETATM   29  O4  UNL     1      -3.884   0.483   9.987  1.00  0.00    -0.646 OA
ENDBRANCH  16  27
ENDBRANCH   1  16
BRANCH   1  30
HETATM   30  N5  UNL     1      -1.716   4.411  12.121  1.00  0.00    -0.266 N 
HETATM   31  C11 UNL     1      -0.424   4.110  12.300  1.00  0.00     0.197 A 
HETATM   32  N6  UNL     1       0.343   5.220  12.102  1.00  0.00    -0.345 N 
HETATM   33  C12 UNL     1      -0.479   6.239  11.793  1.00  0.00     0.122 A 
ATOM     34  H6  UNL     1       1.360   5.269  12.174  1.00  0.00     0.167 HD
HETATM   35  C13 UNL     1      -0.266   7.591  11.493  1.00  0.00     0.131 A 
HETATM   36  C15 UNL     1      -1.776   5.715  11.809  1.00  0.00     0.150 A 
HETATM   37  N8  UNL     1      -1.307   8.385  11.220  1.00  0.00    -0.337 N 
HETATM   38  C14 UNL     1      -2.548   7.887  11.234  1.00  0.00     0.183 A 
ATOM     39  H8  UNL     1      -1.155   9.369  11.002  1.00  0.00     0.168 HD
HETATM   40  N9  UNL     1      -2.770   6.580  11.523  1.00  0.00    -0.336 N 
ATOM     41  H9  UNL     1      -3.731   6.238  11.524  1.00  0.00     0.168 HD
BRANCH  35  42
HETATM   42  N7  UNL     1       0.947   8.045  11.487  1.00  0.00    -0.383 N 
ATOM     43  H72 UNL     1       1.723   7.489  11.846  1.00  0.00     0.157 HD
ATOM     44  H71 UNL     1       1.120   8.979  11.113  1.00  0.00     0.157 HD
ENDBRANCH  35  42
ENDBRANCH   1  30
TORSDOF 9
ENDMDL
