MODEL 1
REMARK VINA RESULT: -8.643423944      0.000      0.000
REMARK  9 active torsions:
REMARK  status: ('A' for Active; 'I' for Inactive)
REMARK    1  A    between atoms: C2_2  and  N1_3 
REMARK    2  A    between atoms: C6_10  and  N4_11 
REMARK    3  A    between atoms: N5_14  and  C9_15 
REMARK    4  A    between atoms: C9_15  and  C10_16 
REMARK    5  A    between atoms: C10_16  and  C11_17 
REMARK    6  A    between atoms: C11_17  and  N6_18 
REMARK    7  A    between atoms: C13_20  and  N7_21 
REMARK    8  A    between atoms: C13_20  and  O2_25 
REMARK    9  A    between atoms: C14_27  and  N8_28 
ROOT
HETATM    1  N4  UNL     1      -1.561   4.176  11.424  1.00  0.00    -0.300 N 
HETATM    2  C7  UNL     1      -2.405   5.298  11.781  1.00  0.00     0.178 C 
HETATM    3  C8  UNL     1      -3.186   5.029  13.035  1.00  0.00     0.098 C 
HETATM    4  N5  UNL     1      -4.464   4.459  12.867  1.00  0.00    -0.272 N 
HETATM    5  S1  UNL     1      -4.640   3.330  11.619  1.00  0.00     0.326 S 
HETATM    6  O4  UNL     1      -4.937   3.974  10.287  1.00  0.00    -0.182 OA
HETATM    7  O5  UNL     1      -5.804   2.419  11.917  1.00  0.00    -0.182 OA
HETATM    8  N9  UNL     1      -3.207   2.347  11.499  1.00  0.00    -0.240 N 
ATOM      9  H9  UNL     1      -3.326   1.334  11.486  1.00  0.00     0.183 HD
HETATM   10  C16 UNL     1      -1.996   2.812  11.425  1.00  0.00     0.207 C 
HETATM   11  N10 UNL     1      -0.964   1.841  11.334  1.00  0.00    -0.062 NA
ENDROOT
BRANCH   4  12
HETATM   12  C9  UNL     1      -5.569   5.377  12.958  1.00  0.00     0.143 C 
BRANCH  12  13
HETATM   13  C10 UNL     1      -6.520   5.070  14.059  1.00  0.00     0.041 C 
BRANCH  13  14
HETATM   14  C11 UNL     1      -5.753   4.773  15.323  1.00  0.00     0.127 C 
BRANCH  14  15
HETATM   15  N6  UNL     1      -5.543   3.386  15.591  1.00  0.00    -0.345 N 
HETATM   16  C12 UNL     1      -6.536   2.306  15.528  1.00  0.00     0.197 C 
HETATM   17  C13 UNL     1      -6.192   1.561  16.810  1.00  0.00     0.275 C 
HETATM   18  C14 UNL     1      -4.682   1.475  16.711  1.00  0.00     0.338 C 
HETATM   19  C15 UNL     1      -4.334   2.728  15.995  1.00  0.00     0.255 C 
HETATM   20  O3  UNL     1      -3.192   3.180  15.756  1.00  0.00    -0.271 OA
BRANCH  17  21
HETATM   21  N7  UNL     1      -6.555   2.422  17.920  1.00  0.00    -0.043 N 
ATOM     22  H73 UNL     1      -5.790   3.023  18.226  1.00  0.00     0.278 HD
ATOM     23  H72 UNL     1      -7.207   3.161  17.656  1.00  0.00     0.278 HD
ATOM     24  H71 UNL     1      -6.913   1.822  18.664  1.00  0.00     0.278 HD
ENDBRANCH  17  21
BRANCH  17  25
HETATM   25  O2  UNL     1      -6.777   0.312  16.872  1.00  0.00    -0.362 OA
ATOM     26  H2  UNL     1      -6.940   0.028  17.764  1.00  0.00     0.212 HD
ENDBRANCH  17  25
BRANCH  18  27
HETATM   27  N8  UNL     1      -4.282   0.293  15.975  1.00  0.00    -0.062 N 
ATOM     28  H83 UNL     1      -4.923  -0.484  16.131  1.00  0.00     0.275 HD
ATOM     29  H82 UNL     1      -4.422   0.408  14.971  1.00  0.00     0.275 HD
ATOM     30  H81 UNL     1      -3.319   0.038  16.194  1.00  0.00     0.275 HD
ENDBRANCH  18  27
ENDBRANCH  14  15
ENDBRANCH  13  14
ENDBRANCH  12  13
ENDBRANCH   4  12
BRANCH   1  31
HETATM   31  C6  UNL     1      -0.215   4.433  11.045  1.00  0.00     0.144 A 
HETATM   32  C5  UNL     1       0.343   4.585   9.801  1.00  0.00     0.184 A 
HETATM   33  N3  UNL     1       1.681   4.819   9.944  1.00  0.00    -0.088 N 
HETATM   34  N2  UNL     1       2.791   5.047   9.262  1.00  0.00    -0.226 N 
HETATM   35  C17 UNL     1       1.950   4.812  11.270  1.00  0.00     0.711 A 
HETATM   36  C3  UNL     1       3.779   5.187  10.161  1.00  0.00     0.358 A 
HETATM   37  C4  UNL     1       2.905   5.128   7.820  1.00  0.00     0.184 C 
HETATM   38  N1  UNL     1       3.266   5.043  11.389  1.00  0.00    -0.130 N 
HETATM   39  O1  UNL     1       4.993   5.418   9.840  1.00  0.00    -0.244 OA
HETATM   40  N11 UNL     1       0.796   4.578  11.919  1.00  0.00    -0.173 N 
ATOM     41  H11 UNL     1       0.700   4.518  12.932  1.00  0.00     0.186 HD
BRANCH  38  42
HETATM   42  C2  UNL     1       4.000   5.124  12.619  1.00  0.00     0.148 C 
HETATM   43  C1  UNL     1       3.940   6.502  13.241  1.00  0.00     0.027 C 
ENDBRANCH  38  42
ENDBRANCH   1  31
TORSDOF 9
ENDMDL
MODEL 2
REMARK VINA RESULT: -8.515194172      1.037      2.230
REMARK  9 active torsions:
REMARK  status: ('A' for Active; 'I' for Inactive)
REMARK    1  A    between atoms: C2_2  and  N1_3 
REMARK    2  A    between atoms: C6_10  and  N4_11 
REMARK    3  A    between atoms: N5_14  and  C9_15 
REMARK    4  A    between atoms: C9_15  and  C10_16 
REMARK    5  A    between atoms: C10_16  and  C11_17 
REMARK    6  A    between atoms: C11_17  and  N6_18 
REMARK    7  A    between atoms: C13_20  and  N7_21 
REMARK    8  A    between atoms: C13_20  and  O2_25 
REMARK    9  A    between atoms: C14_27  and  N8_28 
ROOT
HETATM    1  N4  UNL     1      -1.638   3.896  10.891  1.00  0.00    -0.300 N 
HETATM    2  C7  UNL     1      -2.272   5.084  11.423  1.00  0.00     0.178 C 
HETATM    3  C8  UNL     1      -2.885   4.832  12.770  1.00  0.00     0.098 C 
HETATM    4  N5  UNL     1      -4.235   4.427  12.777  1.00  0.00    -0.272 N 
HETATM    5  S1  UNL     1      -4.734   3.407  11.524  1.00  0.00     0.326 S 
HETATM    6  O4  UNL     1      -5.143   4.163  10.283  1.00  0.00    -0.182 OA
HETATM    7  O5  UNL     1      -5.946   2.622  11.958  1.00  0.00    -0.182 OA
HETATM    8  N9  UNL     1      -3.470   2.271  11.140  1.00  0.00    -0.240 N 
ATOM      9  H9  UNL     1      -3.716   1.282  11.101  1.00  0.00     0.183 HD
HETATM   10  C16 UNL     1      -2.235   2.595  10.900  1.00  0.00     0.207 C 
HETATM   11  N10 UNL     1      -1.358   1.517  10.607  1.00  0.00    -0.062 NA
ENDROOT
BRANCH   4  12
HETATM   12  C9  UNL     1      -5.190   5.461  13.079  1.00  0.00     0.143 C 
BRANCH  12  13
HETATM   13  C10 UNL     1      -6.220   5.060  14.073  1.00  0.00     0.041 C 
BRANCH  13  14
HETATM   14  C11 UNL     1      -5.552   4.700  15.377  1.00  0.00     0.127 C 
BRANCH  14  15
HETATM   15  N6  UNL     1      -5.410   3.299  15.616  1.00  0.00    -0.345 N 
HETATM   16  C12 UNL     1      -6.461   2.276  15.568  1.00  0.00     0.197 C 
HETATM   17  C13 UNL     1      -6.117   1.490  16.826  1.00  0.00     0.275 C 
HETATM   18  C14 UNL     1      -4.618   1.324  16.676  1.00  0.00     0.338 C 
HETATM   19  C15 UNL     1      -4.226   2.570  15.969  1.00  0.00     0.255 C 
HETATM   20  O3  UNL     1      -3.069   2.964  15.701  1.00  0.00    -0.271 OA
BRANCH  17  21
HETATM   21  N7  UNL     1      -6.398   2.350  17.961  1.00  0.00    -0.043 N 
ATOM     22  H73 UNL     1      -7.315   2.795  17.907  1.00  0.00     0.278 HD
ATOM     23  H72 UNL     1      -6.554   1.831  18.826  1.00  0.00     0.278 HD
ATOM     24  H71 UNL     1      -5.633   3.020  18.030  1.00  0.00     0.278 HD
ENDBRANCH  17  21
BRANCH  17  25
HETATM   25  O2  UNL     1      -6.767   0.273  16.887  1.00  0.00    -0.362 OA
ATOM     26  H2  UNL     1      -6.727  -0.120  17.752  1.00  0.00     0.212 HD
ENDBRANCH  17  25
BRANCH  18  27
HETATM   27  N8  UNL     1      -4.307   0.136  15.909  1.00  0.00    -0.062 N 
ATOM     28  H83 UNL     1      -5.117  -0.475  15.815  1.00  0.00     0.275 HD
ATOM     29  H82 UNL     1      -4.161   0.351  14.922  1.00  0.00     0.275 HD
ATOM     30  H81 UNL     1      -3.507  -0.355  16.310  1.00  0.00     0.275 HD
ENDBRANCH  18  27
ENDBRANCH  14  15
ENDBRANCH  13  14
ENDBRANCH  12  13
ENDBRANCH   4  12
BRANCH   1  31
HETATM   31  C6  UNL     1      -0.341   4.015  10.319  1.00  0.00     0.144 A 
HETATM   32  C5  UNL     1       0.833   4.462  10.870  1.00  0.00     0.184 A 
HETATM   33  N3  UNL     1       1.818   4.391   9.926  1.00  0.00    -0.088 N 
HETATM   34  N2  UNL     1       3.104   4.624   9.723  1.00  0.00    -0.226 N 
HETATM   35  C17 UNL     1       1.256   3.902   8.796  1.00  0.00     0.711 A 
HETATM   36  C3  UNL     1       3.366   4.281   8.451  1.00  0.00     0.358 A 
HETATM   37  C4  UNL     1       4.040   5.149  10.695  1.00  0.00     0.184 C 
HETATM   38  N1  UNL     1       2.237   3.840   7.883  1.00  0.00    -0.130 N 
HETATM   39  O1  UNL     1       4.524   4.381   7.921  1.00  0.00    -0.244 OA
HETATM   40  N11 UNL     1      -0.046   3.682   9.051  1.00  0.00    -0.173 N 
ATOM     41  H11 UNL     1      -0.716   3.313   8.377  1.00  0.00     0.186 HD
BRANCH  38  42
HETATM   42  C2  UNL     1       2.103   3.380   6.532  1.00  0.00     0.148 C 
HETATM   43  C1  UNL     1       1.226   4.287   5.695  1.00  0.00     0.027 C 
ENDBRANCH  38  42
ENDBRANCH   1  31
TORSDOF 9
ENDMDL
MODEL 3
REMARK VINA RESULT: -7.791311098      6.331      9.680
REMARK  9 active torsions:
REMARK  status: ('A' for Active; 'I' for Inactive)
REMARK    1  A    between atoms: C2_2  and  N1_3 
REMARK    2  A    between atoms: C6_10  and  N4_11 
REMARK    3  A    between atoms: N5_14  and  C9_15 
REMARK    4  A    between atoms: C9_15  and  C10_16 
REMARK    5  A    between atoms: C10_16  and  C11_17 
REMARK    6  A    between atoms: C11_17  and  N6_18 
REMARK    7  A    between atoms: C13_20  and  N7_21 
REMARK    8  A    between atoms: C13_20  and  O2_25 
REMARK    9  A    between atoms: C14_27  and  N8_28 
ROOT
HETATM    1  N4  UNL     1      -4.585   5.258   9.411  1.00  0.00    -0.300 N 
HETATM    2  C7  UNL     1      -5.826   5.965   9.168  1.00  0.00     0.178 C 
HETATM    3  C8  UNL     1      -6.132   6.062   7.702  1.00  0.00     0.098 C 
HETATM    4  N5  UNL     1      -5.654   7.208   7.036  1.00  0.00    -0.272 N 
HETATM    5  S1  UNL     1      -4.149   7.805   7.527  1.00  0.00     0.326 S 
HETATM    6  O4  UNL     1      -4.249   8.740   8.708  1.00  0.00    -0.182 OA
HETATM    7  O5  UNL     1      -3.529   8.603   6.409  1.00  0.00    -0.182 OA
HETATM    8  N9  UNL     1      -3.077   6.484   7.901  1.00  0.00    -0.240 N 
ATOM      9  H9  UNL     1      -2.153   6.486   7.470  1.00  0.00     0.183 HD
HETATM   10  C16 UNL     1      -3.371   5.495   8.690  1.00  0.00     0.207 C 
HETATM   11  N10 UNL     1      -2.356   4.517   8.864  1.00  0.00    -0.062 NA
ENDROOT
BRANCH   4  12
HETATM   12  C9  UNL     1      -6.627   8.245   6.809  1.00  0.00     0.143 C 
BRANCH  12  13
HETATM   13  C10 UNL     1      -7.683   8.323   7.853  1.00  0.00     0.041 C 
BRANCH  13  14
HETATM   14  C11 UNL     1      -7.868   9.757   8.279  1.00  0.00     0.127 C 
BRANCH  14  15
HETATM   15  N6  UNL     1      -9.102  10.353   7.876  1.00  0.00    -0.345 N 
HETATM   16  C12 UNL     1     -10.311   9.666   7.405  1.00  0.00     0.197 C 
HETATM   17  C13 UNL     1     -10.671  10.553   6.222  1.00  0.00     0.275 C 
HETATM   18  C14 UNL     1     -10.536  11.935   6.831  1.00  0.00     0.338 C 
HETATM   19  C15 UNL     1      -9.446  11.745   7.821  1.00  0.00     0.255 C 
HETATM   20  O3  UNL     1      -8.885  12.619   8.518  1.00  0.00    -0.271 OA
BRANCH  17  21
HETATM   21  N7  UNL     1      -9.644  10.366   5.214  1.00  0.00    -0.043 N 
ATOM     22  H73 UNL     1      -9.009  11.161   5.139  1.00  0.00     0.278 HD
ATOM     23  H72 UNL     1      -8.950   9.666   5.476  1.00  0.00     0.278 HD
ATOM     24  H71 UNL     1     -10.117  10.149   4.336  1.00  0.00     0.278 HD
ENDBRANCH  17  21
BRANCH  17  25
HETATM   25  O2  UNL     1     -11.948  10.320   5.751  1.00  0.00    -0.362 OA
ATOM     26  H2  UNL     1     -11.977   9.627   5.101  1.00  0.00     0.212 HD
ENDBRANCH  17  25
BRANCH  18  27
HETATM   27  N8  UNL     1     -11.778  12.346   7.453  1.00  0.00    -0.062 N 
ATOM     28  H83 UNL     1     -12.285  13.016   6.877  1.00  0.00     0.275 HD
ATOM     29  H82 UNL     1     -12.466  11.592   7.456  1.00  0.00     0.275 HD
ATOM     30  H81 UNL     1     -11.609  12.706   8.393  1.00  0.00     0.275 HD
ENDBRANCH  18  27
ENDBRANCH  14  15
ENDBRANCH  13  14
ENDBRANCH  12  13
ENDBRANCH   4  12
BRANCH   1  31
HETATM   31  C6  UNL     1      -4.558   4.264  10.428  1.00  0.00     0.144 A 
HETATM   32  C5  UNL     1      -4.506   4.392  11.792  1.00  0.00     0.184 A 
HETATM   33  N3  UNL     1      -4.500   3.146  12.353  1.00  0.00    -0.088 N 
HETATM   34  N2  UNL     1      -4.465   2.510  13.511  1.00  0.00    -0.226 N 
HETATM   35  C17 UNL     1      -4.547   2.251  11.339  1.00  0.00     0.711 A 
HETATM   36  C3  UNL     1      -4.490   1.196  13.236  1.00  0.00     0.358 A 
HETATM   37  C4  UNL     1      -4.410   3.126  14.821  1.00  0.00     0.184 C 
HETATM   38  N1  UNL     1      -4.540   1.036  11.908  1.00  0.00    -0.130 N 
HETATM   39  O1  UNL     1      -4.467   0.289  14.135  1.00  0.00    -0.244 OA
HETATM   40  N11 UNL     1      -4.582   2.942  10.186  1.00  0.00    -0.173 N 
ATOM     41  H11 UNL     1      -4.620   2.522   9.258  1.00  0.00     0.186 HD
BRANCH  38  42
HETATM   42  C2  UNL     1      -4.579  -0.219  11.216  1.00  0.00     0.148 C 
HETATM   43  C1  UNL     1      -3.216  -0.869  11.114  1.00  0.00     0.027 C 
ENDBRANCH  38  42
ENDBRANCH   1  31
TORSDOF 9
ENDMDL
MODEL 4
REMARK VINA RESULT: -7.730826675      4.512      6.835
REMARK  9 active torsions:
REMARK  status: ('A' for Active; 'I' for Inactive)
REMARK    1  A    between atoms: C2_2  and  N1_3 
REMARK    2  A    between atoms: C6_10  and  N4_11 
REMARK    3  A    between atoms: N5_14  and  C9_15 
REMARK    4  A    between atoms: C9_15  and  C10_16 
REMARK    5  A    between atoms: C10_16  and  C11_17 
REMARK    6  A    between atoms: C11_17  and  N6_18 
REMARK    7  A    between atoms: C13_20  and  N7_21 
REMARK    8  A    between atoms: C13_20  and  O2_25 
REMARK    9  A    between atoms: C14_27  and  N8_28 
ROOT
HETATM    1  N4  UNL     1      -5.282   5.583   9.684  1.00  0.00    -0.300 N 
HETATM    2  C7  UNL     1      -5.066   5.895  11.082  1.00  0.00     0.178 C 
HETATM    3  C8  UNL     1      -3.686   5.513  11.531  1.00  0.00     0.098 C 
HETATM    4  N5  UNL     1      -3.538   4.219  12.068  1.00  0.00    -0.272 N 
HETATM    5  S1  UNL     1      -4.465   2.989  11.367  1.00  0.00     0.326 S 
HETATM    6  O4  UNL     1      -5.850   2.893  11.958  1.00  0.00    -0.182 OA
HETATM    7  O5  UNL     1      -3.808   1.654  11.612  1.00  0.00    -0.182 OA
HETATM    8  N9  UNL     1      -4.567   3.228   9.644  1.00  0.00    -0.240 N 
ATOM      9  H9  UNL     1      -4.337   2.438   9.041  1.00  0.00     0.183 HD
HETATM   10  C16 UNL     1      -4.915   4.342   9.073  1.00  0.00     0.207 C 
HETATM   11  N10 UNL     1      -4.935   4.330   7.653  1.00  0.00    -0.062 NA
ENDROOT
BRANCH   4  12
HETATM   12  C9  UNL     1      -3.496   4.144  13.505  1.00  0.00     0.143 C 
BRANCH  12  13
HETATM   13  C10 UNL     1      -4.493   5.013  14.185  1.00  0.00     0.041 C 
BRANCH  13  14
HETATM   14  C11 UNL     1      -4.641   4.583  15.623  1.00  0.00     0.127 C 
BRANCH  14  15
HETATM   15  N6  UNL     1      -4.961   3.204  15.812  1.00  0.00    -0.345 N 
HETATM   16  C12 UNL     1      -6.220   2.528  15.479  1.00  0.00     0.197 C 
HETATM   17  C13 UNL     1      -6.407   1.693  16.738  1.00  0.00     0.275 C 
HETATM   18  C14 UNL     1      -5.024   1.098  16.913  1.00  0.00     0.338 C 
HETATM   19  C15 UNL     1      -4.145   2.168  16.377  1.00  0.00     0.255 C 
HETATM   20  O3  UNL     1      -2.894   2.207  16.391  1.00  0.00    -0.271 OA
BRANCH  17  21
HETATM   21  N7  UNL     1      -6.681   2.610  17.828  1.00  0.00    -0.043 N 
ATOM     22  H73 UNL     1      -7.211   3.431  17.535  1.00  0.00     0.278 HD
ATOM     23  H72 UNL     1      -7.360   2.246  18.497  1.00  0.00     0.278 HD
ATOM     24  H71 UNL     1      -5.786   2.846  18.258  1.00  0.00     0.278 HD
ENDBRANCH  17  21
BRANCH  17  25
HETATM   25  O2  UNL     1      -7.373   0.717  16.590  1.00  0.00    -0.362 OA
ATOM     26  H2  UNL     1      -7.063  -0.033  16.095  1.00  0.00     0.212 HD
ENDBRANCH  17  25
BRANCH  18  27
HETATM   27  N8  UNL     1      -4.899  -0.139  16.170  1.00  0.00    -0.062 N 
ATOM     28  H83 UNL     1      -5.363  -0.913  16.645  1.00  0.00     0.275 HD
ATOM     29  H82 UNL     1      -5.458  -0.125  15.316  1.00  0.00     0.275 HD
ATOM     30  H81 UNL     1      -3.919  -0.347  15.976  1.00  0.00     0.275 HD
ENDBRANCH  18  27
ENDBRANCH  14  15
ENDBRANCH  13  14
ENDBRANCH  12  13
ENDBRANCH   4  12
BRANCH   1  31
HETATM   31  C6  UNL     1      -5.897   6.562   8.857  1.00  0.00     0.144 A 
HETATM   32  C5  UNL     1      -7.175   7.060   8.871  1.00  0.00     0.184 A 
HETATM   33  N3  UNL     1      -7.298   7.990   7.878  1.00  0.00    -0.088 N 
HETATM   34  N2  UNL     1      -8.152   8.830   7.319  1.00  0.00    -0.226 N 
HETATM   35  C17 UNL     1      -6.100   8.068   7.252  1.00  0.00     0.711 A 
HETATM   36  C3  UNL     1      -7.496   9.450   6.325  1.00  0.00     0.358 A 
HETATM   37  C4  UNL     1      -9.531   9.032   7.712  1.00  0.00     0.184 C 
HETATM   38  N1  UNL     1      -6.241   8.984   6.283  1.00  0.00    -0.130 N 
HETATM   39  O1  UNL     1      -8.031  10.332   5.572  1.00  0.00    -0.244 OA
HETATM   40  N11 UNL     1      -5.268   7.200   7.855  1.00  0.00    -0.173 N 
ATOM     41  H11 UNL     1      -4.296   7.047   7.588  1.00  0.00     0.186 HD
BRANCH  38  42
HETATM   42  C2  UNL     1      -5.224   9.398   5.359  1.00  0.00     0.148 C 
HETATM   43  C1  UNL     1      -4.723   8.257   4.500  1.00  0.00     0.027 C 
ENDBRANCH  38  42
ENDBRANCH   1  31
TORSDOF 9
ENDMDL
MODEL 5
REMARK VINA RESULT: -7.730576074      0.811      1.896
REMARK  9 active torsions:
REMARK  status: ('A' for Active; 'I' for Inactive)
REMARK    1  A    between atoms: C2_2  and  N1_3 
REMARK    2  A    between atoms: C6_10  and  N4_11 
REMARK    3  A    between atoms: N5_14  and  C9_15 
REMARK    4  A    between atoms: C9_15  and  C10_16 
REMARK    5  A    between atoms: C10_16  and  C11_17 
REMARK    6  A    between atoms: C11_17  and  N6_18 
REMARK    7  A    between atoms: C13_20  and  N7_21 
REMARK    8  A    between atoms: C13_20  and  O2_25 
REMARK    9  A    between atoms: C14_27  and  N8_28 
ROOT
HETATM    1  N4  UNL     1      -1.598   4.721  11.550  1.00  0.00    -0.300 N 
HETATM    2  C7  UNL     1      -2.534   5.756  11.936  1.00  0.00     0.178 C 
HETATM    3  C8  UNL     1      -3.270   5.398  13.195  1.00  0.00     0.098 C 
HETATM    4  N5  UNL     1      -4.493   4.718  13.034  1.00  0.00    -0.272 N 
HETATM    5  S1  UNL     1      -4.584   3.596  11.771  1.00  0.00     0.326 S 
HETATM    6  O4  UNL     1      -4.957   4.231  10.453  1.00  0.00    -0.182 OA
HETATM    7  O5  UNL     1      -5.656   2.579  12.069  1.00  0.00    -0.182 OA
HETATM    8  N9  UNL     1      -3.069   2.749  11.616  1.00  0.00    -0.240 N 
ATOM      9  H9  UNL     1      -3.097   1.730  11.588  1.00  0.00     0.183 HD
HETATM   10  C16 UNL     1      -1.907   3.323  11.534  1.00  0.00     0.207 C 
HETATM   11  N10 UNL     1      -0.793   2.452  11.413  1.00  0.00    -0.062 NA
ENDROOT
BRANCH   4  12
HETATM   12  C9  UNL     1      -5.675   5.530  13.155  1.00  0.00     0.143 C 
BRANCH  12  13
HETATM   13  C10 UNL     1      -6.581   5.119  14.261  1.00  0.00     0.041 C 
BRANCH  13  14
HETATM   14  C11 UNL     1      -5.764   4.749  15.473  1.00  0.00     0.127 C 
BRANCH  14  15
HETATM   15  N6  UNL     1      -5.581   3.347  15.674  1.00  0.00    -0.345 N 
HETATM   16  C12 UNL     1      -6.609   2.300  15.639  1.00  0.00     0.197 C 
HETATM   17  C13 UNL     1      -6.202   1.494  16.865  1.00  0.00     0.275 C 
HETATM   18  C14 UNL     1      -4.706   1.368  16.659  1.00  0.00     0.338 C 
HETATM   19  C15 UNL     1      -4.368   2.638  15.968  1.00  0.00     0.255 C 
HETATM   20  O3  UNL     1      -3.231   3.066  15.668  1.00  0.00    -0.271 OA
BRANCH  17  21
HETATM   21  N7  UNL     1      -6.462   2.320  18.029  1.00  0.00    -0.043 N 
ATOM     22  H73 UNL     1      -5.642   2.844  18.338  1.00  0.00     0.278 HD
ATOM     23  H72 UNL     1      -7.061   3.121  17.826  1.00  0.00     0.278 HD
ATOM     24  H71 UNL     1      -6.842   1.712  18.754  1.00  0.00     0.278 HD
ENDBRANCH  17  21
BRANCH  17  25
HETATM   25  O2  UNL     1      -6.821   0.261  16.920  1.00  0.00    -0.362 OA
ATOM     26  H2  UNL     1      -6.288  -0.397  17.352  1.00  0.00     0.212 HD
ENDBRANCH  17  25
BRANCH  18  27
HETATM   27  N8  UNL     1      -4.395   0.205  15.852  1.00  0.00    -0.062 N 
ATOM     28  H83 UNL     1      -4.853  -0.633  16.208  1.00  0.00     0.275 HD
ATOM     29  H82 UNL     1      -4.843   0.250  14.937  1.00  0.00     0.275 HD
ATOM     30  H81 UNL     1      -3.386   0.080  15.773  1.00  0.00     0.275 HD
ENDBRANCH  18  27
ENDBRANCH  14  15
ENDBRANCH  13  14
ENDBRANCH  12  13
ENDBRANCH   4  12
BRANCH   1  31
HETATM   31  C6  UNL     1      -0.286   5.104  11.158  1.00  0.00     0.144 A 
HETATM   32  C5  UNL     1       0.721   5.690  11.882  1.00  0.00     0.184 A 
HETATM   33  N3  UNL     1       1.805   5.866  11.069  1.00  0.00    -0.088 N 
HETATM   34  N2  UNL     1       3.044   6.326  11.047  1.00  0.00    -0.226 N 
HETATM   35  C17 UNL     1       1.470   5.390   9.847  1.00  0.00     0.711 A 
HETATM   36  C3  UNL     1       3.506   6.144   9.800  1.00  0.00     0.358 A 
HETATM   37  C4  UNL     1       3.755   6.914  12.164  1.00  0.00     0.184 C 
HETATM   38  N1  UNL     1       2.544   5.572   9.065  1.00  0.00    -0.130 N 
HETATM   39  O1  UNL     1       4.681   6.481   9.429  1.00  0.00    -0.244 OA
HETATM   40  N11 UNL     1       0.207   4.935   9.919  1.00  0.00    -0.173 N 
ATOM     41  H11 UNL     1      -0.306   4.520   9.142  1.00  0.00     0.186 HD
BRANCH  38  42
HETATM   42  C2  UNL     1       2.649   5.215   7.679  1.00  0.00     0.148 C 
HETATM   43  C1  UNL     1       2.953   3.746   7.480  1.00  0.00     0.027 C 
ENDBRANCH  38  42
ENDBRANCH   1  31
TORSDOF 9
ENDMDL
