MODEL 1
REMARK VINA RESULT: -7.239065201      0.000      0.000
REMARK  9 active torsions:
REMARK  status: ('A' for Active; 'I' for Inactive)
REMARK    1  A    between atoms: C3_5  and  N2_6 
REMARK    2  A    between atoms: N4_11  and  C4_12 
REMARK    3  A    between atoms: C4_12  and  C5_13 
REMARK    4  A    between atoms: C5_13  and  C6_14 
REMARK    5  A    between atoms: C6_14  and  C7_15 
REMARK    6  A    between atoms: C7_15  and  N5_16 
REMARK    7  A    between atoms: N5_16  and  C8_18 
REMARK    8  A    between atoms: C9_21  and  N7_22 
REMARK    9  A    between atoms: N7_22  and  C10_24 
ROOT
HETATM    1  C8  UNL     1      -1.021   6.834  84.187  1.00  0.00     0.681 A 
HETATM    2  N6  UNL     1      -1.114   5.869  85.132  1.00  0.00    -0.176 N 
ATOM      3  H6  UNL     1      -1.253   6.150  86.102  1.00  0.00     0.186 HD
HETATM    4  C9  UNL     1      -1.033   4.558  84.851  1.00  0.00     0.137 A 
HETATM    5  C13 UNL     1      -0.843   4.226  83.515  1.00  0.00     0.121 A 
HETATM    6  C14 UNL     1      -0.750   2.896  83.161  1.00  0.00     0.269 A 
HETATM    7  O2  UNL     1      -0.840   1.999  84.061  1.00  0.00    -0.267 OA
HETATM    8  N8  UNL     1      -0.568   2.591  81.869  1.00  0.00    -0.270 N 
HETATM    9  C15 UNL     1      -0.475   1.184  81.529  1.00  0.00     0.164 C 
HETATM   10  C16 UNL     1      -0.476   3.567  80.941  1.00  0.00     0.332 A 
HETATM   11  O3  UNL     1      -0.303   3.216  79.730  1.00  0.00    -0.246 OA
HETATM   12  N9  UNL     1      -0.561   4.876  81.247  1.00  0.00    -0.288 N 
HETATM   13  C17 UNL     1      -0.459   5.914  80.222  1.00  0.00     0.163 C 
HETATM   14  C18 UNL     1      -0.745   5.207  82.539  1.00  0.00     0.146 A 
HETATM   15  N10 UNL     1      -0.836   6.510  82.889  1.00  0.00    -0.175 N 
ATOM     16  H10 UNL     1      -0.766   7.240  82.180  1.00  0.00     0.186 HD
ENDROOT
BRANCH   1  17
HETATM   17  N5  UNL     1      -1.112   8.075  84.557  1.00  0.00    -0.226 N 
ATOM     18  H5  UNL     1      -1.397   8.264  85.519  1.00  0.00     0.177 HD
BRANCH  17  19
HETATM   19  C7  UNL     1      -0.839   9.200  83.712  1.00  0.00     0.138 C 
BRANCH  19  20
HETATM   20  C6  UNL     1       0.329  10.039  84.068  1.00  0.00     0.022 C 
BRANCH  20  21
HETATM   21  C5  UNL     1       1.649   9.401  84.223  1.00  0.00     0.024 C 
BRANCH  21  22
HETATM   22  C4  UNL     1       2.374   9.098  82.942  1.00  0.00     0.154 C 
BRANCH  22  23
HETATM   23  N4  UNL     1       2.545   7.641  82.787  1.00  0.00    -0.241 N 
HETATM   24  N3  UNL     1       2.507   6.825  83.822  1.00  0.00    -0.275 N 
HETATM   25  C3  UNL     1       2.665   5.483  83.684  1.00  0.00     0.183 A 
ATOM     26  H3  UNL     1       2.353   7.212  84.753  1.00  0.00     0.189 HD
HETATM   27  C2  UNL     1       2.872   4.948  82.423  1.00  0.00     0.296 A 
HETATM   28  N1  UNL     1       2.911   5.778  81.372  1.00  0.00    -0.266 N 
HETATM   29  O1  UNL     1       3.019   3.712  82.272  1.00  0.00    -0.264 OA
HETATM   30  C1  UNL     1       3.129   5.249  80.019  1.00  0.00     0.165 C 
HETATM   31  C19 UNL     1       2.748   7.101  81.573  1.00  0.00     0.345 A 
HETATM   32  O4  UNL     1       2.784   7.892  80.578  1.00  0.00    -0.245 OA
BRANCH  25  33
HETATM   33  N2  UNL     1       2.626   4.689  84.702  1.00  0.00    -0.380 N 
ATOM     34  H22 UNL     1       2.343   3.713  84.608  1.00  0.00     0.158 HD
ATOM     35  H21 UNL     1       2.886   5.049  85.620  1.00  0.00     0.158 HD
ENDBRANCH  25  33
ENDBRANCH  22  23
ENDBRANCH  21  22
ENDBRANCH  20  21
ENDBRANCH  19  20
ENDBRANCH  17  19
ENDBRANCH   1  17
BRANCH   4  36
HETATM   36  N7  UNL     1      -1.113   3.617  85.695  1.00  0.00    -0.370 N 
ATOM     37  H7  UNL     1      -0.405   2.886  85.633  1.00  0.00     0.161 HD
BRANCH  36  38
HETATM   38  C10 UNL     1      -2.092   3.473  86.724  1.00  0.00     0.083 A 
HETATM   39  C11 UNL     1      -2.725   2.079  86.787  1.00  0.00     0.027 A 
HETATM   40  C12 UNL     1      -1.898   2.608  87.897  1.00  0.00     0.027 A 
ENDBRANCH  36  38
ENDBRANCH   4  36
TORSDOF 9
ENDMDL
MODEL 2
REMARK VINA RESULT: -7.167111516      1.707      4.533
REMARK  9 active torsions:
REMARK  status: ('A' for Active; 'I' for Inactive)
REMARK    1  A    between atoms: C3_5  and  N2_6 
REMARK    2  A    between atoms: N4_11  and  C4_12 
REMARK    3  A    between atoms: C4_12  and  C5_13 
REMARK    4  A    between atoms: C5_13  and  C6_14 
REMARK    5  A    between atoms: C6_14  and  C7_15 
REMARK    6  A    between atoms: C7_15  and  N5_16 
REMARK    7  A    between atoms: N5_16  and  C8_18 
REMARK    8  A    between atoms: C9_21  and  N7_22 
REMARK    9  A    between atoms: N7_22  and  C10_24 
ROOT
HETATM    1  C8  UNL     1      -0.239   3.970  81.019  1.00  0.00     0.681 A 
HETATM    2  N6  UNL     1      -0.655   4.995  81.799  1.00  0.00    -0.176 N 
ATOM      3  H6  UNL     1      -0.766   5.916  81.375  1.00  0.00     0.186 HD
HETATM    4  C9  UNL     1      -0.929   4.856  83.108  1.00  0.00     0.137 A 
HETATM    5  C13 UNL     1      -0.761   3.584  83.639  1.00  0.00     0.121 A 
HETATM    6  C14 UNL     1      -1.025   3.376  84.977  1.00  0.00     0.269 A 
HETATM    7  O2  UNL     1      -1.416   4.350  85.699  1.00  0.00    -0.267 OA
HETATM    8  N8  UNL     1      -0.860   2.143  85.475  1.00  0.00    -0.270 N 
HETATM    9  C15 UNL     1      -1.146   1.957  86.885  1.00  0.00     0.164 C 
HETATM   10  C16 UNL     1      -0.443   1.133  84.682  1.00  0.00     0.332 A 
HETATM   11  O3  UNL     1      -0.305  -0.015  85.212  1.00  0.00    -0.246 OA
HETATM   12  N9  UNL     1      -0.176   1.296  83.372  1.00  0.00    -0.288 N 
HETATM   13  C17 UNL     1       0.273   0.185  82.534  1.00  0.00     0.163 C 
HETATM   14  C18 UNL     1      -0.335   2.526  82.849  1.00  0.00     0.146 A 
HETATM   15  N10 UNL     1      -0.077   2.734  81.537  1.00  0.00    -0.175 N 
ATOM     16  H10 UNL     1       0.236   1.964  80.946  1.00  0.00     0.186 HD
ENDROOT
BRANCH   1  17
HETATM   17  N5  UNL     1       0.000   4.203  79.764  1.00  0.00    -0.226 N 
ATOM     18  H5  UNL     1      -0.298   3.502  79.086  1.00  0.00     0.177 HD
BRANCH  17  19
HETATM   19  C7  UNL     1       0.653   5.377  79.265  1.00  0.00     0.138 C 
BRANCH  19  20
HETATM   20  C6  UNL     1       1.783   5.169  78.329  1.00  0.00     0.022 C 
BRANCH  20  21
HETATM   21  C5  UNL     1       3.120   5.669  78.698  1.00  0.00     0.024 C 
BRANCH  21  22
HETATM   22  C4  UNL     1       3.739   5.026  79.906  1.00  0.00     0.154 C 
BRANCH  22  23
HETATM   23  N4  UNL     1       3.480   5.842  81.106  1.00  0.00    -0.241 N 
HETATM   24  N3  UNL     1       3.661   7.148  81.109  1.00  0.00    -0.275 N 
HETATM   25  C3  UNL     1       3.425   7.904  82.212  1.00  0.00     0.183 A 
ATOM     26  H3  UNL     1       3.987   7.604  80.256  1.00  0.00     0.189 HD
HETATM   27  C2  UNL     1       2.980   7.293  83.373  1.00  0.00     0.296 A 
HETATM   28  N1  UNL     1       2.797   5.967  83.371  1.00  0.00    -0.266 N 
HETATM   29  O1  UNL     1       2.755   7.972  84.403  1.00  0.00    -0.264 OA
HETATM   30  C1  UNL     1       2.327   5.282  84.582  1.00  0.00     0.165 C 
HETATM   31  C19 UNL     1       3.049   5.270  82.244  1.00  0.00     0.345 A 
HETATM   32  O4  UNL     1       2.876   4.010  82.238  1.00  0.00    -0.245 OA
BRANCH  25  33
HETATM   33  N2  UNL     1       3.604   9.183  82.207  1.00  0.00    -0.380 N 
ATOM     34  H22 UNL     1       4.218   9.640  82.882  1.00  0.00     0.158 HD
ATOM     35  H21 UNL     1       3.118   9.747  81.509  1.00  0.00     0.158 HD
ENDBRANCH  25  33
ENDBRANCH  22  23
ENDBRANCH  21  22
ENDBRANCH  20  21
ENDBRANCH  19  20
ENDBRANCH  17  19
ENDBRANCH   1  17
BRANCH   4  36
HETATM   36  N7  UNL     1      -1.319   5.781  83.880  1.00  0.00    -0.370 N 
ATOM     37  H7  UNL     1      -2.036   5.533  84.563  1.00  0.00     0.161 HD
BRANCH  36  38
HETATM   38  C10 UNL     1      -0.862   7.133  83.896  1.00  0.00     0.083 A 
HETATM   39  C11 UNL     1      -1.887   8.127  84.453  1.00  0.00     0.027 A 
HETATM   40  C12 UNL     1      -0.598   7.873  85.138  1.00  0.00     0.027 A 
ENDBRANCH  36  38
ENDBRANCH   4  36
TORSDOF 9
ENDMDL
MODEL 3
REMARK VINA RESULT: -7.151865556      1.758      4.157
REMARK  9 active torsions:
REMARK  status: ('A' for Active; 'I' for Inactive)
REMARK    1  A    between atoms: C3_5  and  N2_6 
REMARK    2  A    between atoms: N4_11  and  C4_12 
REMARK    3  A    between atoms: C4_12  and  C5_13 
REMARK    4  A    between atoms: C5_13  and  C6_14 
REMARK    5  A    between atoms: C6_14  and  C7_15 
REMARK    6  A    between atoms: C7_15  and  N5_16 
REMARK    7  A    between atoms: N5_16  and  C8_18 
REMARK    8  A    between atoms: C9_21  and  N7_22 
REMARK    9  A    between atoms: N7_22  and  C10_24 
ROOT
HETATM    1  C8  UNL     1      -0.243   4.237  81.119  1.00  0.00     0.681 A 
HETATM    2  N6  UNL     1      -0.665   5.235  81.932  1.00  0.00    -0.176 N 
ATOM      3  H6  UNL     1      -0.776   6.169  81.540  1.00  0.00     0.186 HD
HETATM    4  C9  UNL     1      -0.944   5.050  83.234  1.00  0.00     0.137 A 
HETATM    5  C13 UNL     1      -0.776   3.760  83.722  1.00  0.00     0.121 A 
HETATM    6  C14 UNL     1      -1.045   3.505  85.051  1.00  0.00     0.269 A 
HETATM    7  O2  UNL     1      -1.441   4.453  85.804  1.00  0.00    -0.267 OA
HETATM    8  N8  UNL     1      -0.879   2.256  85.507  1.00  0.00    -0.270 N 
HETATM    9  C15 UNL     1      -1.171   2.021  86.908  1.00  0.00     0.164 C 
HETATM   10  C16 UNL     1      -0.457   1.275  84.681  1.00  0.00     0.332 A 
HETATM   11  O3  UNL     1      -0.318   0.110  85.171  1.00  0.00    -0.246 OA
HETATM   12  N9  UNL     1      -0.184   1.484  83.378  1.00  0.00    -0.288 N 
HETATM   13  C17 UNL     1       0.271   0.404  82.505  1.00  0.00     0.163 C 
HETATM   14  C18 UNL     1      -0.344   2.731  82.897  1.00  0.00     0.146 A 
HETATM   15  N10 UNL     1      -0.080   2.985  81.595  1.00  0.00    -0.175 N 
ATOM     16  H10 UNL     1       0.238   2.237  80.979  1.00  0.00     0.186 HD
ENDROOT
BRANCH   1  17
HETATM   17  N5  UNL     1       0.001   4.515  79.874  1.00  0.00    -0.226 N 
ATOM     18  H5  UNL     1       0.332   3.758  79.276  1.00  0.00     0.177 HD
BRANCH  17  19
HETATM   19  C7  UNL     1      -0.162   5.810  79.282  1.00  0.00     0.138 C 
BRANCH  19  20
HETATM   20  C6  UNL     1       1.016   6.383  78.589  1.00  0.00     0.022 C 
BRANCH  20  21
HETATM   21  C5  UNL     1       1.564   7.670  79.053  1.00  0.00     0.024 C 
BRANCH  21  22
HETATM   22  C4  UNL     1       2.920   7.600  79.696  1.00  0.00     0.154 C 
BRANCH  22  23
HETATM   23  N4  UNL     1       2.845   6.846  80.961  1.00  0.00    -0.241 N 
HETATM   24  N3  UNL     1       3.181   5.573  81.032  1.00  0.00    -0.275 N 
HETATM   25  C3  UNL     1       3.112   4.875  82.194  1.00  0.00     0.183 A 
ATOM     26  H3  UNL     1       3.503   5.100  80.187  1.00  0.00     0.189 HD
HETATM   27  C2  UNL     1       2.678   5.511  83.345  1.00  0.00     0.296 A 
HETATM   28  N1  UNL     1       2.336   6.804  83.274  1.00  0.00    -0.266 N 
HETATM   29  O1  UNL     1       2.607   4.886  84.430  1.00  0.00    -0.264 OA
HETATM   30  C1  UNL     1       1.870   7.514  84.473  1.00  0.00     0.165 C 
HETATM   31  C19 UNL     1       2.425   7.444  82.091  1.00  0.00     0.345 A 
HETATM   32  O4  UNL     1       2.101   8.671  82.019  1.00  0.00    -0.245 OA
BRANCH  25  33
HETATM   33  N2  UNL     1       3.444   3.628  82.256  1.00  0.00    -0.380 N 
ATOM     34  H22 UNL     1       4.372   3.336  82.563  1.00  0.00     0.158 HD
ATOM     35  H21 UNL     1       2.758   2.921  81.991  1.00  0.00     0.158 HD
ENDBRANCH  25  33
ENDBRANCH  22  23
ENDBRANCH  21  22
ENDBRANCH  20  21
ENDBRANCH  19  20
ENDBRANCH  17  19
ENDBRANCH   1  17
BRANCH   4  36
HETATM   36  N7  UNL     1      -1.340   5.946  84.037  1.00  0.00    -0.370 N 
ATOM     37  H7  UNL     1      -1.115   5.809  85.022  1.00  0.00     0.161 HD
BRANCH  36  38
HETATM   38  C10 UNL     1      -2.069   7.128  83.707  1.00  0.00     0.083 A 
HETATM   39  C11 UNL     1      -1.826   8.295  84.670  1.00  0.00     0.027 A 
HETATM   40  C12 UNL     1      -1.422   8.365  83.245  1.00  0.00     0.027 A 
ENDBRANCH  36  38
ENDBRANCH   4  36
TORSDOF 9
ENDMDL
MODEL 4
REMARK VINA RESULT: -6.906711747      2.684      4.723
REMARK  9 active torsions:
REMARK  status: ('A' for Active; 'I' for Inactive)
REMARK    1  A    between atoms: C3_5  and  N2_6 
REMARK    2  A    between atoms: N4_11  and  C4_12 
REMARK    3  A    between atoms: C4_12  and  C5_13 
REMARK    4  A    between atoms: C5_13  and  C6_14 
REMARK    5  A    between atoms: C6_14  and  C7_15 
REMARK    6  A    between atoms: C7_15  and  N5_16 
REMARK    7  A    between atoms: N5_16  and  C8_18 
REMARK    8  A    between atoms: C9_21  and  N7_22 
REMARK    9  A    between atoms: N7_22  and  C10_24 
ROOT
HETATM    1  C8  UNL     1      -0.259   4.068  81.085  1.00  0.00     0.681 A 
HETATM    2  N6  UNL     1      -0.695   5.079  81.873  1.00  0.00    -0.176 N 
ATOM      3  H6  UNL     1      -0.813   6.003  81.459  1.00  0.00     0.186 HD
HETATM    4  C9  UNL     1      -0.980   4.921  83.177  1.00  0.00     0.137 A 
HETATM    5  C13 UNL     1      -0.802   3.644  83.695  1.00  0.00     0.121 A 
HETATM    6  C14 UNL     1      -1.078   3.417  85.027  1.00  0.00     0.269 A 
HETATM    7  O2  UNL     1      -1.487   4.377  85.757  1.00  0.00    -0.267 OA
HETATM    8  N8  UNL     1      -0.902   2.181  85.513  1.00  0.00    -0.270 N 
HETATM    9  C15 UNL     1      -1.200   1.974  86.918  1.00  0.00     0.164 C 
HETATM   10  C16 UNL     1      -0.465   1.185  84.712  1.00  0.00     0.332 A 
HETATM   11  O3  UNL     1      -0.318   0.033  85.230  1.00  0.00    -0.246 OA
HETATM   12  N9  UNL     1      -0.187   1.367  83.406  1.00  0.00    -0.288 N 
HETATM   13  C17 UNL     1       0.285   0.272  82.560  1.00  0.00     0.163 C 
HETATM   14  C18 UNL     1      -0.355   2.602  82.896  1.00  0.00     0.146 A 
HETATM   15  N10 UNL     1      -0.087   2.828  81.591  1.00  0.00    -0.175 N 
ATOM     16  H10 UNL     1       0.242   2.069  80.993  1.00  0.00     0.186 HD
ENDROOT
BRANCH   1  17
HETATM   17  N5  UNL     1      -0.009   4.320  79.836  1.00  0.00    -0.226 N 
ATOM     18  H5  UNL     1      -0.755   4.150  79.160  1.00  0.00     0.177 HD
BRANCH  17  19
HETATM   19  C7  UNL     1       1.238   4.820  79.339  1.00  0.00     0.138 C 
BRANCH  19  20
HETATM   20  C6  UNL     1       1.688   6.133  79.858  1.00  0.00     0.022 C 
BRANCH  20  21
HETATM   21  C5  UNL     1       2.826   6.183  80.793  1.00  0.00     0.024 C 
BRANCH  21  22
HETATM   22  C4  UNL     1       3.508   4.869  81.050  1.00  0.00     0.154 C 
BRANCH  22  23
HETATM   23  N4  UNL     1       4.968   5.016  80.903  1.00  0.00    -0.241 N 
HETATM   24  N3  UNL     1       5.715   5.523  81.864  1.00  0.00    -0.275 N 
HETATM   25  C3  UNL     1       7.059   5.661  81.732  1.00  0.00     0.183 A 
ATOM     26  H3  UNL     1       5.269   5.819  82.733  1.00  0.00     0.189 HD
HETATM   27  C2  UNL     1       7.672   5.260  80.557  1.00  0.00     0.296 A 
HETATM   28  N1  UNL     1       6.914   4.746  79.580  1.00  0.00    -0.266 N 
HETATM   29  O1  UNL     1       8.913   5.378  80.414  1.00  0.00    -0.264 OA
HETATM   30  C1  UNL     1       7.527   4.309  78.319  1.00  0.00     0.165 C 
HETATM   31  C19 UNL     1       5.584   4.634  79.770  1.00  0.00     0.345 A 
HETATM   32  O4  UNL     1       4.861   4.147  78.845  1.00  0.00    -0.245 OA
BRANCH  25  33
HETATM   33  N2  UNL     1       7.785   6.158  82.679  1.00  0.00    -0.380 N 
ATOM     34  H22 UNL     1       8.802   6.196  82.608  1.00  0.00     0.158 HD
ATOM     35  H21 UNL     1       7.326   6.520  83.514  1.00  0.00     0.158 HD
ENDBRANCH  25  33
ENDBRANCH  22  23
ENDBRANCH  21  22
ENDBRANCH  20  21
ENDBRANCH  19  20
ENDBRANCH  17  19
ENDBRANCH   1  17
BRANCH   4  36
HETATM   36  N7  UNL     1      -1.390   5.831  83.957  1.00  0.00    -0.370 N 
ATOM     37  H7  UNL     1      -2.071   5.555  84.664  1.00  0.00     0.161 HD
BRANCH  36  38
HETATM   38  C10 UNL     1      -0.999   7.204  83.949  1.00  0.00     0.083 A 
HETATM   39  C11 UNL     1      -1.925   8.117  84.760  1.00  0.00     0.027 A 
HETATM   40  C12 UNL     1      -0.511   7.903  85.147  1.00  0.00     0.027 A 
ENDBRANCH  36  38
ENDBRANCH   4  36
TORSDOF 9
ENDMDL
MODEL 5
REMARK VINA RESULT: -6.778624403      2.942      5.966
REMARK  9 active torsions:
REMARK  status: ('A' for Active; 'I' for Inactive)
REMARK    1  A    between atoms: C3_5  and  N2_6 
REMARK    2  A    between atoms: N4_11  and  C4_12 
REMARK    3  A    between atoms: C4_12  and  C5_13 
REMARK    4  A    between atoms: C5_13  and  C6_14 
REMARK    5  A    between atoms: C6_14  and  C7_15 
REMARK    6  A    between atoms: C7_15  and  N5_16 
REMARK    7  A    between atoms: N5_16  and  C8_18 
REMARK    8  A    between atoms: C9_21  and  N7_22 
REMARK    9  A    between atoms: N7_22  and  C10_24 
ROOT
HETATM    1  C8  UNL     1      -0.827   6.644  79.718  1.00  0.00     0.681 A 
HETATM    2  N6  UNL     1       0.130   5.879  80.295  1.00  0.00    -0.176 N 
ATOM      3  H6  UNL     1       0.043   5.654  81.285  1.00  0.00     0.186 HD
HETATM    4  C9  UNL     1       1.191   5.402  79.621  1.00  0.00     0.137 A 
HETATM    5  C13 UNL     1       1.265   5.737  78.274  1.00  0.00     0.121 A 
HETATM    6  C14 UNL     1       2.330   5.277  77.528  1.00  0.00     0.269 A 
HETATM    7  O2  UNL     1       3.223   4.559  78.082  1.00  0.00    -0.267 OA
HETATM    8  N8  UNL     1       2.389   5.608  76.230  1.00  0.00    -0.270 N 
HETATM    9  C15 UNL     1       3.521   5.110  75.472  1.00  0.00     0.164 C 
HETATM   10  C16 UNL     1       1.425   6.373  75.674  1.00  0.00     0.332 A 
HETATM   11  O3  UNL     1       1.535   6.653  74.437  1.00  0.00    -0.246 OA
HETATM   12  N9  UNL     1       0.370   6.839  76.369  1.00  0.00    -0.288 N 
HETATM   13  C17 UNL     1      -0.661   7.665  75.742  1.00  0.00     0.163 C 
HETATM   14  C18 UNL     1       0.290   6.520  77.675  1.00  0.00     0.146 A 
HETATM   15  N10 UNL     1      -0.753   6.968  78.410  1.00  0.00    -0.175 N 
ATOM     16  H10 UNL     1      -1.476   7.545  77.980  1.00  0.00     0.186 HD
ENDROOT
BRANCH   1  17
HETATM   17  N5  UNL     1      -1.814   7.058  80.453  1.00  0.00    -0.226 N 
ATOM     18  H5  UNL     1      -2.741   7.092  80.027  1.00  0.00     0.177 HD
BRANCH  17  19
HETATM   19  C7  UNL     1      -1.695   7.470  81.821  1.00  0.00     0.138 C 
BRANCH  19  20
HETATM   20  C6  UNL     1      -2.669   6.898  82.780  1.00  0.00     0.022 C 
BRANCH  20  21
HETATM   21  C5  UNL     1      -2.373   5.601  83.414  1.00  0.00     0.024 C 
BRANCH  21  22
HETATM   22  C4  UNL     1      -0.915   5.285  83.589  1.00  0.00     0.154 C 
BRANCH  22  23
HETATM   23  N4  UNL     1      -0.745   3.887  84.025  1.00  0.00    -0.241 N 
HETATM   24  N3  UNL     1      -0.896   3.530  85.285  1.00  0.00    -0.275 N 
HETATM   25  C3  UNL     1      -0.740   2.244  85.691  1.00  0.00     0.183 A 
ATOM     26  H3  UNL     1      -1.136   4.242  85.975  1.00  0.00     0.189 HD
HETATM   27  C2  UNL     1      -0.414   1.271  84.760  1.00  0.00     0.296 A 
HETATM   28  N1  UNL     1      -0.262   1.633  83.480  1.00  0.00    -0.266 N 
HETATM   29  O1  UNL     1      -0.266   0.077  85.113  1.00  0.00    -0.264 OA
HETATM   30  C1  UNL     1       0.084   0.631  82.463  1.00  0.00     0.165 C 
HETATM   31  C19 UNL     1      -0.429   2.927  83.138  1.00  0.00     0.345 A 
HETATM   32  O4  UNL     1      -0.285   3.274  81.923  1.00  0.00    -0.245 OA
BRANCH  25  33
HETATM   33  N2  UNL     1      -0.888   1.901  86.927  1.00  0.00    -0.380 N 
ATOM     34  H22 UNL     1      -0.162   1.393  87.432  1.00  0.00     0.158 HD
ATOM     35  H21 UNL     1      -1.754   2.148  87.407  1.00  0.00     0.158 HD
ENDBRANCH  25  33
ENDBRANCH  22  23
ENDBRANCH  21  22
ENDBRANCH  20  21
ENDBRANCH  19  20
ENDBRANCH  17  19
ENDBRANCH   1  17
BRANCH   4  36
HETATM   36  N7  UNL     1       2.112   4.684  80.111  1.00  0.00    -0.370 N 
ATOM     37  H7  UNL     1       2.439   3.906  79.537  1.00  0.00     0.161 HD
BRANCH  36  38
HETATM   38  C10 UNL     1       2.741   4.849  81.382  1.00  0.00     0.083 A 
HETATM   39  C11 UNL     1       4.155   4.262  81.454  1.00  0.00     0.027 A 
HETATM   40  C12 UNL     1       3.909   5.718  81.589  1.00  0.00     0.027 A 
ENDBRANCH  36  38
ENDBRANCH   4  36
TORSDOF 9
ENDMDL
