MODEL 1
REMARK VINA RESULT: -6.585219944      0.000      0.000
REMARK  9 active torsions:
REMARK  status: ('A' for Active; 'I' for Inactive)
REMARK    1  A    between atoms: N1_2  and  C2_4 
REMARK    2  A    between atoms: C3_8  and  N4_9 
REMARK    3  A    between atoms: N6_14  and  C4_15 
REMARK    4  A    between atoms: C6_18  and  C7_19 
REMARK    5  A    between atoms: C10_26  and  S2_27 
REMARK    6  A    between atoms: S2_27  and  N10_30 
REMARK    7  A    between atoms: N10_30  and  C11_32 
REMARK    8  A    between atoms: C11_32  and  C12_33 
REMARK    9  A    between atoms: C12_33  and  O3_34 
ROOT
HETATM    1  C7  UNL     1       3.431   6.960  82.496  1.00  0.00     0.158 C 
HETATM    2  C8  UNL     1       3.468   8.115  83.346  1.00  0.00     0.113 C 
HETATM    3  N7  UNL     1       3.503   9.057  84.043  1.00  0.00    -0.191 NA
HETATM    4  C9  UNL     1       4.581   6.390  81.901  1.00  0.00     0.113 C 
HETATM    5  N8  UNL     1       5.534   5.924  81.431  1.00  0.00    -0.191 NA
ENDROOT
BRANCH   1   6
HETATM    6  C6  UNL     1       2.220   6.403  82.268  1.00  0.00     0.107 A 
HETATM    7  S1  UNL     1       1.738   4.778  82.483  1.00  0.00    -0.066 SA
HETATM    8  C5  UNL     1       0.100   4.926  81.983  1.00  0.00     0.065 A 
HETATM    9  C4  UNL     1      -0.811   3.960  81.937  1.00  0.00     0.157 C 
HETATM   10  C10 UNL     1       0.033   6.255  81.673  1.00  0.00     0.168 A 
HETATM   11  N9  UNL     1       1.119   6.958  81.832  1.00  0.00    -0.337 N 
ATOM     12  H9  UNL     1       1.109   7.954  81.614  1.00  0.00     0.167 HD
BRANCH   9  13
HETATM   13  N6  UNL     1      -0.517   2.632  82.316  1.00  0.00    -0.079 N 
HETATM   14  N5  UNL     1      -0.258   1.575  81.545  1.00  0.00    -0.109 N 
HETATM   15  C3  UNL     1      -0.033   0.503  82.301  1.00  0.00     0.728 A 
ATOM     16  H5  UNL     1      -0.235   1.586  80.525  1.00  0.00     0.207 HD
HETATM   17  N3  UNL     1      -0.151   0.875  83.593  1.00  0.00     0.108 N 
HETATM   18  N2  UNL     1      -0.088   0.459  84.833  1.00  0.00    -0.095 N 
HETATM   19  C14 UNL     1      -0.450   2.192  83.582  1.00  0.00     0.757 A 
HETATM   20  C2  UNL     1      -0.354   1.536  85.639  1.00  0.00     0.710 A 
ATOM     21  H2  UNL     1       0.119  -0.491  85.143  1.00  0.00     0.207 HD
HETATM   22  N11 UNL     1      -0.579   2.615  84.875  1.00  0.00    -0.013 N 
HETATM   23  C15 UNL     1      -0.895   3.971  85.277  1.00  0.00     0.195 C 
BRANCH  15  24
HETATM   24  N4  UNL     1       0.246  -0.684  81.924  1.00  0.00    -0.231 N 
ATOM     25  H42 UNL     1       1.162  -1.130  81.872  1.00  0.00     0.174 HD
ATOM     26  H41 UNL     1      -0.450  -1.360  81.611  1.00  0.00     0.174 HD
ENDBRANCH  15  24
BRANCH  20  27
HETATM   27  N1  UNL     1      -0.372   1.456  86.905  1.00  0.00    -0.228 N 
HETATM   28  C1  UNL     1      -1.441   1.482  87.830  1.00  0.00     0.165 C 
ATOM     29  H1  UNL     1       0.549   1.356  87.331  1.00  0.00     0.177 HD
ENDBRANCH  20  27
ENDBRANCH   9  13
BRANCH  10  30
HETATM   30  S2  UNL     1      -1.456   7.029  81.062  1.00  0.00     0.276 S 
HETATM   31  O1  UNL     1      -1.151   8.466  80.641  1.00  0.00    -0.199 OA
HETATM   32  O2  UNL     1      -1.878   6.337  79.808  1.00  0.00    -0.199 OA
BRANCH  30  33
HETATM   33  N10 UNL     1      -2.627   7.079  82.283  1.00  0.00    -0.312 N 
ATOM     34  H10 UNL     1      -3.626   7.122  82.086  1.00  0.00     0.172 HD
BRANCH  33  35
HETATM   35  C11 UNL     1      -2.106   7.057  83.609  1.00  0.00     0.158 C 
BRANCH  35  36
HETATM   36  C12 UNL     1      -1.723   8.460  84.077  1.00  0.00     0.187 C 
BRANCH  36  37
HETATM   37  O3  UNL     1      -0.343   8.529  84.216  1.00  0.00    -0.394 OA
HETATM   38  C13 UNL     1       0.003   7.601  85.210  1.00  0.00     0.201 C 
ENDBRANCH  36  37
ENDBRANCH  35  36
ENDBRANCH  33  35
ENDBRANCH  30  33
ENDBRANCH  10  30
ENDBRANCH   1   6
TORSDOF 9
ENDMDL
MODEL 2
REMARK VINA RESULT: -6.562537661      0.048      1.322
REMARK  9 active torsions:
REMARK  status: ('A' for Active; 'I' for Inactive)
REMARK    1  A    between atoms: N1_2  and  C2_4 
REMARK    2  A    between atoms: C3_8  and  N4_9 
REMARK    3  A    between atoms: N6_14  and  C4_15 
REMARK    4  A    between atoms: C6_18  and  C7_19 
REMARK    5  A    between atoms: C10_26  and  S2_27 
REMARK    6  A    between atoms: S2_27  and  N10_30 
REMARK    7  A    between atoms: N10_30  and  C11_32 
REMARK    8  A    between atoms: C11_32  and  C12_33 
REMARK    9  A    between atoms: C12_33  and  O3_34 
ROOT
HETATM    1  C7  UNL     1       3.436   6.953  82.473  1.00  0.00     0.158 C 
HETATM    2  C8  UNL     1       4.566   6.328  81.847  1.00  0.00     0.113 C 
HETATM    3  N7  UNL     1       5.491   5.823  81.333  1.00  0.00    -0.191 NA
HETATM    4  C9  UNL     1       3.534   8.100  83.295  1.00  0.00     0.113 C 
HETATM    5  N8  UNL     1       3.626   9.049  83.956  1.00  0.00    -0.191 NA
ENDROOT
BRANCH   1   6
HETATM    6  C6  UNL     1       2.224   6.397  82.248  1.00  0.00     0.107 A 
HETATM    7  S1  UNL     1       1.741   4.773  82.466  1.00  0.00    -0.066 SA
HETATM    8  C5  UNL     1       0.102   4.922  81.968  1.00  0.00     0.065 A 
HETATM    9  C4  UNL     1      -0.811   3.957  81.925  1.00  0.00     0.157 C 
HETATM   10  C10 UNL     1       0.036   6.250  81.656  1.00  0.00     0.168 A 
HETATM   11  N9  UNL     1       1.123   6.953  81.813  1.00  0.00    -0.337 N 
ATOM     12  H9  UNL     1       1.114   7.948  81.593  1.00  0.00     0.167 HD
BRANCH   9  13
HETATM   13  N6  UNL     1      -0.518   2.629  82.306  1.00  0.00    -0.079 N 
HETATM   14  N5  UNL     1      -0.261   1.571  81.537  1.00  0.00    -0.109 N 
HETATM   15  C3  UNL     1      -0.037   0.500  82.295  1.00  0.00     0.728 A 
ATOM     16  H5  UNL     1      -0.240   1.580  80.517  1.00  0.00     0.207 HD
HETATM   17  N3  UNL     1      -0.152   0.874  83.585  1.00  0.00     0.108 N 
HETATM   18  N2  UNL     1      -0.088   0.460  84.826  1.00  0.00    -0.095 N 
HETATM   19  C14 UNL     1      -0.449   2.192  83.573  1.00  0.00     0.757 A 
HETATM   20  C2  UNL     1      -0.351   1.539  85.630  1.00  0.00     0.710 A 
ATOM     21  H2  UNL     1       0.119  -0.489  85.137  1.00  0.00     0.207 HD
HETATM   22  N11 UNL     1      -0.575   2.617  84.865  1.00  0.00    -0.013 N 
HETATM   23  C15 UNL     1      -0.888   3.975  85.265  1.00  0.00     0.195 C 
BRANCH  15  24
HETATM   24  N4  UNL     1       0.240  -0.688  81.919  1.00  0.00    -0.231 N 
ATOM     25  H42 UNL     1       0.332  -1.525  82.493  1.00  0.00     0.174 HD
ATOM     26  H41 UNL     1       0.412  -0.953  80.949  1.00  0.00     0.174 HD
ENDBRANCH  15  24
BRANCH  20  27
HETATM   27  N1  UNL     1      -0.366   1.462  86.897  1.00  0.00    -0.228 N 
HETATM   28  C1  UNL     1      -1.435   1.477  87.823  1.00  0.00     0.165 C 
ATOM     29  H1  UNL     1       0.556   1.374  87.322  1.00  0.00     0.177 HD
ENDBRANCH  20  27
ENDBRANCH   9  13
BRANCH  10  30
HETATM   30  S2  UNL     1      -1.452   7.026  81.045  1.00  0.00     0.276 S 
HETATM   31  O1  UNL     1      -1.145   8.459  80.616  1.00  0.00    -0.199 OA
HETATM   32  O2  UNL     1      -1.880   6.329  79.796  1.00  0.00    -0.199 OA
BRANCH  30  33
HETATM   33  N10 UNL     1      -2.619   7.085  82.270  1.00  0.00    -0.312 N 
ATOM     34  H10 UNL     1      -3.620   7.119  82.075  1.00  0.00     0.172 HD
BRANCH  33  35
HETATM   35  C11 UNL     1      -2.095   7.083  83.594  1.00  0.00     0.158 C 
BRANCH  35  36
HETATM   36  C12 UNL     1      -1.700   8.492  84.035  1.00  0.00     0.187 C 
BRANCH  36  37
HETATM   37  O3  UNL     1      -0.321   8.550  84.184  1.00  0.00    -0.394 OA
HETATM   38  C13 UNL     1       0.011   7.619  85.181  1.00  0.00     0.201 C 
ENDBRANCH  36  37
ENDBRANCH  35  36
ENDBRANCH  33  35
ENDBRANCH  30  33
ENDBRANCH  10  30
ENDBRANCH   1   6
TORSDOF 9
ENDMDL
MODEL 3
REMARK VINA RESULT: -6.277096383      2.520      6.277
REMARK  9 active torsions:
REMARK  status: ('A' for Active; 'I' for Inactive)
REMARK    1  A    between atoms: N1_2  and  C2_4 
REMARK    2  A    between atoms: C3_8  and  N4_9 
REMARK    3  A    between atoms: N6_14  and  C4_15 
REMARK    4  A    between atoms: C6_18  and  C7_19 
REMARK    5  A    between atoms: C10_26  and  S2_27 
REMARK    6  A    between atoms: S2_27  and  N10_30 
REMARK    7  A    between atoms: N10_30  and  C11_32 
REMARK    8  A    between atoms: C11_32  and  C12_33 
REMARK    9  A    between atoms: C12_33  and  O3_34 
ROOT
HETATM    1  C7  UNL     1      -0.084   1.335  83.635  1.00  0.00     0.158 C 
HETATM    2  C8  UNL     1      -0.054   1.023  85.034  1.00  0.00     0.113 C 
HETATM    3  N7  UNL     1      -0.034   0.763  86.177  1.00  0.00    -0.191 NA
HETATM    4  C9  UNL     1      -0.063   0.356  82.614  1.00  0.00     0.113 C 
HETATM    5  N8  UNL     1      -0.060  -0.459  81.787  1.00  0.00    -0.191 NA
ENDROOT
BRANCH   1   6
HETATM    6  C6  UNL     1      -0.138   2.644  83.298  1.00  0.00     0.107 A 
HETATM    7  S1  UNL     1       0.327   3.386  81.831  1.00  0.00    -0.066 SA
HETATM    8  C5  UNL     1      -0.060   5.012  82.230  1.00  0.00     0.065 A 
HETATM    9  C4  UNL     1       0.085   6.081  81.452  1.00  0.00     0.157 C 
HETATM   10  C10 UNL     1      -0.533   4.871  83.503  1.00  0.00     0.168 A 
HETATM   11  N9  UNL     1      -0.556   3.666  83.999  1.00  0.00    -0.337 N 
ATOM     12  H9  UNL     1      -0.904   3.519  84.946  1.00  0.00     0.167 HD
BRANCH   9  13
HETATM   13  N6  UNL     1       0.601   5.992  80.141  1.00  0.00    -0.079 N 
HETATM   14  N5  UNL     1      -0.051   6.012  78.978  1.00  0.00    -0.109 N 
HETATM   15  C3  UNL     1       0.811   5.900  77.971  1.00  0.00     0.728 A 
ATOM     16  H5  UNL     1      -1.062   6.101  78.875  1.00  0.00     0.207 HD
HETATM   17  N3  UNL     1       2.050   5.803  78.494  1.00  0.00     0.108 N 
HETATM   18  N2  UNL     1       3.322   5.675  78.209  1.00  0.00    -0.095 N 
HETATM   19  C14 UNL     1       1.900   5.862  79.835  1.00  0.00     0.757 A 
HETATM   20  C2  UNL     1       4.006   5.652  79.397  1.00  0.00     0.710 A 
ATOM     21  H2  UNL     1       3.729   5.606  77.276  1.00  0.00     0.207 HD
HETATM   22  N11 UNL     1       3.136   5.767  80.411  1.00  0.00    -0.013 N 
HETATM   23  C15 UNL     1       3.390   5.794  81.838  1.00  0.00     0.195 C 
BRANCH  15  24
HETATM   24  N4  UNL     1       0.562   5.880  76.719  1.00  0.00    -0.231 N 
ATOM     25  H42 UNL     1       0.623   5.090  76.076  1.00  0.00     0.174 HD
ATOM     26  H41 UNL     1       0.261   6.695  76.185  1.00  0.00     0.174 HD
ENDBRANCH  15  24
BRANCH  20  27
HETATM   27  N1  UNL     1       5.268   5.534  79.459  1.00  0.00    -0.228 N 
HETATM   28  C1  UNL     1       6.104   4.393  79.465  1.00  0.00     0.165 C 
ATOM     29  H1  UNL     1       5.768   6.421  79.516  1.00  0.00     0.177 HD
ENDBRANCH  20  27
ENDBRANCH   9  13
BRANCH  10  30
HETATM   30  S2  UNL     1      -1.094   6.255  84.483  1.00  0.00     0.276 S 
HETATM   31  O1  UNL     1      -2.070   7.100  83.668  1.00  0.00    -0.199 OA
HETATM   32  O2  UNL     1      -1.893   5.737  85.633  1.00  0.00    -0.199 OA
BRANCH  30  33
HETATM   33  N10 UNL     1       0.220   7.235  84.906  1.00  0.00    -0.312 N 
ATOM     34  H10 UNL     1       0.941   6.936  85.563  1.00  0.00     0.172 HD
BRANCH  33  35
HETATM   35  C11 UNL     1       0.240   8.511  84.273  1.00  0.00     0.158 C 
BRANCH  35  36
HETATM   36  C12 UNL     1       1.631   8.840  83.735  1.00  0.00     0.187 C 
BRANCH  36  37
HETATM   37  O3  UNL     1       2.585   8.331  84.606  1.00  0.00    -0.394 OA
HETATM   38  C13 UNL     1       3.083   9.422  85.333  1.00  0.00     0.201 C 
ENDBRANCH  36  37
ENDBRANCH  35  36
ENDBRANCH  33  35
ENDBRANCH  30  33
ENDBRANCH  10  30
ENDBRANCH   1   6
TORSDOF 9
ENDMDL
MODEL 4
REMARK VINA RESULT: -6.257680384      2.510      6.378
REMARK  9 active torsions:
REMARK  status: ('A' for Active; 'I' for Inactive)
REMARK    1  A    between atoms: N1_2  and  C2_4 
REMARK    2  A    between atoms: C3_8  and  N4_9 
REMARK    3  A    between atoms: N6_14  and  C4_15 
REMARK    4  A    between atoms: C6_18  and  C7_19 
REMARK    5  A    between atoms: C10_26  and  S2_27 
REMARK    6  A    between atoms: S2_27  and  N10_30 
REMARK    7  A    between atoms: N10_30  and  C11_32 
REMARK    8  A    between atoms: C11_32  and  C12_33 
REMARK    9  A    between atoms: C12_33  and  O3_34 
ROOT
HETATM    1  C7  UNL     1      -0.095   1.397  83.701  1.00  0.00     0.158 C 
HETATM    2  C8  UNL     1      -0.081   0.423  82.648  1.00  0.00     0.113 C 
HETATM    3  N7  UNL     1      -0.064  -0.376  81.790  1.00  0.00    -0.191 NA
HETATM    4  C9  UNL     1      -0.077   1.061  85.076  1.00  0.00     0.113 C 
HETATM    5  N8  UNL     1      -0.047   0.773  86.200  1.00  0.00    -0.191 NA
ENDROOT
BRANCH   1   6
HETATM    6  C6  UNL     1      -0.125   2.698  83.335  1.00  0.00     0.107 A 
HETATM    7  S1  UNL     1       0.365   3.398  81.855  1.00  0.00    -0.066 SA
HETATM    8  C5  UNL     1      -0.001   5.040  82.214  1.00  0.00     0.065 A 
HETATM    9  C4  UNL     1       0.167   6.088  81.414  1.00  0.00     0.157 C 
HETATM   10  C10 UNL     1      -0.488   4.935  83.485  1.00  0.00     0.168 A 
HETATM   11  N9  UNL     1      -0.534   3.742  84.008  1.00  0.00    -0.337 N 
ATOM     12  H9  UNL     1      -0.892   3.621  84.955  1.00  0.00     0.167 HD
BRANCH   9  13
HETATM   13  N6  UNL     1       0.693   5.961  80.110  1.00  0.00    -0.079 N 
HETATM   14  N5  UNL     1       0.049   5.933  78.942  1.00  0.00    -0.109 N 
HETATM   15  C3  UNL     1       0.919   5.798  77.945  1.00  0.00     0.728 A 
ATOM     16  H5  UNL     1      -0.962   6.006  78.830  1.00  0.00     0.207 HD
HETATM   17  N3  UNL     1       2.156   5.735  78.480  1.00  0.00     0.108 N 
HETATM   18  N2  UNL     1       3.432   5.615  78.207  1.00  0.00    -0.095 N 
HETATM   19  C14 UNL     1       1.997   5.838  79.817  1.00  0.00     0.757 A 
HETATM   20  C2  UNL     1       4.108   5.641  79.400  1.00  0.00     0.710 A 
ATOM     21  H2  UNL     1       3.846   5.520  77.280  1.00  0.00     0.207 HD
HETATM   22  N11 UNL     1       3.229   5.779  80.403  1.00  0.00    -0.013 N 
HETATM   23  C15 UNL     1       3.473   5.858  81.830  1.00  0.00     0.195 C 
BRANCH  15  24
HETATM   24  N4  UNL     1       0.680   5.732  76.693  1.00  0.00    -0.231 N 
ATOM     25  H42 UNL     1       0.717   4.913  76.086  1.00  0.00     0.174 HD
ATOM     26  H41 UNL     1       0.412   6.534  76.122  1.00  0.00     0.174 HD
ENDBRANCH  15  24
BRANCH  20  27
HETATM   27  N1  UNL     1       5.370   5.542  79.474  1.00  0.00    -0.228 N 
HETATM   28  C1  UNL     1       6.223   4.413  79.493  1.00  0.00     0.165 C 
ATOM     29  H1  UNL     1       5.857   6.436  79.531  1.00  0.00     0.177 HD
ENDBRANCH  20  27
ENDBRANCH   9  13
BRANCH  10  30
HETATM   30  S2  UNL     1      -1.036   6.349  84.429  1.00  0.00     0.276 S 
HETATM   31  O1  UNL     1      -1.993   7.189  83.586  1.00  0.00    -0.199 OA
HETATM   32  O2  UNL     1      -1.852   5.870  85.583  1.00  0.00    -0.199 OA
BRANCH  30  33
HETATM   33  N10 UNL     1       0.288   7.319  84.841  1.00  0.00    -0.312 N 
ATOM     34  H10 UNL     1       1.000   7.025  85.510  1.00  0.00     0.172 HD
BRANCH  33  35
HETATM   35  C11 UNL     1       0.332   8.580  84.179  1.00  0.00     0.158 C 
BRANCH  35  36
HETATM   36  C12 UNL     1       1.743   8.896  83.685  1.00  0.00     0.187 C 
BRANCH  36  37
HETATM   37  O3  UNL     1       2.664   8.394  84.594  1.00  0.00    -0.394 OA
HETATM   38  C13 UNL     1       3.134   9.490  85.332  1.00  0.00     0.201 C 
ENDBRANCH  36  37
ENDBRANCH  35  36
ENDBRANCH  33  35
ENDBRANCH  30  33
ENDBRANCH  10  30
ENDBRANCH   1   6
TORSDOF 9
ENDMDL
MODEL 5
REMARK VINA RESULT: -6.219187605      2.347      6.742
REMARK  9 active torsions:
REMARK  status: ('A' for Active; 'I' for Inactive)
REMARK    1  A    between atoms: N1_2  and  C2_4 
REMARK    2  A    between atoms: C3_8  and  N4_9 
REMARK    3  A    between atoms: N6_14  and  C4_15 
REMARK    4  A    between atoms: C6_18  and  C7_19 
REMARK    5  A    between atoms: C10_26  and  S2_27 
REMARK    6  A    between atoms: S2_27  and  N10_30 
REMARK    7  A    between atoms: N10_30  and  C11_32 
REMARK    8  A    between atoms: C11_32  and  C12_33 
REMARK    9  A    between atoms: C12_33  and  O3_34 
ROOT
HETATM    1  C7  UNL     1      -0.225   2.571  82.223  1.00  0.00     0.158 C 
HETATM    2  C8  UNL     1      -0.907   2.024  81.087  1.00  0.00     0.113 C 
HETATM    3  N7  UNL     1      -1.463   1.570  80.159  1.00  0.00    -0.191 NA
HETATM    4  C9  UNL     1      -0.170   1.934  83.485  1.00  0.00     0.113 C 
HETATM    5  N8  UNL     1      -0.121   1.393  84.511  1.00  0.00    -0.191 NA
ENDROOT
BRANCH   1   6
HETATM    6  C6  UNL     1       0.394   3.761  82.053  1.00  0.00     0.107 A 
HETATM    7  S1  UNL     1       2.054   4.070  81.791  1.00  0.00    -0.066 SA
HETATM    8  C5  UNL     1       1.984   5.784  81.682  1.00  0.00     0.065 A 
HETATM    9  C4  UNL     1       3.002   6.614  81.471  1.00  0.00     0.157 C 
HETATM   10  C10 UNL     1       0.649   6.010  81.860  1.00  0.00     0.168 A 
HETATM   11  N9  UNL     1      -0.112   4.968  82.042  1.00  0.00    -0.337 N 
ATOM     12  H9  UNL     1      -1.114   5.094  82.178  1.00  0.00     0.167 HD
BRANCH   9  13
HETATM   13  N6  UNL     1       4.325   6.151  81.305  1.00  0.00    -0.079 N 
HETATM   14  N5  UNL     1       5.340   6.178  82.170  1.00  0.00    -0.109 N 
HETATM   15  C3  UNL     1       6.424   5.640  81.617  1.00  0.00     0.728 A 
ATOM     16  H5  UNL     1       5.292   6.555  83.117  1.00  0.00     0.207 HD
HETATM   17  N3  UNL     1       6.104   5.257  80.364  1.00  0.00     0.108 N 
HETATM   18  N2  UNL     1       6.560   4.702  79.269  1.00  0.00    -0.095 N 
HETATM   19  C14 UNL     1       4.804   5.580  80.190  1.00  0.00     0.757 A 
HETATM   20  C2  UNL     1       5.526   4.668  78.369  1.00  0.00     0.710 A 
ATOM     21  H2  UNL     1       7.508   4.358  79.114  1.00  0.00     0.207 HD
HETATM   22  N11 UNL     1       4.434   5.208  78.928  1.00  0.00    -0.013 N 
HETATM   23  C15 UNL     1       3.110   5.387  78.366  1.00  0.00     0.195 C 
BRANCH  15  24
HETATM   24  N4  UNL     1       7.582   5.491  82.134  1.00  0.00    -0.231 N 
ATOM     25  H42 UNL     1       7.844   4.924  82.941  1.00  0.00     0.174 HD
ATOM     26  H41 UNL     1       8.424   5.948  81.785  1.00  0.00     0.174 HD
ENDBRANCH  15  24
BRANCH  20  27
HETATM   27  N1  UNL     1       5.650   4.187  77.201  1.00  0.00    -0.228 N 
HETATM   28  C1  UNL     1       6.543   3.226  76.673  1.00  0.00     0.165 C 
ATOM     29  H1  UNL     1       4.988   4.562  76.522  1.00  0.00     0.177 HD
ENDBRANCH  20  27
ENDBRANCH   9  13
BRANCH  10  30
HETATM   30  S2  UNL     1      -0.060   7.649  81.866  1.00  0.00     0.276 S 
HETATM   31  O1  UNL     1       0.767   8.564  82.767  1.00  0.00    -0.199 OA
HETATM   32  O2  UNL     1       0.066   8.233  80.498  1.00  0.00    -0.199 OA
BRANCH  30  33
HETATM   33  N10 UNL     1      -1.637   7.596  82.481  1.00  0.00    -0.312 N 
ATOM     34  H10 UNL     1      -2.432   7.273  81.929  1.00  0.00     0.172 HD
BRANCH  33  35
HETATM   35  C11 UNL     1      -1.766   8.038  83.829  1.00  0.00     0.158 C 
BRANCH  35  36
HETATM   36  C12 UNL     1      -1.473   6.906  84.812  1.00  0.00     0.187 C 
BRANCH  36  37
HETATM   37  O3  UNL     1      -1.925   5.709  84.272  1.00  0.00    -0.394 OA
HETATM   38  C13 UNL     1      -1.804   4.745  85.284  1.00  0.00     0.201 C 
ENDBRANCH  36  37
ENDBRANCH  35  36
ENDBRANCH  33  35
ENDBRANCH  30  33
ENDBRANCH  10  30
ENDBRANCH   1   6
TORSDOF 9
ENDMDL
