MODEL 1
REMARK VINA RESULT: -8.694640344      0.000      0.000
REMARK  7 active torsions:
REMARK  status: ('A' for Active; 'I' for Inactive)
REMARK    1  A    between atoms: C4_7  and  C5_8 
REMARK    2  A    between atoms: C5_8  and  N3_9 
REMARK    3  A    between atoms: C8_12  and  N4_13 
REMARK       I    between atoms: N4_13  and  C9_15 
REMARK    4  A    between atoms: C9_15  and  C10_17 
REMARK    5  A    between atoms: C10_17  and  N5_18 
REMARK    6  A    between atoms: C11_21  and  C12_22 
REMARK    7  A    between atoms: C12_22  and  N7_23 
ROOT
HETATM    1  N5  UNL     1      -0.998   4.527  83.277  1.00  0.00    -0.247 N 
HETATM    2  N6  UNL     1      -0.593   3.443  82.660  1.00  0.00    -0.297 N 
ATOM      3  H6  UNL     1      -0.399   3.510  81.661  1.00  0.00     0.187 HD
HETATM    4  C11 UNL     1      -0.412   2.237  83.260  1.00  0.00     0.069 A 
HETATM    5  C13 UNL     1      -0.691   2.208  84.620  1.00  0.00     0.090 A 
HETATM    6  C14 UNL     1      -0.554   1.056  85.362  1.00  0.00     0.264 A 
HETATM    7  O2  UNL     1      -0.165   0.023  84.761  1.00  0.00    -0.267 OA
HETATM    8  N8  UNL     1      -0.825   1.023  86.690  1.00  0.00    -0.275 N 
ATOM      9  H8  UNL     1      -0.713   0.149  87.205  1.00  0.00     0.173 HD
HETATM   10  C15 UNL     1      -1.239   2.120  87.334  1.00  0.00     0.327 A 
HETATM   11  O3  UNL     1      -1.493   2.086  88.581  1.00  0.00    -0.247 OA
HETATM   12  N9  UNL     1      -1.375   3.244  86.616  1.00  0.00    -0.303 N 
ATOM     13  H9  UNL     1      -1.691   4.085  87.100  1.00  0.00     0.171 HD
HETATM   14  C16 UNL     1      -1.122   3.336  85.303  1.00  0.00     0.124 A 
HETATM   15  C17 UNL     1      -1.267   4.500  84.588  1.00  0.00     0.290 A 
HETATM   16  O4  UNL     1      -1.658   5.514  85.219  1.00  0.00    -0.264 OA
ENDROOT
BRANCH   1  17
HETATM   17  C10 UNL     1      -1.169   5.790  82.561  1.00  0.00     0.255 C 
BRANCH  17  18
HETATM   18  C9  UNL     1      -0.416   5.795  81.296  1.00  0.00     0.243 C 
HETATM   19  N4  UNL     1       0.744   6.584  81.087  1.00  0.00    -0.311 N 
ATOM     20  H4  UNL     1       0.644   7.598  81.131  1.00  0.00     0.170 HD
HETATM   21  O1  UNL     1      -0.808   5.070  80.348  1.00  0.00    -0.271 OA
BRANCH  19  22
HETATM   22  C8  UNL     1       1.897   6.112  80.849  1.00  0.00     0.112 A 
HETATM   23  C7  UNL     1       2.839   6.720  80.020  1.00  0.00     0.066 A 
HETATM   24  C6  UNL     1       4.061   6.119  79.832  1.00  0.00     0.100 A 
HETATM   25  N3  UNL     1       4.414   4.940  80.420  1.00  0.00    -0.303 N 
HETATM   26  C18 UNL     1       3.497   4.383  81.205  1.00  0.00     0.328 A 
HETATM   27  N10 UNL     1       2.274   4.957  81.410  1.00  0.00    -0.294 N 
HETATM   28  O5  UNL     1       3.726   3.304  81.790  1.00  0.00    -0.246 OA
ATOM     29  H10 UNL     1       1.614   4.480  82.024  1.00  0.00     0.172 HD
BRANCH  25  30
HETATM   30  C5  UNL     1       5.716   4.362  80.162  1.00  0.00     0.209 C 
BRANCH  30  31
HETATM   31  C4  UNL     1       6.766   5.184  80.767  1.00  0.00     0.101 A 
HETATM   32  N1  UNL     1       7.847   5.721  80.243  1.00  0.00    -0.348 N 
HETATM   33  C1  UNL     1       8.347   5.632  78.893  1.00  0.00     0.157 C 
HETATM   34  C2  UNL     1       8.530   6.425  81.191  1.00  0.00     0.108 A 
HETATM   35  C3  UNL     1       7.830   6.316  82.361  1.00  0.00     0.106 A 
HETATM   36  N2  UNL     1       6.761   5.554  82.074  1.00  0.00    -0.353 N 
ATOM     37  H2  UNL     1       6.041   5.291  82.747  1.00  0.00     0.166 HD
ENDBRANCH  30  31
ENDBRANCH  25  30
ENDBRANCH  19  22
ENDBRANCH  17  18
ENDBRANCH   1  17
BRANCH   4  38
HETATM   38  C12 UNL     1       0.044   1.049  82.523  1.00  0.00     0.289 C 
BRANCH  38  39
HETATM   39  N7  UNL     1      -0.687   1.065  81.235  1.00  0.00    -0.074 N 
ATOM     40  H73 UNL     1      -0.365   0.358  80.575  1.00  0.00     0.274 HD
ATOM     41  H72 UNL     1      -1.650   0.736  81.308  1.00  0.00     0.274 HD
ATOM     42  H71 UNL     1      -0.608   2.019  80.881  1.00  0.00     0.274 HD
ENDBRANCH  38  39
ENDBRANCH   4  38
TORSDOF 7
ENDMDL
MODEL 2
REMARK VINA RESULT: -8.553961483      0.863      1.469
REMARK  7 active torsions:
REMARK  status: ('A' for Active; 'I' for Inactive)
REMARK    1  A    between atoms: C4_7  and  C5_8 
REMARK    2  A    between atoms: C5_8  and  N3_9 
REMARK    3  A    between atoms: C8_12  and  N4_13 
REMARK       I    between atoms: N4_13  and  C9_15 
REMARK    4  A    between atoms: C9_15  and  C10_17 
REMARK    5  A    between atoms: C10_17  and  N5_18 
REMARK    6  A    between atoms: C11_21  and  C12_22 
REMARK    7  A    between atoms: C12_22  and  N7_23 
ROOT
HETATM    1  N5  UNL     1      -1.002   4.456  83.179  1.00  0.00    -0.247 N 
HETATM    2  N6  UNL     1      -0.568   3.345  82.635  1.00  0.00    -0.297 N 
ATOM      3  H6  UNL     1      -0.339   3.361  81.641  1.00  0.00     0.187 HD
HETATM    4  C11 UNL     1      -0.403   2.172  83.302  1.00  0.00     0.069 A 
HETATM    5  C13 UNL     1      -0.731   2.212  84.651  1.00  0.00     0.090 A 
HETATM    6  C14 UNL     1      -0.614   1.101  85.456  1.00  0.00     0.264 A 
HETATM    7  O2  UNL     1      -0.199   0.041  84.925  1.00  0.00    -0.267 OA
HETATM    8  N8  UNL     1      -0.933   1.134  86.774  1.00  0.00    -0.275 N 
ATOM      9  H8  UNL     1      -0.835   0.290  87.337  1.00  0.00     0.173 HD
HETATM   10  C15 UNL     1      -1.376   2.261  87.344  1.00  0.00     0.327 A 
HETATM   11  O3  UNL     1      -1.676   2.289  88.582  1.00  0.00    -0.247 OA
HETATM   12  N9  UNL     1      -1.492   3.345  86.564  1.00  0.00    -0.303 N 
ATOM     13  H9  UNL     1      -1.830   4.207  86.993  1.00  0.00     0.171 HD
HETATM   14  C16 UNL     1      -1.193   3.371  85.259  1.00  0.00     0.124 A 
HETATM   15  C17 UNL     1      -1.317   4.495  84.479  1.00  0.00     0.290 A 
HETATM   16  O4  UNL     1      -1.737   5.538  85.043  1.00  0.00    -0.264 OA
ENDROOT
BRANCH   1  17
HETATM   17  C10 UNL     1      -1.153   5.679  82.393  1.00  0.00     0.255 C 
BRANCH  17  18
HETATM   18  C9  UNL     1      -0.229   5.698  81.247  1.00  0.00     0.243 C 
HETATM   19  N4  UNL     1       0.889   6.565  81.167  1.00  0.00    -0.311 N 
ATOM     20  H4  UNL     1       0.713   7.569  81.150  1.00  0.00     0.170 HD
HETATM   21  O1  UNL     1      -0.430   4.912  80.287  1.00  0.00    -0.271 OA
BRANCH  19  22
HETATM   22  C8  UNL     1       2.096   6.175  81.114  1.00  0.00     0.112 A 
HETATM   23  C7  UNL     1       3.164   6.977  80.719  1.00  0.00     0.066 A 
HETATM   24  C6  UNL     1       4.434   6.450  80.698  1.00  0.00     0.100 A 
HETATM   25  N3  UNL     1       4.715   5.162  81.048  1.00  0.00    -0.303 N 
HETATM   26  C18 UNL     1       3.677   4.420  81.421  1.00  0.00     0.328 A 
HETATM   27  N10 UNL     1       2.405   4.917  81.451  1.00  0.00    -0.294 N 
HETATM   28  O5  UNL     1       3.832   3.228  81.763  1.00  0.00    -0.246 OA
ATOM     29  H10 UNL     1       1.651   4.296  81.746  1.00  0.00     0.172 HD
BRANCH  25  30
HETATM   30  C5  UNL     1       6.077   4.675  80.988  1.00  0.00     0.209 C 
BRANCH  30  31
HETATM   31  C4  UNL     1       6.525   4.589  79.596  1.00  0.00     0.101 A 
HETATM   32  N1  UNL     1       7.642   4.987  79.027  1.00  0.00    -0.348 N 
HETATM   33  C1  UNL     1       8.771   5.670  79.611  1.00  0.00     0.157 C 
HETATM   34  C2  UNL     1       7.629   4.680  77.698  1.00  0.00     0.108 A 
HETATM   35  C3  UNL     1       6.439   4.059  77.437  1.00  0.00     0.106 A 
HETATM   36  N2  UNL     1       5.786   4.017  78.611  1.00  0.00    -0.353 N 
ATOM     37  H2  UNL     1       4.861   3.610  78.744  1.00  0.00     0.166 HD
ENDBRANCH  30  31
ENDBRANCH  25  30
ENDBRANCH  19  22
ENDBRANCH  17  18
ENDBRANCH   1  17
BRANCH   4  38
HETATM   38  C12 UNL     1       0.086   0.952  82.645  1.00  0.00     0.289 C 
BRANCH  38  39
HETATM   39  N7  UNL     1      -0.613   0.885  81.340  1.00  0.00    -0.074 N 
ATOM     40  H73 UNL     1      -1.406   1.522  81.271  1.00  0.00     0.274 HD
ATOM     41  H72 UNL     1      -0.073   1.277  80.568  1.00  0.00     0.274 HD
ATOM     42  H71 UNL     1      -0.863  -0.095  81.208  1.00  0.00     0.274 HD
ENDBRANCH  38  39
ENDBRANCH   4  38
TORSDOF 7
ENDMDL
MODEL 3
REMARK VINA RESULT: -8.174476819      0.980      1.077
REMARK  7 active torsions:
REMARK  status: ('A' for Active; 'I' for Inactive)
REMARK    1  A    between atoms: C4_7  and  C5_8 
REMARK    2  A    between atoms: C5_8  and  N3_9 
REMARK    3  A    between atoms: C8_12  and  N4_13 
REMARK       I    between atoms: N4_13  and  C9_15 
REMARK    4  A    between atoms: C9_15  and  C10_17 
REMARK    5  A    between atoms: C10_17  and  N5_18 
REMARK    6  A    between atoms: C11_21  and  C12_22 
REMARK    7  A    between atoms: C12_22  and  N7_23 
ROOT
HETATM    1  N5  UNL     1      -1.255   4.552  83.284  1.00  0.00    -0.247 N 
HETATM    2  N6  UNL     1      -0.800   3.500  82.646  1.00  0.00    -0.297 N 
ATOM      3  H6  UNL     1      -0.638   3.587  81.643  1.00  0.00     0.187 HD
HETATM    4  C11 UNL     1      -0.530   2.302  83.228  1.00  0.00     0.069 A 
HETATM    5  C13 UNL     1      -0.771   2.244  84.595  1.00  0.00     0.090 A 
HETATM    6  C14 UNL     1      -0.544   1.096  85.321  1.00  0.00     0.264 A 
HETATM    7  O2  UNL     1      -0.109   0.094  84.699  1.00  0.00    -0.267 OA
HETATM    8  N8  UNL     1      -0.777   1.034  86.655  1.00  0.00    -0.275 N 
ATOM      9  H8  UNL     1      -0.597   0.165  87.158  1.00  0.00     0.173 HD
HETATM   10  C15 UNL     1      -1.239   2.099  87.321  1.00  0.00     0.327 A 
HETATM   11  O3  UNL     1      -1.458   2.038  88.574  1.00  0.00    -0.247 OA
HETATM   12  N9  UNL     1      -1.463   3.219  86.618  1.00  0.00    -0.303 N 
ATOM     13  H9  UNL     1      -1.816   4.034  87.120  1.00  0.00     0.171 HD
HETATM   14  C16 UNL     1      -1.251   3.338  85.301  1.00  0.00     0.124 A 
HETATM   15  C17 UNL     1      -1.486   4.496  84.602  1.00  0.00     0.290 A 
HETATM   16  O4  UNL     1      -1.921   5.479  85.254  1.00  0.00    -0.264 OA
ENDROOT
BRANCH   1  17
HETATM   17  C10 UNL     1      -1.521   5.808  82.586  1.00  0.00     0.255 C 
BRANCH  17  18
HETATM   18  C9  UNL     1      -0.598   6.000  81.456  1.00  0.00     0.243 C 
HETATM   19  N4  UNL     1       0.607   6.739  81.556  1.00  0.00    -0.311 N 
ATOM     20  H4  UNL     1       0.540   7.732  81.779  1.00  0.00     0.170 HD
HETATM   21  O1  UNL     1      -0.879   5.488  80.344  1.00  0.00    -0.271 OA
BRANCH  19  22
HETATM   22  C8  UNL     1       1.765   6.248  81.385  1.00  0.00     0.112 A 
HETATM   23  C7  UNL     1       2.742   6.179  82.376  1.00  0.00     0.066 A 
HETATM   24  C6  UNL     1       3.966   5.626  82.081  1.00  0.00     0.100 A 
HETATM   25  N3  UNL     1       4.286   5.132  80.850  1.00  0.00    -0.303 N 
HETATM   26  C18 UNL     1       3.335   5.211  79.925  1.00  0.00     0.328 A 
HETATM   27  N10 UNL     1       2.110   5.755  80.190  1.00  0.00    -0.294 N 
HETATM   28  O5  UNL     1       3.531   4.782  78.768  1.00  0.00    -0.246 OA
ATOM     29  H10 UNL     1       1.424   5.787  79.437  1.00  0.00     0.172 HD
BRANCH  25  30
HETATM   30  C5  UNL     1       5.602   4.576  80.612  1.00  0.00     0.209 C 
BRANCH  30  31
HETATM   31  C4  UNL     1       6.638   5.524  81.031  1.00  0.00     0.101 A 
HETATM   32  N1  UNL     1       7.032   6.658  80.494  1.00  0.00    -0.348 N 
HETATM   33  C1  UNL     1       6.573   7.306  79.289  1.00  0.00     0.157 C 
HETATM   34  C2  UNL     1       8.026   7.214  81.245  1.00  0.00     0.108 A 
HETATM   35  C3  UNL     1       8.253   6.375  82.301  1.00  0.00     0.106 A 
HETATM   36  N2  UNL     1       7.395   5.354  82.145  1.00  0.00    -0.353 N 
ATOM     37  H2  UNL     1       7.320   4.559  82.779  1.00  0.00     0.166 HD
ENDBRANCH  30  31
ENDBRANCH  25  30
ENDBRANCH  19  22
ENDBRANCH  17  18
ENDBRANCH   1  17
BRANCH   4  38
HETATM   38  C12 UNL     1      -0.022   1.151  82.467  1.00  0.00     0.289 C 
BRANCH  38  39
HETATM   39  N7  UNL     1      -0.744   1.170  81.173  1.00  0.00    -0.074 N 
ATOM     40  H73 UNL     1      -1.735   1.388  81.263  1.00  0.00     0.274 HD
ATOM     41  H72 UNL     1      -0.497   1.962  80.580  1.00  0.00     0.274 HD
ATOM     42  H71 UNL     1      -0.563   0.264  80.740  1.00  0.00     0.274 HD
ENDBRANCH  38  39
ENDBRANCH   4  38
TORSDOF 7
ENDMDL
MODEL 4
REMARK VINA RESULT: -8.129056292      3.520      5.023
REMARK  7 active torsions:
REMARK  status: ('A' for Active; 'I' for Inactive)
REMARK    1  A    between atoms: C4_7  and  C5_8 
REMARK    2  A    between atoms: C5_8  and  N3_9 
REMARK    3  A    between atoms: C8_12  and  N4_13 
REMARK       I    between atoms: N4_13  and  C9_15 
REMARK    4  A    between atoms: C9_15  and  C10_17 
REMARK    5  A    between atoms: C10_17  and  N5_18 
REMARK    6  A    between atoms: C11_21  and  C12_22 
REMARK    7  A    between atoms: C12_22  and  N7_23 
ROOT
HETATM    1  N5  UNL     1      -0.139   3.569  82.965  1.00  0.00    -0.247 N 
HETATM    2  N6  UNL     1      -0.697   4.644  83.468  1.00  0.00    -0.297 N 
ATOM      3  H6  UNL     1      -0.634   5.507  82.929  1.00  0.00     0.187 HD
HETATM    4  C11 UNL     1      -1.353   4.687  84.658  1.00  0.00     0.069 A 
HETATM    5  C13 UNL     1      -1.406   3.481  85.345  1.00  0.00     0.090 A 
HETATM    6  C14 UNL     1      -2.038   3.371  86.564  1.00  0.00     0.264 A 
HETATM    7  O2  UNL     1      -2.569   4.407  87.037  1.00  0.00    -0.267 OA
HETATM    8  N8  UNL     1      -2.093   2.197  87.239  1.00  0.00    -0.275 N 
ATOM      9  H8  UNL     1      -2.569   2.155  88.140  1.00  0.00     0.173 HD
HETATM   10  C15 UNL     1      -1.529   1.091  86.738  1.00  0.00     0.327 A 
HETATM   11  O3  UNL     1      -1.582  -0.011  87.375  1.00  0.00    -0.247 OA
HETATM   12  N9  UNL     1      -0.913   1.193  85.552  1.00  0.00    -0.303 N 
ATOM     13  H9  UNL     1      -0.480   0.354  85.166  1.00  0.00     0.171 HD
HETATM   14  C16 UNL     1      -0.827   2.325  84.841  1.00  0.00     0.124 A 
HETATM   15  C17 UNL     1      -0.191   2.406  83.627  1.00  0.00     0.290 A 
HETATM   16  O4  UNL     1       0.330   1.351  83.183  1.00  0.00    -0.264 OA
ENDROOT
BRANCH   1  17
HETATM   17  C10 UNL     1       0.550   3.602  81.677  1.00  0.00     0.255 C 
BRANCH  17  18
HETATM   18  C9  UNL     1       1.827   4.328  81.770  1.00  0.00     0.243 C 
HETATM   19  N4  UNL     1       1.969   5.695  81.425  1.00  0.00    -0.311 N 
ATOM     20  H4  UNL     1       1.790   5.963  80.458  1.00  0.00     0.170 HD
HETATM   21  O1  UNL     1       2.848   3.718  82.175  1.00  0.00    -0.271 OA
BRANCH  19  22
HETATM   22  C8  UNL     1       2.305   6.608  82.240  1.00  0.00     0.112 A 
HETATM   23  C7  UNL     1       3.518   7.292  82.198  1.00  0.00     0.066 A 
HETATM   24  C6  UNL     1       3.779   8.265  83.133  1.00  0.00     0.100 A 
HETATM   25  N3  UNL     1       2.902   8.608  84.121  1.00  0.00    -0.303 N 
HETATM   26  C18 UNL     1       1.753   7.940  84.136  1.00  0.00     0.328 A 
HETATM   27  N10 UNL     1       1.467   6.968  83.220  1.00  0.00    -0.294 N 
HETATM   28  O5  UNL     1       0.883   8.184  85.000  1.00  0.00    -0.246 OA
ATOM     29  H10 UNL     1       0.568   6.492  83.286  1.00  0.00     0.172 HD
BRANCH  25  30
HETATM   30  C5  UNL     1       3.254   9.635  85.078  1.00  0.00     0.209 C 
BRANCH  30  31
HETATM   31  C4  UNL     1       3.374  10.933  84.410  1.00  0.00     0.101 A 
HETATM   32  N1  UNL     1       2.453  11.755  83.957  1.00  0.00    -0.348 N 
HETATM   33  C1  UNL     1       1.018  11.605  83.953  1.00  0.00     0.157 C 
HETATM   34  C2  UNL     1       3.035  12.866  83.420  1.00  0.00     0.108 A 
HETATM   35  C3  UNL     1       4.388  12.718  83.552  1.00  0.00     0.106 A 
HETATM   36  N2  UNL     1       4.566  11.533  84.158  1.00  0.00    -0.353 N 
ATOM     37  H2  UNL     1       5.475  11.136  84.397  1.00  0.00     0.166 HD
ENDBRANCH  30  31
ENDBRANCH  25  30
ENDBRANCH  19  22
ENDBRANCH  17  18
ENDBRANCH   1  17
BRANCH   4  38
HETATM   38  C12 UNL     1      -1.962   5.920  85.179  1.00  0.00     0.289 C 
BRANCH  38  39
HETATM   39  N7  UNL     1      -1.853   6.918  84.090  1.00  0.00    -0.074 N 
ATOM     40  H73 UNL     1      -2.302   7.807  84.306  1.00  0.00     0.274 HD
ATOM     41  H72 UNL     1      -0.909   7.284  83.965  1.00  0.00     0.274 HD
ATOM     42  H71 UNL     1      -2.228   6.464  83.257  1.00  0.00     0.274 HD
ENDBRANCH  38  39
ENDBRANCH   4  38
TORSDOF 7
ENDMDL
MODEL 5
REMARK VINA RESULT: -7.969311777      3.571      4.951
REMARK  7 active torsions:
REMARK  status: ('A' for Active; 'I' for Inactive)
REMARK    1  A    between atoms: C4_7  and  C5_8 
REMARK    2  A    between atoms: C5_8  and  N3_9 
REMARK    3  A    between atoms: C8_12  and  N4_13 
REMARK       I    between atoms: N4_13  and  C9_15 
REMARK    4  A    between atoms: C9_15  and  C10_17 
REMARK    5  A    between atoms: C10_17  and  N5_18 
REMARK    6  A    between atoms: C11_21  and  C12_22 
REMARK    7  A    between atoms: C12_22  and  N7_23 
ROOT
HETATM    1  N5  UNL     1      -0.118   3.612  82.989  1.00  0.00    -0.247 N 
HETATM    2  N6  UNL     1      -0.683   4.678  83.502  1.00  0.00    -0.297 N 
ATOM      3  H6  UNL     1      -0.623   5.548  82.973  1.00  0.00     0.187 HD
HETATM    4  C11 UNL     1      -1.342   4.706  84.691  1.00  0.00     0.069 A 
HETATM    5  C13 UNL     1      -1.390   3.492  85.365  1.00  0.00     0.090 A 
HETATM    6  C14 UNL     1      -2.024   3.366  86.581  1.00  0.00     0.264 A 
HETATM    7  O2  UNL     1      -2.561   4.394  87.064  1.00  0.00    -0.267 OA
HETATM    8  N8  UNL     1      -2.074   2.183  87.243  1.00  0.00    -0.275 N 
ATOM      9  H8  UNL     1      -2.552   2.130  88.142  1.00  0.00     0.173 HD
HETATM   10  C15 UNL     1      -1.504   1.086  86.732  1.00  0.00     0.327 A 
HETATM   11  O3  UNL     1      -1.552  -0.023  87.356  1.00  0.00    -0.247 OA
HETATM   12  N9  UNL     1      -0.885   1.204  85.548  1.00  0.00    -0.303 N 
ATOM     13  H9  UNL     1      -0.447   0.372  85.154  1.00  0.00     0.171 HD
HETATM   14  C16 UNL     1      -0.804   2.345  84.850  1.00  0.00     0.124 A 
HETATM   15  C17 UNL     1      -0.165   2.442  83.638  1.00  0.00     0.290 A 
HETATM   16  O4  UNL     1       0.362   1.395  83.184  1.00  0.00    -0.264 OA
ENDROOT
BRANCH   1  17
HETATM   17  C10 UNL     1       0.574   3.663  81.703  1.00  0.00     0.255 C 
BRANCH  17  18
HETATM   18  C9  UNL     1       1.852   4.385  81.809  1.00  0.00     0.243 C 
HETATM   19  N4  UNL     1       1.990   5.765  81.514  1.00  0.00    -0.311 N 
ATOM     20  H4  UNL     1       1.800   6.069  80.559  1.00  0.00     0.170 HD
HETATM   21  O1  UNL     1       2.877   3.762  82.180  1.00  0.00    -0.271 OA
BRANCH  19  22
HETATM   22  C8  UNL     1       2.334   6.647  82.358  1.00  0.00     0.112 A 
HETATM   23  C7  UNL     1       3.559   7.312  82.346  1.00  0.00     0.066 A 
HETATM   24  C6  UNL     1       3.828   8.252  83.312  1.00  0.00     0.100 A 
HETATM   25  N3  UNL     1       2.949   8.579  84.303  1.00  0.00    -0.303 N 
HETATM   26  C18 UNL     1       1.789   7.930  84.290  1.00  0.00     0.328 A 
HETATM   27  N10 UNL     1       1.494   6.991  83.343  1.00  0.00    -0.294 N 
HETATM   28  O5  UNL     1       0.918   8.162  85.155  1.00  0.00    -0.246 OA
ATOM     29  H10 UNL     1       0.587   6.528  83.388  1.00  0.00     0.172 HD
BRANCH  25  30
HETATM   30  C5  UNL     1       3.311   9.571  85.294  1.00  0.00     0.209 C 
BRANCH  30  31
HETATM   31  C4  UNL     1       3.448  10.888  84.669  1.00  0.00     0.101 A 
HETATM   32  N1  UNL     1       4.480  11.700  84.591  1.00  0.00    -0.348 N 
HETATM   33  C1  UNL     1       5.807  11.543  85.139  1.00  0.00     0.157 C 
HETATM   34  C2  UNL     1       4.146  12.822  83.892  1.00  0.00     0.108 A 
HETATM   35  C3  UNL     1       2.837  12.693  83.519  1.00  0.00     0.106 A 
HETATM   36  N2  UNL     1       2.437  11.506  84.005  1.00  0.00    -0.353 N 
ATOM     37  H2  UNL     1       1.499  11.121  83.891  1.00  0.00     0.166 HD
ENDBRANCH  30  31
ENDBRANCH  25  30
ENDBRANCH  19  22
ENDBRANCH  17  18
ENDBRANCH   1  17
BRANCH   4  38
HETATM   38  C12 UNL     1      -1.958   5.929  85.224  1.00  0.00     0.289 C 
BRANCH  38  39
HETATM   39  N7  UNL     1      -1.878   6.931  84.136  1.00  0.00    -0.074 N 
ATOM     40  H73 UNL     1      -2.084   6.548  83.214  1.00  0.00     0.274 HD
ATOM     41  H72 UNL     1      -2.634   7.616  84.156  1.00  0.00     0.274 HD
ATOM     42  H71 UNL     1      -0.949   7.347  84.207  1.00  0.00     0.274 HD
ENDBRANCH  38  39
ENDBRANCH   4  38
TORSDOF 7
ENDMDL
