MODEL 1
REMARK VINA RESULT: -9.355685979      0.000      0.000
REMARK  5 active torsions:
REMARK  status: ('A' for Active; 'I' for Inactive)
REMARK    1  A    between atoms: C6_7  and  C7_8 
REMARK    2  A    between atoms: C7_8  and  N1_9 
REMARK    3  A    between atoms: N1_9  and  C8_11 
REMARK    4  A    between atoms: C10_17  and  N4_18 
REMARK    5  A    between atoms: N4_18  and  C11_20 
ROOT
HETATM    1  C8  UNL     1      87.339 120.811  12.826  1.00  0.00     0.693 A 
HETATM    2  N2  UNL     1      86.964 121.804  12.001  1.00  0.00    -0.187 N 
ATOM      3  H2  UNL     1      86.174 122.396  12.254  1.00  0.00     0.185 HD
HETATM    4  C9  UNL     1      87.625 122.033  10.830  1.00  0.00     0.215 A 
HETATM    5  N3  UNL     1      88.668 121.264  10.474  1.00  0.00    -0.187 N 
ATOM      6  H3  UNL     1      89.163 121.431   9.598  1.00  0.00     0.185 HD
HETATM    7  C10 UNL     1      89.043 120.275  11.294  1.00  0.00     0.693 A 
HETATM    8  N5  UNL     1      88.385 120.053  12.455  1.00  0.00    -0.022 N 
ATOM      9  H5  UNL     1      88.690 119.293  13.062  1.00  0.00     0.203 HD
ENDROOT
BRANCH   1  10
HETATM   10  N1  UNL     1      86.736 120.573  13.937  1.00  0.00    -0.221 N 
ATOM     11  H1  UNL     1      86.020 119.849  14.002  1.00  0.00     0.178 HD
BRANCH  10  12
HETATM   12  C7  UNL     1      87.102 121.362  15.091  1.00  0.00     0.176 C 
BRANCH  12  13
HETATM   13  C6  UNL     1      87.084 120.482  16.285  1.00  0.00    -0.038 A 
HETATM   14  C5  UNL     1      87.918 119.363  16.372  1.00  0.00     0.032 A 
HETATM   15  C4  UNL     1      87.847 118.594  17.507  1.00  0.00     0.035 A 
HETATM   16  C3  UNL     1      86.978 118.904  18.546  1.00  0.00     0.030 A 
HETATM   17 CL1  UNL     1      88.908 117.184  17.600  1.00  0.00    -0.084 Cl
HETATM   18  C2  UNL     1      86.156 120.001  18.467  1.00  0.00    -0.060 A 
HETATM   19  C1  UNL     1      85.206 120.375  19.555  1.00  0.00     0.048 C 
HETATM   20  C16 UNL     1      86.226 120.775  17.327  1.00  0.00     0.015 A 
ENDBRANCH  12  13
ENDBRANCH  10  12
ENDBRANCH   1  10
BRANCH   7  21
HETATM   21  N4  UNL     1      90.038 119.485  11.031  1.00  0.00    -0.221 N 
ATOM     22  H4  UNL     1      90.433 118.932  11.791  1.00  0.00     0.178 HD
BRANCH  21  23
HETATM   23  C11 UNL     1      90.612 119.354   9.714  1.00  0.00     0.099 C 
HETATM   24  C12 UNL     1      92.056 119.752   9.767  1.00  0.00     0.026 C 
HETATM   25  C13 UNL     1      92.803 118.466   9.558  1.00  0.00     0.002 C 
HETATM   26  C14 UNL     1      91.932 117.649   8.622  1.00  0.00     0.002 C 
HETATM   27  C15 UNL     1      90.537 117.957   9.171  1.00  0.00     0.026 C 
ENDBRANCH  21  23
ENDBRANCH   7  21
TORSDOF 5
ENDMDL
MODEL 2
REMARK VINA RESULT: -9.213566265      1.230      1.892
REMARK  5 active torsions:
REMARK  status: ('A' for Active; 'I' for Inactive)
REMARK    1  A    between atoms: C6_7  and  C7_8 
REMARK    2  A    between atoms: C7_8  and  N1_9 
REMARK    3  A    between atoms: N1_9  and  C8_11 
REMARK    4  A    between atoms: C10_17  and  N4_18 
REMARK    5  A    between atoms: N4_18  and  C11_20 
ROOT
HETATM    1  C8  UNL     1      87.402 120.821  12.850  1.00  0.00     0.693 A 
HETATM    2  N2  UNL     1      87.023 121.830  12.047  1.00  0.00    -0.187 N 
ATOM      3  H2  UNL     1      86.250 122.433  12.329  1.00  0.00     0.185 HD
HETATM    4  C9  UNL     1      87.657 122.063  10.862  1.00  0.00     0.215 A 
HETATM    5  N3  UNL     1      88.677 121.281  10.470  1.00  0.00    -0.187 N 
ATOM      6  H3  UNL     1      89.152 121.450   9.583  1.00  0.00     0.185 HD
HETATM    7  C10 UNL     1      89.055 120.275  11.268  1.00  0.00     0.693 A 
HETATM    8  N5  UNL     1      88.424 120.050  12.442  1.00  0.00    -0.022 N 
ATOM      9  H5  UNL     1      88.731 119.277  13.033  1.00  0.00     0.203 HD
ENDROOT
BRANCH   1  10
HETATM   10  N1  UNL     1      86.823 120.579  13.974  1.00  0.00    -0.221 N 
ATOM     11  H1  UNL     1      86.121 119.844  14.056  1.00  0.00     0.178 HD
BRANCH  10  12
HETATM   12  C7  UNL     1      87.199 121.381  15.117  1.00  0.00     0.176 C 
BRANCH  12  13
HETATM   13  C6  UNL     1      87.075 120.544  16.335  1.00  0.00    -0.038 A 
HETATM   14  C5  UNL     1      86.144 120.851  17.332  1.00  0.00     0.032 A 
HETATM   15  C4  UNL     1      86.086 120.031  18.432  1.00  0.00     0.035 A 
HETATM   16  C3  UNL     1      86.920 118.927  18.566  1.00  0.00     0.030 A 
HETATM   17 CL1  UNL     1      84.904 120.433  19.682  1.00  0.00    -0.084 Cl
HETATM   18  C2  UNL     1      87.837 118.621  17.590  1.00  0.00    -0.060 A 
HETATM   19  C1  UNL     1      88.753 117.448  17.688  1.00  0.00     0.048 C 
HETATM   20  C16 UNL     1      87.896 119.443  16.484  1.00  0.00     0.015 A 
ENDBRANCH  12  13
ENDBRANCH  10  12
ENDBRANCH   1  10
BRANCH   7  21
HETATM   21  N4  UNL     1      90.030 119.472  10.969  1.00  0.00    -0.221 N 
ATOM     22  H4  UNL     1      90.388 118.852  11.695  1.00  0.00     0.178 HD
BRANCH  21  23
HETATM   23  C11 UNL     1      90.629 119.415   9.658  1.00  0.00     0.099 C 
HETATM   24  C12 UNL     1      92.071 119.810   9.761  1.00  0.00     0.026 C 
HETATM   25  C13 UNL     1      92.824 118.538   9.495  1.00  0.00     0.002 C 
HETATM   26  C14 UNL     1      91.972 117.773   8.499  1.00  0.00     0.002 C 
HETATM   27  C15 UNL     1      90.566 118.050   9.037  1.00  0.00     0.026 C 
ENDBRANCH  21  23
ENDBRANCH   7  21
TORSDOF 5
ENDMDL
MODEL 3
REMARK VINA RESULT: -9.163483755      1.883      2.205
REMARK  5 active torsions:
REMARK  status: ('A' for Active; 'I' for Inactive)
REMARK    1  A    between atoms: C6_7  and  C7_8 
REMARK    2  A    between atoms: C7_8  and  N1_9 
REMARK    3  A    between atoms: N1_9  and  C8_11 
REMARK    4  A    between atoms: C10_17  and  N4_18 
REMARK    5  A    between atoms: N4_18  and  C11_20 
ROOT
HETATM    1  C8  UNL     1      87.266 121.132  13.020  1.00  0.00     0.693 A 
HETATM    2  N2  UNL     1      87.162 121.987  11.988  1.00  0.00    -0.187 N 
ATOM      3  H2  UNL     1      86.520 122.777  12.054  1.00  0.00     0.185 HD
HETATM    4  C9  UNL     1      87.901 121.817  10.855  1.00  0.00     0.215 A 
HETATM    5  N3  UNL     1      88.752 120.783  10.745  1.00  0.00    -0.187 N 
ATOM      6  H3  UNL     1      89.305 120.651   9.898  1.00  0.00     0.185 HD
HETATM    7  C10 UNL     1      88.857 119.929  11.771  1.00  0.00     0.693 A 
HETATM    8  N5  UNL     1      88.122 120.104  12.893  1.00  0.00    -0.022 N 
ATOM      9  H5  UNL     1      88.220 119.440  13.660  1.00  0.00     0.203 HD
ENDROOT
BRANCH   1  10
HETATM   10  N1  UNL     1      86.582 121.268  14.101  1.00  0.00    -0.221 N 
ATOM     11  H1  UNL     1      85.593 121.021  14.132  1.00  0.00     0.178 HD
BRANCH  10  12
HETATM   12  C7  UNL     1      87.258 121.783  15.270  1.00  0.00     0.176 C 
BRANCH  12  13
HETATM   13  C6  UNL     1      87.162 120.770  16.349  1.00  0.00    -0.038 A 
HETATM   14  C5  UNL     1      87.972 119.630  16.345  1.00  0.00     0.032 A 
HETATM   15  C4  UNL     1      87.829 118.735  17.377  1.00  0.00     0.035 A 
HETATM   16  C3  UNL     1      86.912 118.941  18.400  1.00  0.00     0.030 A 
HETATM   17 CL1  UNL     1      88.860 117.301  17.356  1.00  0.00    -0.084 Cl
HETATM   18  C2  UNL     1      86.114 120.058  18.410  1.00  0.00    -0.060 A 
HETATM   19  C1  UNL     1      85.115 120.323  19.487  1.00  0.00     0.048 C 
HETATM   20  C16 UNL     1      86.256 120.959  17.375  1.00  0.00     0.015 A 
ENDBRANCH  12  13
ENDBRANCH  10  12
ENDBRANCH   1  10
BRANCH   7  21
HETATM   21  N4  UNL     1      89.653 118.905  11.752  1.00  0.00    -0.221 N 
ATOM     22  H4  UNL     1      89.857 118.464  10.855  1.00  0.00     0.178 HD
BRANCH  21  23
HETATM   23  C11 UNL     1      90.263 118.360  12.941  1.00  0.00     0.099 C 
HETATM   24  C12 UNL     1      89.375 117.290  13.501  1.00  0.00     0.026 C 
HETATM   25  C13 UNL     1      90.134 116.017  13.262  1.00  0.00     0.002 C 
HETATM   26  C14 UNL     1      91.597 116.396  13.392  1.00  0.00     0.002 C 
HETATM   27  C15 UNL     1      91.614 117.756  12.691  1.00  0.00     0.026 C 
ENDBRANCH  21  23
ENDBRANCH   7  21
TORSDOF 5
ENDMDL
MODEL 4
REMARK VINA RESULT: -9.138007883      2.918      7.607
REMARK  5 active torsions:
REMARK  status: ('A' for Active; 'I' for Inactive)
REMARK    1  A    between atoms: C6_7  and  C7_8 
REMARK    2  A    between atoms: C7_8  and  N1_9 
REMARK    3  A    between atoms: N1_9  and  C8_11 
REMARK    4  A    between atoms: C10_17  and  N4_18 
REMARK    5  A    between atoms: N4_18  and  C11_20 
ROOT
HETATM    1  C8  UNL     1      89.180 120.000  11.390  1.00  0.00     0.693 A 
HETATM    2  N2  UNL     1      88.802 120.979  10.550  1.00  0.00    -0.187 N 
ATOM      3  H2  UNL     1      89.289 121.094   9.661  1.00  0.00     0.185 HD
HETATM    4  C9  UNL     1      87.777 121.822  10.866  1.00  0.00     0.215 A 
HETATM    5  N3  UNL     1      87.123 121.691  12.032  1.00  0.00    -0.187 N 
ATOM      6  H3  UNL     1      86.357 122.320  12.273  1.00  0.00     0.185 HD
HETATM    7  C10 UNL     1      87.497 120.717  12.871  1.00  0.00     0.693 A 
HETATM    8  N5  UNL     1      88.513 119.884  12.551  1.00  0.00    -0.022 N 
ATOM      9  H5  UNL     1      88.780 119.150  13.207  1.00  0.00     0.203 HD
ENDROOT
BRANCH   1  10
HETATM   10  N1  UNL     1      90.142 119.190  11.118  1.00  0.00    -0.221 N 
ATOM     11  H1  UNL     1      90.733 118.809  11.856  1.00  0.00     0.178 HD
BRANCH  10  12
HETATM   12  C7  UNL     1      90.360 118.836   9.733  1.00  0.00     0.176 C 
BRANCH  12  13
HETATM   13  C6  UNL     1      90.445 117.359   9.637  1.00  0.00    -0.038 A 
HETATM   14  C5  UNL     1      90.502 116.717   8.396  1.00  0.00     0.032 A 
HETATM   15  C4  UNL     1      90.579 115.346   8.383  1.00  0.00     0.035 A 
HETATM   16  C3  UNL     1      90.601 114.605   9.559  1.00  0.00     0.030 A 
HETATM   17 CL1  UNL     1      90.650 114.552   6.807  1.00  0.00    -0.084 Cl
HETATM   18  C2  UNL     1      90.545 115.229  10.781  1.00  0.00    -0.060 A 
HETATM   19  C1  UNL     1      90.565 114.478  12.069  1.00  0.00     0.048 C 
HETATM   20  C16 UNL     1      90.467 116.607  10.795  1.00  0.00     0.015 A 
ENDBRANCH  12  13
ENDBRANCH  10  12
ENDBRANCH   1  10
BRANCH   7  21
HETATM   21  N4  UNL     1      86.921 120.517  14.016  1.00  0.00    -0.221 N 
ATOM     22  H4  UNL     1      85.955 120.192  14.023  1.00  0.00     0.178 HD
BRANCH  21  23
HETATM   23  C11 UNL     1      87.584 120.734  15.279  1.00  0.00     0.099 C 
HETATM   24  C12 UNL     1      86.749 121.651  16.120  1.00  0.00     0.026 C 
HETATM   25  C13 UNL     1      86.239 120.775  17.228  1.00  0.00     0.002 C 
HETATM   26  C14 UNL     1      87.348 119.771  17.483  1.00  0.00     0.002 C 
HETATM   27  C15 UNL     1      87.808 119.469  16.055  1.00  0.00     0.026 C 
ENDBRANCH  21  23
ENDBRANCH   7  21
TORSDOF 5
ENDMDL
MODEL 5
REMARK VINA RESULT: -9.134595121      2.125      8.158
REMARK  5 active torsions:
REMARK  status: ('A' for Active; 'I' for Inactive)
REMARK    1  A    between atoms: C6_7  and  C7_8 
REMARK    2  A    between atoms: C7_8  and  N1_9 
REMARK    3  A    between atoms: N1_9  and  C8_11 
REMARK    4  A    between atoms: C10_17  and  N4_18 
REMARK    5  A    between atoms: N4_18  and  C11_20 
ROOT
HETATM    1  C8  UNL     1      88.866 120.120  11.502  1.00  0.00     0.693 A 
HETATM    2  N2  UNL     1      88.480 121.113  10.683  1.00  0.00    -0.187 N 
ATOM      3  H2  UNL     1      88.933 121.220   9.776  1.00  0.00     0.185 HD
HETATM    4  C9  UNL     1      87.490 121.980  11.044  1.00  0.00     0.215 A 
HETATM    5  N3  UNL     1      86.880 121.859  12.235  1.00  0.00    -0.187 N 
ATOM      6  H3  UNL     1      86.142 122.506  12.511  1.00  0.00     0.185 HD
HETATM    7  C10 UNL     1      87.263 120.871  13.053  1.00  0.00     0.693 A 
HETATM    8  N5  UNL     1      88.244 120.013  12.689  1.00  0.00    -0.022 N 
ATOM      9  H5  UNL     1      88.518 119.269  13.329  1.00  0.00     0.203 HD
ENDROOT
BRANCH   1  10
HETATM   10  N1  UNL     1      89.795 119.287  11.187  1.00  0.00    -0.221 N 
ATOM     11  H1  UNL     1      89.873 118.385  11.656  1.00  0.00     0.178 HD
BRANCH  10  12
HETATM   12  C7  UNL     1      90.724 119.668  10.147  1.00  0.00     0.176 C 
BRANCH  12  13
HETATM   13  C6  UNL     1      90.994 118.480   9.303  1.00  0.00    -0.038 A 
HETATM   14  C5  UNL     1      90.549 117.209   9.679  1.00  0.00     0.032 A 
HETATM   15  C4  UNL     1      90.835 116.154   8.847  1.00  0.00     0.035 A 
HETATM   16  C3  UNL     1      91.545 116.328   7.665  1.00  0.00     0.030 A 
HETATM   17 CL1  UNL     1      90.266 114.555   9.337  1.00  0.00    -0.084 Cl
HETATM   18  C2  UNL     1      91.985 117.574   7.290  1.00  0.00    -0.060 A 
HETATM   19  C1  UNL     1      92.751 117.811   6.031  1.00  0.00     0.048 C 
HETATM   20  C16 UNL     1      91.698 118.635   8.125  1.00  0.00     0.015 A 
ENDBRANCH  12  13
ENDBRANCH  10  12
ENDBRANCH   1  10
BRANCH   7  21
HETATM   21  N4  UNL     1      86.729 120.679  14.220  1.00  0.00    -0.221 N 
ATOM     22  H4  UNL     1      85.738 120.444  14.268  1.00  0.00     0.178 HD
BRANCH  21  23
HETATM   23  C11 UNL     1      87.472 120.783  15.452  1.00  0.00     0.099 C 
HETATM   24  C12 UNL     1      86.669 121.567  16.444  1.00  0.00     0.026 C 
HETATM   25  C13 UNL     1      86.268 120.555  17.479  1.00  0.00     0.002 C 
HETATM   26  C14 UNL     1      87.424 119.576  17.546  1.00  0.00     0.002 C 
HETATM   27  C15 UNL     1      87.792 119.451  16.066  1.00  0.00     0.026 C 
ENDBRANCH  21  23
ENDBRANCH   7  21
TORSDOF 5
ENDMDL
