MODEL 1
REMARK VINA RESULT: -8.302305837      0.000      0.000
REMARK  6 active torsions:
REMARK  status: ('A' for Active; 'I' for Inactive)
REMARK    1  A    between atoms: C1_2  and  C2_3 
REMARK    2  A    between atoms: C7_8  and  N1_9 
REMARK    3  A    between atoms: N1_9  and  C8_11 
REMARK    4  A    between atoms: C9_14  and  N3_15 
REMARK    5  A    between atoms: N3_15  and  C10_17 
REMARK    6  A    between atoms: C14_23  and  C15_24 
ROOT
HETATM    1  C8  UNL     1      89.564 119.051  12.376  1.00  0.00     0.132 A 
HETATM    2  N2  UNL     1      88.823 119.516  13.395  1.00  0.00    -0.176 N 
ATOM      3  H2  UNL     1      88.919 119.072  14.307  1.00  0.00     0.186 HD
HETATM    4  C9  UNL     1      87.959 120.540  13.269  1.00  0.00     0.679 A 
HETATM    5  N4  UNL     1      87.840 121.116  12.068  1.00  0.00    -0.201 N 
ATOM      6  H4  UNL     1      87.189 121.893  11.960  1.00  0.00     0.183 HD
HETATM    7  C13 UNL     1      88.551 120.707  10.990  1.00  0.00     0.125 A 
HETATM    8  C14 UNL     1      89.440 119.648  11.131  1.00  0.00     0.068 A 
ENDROOT
BRANCH   1   9
HETATM    9  N1  UNL     1      90.399 118.073  12.462  1.00  0.00    -0.370 N 
ATOM     10  H1  UNL     1      91.285 118.163  11.964  1.00  0.00     0.161 HD
BRANCH   9  11
HETATM   11  C7  UNL     1      90.174 116.858  13.211  1.00  0.00     0.089 C 
HETATM   12  C2  UNL     1      91.361 116.597  14.084  1.00  0.00     0.037 C 
HETATM   13  C3  UNL     1      91.429 115.211  14.645  1.00  0.00     0.009 C 
HETATM   14  C4  UNL     1      91.044 114.132  13.695  1.00  0.00     0.001 C 
HETATM   15  C5  UNL     1      89.803 114.454  12.899  1.00  0.00     0.002 C 
HETATM   16  C6  UNL     1      89.941 115.761  12.185  1.00  0.00     0.026 C 
BRANCH  12  17
HETATM   17  C1  UNL     1      92.676 116.963  13.443  1.00  0.00     0.228 C 
HETATM   18  F1  UNL     1      93.676 117.211  14.343  1.00  0.00    -0.255 F 
ENDBRANCH  12  17
ENDBRANCH   9  11
ENDBRANCH   1   9
BRANCH   8  19
HETATM   19  C15 UNL     1      90.224 119.174   9.999  1.00  0.00     0.120 A 
HETATM   20  N5  UNL     1      91.208 119.861   9.412  1.00  0.00    -0.350 N 
HETATM   21  C16 UNL     1      91.734 119.149   8.392  1.00  0.00     0.106 A 
ATOM     22  H5  UNL     1      91.517 120.792   9.693  1.00  0.00     0.166 HD
HETATM   23  C17 UNL     1      91.043 117.963   8.346  1.00  0.00     0.106 A 
HETATM   24  N6  UNL     1      90.133 118.012   9.336  1.00  0.00    -0.350 N 
ATOM     25  H6  UNL     1      89.468 117.270   9.552  1.00  0.00     0.166 HD
ENDBRANCH   8  19
BRANCH   4  26
HETATM   26  N3  UNL     1      87.295 120.924  14.274  1.00  0.00    -0.221 N 
ATOM     27  H3  UNL     1      86.540 121.583  14.086  1.00  0.00     0.178 HD
BRANCH  26  28
HETATM   28  C10 UNL     1      87.474 120.550  15.631  1.00  0.00     0.099 A 
HETATM   29  C11 UNL     1      86.442 121.154  16.593  1.00  0.00     0.028 A 
HETATM   30  C12 UNL     1      87.909 121.468  16.688  1.00  0.00     0.028 A 
ENDBRANCH  26  28
ENDBRANCH   4  26
TORSDOF 6
ENDMDL
MODEL 2
REMARK VINA RESULT: -8.256544226      2.043      2.979
REMARK  6 active torsions:
REMARK  status: ('A' for Active; 'I' for Inactive)
REMARK    1  A    between atoms: C1_2  and  C2_3 
REMARK    2  A    between atoms: C7_8  and  N1_9 
REMARK    3  A    between atoms: N1_9  and  C8_11 
REMARK    4  A    between atoms: C9_14  and  N3_15 
REMARK    5  A    between atoms: N3_15  and  C10_17 
REMARK    6  A    between atoms: C14_23  and  C15_24 
ROOT
HETATM    1  C8  UNL     1      88.212 119.365  14.642  1.00  0.00     0.132 A 
HETATM    2  N2  UNL     1      87.647 119.662  15.823  1.00  0.00    -0.176 N 
ATOM      3  H2  UNL     1      87.509 118.911  16.499  1.00  0.00     0.186 HD
HETATM    4  C9  UNL     1      87.252 120.904  16.158  1.00  0.00     0.679 A 
HETATM    5  N4  UNL     1      87.437 121.883  15.266  1.00  0.00    -0.201 N 
ATOM      6  H4  UNL     1      87.142 122.829  15.507  1.00  0.00     0.183 HD
HETATM    7  C13 UNL     1      87.999 121.666  14.053  1.00  0.00     0.125 A 
HETATM    8  C14 UNL     1      88.403 120.379  13.717  1.00  0.00     0.068 A 
ENDROOT
BRANCH   1   9
HETATM    9  N1  UNL     1      88.600 118.187  14.289  1.00  0.00    -0.370 N 
ATOM     10  H1  UNL     1      88.067 117.713  13.561  1.00  0.00     0.161 HD
BRANCH   9  11
HETATM   11  C7  UNL     1      89.735 117.490  14.849  1.00  0.00     0.089 C 
HETATM   12  C2  UNL     1      90.588 116.972  13.735  1.00  0.00     0.037 C 
HETATM   13  C3  UNL     1      91.592 115.941  14.145  1.00  0.00     0.009 C 
HETATM   14  C4  UNL     1      91.095 114.942  15.130  1.00  0.00     0.001 C 
HETATM   15  C5  UNL     1      90.296 115.557  16.253  1.00  0.00     0.002 C 
HETATM   16  C6  UNL     1      89.166 116.383  15.723  1.00  0.00     0.026 C 
BRANCH  12  17
HETATM   17  C1  UNL     1      89.800 116.485  12.546  1.00  0.00     0.228 C 
HETATM   18  F1  UNL     1      89.130 115.314  12.771  1.00  0.00    -0.255 F 
ENDBRANCH  12  17
ENDBRANCH   9  11
ENDBRANCH   1   9
BRANCH   8  19
HETATM   19  C15 UNL     1      89.012 120.100  12.424  1.00  0.00     0.120 A 
HETATM   20  N5  UNL     1      90.317 120.200  12.158  1.00  0.00    -0.350 N 
HETATM   21  C16 UNL     1      90.559 119.875  10.869  1.00  0.00     0.106 A 
ATOM     22  H5  UNL     1      91.029 120.482  12.832  1.00  0.00     0.166 HD
HETATM   23  C17 UNL     1      89.345 119.558  10.311  1.00  0.00     0.106 A 
HETATM   24  N6  UNL     1      88.428 119.705  11.283  1.00  0.00    -0.350 N 
ATOM     25  H6  UNL     1      87.428 119.540  11.169  1.00  0.00     0.166 HD
ENDBRANCH   8  19
BRANCH   4  26
HETATM   26  N3  UNL     1      86.727 121.109  17.290  1.00  0.00    -0.221 N 
ATOM     27  H3  UNL     1      86.907 122.022  17.708  1.00  0.00     0.178 HD
BRANCH  26  28
HETATM   28  C10 UNL     1      85.920 120.224  18.049  1.00  0.00     0.099 A 
HETATM   29  C11 UNL     1      85.897 120.524  19.554  1.00  0.00     0.028 A 
HETATM   30  C12 UNL     1      86.446 119.239  19.000  1.00  0.00     0.028 A 
ENDBRANCH  26  28
ENDBRANCH   4  26
TORSDOF 6
ENDMDL
MODEL 3
REMARK VINA RESULT: -8.175890790      0.929      1.200
REMARK  6 active torsions:
REMARK  status: ('A' for Active; 'I' for Inactive)
REMARK    1  A    between atoms: C1_2  and  C2_3 
REMARK    2  A    between atoms: C7_8  and  N1_9 
REMARK    3  A    between atoms: N1_9  and  C8_11 
REMARK    4  A    between atoms: C9_14  and  N3_15 
REMARK    5  A    between atoms: N3_15  and  C10_17 
REMARK    6  A    between atoms: C14_23  and  C15_24 
ROOT
HETATM    1  C8  UNL     1      89.649 119.304  12.565  1.00  0.00     0.132 A 
HETATM    2  N2  UNL     1      88.855 119.665  13.585  1.00  0.00    -0.176 N 
ATOM      3  H2  UNL     1      89.092 119.341  14.523  1.00  0.00     0.186 HD
HETATM    4  C9  UNL     1      87.762 120.435  13.430  1.00  0.00     0.679 A 
HETATM    5  N4  UNL     1      87.460 120.854  12.197  1.00  0.00    -0.201 N 
ATOM      6  H4  UNL     1      86.635 121.438  12.066  1.00  0.00     0.183 HD
HETATM    7  C13 UNL     1      88.209 120.534  11.115  1.00  0.00     0.125 A 
HETATM    8  C14 UNL     1      89.337 119.738  11.286  1.00  0.00     0.068 A 
ENDROOT
BRANCH   1   9
HETATM    9  N1  UNL     1      90.702 118.568  12.678  1.00  0.00    -0.370 N 
ATOM     10  H1  UNL     1      91.563 118.906  12.247  1.00  0.00     0.161 HD
BRANCH   9  11
HETATM   11  C7  UNL     1      90.754 117.301  13.371  1.00  0.00     0.089 C 
HETATM   12  C2  UNL     1      92.165 116.804  13.374  1.00  0.00     0.037 C 
HETATM   13  C3  UNL     1      92.316 115.360  13.736  1.00  0.00     0.009 C 
HETATM   14  C4  UNL     1      91.288 114.457  13.151  1.00  0.00     0.001 C 
HETATM   15  C5  UNL     1      89.886 115.010  13.244  1.00  0.00     0.002 C 
HETATM   16  C6  UNL     1      89.801 116.374  12.635  1.00  0.00     0.026 C 
BRANCH  12  17
HETATM   17  C1  UNL     1      92.914 117.101  12.100  1.00  0.00     0.228 C 
HETATM   18  F1  UNL     1      92.453 116.407  11.015  1.00  0.00    -0.255 F 
ENDBRANCH  12  17
ENDBRANCH   9  11
ENDBRANCH   1   9
BRANCH   8  19
HETATM   19  C15 UNL     1      90.170 119.368  10.151  1.00  0.00     0.120 A 
HETATM   20  N5  UNL     1      90.097 118.205   9.498  1.00  0.00    -0.350 N 
HETATM   21  C16 UNL     1      91.003 118.171   8.497  1.00  0.00     0.106 A 
ATOM     22  H5  UNL     1      89.450 117.450   9.724  1.00  0.00     0.166 HD
HETATM   23  C17 UNL     1      91.669 119.372   8.532  1.00  0.00     0.106 A 
HETATM   24  N6  UNL     1      91.137 120.075   9.548  1.00  0.00    -0.350 N 
ATOM     25  H6  UNL     1      91.429 121.012   9.822  1.00  0.00     0.166 HD
ENDBRANCH   8  19
BRANCH   4  26
HETATM   26  N3  UNL     1      87.062 120.736  14.439  1.00  0.00    -0.221 N 
ATOM     27  H3  UNL     1      86.198 121.244  14.249  1.00  0.00     0.178 HD
BRANCH  26  28
HETATM   28  C10 UNL     1      87.332 120.454  15.803  1.00  0.00     0.099 A 
HETATM   29  C11 UNL     1      86.336 121.082  16.787  1.00  0.00     0.028 A 
HETATM   30  C12 UNL     1      87.793 121.450  16.775  1.00  0.00     0.028 A 
ENDBRANCH  26  28
ENDBRANCH   4  26
TORSDOF 6
ENDMDL
MODEL 4
REMARK VINA RESULT: -8.150544580      1.545      1.990
REMARK  6 active torsions:
REMARK  status: ('A' for Active; 'I' for Inactive)
REMARK    1  A    between atoms: C1_2  and  C2_3 
REMARK    2  A    between atoms: C7_8  and  N1_9 
REMARK    3  A    between atoms: N1_9  and  C8_11 
REMARK    4  A    between atoms: C9_14  and  N3_15 
REMARK    5  A    between atoms: N3_15  and  C10_17 
REMARK    6  A    between atoms: C14_23  and  C15_24 
ROOT
HETATM    1  C8  UNL     1      89.725 117.789  12.903  1.00  0.00     0.132 A 
HETATM    2  N2  UNL     1      89.059 118.018  14.047  1.00  0.00    -0.176 N 
ATOM      3  H2  UNL     1      89.051 117.288  14.759  1.00  0.00     0.186 HD
HETATM    4  C9  UNL     1      88.400 119.164  14.297  1.00  0.00     0.679 A 
HETATM    5  N4  UNL     1      88.416 120.116  13.358  1.00  0.00    -0.201 N 
ATOM      6  H4  UNL     1      87.921 120.989  13.536  1.00  0.00     0.183 HD
HETATM    7  C13 UNL     1      89.064 119.963  12.178  1.00  0.00     0.125 A 
HETATM    8  C14 UNL     1      89.741 118.774  11.929  1.00  0.00     0.068 A 
ENDROOT
BRANCH   1   9
HETATM    9  N1  UNL     1      90.364 116.704  12.630  1.00  0.00    -0.370 N 
ATOM     10  H1  UNL     1      91.377 116.711  12.748  1.00  0.00     0.161 HD
BRANCH   9  11
HETATM   11  C7  UNL     1      89.753 115.478  12.171  1.00  0.00     0.089 C 
HETATM   12  C2  UNL     1      89.456 114.608  13.352  1.00  0.00     0.037 C 
HETATM   13  C3  UNL     1      89.153 113.182  13.015  1.00  0.00     0.009 C 
HETATM   14  C4  UNL     1      90.009 112.596  11.948  1.00  0.00     0.001 C 
HETATM   15  C5  UNL     1      90.206 113.518  10.768  1.00  0.00     0.002 C 
HETATM   16  C6  UNL     1      90.740 114.846  11.203  1.00  0.00     0.026 C 
BRANCH  12  17
HETATM   17  C1  UNL     1      90.506 114.676  14.431  1.00  0.00     0.228 C 
HETATM   18  F1  UNL     1      90.082 115.298  15.573  1.00  0.00    -0.255 F 
ENDBRANCH  12  17
ENDBRANCH   9  11
ENDBRANCH   1   9
BRANCH   8  19
HETATM   19  C15 UNL     1      90.449 118.568  10.674  1.00  0.00     0.120 A 
HETATM   20  N5  UNL     1      91.721 118.911  10.451  1.00  0.00    -0.350 N 
HETATM   21  C16 UNL     1      92.080 118.587   9.189  1.00  0.00     0.106 A 
ATOM     22  H5  UNL     1      92.333 119.355  11.135  1.00  0.00     0.166 HD
HETATM   23  C17 UNL     1      90.977 118.015   8.604  1.00  0.00     0.106 A 
HETATM   24  N6  UNL     1      90.005 118.019   9.534  1.00  0.00    -0.350 N 
ATOM     25  H6  UNL     1      89.063 117.656   9.392  1.00  0.00     0.166 HD
ENDBRANCH   8  19
BRANCH   4  26
HETATM   26  N3  UNL     1      87.795 119.309  15.398  1.00  0.00    -0.221 N 
ATOM     27  H3  UNL     1      87.286 118.494  15.740  1.00  0.00     0.178 HD
BRANCH  26  28
HETATM   28  C10 UNL     1      87.739 120.467  16.216  1.00  0.00     0.099 A 
HETATM   29  C11 UNL     1      86.686 120.402  17.331  1.00  0.00     0.028 A 
HETATM   30  C12 UNL     1      86.622 121.417  16.224  1.00  0.00     0.028 A 
ENDBRANCH  26  28
ENDBRANCH   4  26
TORSDOF 6
ENDMDL
MODEL 5
REMARK VINA RESULT: -7.905901550      1.607      2.037
REMARK  6 active torsions:
REMARK  status: ('A' for Active; 'I' for Inactive)
REMARK    1  A    between atoms: C1_2  and  C2_3 
REMARK    2  A    between atoms: C7_8  and  N1_9 
REMARK    3  A    between atoms: N1_9  and  C8_11 
REMARK    4  A    between atoms: C9_14  and  N3_15 
REMARK    5  A    between atoms: N3_15  and  C10_17 
REMARK    6  A    between atoms: C14_23  and  C15_24 
ROOT
HETATM    1  C8  UNL     1      90.128 118.050  11.975  1.00  0.00     0.132 A 
HETATM    2  N2  UNL     1      89.513 118.746  12.945  1.00  0.00    -0.176 N 
ATOM      3  H2  UNL     1      89.429 118.323  13.868  1.00  0.00     0.186 HD
HETATM    4  C9  UNL     1      89.001 119.976  12.755  1.00  0.00     0.679 A 
HETATM    5  N4  UNL     1      89.115 120.524  11.541  1.00  0.00    -0.201 N 
ATOM      6  H4  UNL     1      88.732 121.456  11.385  1.00  0.00     0.183 HD
HETATM    7  C13 UNL     1      89.721 119.888  10.510  1.00  0.00     0.125 A 
HETATM    8  C14 UNL     1      90.246 118.617  10.716  1.00  0.00     0.068 A 
ENDROOT
BRANCH   1   9
HETATM    9  N1  UNL     1      90.628 116.871  12.121  1.00  0.00    -0.370 N 
ATOM     10  H1  UNL     1      91.610 116.805  12.388  1.00  0.00     0.161 HD
BRANCH   9  11
HETATM   11  C7  UNL     1      89.900 115.637  11.936  1.00  0.00     0.089 C 
HETATM   12  C2  UNL     1      89.447 115.133  13.270  1.00  0.00     0.037 C 
HETATM   13  C3  UNL     1      88.996 113.706  13.277  1.00  0.00     0.009 C 
HETATM   14  C4  UNL     1      89.829 112.783  12.459  1.00  0.00     0.001 C 
HETATM   15  C5  UNL     1      90.190 113.347  11.106  1.00  0.00     0.002 C 
HETATM   16  C6  UNL     1      90.852 114.682  11.235  1.00  0.00     0.026 C 
BRANCH  12  17
HETATM   17  C1  UNL     1      90.444 115.369  14.377  1.00  0.00     0.228 C 
HETATM   18  F1  UNL     1      90.036 116.294  15.297  1.00  0.00    -0.255 F 
ENDBRANCH  12  17
ENDBRANCH   9  11
ENDBRANCH   1   9
BRANCH   8  19
HETATM   19  C15 UNL     1      90.904 117.897   9.635  1.00  0.00     0.120 A 
HETATM   20  N5  UNL     1      90.272 117.203   8.685  1.00  0.00    -0.350 N 
HETATM   21  C16 UNL     1      91.165 116.652   7.833  1.00  0.00     0.106 A 
ATOM     22  H5  UNL     1      89.259 117.104   8.612  1.00  0.00     0.166 HD
HETATM   23  C17 UNL     1      92.410 117.023   8.278  1.00  0.00     0.106 A 
HETATM   24  N6  UNL     1      92.214 117.778   9.375  1.00  0.00    -0.350 N 
ATOM     25  H6  UNL     1      92.958 118.201   9.929  1.00  0.00     0.166 HD
ENDBRANCH   8  19
BRANCH   4  26
HETATM   26  N3  UNL     1      88.436 120.572  13.717  1.00  0.00    -0.221 N 
ATOM     27  H3  UNL     1      88.663 121.561  13.827  1.00  0.00     0.178 HD
BRANCH  26  28
HETATM   28  C10 UNL     1      87.524 120.034  14.661  1.00  0.00     0.099 A 
HETATM   29  C11 UNL     1      86.988 121.054  15.675  1.00  0.00     0.028 A 
HETATM   30  C12 UNL     1      87.817 119.871  16.089  1.00  0.00     0.028 A 
ENDBRANCH  26  28
ENDBRANCH   4  26
TORSDOF 6
ENDMDL
