MODEL 1
REMARK VINA RESULT: -8.588181882      0.000      0.000
REMARK  6 active torsions:
REMARK  status: ('A' for Active; 'I' for Inactive)
REMARK    1  A    between atoms: C2_2  and  C3_3 
REMARK    2  A    between atoms: C3_3  and  N1_4 
REMARK    3  A    between atoms: N1_4  and  C4_6 
REMARK    4  A    between atoms: C5_9  and  N3_10 
REMARK    5  A    between atoms: N3_10  and  C6_12 
REMARK    6  A    between atoms: C11_17  and  N4_18 
ROOT
HETATM    1  C4  UNL     1      89.363 118.081  13.819  1.00  0.00     0.129 A 
HETATM    2  N2  UNL     1      90.165 117.943  12.758  1.00  0.00    -0.176 N 
ATOM      3  H2  UNL     1      90.641 117.061  12.566  1.00  0.00     0.186 HD
HETATM    4  C5  UNL     1      90.325 119.025  11.939  1.00  0.00     0.680 A 
HETATM    5  N5  UNL     1      89.699 120.168  12.197  1.00  0.00    -0.191 N 
ATOM      6  H5  UNL     1      89.842 120.954  11.562  1.00  0.00     0.184 HD
HETATM    7  C12 UNL     1      88.883 120.341  13.262  1.00  0.00     0.063 A 
HETATM    8  C13 UNL     1      88.236 121.522  13.530  1.00  0.00     0.032 A 
HETATM    9  C14 UNL     1      87.402 121.700  14.616  1.00  0.00     0.026 A 
HETATM   10  C15 UNL     1      87.230 120.614  15.457  1.00  0.00     0.035 A 
HETATM   11 CL1  UNL     1      86.190 120.777  16.841  1.00  0.00    -0.084 Cl
HETATM   12  C16 UNL     1      87.872 119.398  15.212  1.00  0.00     0.041 A 
HETATM   13  C17 UNL     1      88.695 119.275  14.112  1.00  0.00     0.037 A 
ENDROOT
BRANCH   4  14
HETATM   14  N3  UNL     1      91.081 118.905  10.930  1.00  0.00    -0.219 N 
ATOM     15  H3  UNL     1      92.059 119.158  11.074  1.00  0.00     0.178 HD
BRANCH  14  16
HETATM   16  C6  UNL     1      90.739 118.457   9.612  1.00  0.00     0.129 C 
HETATM   17  C7  UNL     1      90.511 116.969   9.663  1.00  0.00     0.027 C 
HETATM   18  C8  UNL     1      90.139 116.534   8.259  1.00  0.00     0.002 C 
HETATM   19  C9  UNL     1      91.397 116.705   7.450  1.00  0.00     0.002 C 
HETATM   20  C10 UNL     1      91.912 118.091   7.405  1.00  0.00     0.035 C 
HETATM   21  C11 UNL     1      91.827 118.868   8.671  1.00  0.00     0.206 C 
BRANCH  21  22
HETATM   22  N4  UNL     1      91.635 120.281   8.385  1.00  0.00    -0.073 N 
ATOM     23  H43 UNL     1      90.964 120.449   7.635  1.00  0.00     0.274 HD
ATOM     24  H42 UNL     1      91.132 120.774   9.124  1.00  0.00     0.274 HD
ATOM     25  H41 UNL     1      92.555 120.677   8.195  1.00  0.00     0.274 HD
ENDBRANCH  21  22
ENDBRANCH  14  16
ENDBRANCH   4  14
BRANCH   1  26
HETATM   26  N1  UNL     1      89.187 117.089  14.607  1.00  0.00    -0.372 N 
ATOM     27  H1  UNL     1      88.569 117.202  15.411  1.00  0.00     0.161 HD
BRANCH  26  28
HETATM   28  C3  UNL     1      89.827 115.822  14.401  1.00  0.00     0.147 C 
BRANCH  28  29
HETATM   29  C2  UNL     1      89.092 114.906  13.497  1.00  0.00    -0.018 C 
HETATM   30  C1  UNL     1      89.701 114.357  12.480  1.00  0.00     0.008 C 
ENDBRANCH  28  29
ENDBRANCH  26  28
ENDBRANCH   1  26
TORSDOF 6
ENDMDL
MODEL 2
REMARK VINA RESULT: -8.413136810      1.297      1.863
REMARK  6 active torsions:
REMARK  status: ('A' for Active; 'I' for Inactive)
REMARK    1  A    between atoms: C2_2  and  C3_3 
REMARK    2  A    between atoms: C3_3  and  N1_4 
REMARK    3  A    between atoms: N1_4  and  C4_6 
REMARK    4  A    between atoms: C5_9  and  N3_10 
REMARK    5  A    between atoms: N3_10  and  C6_12 
REMARK    6  A    between atoms: C11_17  and  N4_18 
ROOT
HETATM    1  C4  UNL     1      88.851 118.302  14.160  1.00  0.00     0.129 A 
HETATM    2  N2  UNL     1      89.246 118.318  12.882  1.00  0.00    -0.176 N 
ATOM      3  H2  UNL     1      89.737 117.524  12.470  1.00  0.00     0.186 HD
HETATM    4  C5  UNL     1      88.968 119.437  12.147  1.00  0.00     0.680 A 
HETATM    5  N5  UNL     1      88.328 120.465  12.694  1.00  0.00    -0.191 N 
ATOM      6  H5  UNL     1      88.138 121.282  12.113  1.00  0.00     0.184 HD
HETATM    7  C12 UNL     1      87.917 120.480  13.982  1.00  0.00     0.063 A 
HETATM    8  C13 UNL     1      87.255 121.542  14.548  1.00  0.00     0.032 A 
HETATM    9  C14 UNL     1      86.835 121.559  15.863  1.00  0.00     0.026 A 
HETATM   10  C15 UNL     1      87.108 120.435  16.622  1.00  0.00     0.035 A 
HETATM   11 CL1  UNL     1      86.602 120.397  18.285  1.00  0.00    -0.084 Cl
HETATM   12  C16 UNL     1      87.778 119.337  16.077  1.00  0.00     0.041 A 
HETATM   13  C17 UNL     1      88.177 119.373  14.757  1.00  0.00     0.037 A 
ENDROOT
BRANCH   4  14
HETATM   14  N3  UNL     1      89.336 119.462  10.935  1.00  0.00    -0.219 N 
ATOM     15  H3  UNL     1      88.646 119.806  10.267  1.00  0.00     0.178 HD
BRANCH  14  16
HETATM   16  C6  UNL     1      90.600 119.070  10.384  1.00  0.00     0.129 C 
HETATM   17  C7  UNL     1      91.335 120.313   9.955  1.00  0.00     0.027 C 
HETATM   18  C8  UNL     1      92.667 119.862   9.390  1.00  0.00     0.002 C 
HETATM   19  C9  UNL     1      92.329 119.150   8.107  1.00  0.00     0.002 C 
HETATM   20  C10 UNL     1      91.452 117.972   8.274  1.00  0.00     0.035 C 
HETATM   21  C11 UNL     1      90.354 118.101   9.271  1.00  0.00     0.206 C 
BRANCH  21  22
HETATM   22  N4  UNL     1      90.070 116.811   9.880  1.00  0.00    -0.073 N 
ATOM     23  H43 UNL     1      90.514 116.033   9.394  1.00  0.00     0.274 HD
ATOM     24  H42 UNL     1      90.532 116.685  10.781  1.00  0.00     0.274 HD
ATOM     25  H41 UNL     1      89.055 116.723   9.935  1.00  0.00     0.274 HD
ENDBRANCH  21  22
ENDBRANCH  14  16
ENDBRANCH   4  14
BRANCH   1  26
HETATM   26  N1  UNL     1      89.091 117.271  14.878  1.00  0.00    -0.372 N 
ATOM     27  H1  UNL     1      88.722 117.237  15.829  1.00  0.00     0.161 HD
BRANCH  26  28
HETATM   28  C3  UNL     1      89.860 116.161  14.396  1.00  0.00     0.147 C 
BRANCH  28  29
HETATM   29  C2  UNL     1      89.069 115.136  13.674  1.00  0.00    -0.018 C 
HETATM   30  C1  UNL     1      89.588 114.498  12.660  1.00  0.00     0.008 C 
ENDBRANCH  28  29
ENDBRANCH  26  28
ENDBRANCH   1  26
TORSDOF 6
ENDMDL
MODEL 3
REMARK VINA RESULT: -8.409024550      0.871      1.354
REMARK  6 active torsions:
REMARK  status: ('A' for Active; 'I' for Inactive)
REMARK    1  A    between atoms: C2_2  and  C3_3 
REMARK    2  A    between atoms: C3_3  and  N1_4 
REMARK    3  A    between atoms: N1_4  and  C4_6 
REMARK    4  A    between atoms: C5_9  and  N3_10 
REMARK    5  A    between atoms: N3_10  and  C6_12 
REMARK    6  A    between atoms: C11_17  and  N4_18 
ROOT
HETATM    1  C4  UNL     1      89.297 117.940  13.990  1.00  0.00     0.129 A 
HETATM    2  N2  UNL     1      90.108 117.713  12.949  1.00  0.00    -0.176 N 
ATOM      3  H2  UNL     1      90.558 116.807  12.818  1.00  0.00     0.186 HD
HETATM    4  C5  UNL     1      90.310 118.738  12.069  1.00  0.00     0.680 A 
HETATM    5  N5  UNL     1      89.718 119.913  12.250  1.00  0.00    -0.191 N 
ATOM      6  H5  UNL     1      89.893 120.654  11.570  1.00  0.00     0.184 HD
HETATM    7  C12 UNL     1      88.894 120.175  13.291  1.00  0.00     0.063 A 
HETATM    8  C13 UNL     1      88.281 121.389  13.478  1.00  0.00     0.032 A 
HETATM    9  C14 UNL     1      87.441 121.657  14.540  1.00  0.00     0.026 A 
HETATM   10  C15 UNL     1      87.225 120.630  15.442  1.00  0.00     0.035 A 
HETATM   11 CL1  UNL     1      86.174 120.908  16.800  1.00  0.00    -0.084 Cl
HETATM   12  C16 UNL     1      87.832 119.383  15.280  1.00  0.00     0.041 A 
HETATM   13  C17 UNL     1      88.664 119.168  14.201  1.00  0.00     0.037 A 
ENDROOT
BRANCH   4  14
HETATM   14  N3  UNL     1      91.075 118.534  11.080  1.00  0.00    -0.219 N 
ATOM     15  H3  UNL     1      92.075 118.596  11.270  1.00  0.00     0.178 HD
BRANCH  14  16
HETATM   16  C6  UNL     1      90.713 118.226   9.728  1.00  0.00     0.129 C 
HETATM   17  C7  UNL     1      90.533 116.735   9.614  1.00  0.00     0.027 C 
HETATM   18  C8  UNL     1      90.140 116.449   8.178  1.00  0.00     0.002 C 
HETATM   19  C9  UNL     1      91.370 116.754   7.366  1.00  0.00     0.002 C 
HETATM   20  C10 UNL     1      91.840 118.152   7.468  1.00  0.00     0.035 C 
HETATM   21  C11 UNL     1      91.763 118.778   8.816  1.00  0.00     0.206 C 
BRANCH  21  22
HETATM   22  N4  UNL     1      91.519 120.207   8.697  1.00  0.00    -0.073 N 
ATOM     23  H43 UNL     1      90.549 120.429   8.472  1.00  0.00     0.274 HD
ATOM     24  H42 UNL     1      91.562 120.696   9.591  1.00  0.00     0.274 HD
ATOM     25  H41 UNL     1      92.181 120.569   8.011  1.00  0.00     0.274 HD
ENDBRANCH  21  22
ENDBRANCH  14  16
ENDBRANCH   4  14
BRANCH   1  26
HETATM   26  N1  UNL     1      89.081 117.002  14.834  1.00  0.00    -0.372 N 
ATOM     27  H1  UNL     1      88.156 116.925  15.257  1.00  0.00     0.161 HD
BRANCH  26  28
HETATM   28  C3  UNL     1      90.093 116.057  15.206  1.00  0.00     0.147 C 
BRANCH  28  29
HETATM   29  C2  UNL     1      90.083 115.685  16.641  1.00  0.00    -0.018 C 
HETATM   30  C1  UNL     1      89.294 116.307  17.476  1.00  0.00     0.008 C 
ENDBRANCH  28  29
ENDBRANCH  26  28
ENDBRANCH   1  26
TORSDOF 6
ENDMDL
MODEL 4
REMARK VINA RESULT: -8.266903268      1.557      2.269
REMARK  6 active torsions:
REMARK  status: ('A' for Active; 'I' for Inactive)
REMARK    1  A    between atoms: C2_2  and  C3_3 
REMARK    2  A    between atoms: C3_3  and  N1_4 
REMARK    3  A    between atoms: N1_4  and  C4_6 
REMARK    4  A    between atoms: C5_9  and  N3_10 
REMARK    5  A    between atoms: N3_10  and  C6_12 
REMARK    6  A    between atoms: C11_17  and  N4_18 
ROOT
HETATM    1  C4  UNL     1      88.735 118.255  14.354  1.00  0.00     0.129 A 
HETATM    2  N2  UNL     1      89.109 118.218  13.070  1.00  0.00    -0.176 N 
ATOM      3  H2  UNL     1      89.563 117.394  12.676  1.00  0.00     0.186 HD
HETATM    4  C5  UNL     1      88.861 119.324  12.306  1.00  0.00     0.680 A 
HETATM    5  N5  UNL     1      88.269 120.391  12.830  1.00  0.00    -0.191 N 
ATOM      6  H5  UNL     1      88.099 121.196  12.228  1.00  0.00     0.184 HD
HETATM    7  C12 UNL     1      87.880 120.461  14.124  1.00  0.00     0.063 A 
HETATM    8  C13 UNL     1      87.267 121.563  14.667  1.00  0.00     0.032 A 
HETATM    9  C14 UNL     1      86.870 121.635  15.987  1.00  0.00     0.026 A 
HETATM   10  C15 UNL     1      87.114 120.525  16.776  1.00  0.00     0.035 A 
HETATM   11 CL1  UNL     1      86.634 120.557  18.447  1.00  0.00    -0.084 Cl
HETATM   12  C16 UNL     1      87.733 119.387  16.255  1.00  0.00     0.041 A 
HETATM   13  C17 UNL     1      88.111 119.368  14.928  1.00  0.00     0.037 A 
ENDROOT
BRANCH   4  14
HETATM   14  N3  UNL     1      89.210 119.298  11.089  1.00  0.00    -0.219 N 
ATOM     15  H3  UNL     1      88.477 119.511  10.411  1.00  0.00     0.178 HD
BRANCH  14  16
HETATM   16  C6  UNL     1      90.503 119.009  10.542  1.00  0.00     0.129 C 
HETATM   17  C7  UNL     1      91.113 120.300  10.063  1.00  0.00     0.027 C 
HETATM   18  C8  UNL     1      92.481 119.958   9.505  1.00  0.00     0.002 C 
HETATM   19  C9  UNL     1      92.208 119.171   8.251  1.00  0.00     0.002 C 
HETATM   20  C10 UNL     1      91.448 117.920   8.468  1.00  0.00     0.035 C 
HETATM   21  C11 UNL     1      90.347 117.980   9.467  1.00  0.00     0.206 C 
BRANCH  21  22
HETATM   22  N4  UNL     1      90.190 116.693  10.125  1.00  0.00    -0.073 N 
ATOM     23  H43 UNL     1      89.501 116.093   9.671  1.00  0.00     0.274 HD
ATOM     24  H42 UNL     1      90.997 116.081  10.004  1.00  0.00     0.274 HD
ATOM     25  H41 UNL     1      89.975 116.881  11.104  1.00  0.00     0.274 HD
ENDBRANCH  21  22
ENDBRANCH  14  16
ENDBRANCH   4  14
BRANCH   1  26
HETATM   26  N1  UNL     1      88.948 117.238  15.101  1.00  0.00    -0.372 N 
ATOM     27  H1  UNL     1      88.411 117.138  15.961  1.00  0.00     0.161 HD
BRANCH  26  28
HETATM   28  C3  UNL     1      89.917 116.233  14.770  1.00  0.00     0.147 C 
BRANCH  28  29
HETATM   29  C2  UNL     1      90.590 115.624  15.941  1.00  0.00    -0.018 C 
HETATM   30  C1  UNL     1      90.068 115.740  17.133  1.00  0.00     0.008 C 
ENDBRANCH  28  29
ENDBRANCH  26  28
ENDBRANCH   1  26
TORSDOF 6
ENDMDL
MODEL 5
REMARK VINA RESULT: -8.176587084      4.588      6.945
REMARK  6 active torsions:
REMARK  status: ('A' for Active; 'I' for Inactive)
REMARK    1  A    between atoms: C2_2  and  C3_3 
REMARK    2  A    between atoms: C3_3  and  N1_4 
REMARK    3  A    between atoms: N1_4  and  C4_6 
REMARK    4  A    between atoms: C5_9  and  N3_10 
REMARK    5  A    between atoms: N3_10  and  C6_12 
REMARK    6  A    between atoms: C11_17  and  N4_18 
ROOT
HETATM    1  C4  UNL     1      91.343 115.508   7.645  1.00  0.00     0.129 A 
HETATM    2  N2  UNL     1      92.219 115.074   6.732  1.00  0.00    -0.176 N 
ATOM      3  H2  UNL     1      92.228 114.101   6.428  1.00  0.00     0.186 HD
HETATM    4  C5  UNL     1      93.103 115.983   6.221  1.00  0.00     0.680 A 
HETATM    5  N5  UNL     1      93.083 117.249   6.624  1.00  0.00    -0.191 N 
ATOM      6  H5  UNL     1      93.757 117.898   6.219  1.00  0.00     0.184 HD
HETATM    7  C12 UNL     1      92.210 117.718   7.545  1.00  0.00     0.063 A 
HETATM    8  C13 UNL     1      92.188 119.026   7.963  1.00  0.00     0.032 A 
HETATM    9  C14 UNL     1      91.299 119.506   8.903  1.00  0.00     0.026 A 
HETATM   10  C15 UNL     1      90.396 118.600   9.431  1.00  0.00     0.035 A 
HETATM   11 CL1  UNL     1      89.250 119.147  10.619  1.00  0.00    -0.084 Cl
HETATM   12  C16 UNL     1      90.392 117.263   9.028  1.00  0.00     0.041 A 
HETATM   13  C17 UNL     1      91.303 116.835   8.085  1.00  0.00     0.037 A 
ENDROOT
BRANCH   4  14
HETATM   14  N3  UNL     1      93.937 115.584   5.355  1.00  0.00    -0.219 N 
ATOM     15  H3  UNL     1      94.234 116.278   4.669  1.00  0.00     0.178 HD
BRANCH  14  16
HETATM   16  C6  UNL     1      94.516 114.280   5.216  1.00  0.00     0.129 C 
HETATM   17  C7  UNL     1      95.954 114.352   5.659  1.00  0.00     0.027 C 
HETATM   18  C8  UNL     1      96.529 112.957   5.510  1.00  0.00     0.002 C 
HETATM   19  C9  UNL     1      96.592 112.714   4.027  1.00  0.00     0.002 C 
HETATM   20  C10 UNL     1      95.284 112.772   3.340  1.00  0.00     0.035 C 
HETATM   21  C11 UNL     1      94.343 113.830   3.800  1.00  0.00     0.206 C 
BRANCH  21  22
HETATM   22  N4  UNL     1      92.967 113.379   3.659  1.00  0.00    -0.073 N 
ATOM     23  H43 UNL     1      92.862 112.372   3.778  1.00  0.00     0.274 HD
ATOM     24  H42 UNL     1      92.371 113.666   4.435  1.00  0.00     0.274 HD
ATOM     25  H41 UNL     1      92.634 113.712   2.754  1.00  0.00     0.274 HD
ENDBRANCH  21  22
ENDBRANCH  14  16
ENDBRANCH   4  14
BRANCH   1  26
HETATM   26  N1  UNL     1      90.498 114.687   8.144  1.00  0.00    -0.372 N 
ATOM     27  H1  UNL     1      89.502 114.861   8.007  1.00  0.00     0.161 HD
BRANCH  26  28
HETATM   28  C3  UNL     1      90.901 113.529   8.889  1.00  0.00     0.147 C 
BRANCH  28  29
HETATM   29  C2  UNL     1      90.231 113.385  10.203  1.00  0.00    -0.018 C 
HETATM   30  C1  UNL     1      90.454 114.253  11.154  1.00  0.00     0.008 C 
ENDBRANCH  28  29
ENDBRANCH  26  28
ENDBRANCH   1  26
TORSDOF 6
ENDMDL
