MODEL 1
REMARK VINA RESULT: -9.302390963      0.000      0.000
REMARK  6 active torsions:
REMARK  status: ('A' for Active; 'I' for Inactive)
REMARK    1  A    between atoms: N1_1  and  C1_5 
REMARK    2  A    between atoms: C4_8  and  C5_9 
REMARK    3  A    between atoms: C5_9  and  N2_10 
REMARK    4  A    between atoms: N2_10  and  C6_12 
REMARK    5  A    between atoms: C7_15  and  N4_16 
REMARK    6  A    between atoms: N4_16  and  C8_18 
ROOT
HETATM    1  C6  UNL     1      88.896 120.375  12.186  1.00  0.00     0.157 A 
HETATM    2  N3  UNL     1      88.661 119.989  13.450  1.00  0.00    -0.174 N 
ATOM      3  H3  UNL     1      89.387 119.470  13.945  1.00  0.00     0.186 HD
HETATM    4  C7  UNL     1      87.492 120.263  14.103  1.00  0.00     0.679 A 
HETATM    5  N5  UNL     1      86.557 120.949  13.425  1.00  0.00    -0.199 N 
ATOM      6  H5  UNL     1      85.672 121.171  13.883  1.00  0.00     0.183 HD
HETATM    7  C15 UNL     1      86.759 121.352  12.151  1.00  0.00     0.152 A 
HETATM    8  C16 UNL     1      87.931 121.076  11.502  1.00  0.00     0.176 A 
HETATM    9  F1  UNL     1      88.188 121.459  10.221  1.00  0.00    -0.201 F 
ENDROOT
BRANCH   1  10
HETATM   10  N2  UNL     1      90.030 120.081  11.628  1.00  0.00    -0.373 N 
ATOM     11  H2  UNL     1      90.750 120.798  11.534  1.00  0.00     0.161 HD
BRANCH  10  12
HETATM   12  C5  UNL     1      90.278 118.751  11.142  1.00  0.00     0.126 C 
BRANCH  12  13
HETATM   13  C4  UNL     1      90.382 118.846   9.621  1.00  0.00     0.003 C 
HETATM   14  C3  UNL     1      90.246 117.482   9.021  1.00  0.00     0.008 C 
HETATM   15  C2  UNL     1      91.576 116.896   8.601  1.00  0.00     0.033 C 
HETATM   16  C1  UNL     1      92.344 117.788   7.672  1.00  0.00     0.183 C 
HETATM   17  C18 UNL     1      92.010 119.254   7.855  1.00  0.00     0.033 C 
HETATM   18  C17 UNL     1      91.704 119.495   9.302  1.00  0.00     0.008 C 
BRANCH  16  19
HETATM   19  N1  UNL     1      91.967 117.439   6.300  1.00  0.00    -0.075 N 
ATOM     20  H13 UNL     1      91.461 116.555   6.242  1.00  0.00     0.274 HD
ATOM     21  H12 UNL     1      91.233 118.040   5.926  1.00  0.00     0.274 HD
ATOM     22  H11 UNL     1      92.815 117.448   5.732  1.00  0.00     0.274 HD
ENDBRANCH  16  19
ENDBRANCH  12  13
ENDBRANCH  10  12
ENDBRANCH   1  10
BRANCH   4  23
HETATM   23  N4  UNL     1      87.344 119.859  15.316  1.00  0.00    -0.221 N 
ATOM     24  H4  UNL     1      87.225 118.864  15.506  1.00  0.00     0.178 HD
BRANCH  23  25
HETATM   25  C8  UNL     1      87.344 120.790  16.393  1.00  0.00     0.103 C 
HETATM   26  C9  UNL     1      86.001 120.880  17.095  1.00  0.00     0.030 C 
HETATM   27  C10 UNL     1      86.257 120.646  18.568  1.00  0.00    -0.012 C 
HETATM   28  C11 UNL     1      86.513 119.191  18.773  1.00  0.00     0.005 C 
HETATM   29  C14 UNL     1      87.689 121.203  18.663  1.00  0.00     0.011 C 
HETATM   30  C12 UNL     1      87.793 118.978  17.948  1.00  0.00     0.007 C 
HETATM   31  C13 UNL     1      88.249 120.337  17.524  1.00  0.00     0.009 C 
ENDBRANCH  23  25
ENDBRANCH   4  23
TORSDOF 6
ENDMDL
MODEL 2
REMARK VINA RESULT: -9.012348902      0.623      1.189
REMARK  6 active torsions:
REMARK  status: ('A' for Active; 'I' for Inactive)
REMARK    1  A    between atoms: N1_1  and  C1_5 
REMARK    2  A    between atoms: C4_8  and  C5_9 
REMARK    3  A    between atoms: C5_9  and  N2_10 
REMARK    4  A    between atoms: N2_10  and  C6_12 
REMARK    5  A    between atoms: C7_15  and  N4_16 
REMARK    6  A    between atoms: N4_16  and  C8_18 
ROOT
HETATM    1  C6  UNL     1      88.555 120.248  11.913  1.00  0.00     0.157 A 
HETATM    2  N3  UNL     1      88.446 119.850  13.190  1.00  0.00    -0.174 N 
ATOM      3  H3  UNL     1      89.066 119.113  13.526  1.00  0.00     0.186 HD
HETATM    4  C7  UNL     1      87.540 120.390  14.059  1.00  0.00     0.679 A 
HETATM    5  N5  UNL     1      86.739 121.359  13.586  1.00  0.00    -0.199 N 
ATOM      6  H5  UNL     1      86.052 121.784  14.209  1.00  0.00     0.183 HD
HETATM    7  C15 UNL     1      86.821 121.784  12.306  1.00  0.00     0.152 A 
HETATM    8  C16 UNL     1      87.730 121.240  11.440  1.00  0.00     0.176 A 
HETATM    9  F1  UNL     1      87.856 121.631  10.142  1.00  0.00    -0.201 F 
ENDROOT
BRANCH   1  10
HETATM   10  N2  UNL     1      89.440 119.691  11.142  1.00  0.00    -0.373 N 
ATOM     11  H2  UNL     1      89.141 119.205  10.297  1.00  0.00     0.161 HD
BRANCH  10  12
HETATM   12  C5  UNL     1      90.837 119.756  11.475  1.00  0.00     0.126 C 
BRANCH  12  13
HETATM   13  C4  UNL     1      91.547 118.712  10.615  1.00  0.00     0.003 C 
HETATM   14  C3  UNL     1      92.505 119.390   9.688  1.00  0.00     0.008 C 
HETATM   15  C2  UNL     1      91.971 119.498   8.277  1.00  0.00     0.033 C 
HETATM   16  C1  UNL     1      91.554 118.176   7.703  1.00  0.00     0.183 C 
HETATM   17  C18 UNL     1      91.132 117.182   8.764  1.00  0.00     0.033 C 
HETATM   18  C17 UNL     1      90.482 117.932   9.886  1.00  0.00     0.008 C 
BRANCH  16  19
HETATM   19  N1  UNL     1      92.715 117.597   7.021  1.00  0.00    -0.075 N 
ATOM     20  H13 UNL     1      92.588 117.532   6.011  1.00  0.00     0.274 HD
ATOM     21  H12 UNL     1      93.523 118.220   7.017  1.00  0.00     0.274 HD
ATOM     22  H11 UNL     1      92.913 116.695   7.454  1.00  0.00     0.274 HD
ENDBRANCH  16  19
ENDBRANCH  12  13
ENDBRANCH  10  12
ENDBRANCH   1  10
BRANCH   4  23
HETATM   23  N4  UNL     1      87.498 119.953  15.269  1.00  0.00    -0.221 N 
ATOM     24  H4  UNL     1      87.527 118.949  15.446  1.00  0.00     0.178 HD
BRANCH  23  25
HETATM   25  C8  UNL     1      87.412 120.862  16.362  1.00  0.00     0.103 C 
HETATM   26  C9  UNL     1      86.038 120.875  17.010  1.00  0.00     0.030 C 
HETATM   27  C10 UNL     1      86.246 120.624  18.487  1.00  0.00    -0.012 C 
HETATM   28  C11 UNL     1      86.561 119.179  18.676  1.00  0.00     0.005 C 
HETATM   29  C14 UNL     1      87.644 121.245  18.652  1.00  0.00     0.011 C 
HETATM   30  C12 UNL     1      87.882 119.042  17.901  1.00  0.00     0.007 C 
HETATM   31  C13 UNL     1      88.291 120.429  17.521  1.00  0.00     0.009 C 
ENDBRANCH  23  25
ENDBRANCH   4  23
TORSDOF 6
ENDMDL
MODEL 3
REMARK VINA RESULT: -8.788745782      2.712      3.537
REMARK  6 active torsions:
REMARK  status: ('A' for Active; 'I' for Inactive)
REMARK    1  A    between atoms: N1_1  and  C1_5 
REMARK    2  A    between atoms: C4_8  and  C5_9 
REMARK    3  A    between atoms: C5_9  and  N2_10 
REMARK    4  A    between atoms: N2_10  and  C6_12 
REMARK    5  A    between atoms: C7_15  and  N4_16 
REMARK    6  A    between atoms: N4_16  and  C8_18 
ROOT
HETATM    1  C6  UNL     1      89.766 118.489  12.028  1.00  0.00     0.157 A 
HETATM    2  N3  UNL     1      89.474 119.145  13.161  1.00  0.00    -0.174 N 
ATOM      3  H3  UNL     1      89.785 118.749  14.049  1.00  0.00     0.186 HD
HETATM    4  C7  UNL     1      88.778 120.321  13.179  1.00  0.00     0.679 A 
HETATM    5  N5  UNL     1      88.383 120.817  11.994  1.00  0.00    -0.199 N 
ATOM      6  H5  UNL     1      87.861 121.693  11.971  1.00  0.00     0.183 HD
HETATM    7  C15 UNL     1      88.659 120.182  10.833  1.00  0.00     0.152 A 
HETATM    8  C16 UNL     1      89.356 119.006  10.822  1.00  0.00     0.176 A 
HETATM    9  F1  UNL     1      89.663 118.327   9.683  1.00  0.00    -0.201 F 
ENDROOT
BRANCH   1  10
HETATM   10  N2  UNL     1      90.432 117.376  12.086  1.00  0.00    -0.373 N 
ATOM     11  H2  UNL     1      91.380 117.332  11.711  1.00  0.00     0.161 HD
BRANCH  10  12
HETATM   12  C5  UNL     1      89.842 116.206  12.677  1.00  0.00     0.126 C 
BRANCH  12  13
HETATM   13  C4  UNL     1      90.632 115.003  12.165  1.00  0.00     0.003 C 
HETATM   14  C3  UNL     1      91.216 115.318  10.824  1.00  0.00     0.008 C 
HETATM   15  C2  UNL     1      90.437 114.690   9.689  1.00  0.00     0.033 C 
HETATM   16  C1  UNL     1      90.271 113.207   9.838  1.00  0.00     0.183 C 
HETATM   17  C18 UNL     1      90.300 112.756  11.283  1.00  0.00     0.033 C 
HETATM   18  C17 UNL     1      89.687 113.829  12.130  1.00  0.00     0.008 C 
BRANCH  16  19
HETATM   19  N1  UNL     1      91.404 112.560   9.172  1.00  0.00    -0.075 N 
ATOM     20  H13 UNL     1      91.269 111.556   9.047  1.00  0.00     0.274 HD
ATOM     21  H12 UNL     1      91.479 112.811   8.186  1.00  0.00     0.274 HD
ATOM     22  H11 UNL     1      92.247 112.783   9.702  1.00  0.00     0.274 HD
ENDBRANCH  16  19
ENDBRANCH  12  13
ENDBRANCH  10  12
ENDBRANCH   1  10
BRANCH   4  23
HETATM   23  N4  UNL     1      88.538 120.889  14.308  1.00  0.00    -0.221 N 
ATOM     24  H4  UNL     1      89.150 121.634  14.640  1.00  0.00     0.178 HD
BRANCH  23  25
HETATM   25  C8  UNL     1      87.424 120.484  15.098  1.00  0.00     0.103 C 
HETATM   26  C9  UNL     1      87.779 119.406  16.107  1.00  0.00     0.030 C 
HETATM   27  C10 UNL     1      87.330 119.906  17.462  1.00  0.00    -0.012 C 
HETATM   28  C11 UNL     1      88.289 120.953  17.916  1.00  0.00     0.005 C 
HETATM   29  C14 UNL     1      86.141 120.780  17.024  1.00  0.00     0.011 C 
HETATM   30  C12 UNL     1      88.107 122.035  16.840  1.00  0.00     0.007 C 
HETATM   31  C13 UNL     1      86.944 121.603  16.004  1.00  0.00     0.009 C 
ENDBRANCH  23  25
ENDBRANCH   4  23
TORSDOF 6
ENDMDL
MODEL 4
REMARK VINA RESULT: -8.724739268      2.719      3.726
REMARK  6 active torsions:
REMARK  status: ('A' for Active; 'I' for Inactive)
REMARK    1  A    between atoms: N1_1  and  C1_5 
REMARK    2  A    between atoms: C4_8  and  C5_9 
REMARK    3  A    between atoms: C5_9  and  N2_10 
REMARK    4  A    between atoms: N2_10  and  C6_12 
REMARK    5  A    between atoms: C7_15  and  N4_16 
REMARK    6  A    between atoms: N4_16  and  C8_18 
ROOT
HETATM    1  C6  UNL     1      89.879 119.609  11.970  1.00  0.00     0.157 A 
HETATM    2  N3  UNL     1      89.482 120.192  13.111  1.00  0.00    -0.174 N 
ATOM      3  H3  UNL     1      90.089 120.126  13.929  1.00  0.00     0.186 HD
HETATM    4  C7  UNL     1      88.301 120.870  13.226  1.00  0.00     0.679 A 
HETATM    5  N5  UNL     1      87.525 120.939  12.131  1.00  0.00    -0.199 N 
ATOM      6  H5  UNL     1      86.637 121.438  12.182  1.00  0.00     0.183 HD
HETATM    7  C15 UNL     1      87.893 120.363  10.965  1.00  0.00     0.152 A 
HETATM    8  C16 UNL     1      89.076 119.687  10.856  1.00  0.00     0.176 A 
HETATM    9  F1  UNL     1      89.496 119.089   9.707  1.00  0.00    -0.201 F 
ENDROOT
BRANCH   1  10
HETATM   10  N2  UNL     1      91.015 118.982  11.933  1.00  0.00    -0.373 N 
ATOM     11  H2  UNL     1      91.738 119.281  11.279  1.00  0.00     0.161 HD
BRANCH  10  12
HETATM   12  C5  UNL     1      91.259 117.868  12.809  1.00  0.00     0.126 C 
BRANCH  12  13
HETATM   13  C4  UNL     1      90.251 116.782  12.437  1.00  0.00     0.003 C 
HETATM   14  C3  UNL     1      89.512 116.341  13.661  1.00  0.00     0.008 C 
HETATM   15  C2  UNL     1      90.018 115.022  14.202  1.00  0.00     0.033 C 
HETATM   16  C1  UNL     1      90.013 113.925  13.179  1.00  0.00     0.183 C 
HETATM   17  C18 UNL     1      90.149 114.443  11.763  1.00  0.00     0.033 C 
HETATM   18  C17 UNL     1      91.020 115.662  11.783  1.00  0.00     0.008 C 
BRANCH  16  19
HETATM   19  N1  UNL     1      88.716 113.247  13.256  1.00  0.00    -0.075 N 
ATOM     20  H13 UNL     1      87.930 113.874  13.083  1.00  0.00     0.274 HD
ATOM     21  H12 UNL     1      88.556 112.610  12.476  1.00  0.00     0.274 HD
ATOM     22  H11 UNL     1      88.660 112.783  14.164  1.00  0.00     0.274 HD
ENDBRANCH  16  19
ENDBRANCH  12  13
ENDBRANCH  10  12
ENDBRANCH   1  10
BRANCH   4  23
HETATM   23  N4  UNL     1      87.992 121.402  14.356  1.00  0.00    -0.221 N 
ATOM     24  H4  UNL     1      88.394 122.301  14.619  1.00  0.00     0.178 HD
BRANCH  23  25
HETATM   25  C8  UNL     1      87.093 120.743  15.243  1.00  0.00     0.103 C 
HETATM   26  C9  UNL     1      87.713 119.532  15.919  1.00  0.00     0.030 C 
HETATM   27  C10 UNL     1      87.526 119.715  17.408  1.00  0.00    -0.012 C 
HETATM   28  C11 UNL     1      88.495 120.747  17.878  1.00  0.00     0.005 C 
HETATM   29  C14 UNL     1      86.222 120.534  17.398  1.00  0.00     0.011 C 
HETATM   30  C12 UNL     1      88.029 121.991  17.106  1.00  0.00     0.007 C 
HETATM   31  C13 UNL     1      86.746 121.613  16.437  1.00  0.00     0.009 C 
ENDBRANCH  23  25
ENDBRANCH   4  23
TORSDOF 6
ENDMDL
MODEL 5
REMARK VINA RESULT: -8.612386276      3.029      3.680
REMARK  6 active torsions:
REMARK  status: ('A' for Active; 'I' for Inactive)
REMARK    1  A    between atoms: N1_1  and  C1_5 
REMARK    2  A    between atoms: C4_8  and  C5_9 
REMARK    3  A    between atoms: C5_9  and  N2_10 
REMARK    4  A    between atoms: N2_10  and  C6_12 
REMARK    5  A    between atoms: C7_15  and  N4_16 
REMARK    6  A    between atoms: N4_16  and  C8_18 
ROOT
HETATM    1  C6  UNL     1      89.783 118.869  12.252  1.00  0.00     0.157 A 
HETATM    2  N3  UNL     1      89.375 119.561  13.327  1.00  0.00    -0.174 N 
ATOM      3  H3  UNL     1      89.731 119.292  14.245  1.00  0.00     0.186 HD
HETATM    4  C7  UNL     1      88.503 120.610  13.245  1.00  0.00     0.679 A 
HETATM    5  N5  UNL     1      88.053 120.940  12.023  1.00  0.00    -0.199 N 
ATOM      6  H5  UNL     1      87.401 121.719  11.926  1.00  0.00     0.183 HD
HETATM    7  C15 UNL     1      88.443 120.264  10.919  1.00  0.00     0.152 A 
HETATM    8  C16 UNL     1      89.316 119.215  11.006  1.00  0.00     0.176 A 
HETATM    9  F1  UNL     1      89.742 118.502   9.928  1.00  0.00    -0.201 F 
ENDROOT
BRANCH   1  10
HETATM   10  N2  UNL     1      90.614 117.883  12.404  1.00  0.00    -0.373 N 
ATOM     11  H2  UNL     1      91.510 117.896  11.917  1.00  0.00     0.161 HD
BRANCH  10  12
HETATM   12  C5  UNL     1      90.278 116.774  13.255  1.00  0.00     0.126 C 
BRANCH  12  13
HETATM   13  C4  UNL     1      89.732 115.670  12.351  1.00  0.00     0.003 C 
HETATM   14  C3  UNL     1      89.435 114.452  13.167  1.00  0.00     0.008 C 
HETATM   15  C2  UNL     1      90.499 113.385  13.028  1.00  0.00     0.033 C 
HETATM   16  C1  UNL     1      90.759 112.995  11.603  1.00  0.00     0.183 C 
HETATM   17  C18 UNL     1      90.450 114.108  10.624  1.00  0.00     0.033 C 
HETATM   18  C17 UNL     1      90.762 115.419  11.279  1.00  0.00     0.008 C 
BRANCH  16  19
HETATM   19  N1  UNL     1      89.864 111.883  11.273  1.00  0.00    -0.075 N 
ATOM     20  H13 UNL     1      90.238 111.278  10.541  1.00  0.00     0.274 HD
ATOM     21  H12 UNL     1      89.813 111.183  12.014  1.00  0.00     0.274 HD
ATOM     22  H11 UNL     1      88.953 112.275  11.036  1.00  0.00     0.274 HD
ENDBRANCH  16  19
ENDBRANCH  12  13
ENDBRANCH  10  12
ENDBRANCH   1  10
BRANCH   4  23
HETATM   23  N4  UNL     1      88.160 121.224  14.323  1.00  0.00    -0.221 N 
ATOM     24  H4  UNL     1      88.592 122.117  14.556  1.00  0.00     0.178 HD
BRANCH  23  25
HETATM   25  C8  UNL     1      87.181 120.663  15.193  1.00  0.00     0.103 C 
HETATM   26  C9  UNL     1      87.715 119.497  16.006  1.00  0.00     0.030 C 
HETATM   27  C10 UNL     1      87.431 119.806  17.459  1.00  0.00    -0.012 C 
HETATM   28  C11 UNL     1      88.396 120.848  17.913  1.00  0.00     0.005 C 
HETATM   29  C14 UNL     1      86.157 120.654  17.289  1.00  0.00     0.011 C 
HETATM   30  C12 UNL     1      88.024 122.036  17.012  1.00  0.00     0.007 C 
HETATM   31  C13 UNL     1      86.780 121.637  16.285  1.00  0.00     0.009 C 
ENDBRANCH  23  25
ENDBRANCH   4  23
TORSDOF 6
ENDMDL
