MODEL 1
REMARK VINA RESULT: -9.699215395      0.000      0.000
REMARK  6 active torsions:
REMARK  status: ('A' for Active; 'I' for Inactive)
REMARK    1  A    between atoms: N1_1  and  C1_4 
REMARK    2  A    between atoms: C3_8  and  C4_9 
REMARK    3  A    between atoms: C6_14  and  C7_15 
REMARK       I    between atoms: C7_15  and  N3_17 
REMARK    4  A    between atoms: N3_17  and  C8_19 
REMARK    5  A    between atoms: C11_22  and  C12_23 
REMARK    6  A    between atoms: C12_23  and  N4_24 
ROOT
HETATM    1  C7  UNL     1      14.079 118.998 132.744  1.00  0.00     0.255 C 
HETATM    2  O1  UNL     1      14.155 119.099 131.490  1.00  0.00    -0.268 OA
HETATM    3  N3  UNL     1      14.641 117.853 133.344  1.00  0.00    -0.352 N 
ATOM      4  H3  UNL     1      14.624 117.735 134.357  1.00  0.00     0.163 HD
ENDROOT
BRANCH   1   5
HETATM    5  C6  UNL     1      13.412 120.081 133.485  1.00  0.00     0.076 A 
HETATM    6  C1  UNL     1      13.118 121.299 132.958  1.00  0.00     0.114 A 
HETATM    7  N2  UNL     1      12.434 122.218 133.741  1.00  0.00    -0.351 N 
HETATM    8  C2  UNL     1      12.080 121.906 134.975  1.00  0.00     0.106 A 
ATOM      9  H2  UNL     1      12.203 123.136 133.363  1.00  0.00     0.166 HD
HETATM   10  C3  UNL     1      12.360 120.667 135.566  1.00  0.00     0.064 A 
HETATM   11  C5  UNL     1      13.028 119.767 134.803  1.00  0.00     0.038 A 
BRANCH   6  12
HETATM   12  N1  UNL     1      13.454 121.727 131.816  1.00  0.00    -0.385 N 
ATOM     13  H12 UNL     1      13.729 122.680 131.581  1.00  0.00     0.157 HD
ATOM     14  H11 UNL     1      13.392 121.036 131.068  1.00  0.00     0.157 HD
ENDBRANCH   6  12
BRANCH  10  15
HETATM   15  C4  UNL     1      11.950 120.384 136.957  1.00  0.00     0.418 C 
HETATM   16  F1  UNL     1      12.749 121.139 137.787  1.00  0.00    -0.166 F 
HETATM   17  F2  UNL     1      12.062 119.039 137.258  1.00  0.00    -0.166 F 
HETATM   18  F3  UNL     1      10.640 120.808 137.090  1.00  0.00    -0.166 F 
ENDBRANCH  10  15
ENDBRANCH   1   5
BRANCH   3  19
HETATM   19  C8  UNL     1      15.255 116.829 132.480  1.00  0.00     0.084 C 
HETATM   20  C9  UNL     1      16.679 116.705 132.866  1.00  0.00     0.026 C 
HETATM   21  C10 UNL     1      17.031 115.269 133.183  1.00  0.00     0.008 C 
HETATM   22  C11 UNL     1      16.546 114.297 132.196  1.00  0.00     0.014 C 
HETATM   23  C18 UNL     1      15.022 114.284 132.269  1.00  0.00     0.008 C 
HETATM   24  C19 UNL     1      14.417 115.604 132.479  1.00  0.00     0.026 C 
BRANCH  22  25
HETATM   25  C12 UNL     1      17.040 114.278 130.812  1.00  0.00     0.277 C 
BRANCH  25  26
HETATM   26  N4  UNL     1      16.195 114.598 129.724  1.00  0.00     0.088 N 
HETATM   27  C13 UNL     1      15.994 113.586 128.798  1.00  0.00     0.272 C 
HETATM   28  C14 UNL     1      15.485 114.042 127.436  1.00  0.00     0.030 C 
HETATM   29  C15 UNL     1      16.111 115.299 126.941  1.00  0.00     0.003 C 
HETATM   30  C16 UNL     1      15.856 116.360 128.026  1.00  0.00     0.030 C 
HETATM   31  C17 UNL     1      16.608 115.881 129.218  1.00  0.00     0.272 C 
ENDBRANCH  25  26
ENDBRANCH  22  25
ENDBRANCH   3  19
TORSDOF 6
ENDMDL
MODEL 2
REMARK VINA RESULT: -9.542408600      2.534      3.502
REMARK  6 active torsions:
REMARK  status: ('A' for Active; 'I' for Inactive)
REMARK    1  A    between atoms: N1_1  and  C1_4 
REMARK    2  A    between atoms: C3_8  and  C4_9 
REMARK    3  A    between atoms: C6_14  and  C7_15 
REMARK       I    between atoms: C7_15  and  N3_17 
REMARK    4  A    between atoms: N3_17  and  C8_19 
REMARK    5  A    between atoms: C11_22  and  C12_23 
REMARK    6  A    between atoms: C12_23  and  N4_24 
ROOT
HETATM    1  C7  UNL     1      14.031 119.801 130.536  1.00  0.00     0.255 C 
HETATM    2  O1  UNL     1      13.310 119.766 129.502  1.00  0.00    -0.268 OA
HETATM    3  N3  UNL     1      15.281 119.152 130.486  1.00  0.00    -0.352 N 
ATOM      4  H3  UNL     1      15.909 119.170 131.290  1.00  0.00     0.163 HD
ENDROOT
BRANCH   1   5
HETATM    5  C6  UNL     1      13.514 120.518 131.714  1.00  0.00     0.076 A 
HETATM    6  C1  UNL     1      12.892 121.726 131.661  1.00  0.00     0.114 A 
HETATM    7  N2  UNL     1      12.396 122.273 132.835  1.00  0.00    -0.351 N 
HETATM    8  C2  UNL     1      12.532 121.625 133.979  1.00  0.00     0.106 A 
ATOM      9  H2  UNL     1      11.925 123.177 132.816  1.00  0.00     0.166 HD
HETATM   10  C3  UNL     1      13.165 120.381 134.088  1.00  0.00     0.064 A 
HETATM   11  C5  UNL     1      13.651 119.843 132.942  1.00  0.00     0.038 A 
BRANCH   6  12
HETATM   12  N1  UNL     1      12.755 122.459 130.639  1.00  0.00    -0.385 N 
ATOM     13  H12 UNL     1      11.938 123.019 130.398  1.00  0.00     0.157 HD
ATOM     14  H11 UNL     1      13.540 122.432 129.988  1.00  0.00     0.157 HD
ENDBRANCH   6  12
BRANCH  10  15
HETATM   15  C4  UNL     1      13.298 119.715 135.400  1.00  0.00     0.418 C 
HETATM   16  F1  UNL     1      14.197 120.444 136.147  1.00  0.00    -0.166 F 
HETATM   17  F2  UNL     1      13.721 118.404 135.265  1.00  0.00    -0.166 F 
HETATM   18  F3  UNL     1      12.060 119.768 136.012  1.00  0.00    -0.166 F 
ENDBRANCH  10  15
ENDBRANCH   1   5
BRANCH   3  19
HETATM   19  C8  UNL     1      15.663 118.446 129.250  1.00  0.00     0.084 C 
HETATM   20  C9  UNL     1      16.635 119.295 128.525  1.00  0.00     0.026 C 
HETATM   21  C10 UNL     1      17.899 118.527 128.213  1.00  0.00     0.008 C 
HETATM   22  C11 UNL     1      17.669 117.191 127.651  1.00  0.00     0.014 C 
HETATM   23  C18 UNL     1      17.027 116.335 128.738  1.00  0.00     0.008 C 
HETATM   24  C19 UNL     1      16.051 117.049 129.570  1.00  0.00     0.026 C 
BRANCH  22  25
HETATM   25  C12 UNL     1      17.039 116.994 126.339  1.00  0.00     0.277 C 
BRANCH  25  26
HETATM   26  N4  UNL     1      17.493 115.995 125.446  1.00  0.00     0.088 N 
HETATM   27  C13 UNL     1      16.801 114.793 125.484  1.00  0.00     0.272 C 
HETATM   28  C14 UNL     1      17.539 113.601 124.889  1.00  0.00     0.030 C 
HETATM   29  C15 UNL     1      18.990 113.556 125.215  1.00  0.00     0.003 C 
HETATM   30  C16 UNL     1      19.579 114.890 124.722  1.00  0.00     0.030 C 
HETATM   31  C17 UNL     1      18.927 115.933 125.559  1.00  0.00     0.272 C 
ENDBRANCH  25  26
ENDBRANCH  22  25
ENDBRANCH   3  19
TORSDOF 6
ENDMDL
MODEL 3
REMARK VINA RESULT: -9.325060230      4.445      9.016
REMARK  6 active torsions:
REMARK  status: ('A' for Active; 'I' for Inactive)
REMARK    1  A    between atoms: N1_1  and  C1_4 
REMARK    2  A    between atoms: C3_8  and  C4_9 
REMARK    3  A    between atoms: C6_14  and  C7_15 
REMARK       I    between atoms: C7_15  and  N3_17 
REMARK    4  A    between atoms: N3_17  and  C8_19 
REMARK    5  A    between atoms: C11_22  and  C12_23 
REMARK    6  A    between atoms: C12_23  and  N4_24 
ROOT
HETATM    1  C7  UNL     1      15.800 119.075 130.303  1.00  0.00     0.255 C 
HETATM    2  O1  UNL     1      16.685 119.824 130.800  1.00  0.00    -0.268 OA
HETATM    3  N3  UNL     1      14.569 118.976 130.981  1.00  0.00    -0.352 N 
ATOM      4  H3  UNL     1      13.815 118.400 130.608  1.00  0.00     0.163 HD
ENDROOT
BRANCH   1   5
HETATM    5  C6  UNL     1      16.120 118.364 129.054  1.00  0.00     0.076 A 
HETATM    6  C1  UNL     1      16.624 118.962 127.942  1.00  0.00     0.114 A 
HETATM    7  N2  UNL     1      16.940 118.173 126.846  1.00  0.00    -0.351 N 
HETATM    8  C2  UNL     1      16.751 116.866 126.890  1.00  0.00     0.106 A 
ATOM      9  H2  UNL     1      17.319 118.603 126.002  1.00  0.00     0.166 HD
HETATM   10  C3  UNL     1      16.234 116.202 128.010  1.00  0.00     0.064 A 
HETATM   11  C5  UNL     1      15.924 116.970 129.084  1.00  0.00     0.038 A 
BRANCH   6  12
HETATM   12  N1  UNL     1      16.793 120.203 127.765  1.00  0.00    -0.385 N 
ATOM     13  H12 UNL     1      16.732 120.704 126.879  1.00  0.00     0.157 HD
ATOM     14  H11 UNL     1      17.058 120.720 128.603  1.00  0.00     0.157 HD
ENDBRANCH   6  12
BRANCH  10  15
HETATM   15  C4  UNL     1      16.032 114.739 127.992  1.00  0.00     0.418 C 
HETATM   16  F1  UNL     1      17.250 114.155 127.721  1.00  0.00    -0.166 F 
HETATM   17  F2  UNL     1      15.088 114.365 127.053  1.00  0.00    -0.166 F 
HETATM   18  F3  UNL     1      15.631 114.367 129.262  1.00  0.00    -0.166 F 
ENDBRANCH  10  15
ENDBRANCH   1   5
BRANCH   3  19
HETATM   19  C8  UNL     1      14.391 119.722 132.240  1.00  0.00     0.084 C 
HETATM   20  C9  UNL     1      13.428 120.817 131.986  1.00  0.00     0.026 C 
HETATM   21  C10 UNL     1      12.284 120.772 132.973  1.00  0.00     0.008 C 
HETATM   22  C11 UNL     1      12.698 120.592 134.369  1.00  0.00     0.014 C 
HETATM   23  C18 UNL     1      13.297 119.195 134.498  1.00  0.00     0.008 C 
HETATM   24  C19 UNL     1      14.105 118.776 133.347  1.00  0.00     0.026 C 
BRANCH  22  25
HETATM   25  C12 UNL     1      13.483 121.606 135.086  1.00  0.00     0.277 C 
BRANCH  25  26
HETATM   26  N4  UNL     1      13.753 121.485 136.470  1.00  0.00     0.088 N 
HETATM   27  C13 UNL     1      12.643 121.455 137.301  1.00  0.00     0.272 C 
HETATM   28  C14 UNL     1      12.918 121.781 138.763  1.00  0.00     0.030 C 
HETATM   29  C15 UNL     1      13.888 122.891 138.969  1.00  0.00     0.003 C 
HETATM   30  C16 UNL     1      15.173 122.478 138.230  1.00  0.00     0.030 C 
HETATM   31  C17 UNL     1      14.792 122.429 136.792  1.00  0.00     0.272 C 
ENDBRANCH  25  26
ENDBRANCH  22  25
ENDBRANCH   3  19
TORSDOF 6
ENDMDL
MODEL 4
REMARK VINA RESULT: -9.239813682      1.748      2.215
REMARK  6 active torsions:
REMARK  status: ('A' for Active; 'I' for Inactive)
REMARK    1  A    between atoms: N1_1  and  C1_4 
REMARK    2  A    between atoms: C3_8  and  C4_9 
REMARK    3  A    between atoms: C6_14  and  C7_15 
REMARK       I    between atoms: C7_15  and  N3_17 
REMARK    4  A    between atoms: N3_17  and  C8_19 
REMARK    5  A    between atoms: C11_22  and  C12_23 
REMARK    6  A    between atoms: C12_23  and  N4_24 
ROOT
HETATM    1  C7  UNL     1      14.505 119.365 131.404  1.00  0.00     0.255 C 
HETATM    2  O1  UNL     1      14.250 119.403 130.170  1.00  0.00    -0.268 OA
HETATM    3  N3  UNL     1      15.540 118.510 131.833  1.00  0.00    -0.352 N 
ATOM      4  H3  UNL     1      15.798 118.460 132.819  1.00  0.00     0.163 HD
ENDROOT
BRANCH   1   5
HETATM    5  C6  UNL     1      13.707 120.218 132.300  1.00  0.00     0.076 A 
HETATM    6  C1  UNL     1      13.038 121.332 131.900  1.00  0.00     0.114 A 
HETATM    7  N2  UNL     1      12.271 122.020 132.829  1.00  0.00    -0.351 N 
HETATM    8  C2  UNL     1      12.199 121.593 134.077  1.00  0.00     0.106 A 
ATOM      9  H2  UNL     1      11.762 122.857 132.547  1.00  0.00     0.166 HD
HETATM   10  C3  UNL     1      12.869 120.454 134.541  1.00  0.00     0.064 A 
HETATM   11  C5  UNL     1      13.619 119.779 133.635  1.00  0.00     0.038 A 
BRANCH   6  12
HETATM   12  N1  UNL     1      13.079 121.863 130.752  1.00  0.00    -0.385 N 
ATOM     13  H12 UNL     1      12.357 122.444 130.326  1.00  0.00     0.157 HD
ATOM     14  H11 UNL     1      13.909 121.633 130.206  1.00  0.00     0.157 HD
ENDBRANCH   6  12
BRANCH  10  15
HETATM   15  C4  UNL     1      12.759 120.037 135.954  1.00  0.00     0.418 C 
HETATM   16  F1  UNL     1      13.147 118.717 136.028  1.00  0.00    -0.166 F 
HETATM   17  F2  UNL     1      11.473 120.199 136.435  1.00  0.00    -0.166 F 
HETATM   18  F3  UNL     1      13.652 120.807 136.677  1.00  0.00    -0.166 F 
ENDBRANCH  10  15
ENDBRANCH   1   5
BRANCH   3  19
HETATM   19  C8  UNL     1      16.241 117.688 130.831  1.00  0.00     0.084 C 
HETATM   20  C9  UNL     1      17.685 117.710 131.158  1.00  0.00     0.026 C 
HETATM   21  C10 UNL     1      18.233 116.307 131.284  1.00  0.00     0.008 C 
HETATM   22  C11 UNL     1      17.834 115.403 130.198  1.00  0.00     0.014 C 
HETATM   23  C18 UNL     1      16.330 115.178 130.313  1.00  0.00     0.008 C 
HETATM   24  C19 UNL     1      15.569 116.371 130.703  1.00  0.00     0.026 C 
BRANCH  22  25
HETATM   25  C12 UNL     1      18.264 115.615 128.809  1.00  0.00     0.277 C 
BRANCH  25  26
HETATM   26  N4  UNL     1      17.448 116.307 127.884  1.00  0.00     0.088 N 
HETATM   27  C13 UNL     1      17.021 115.572 126.789  1.00  0.00     0.272 C 
HETATM   28  C14 UNL     1      16.548 116.396 125.597  1.00  0.00     0.030 C 
HETATM   29  C15 UNL     1      17.378 117.600 125.321  1.00  0.00     0.003 C 
HETATM   30  C16 UNL     1      17.375 118.428 126.619  1.00  0.00     0.030 C 
HETATM   31  C17 UNL     1      18.074 117.578 127.620  1.00  0.00     0.272 C 
ENDBRANCH  25  26
ENDBRANCH  22  25
ENDBRANCH   3  19
TORSDOF 6
ENDMDL
MODEL 5
REMARK VINA RESULT: -9.098606408      2.913      4.202
REMARK  6 active torsions:
REMARK  status: ('A' for Active; 'I' for Inactive)
REMARK    1  A    between atoms: N1_1  and  C1_4 
REMARK    2  A    between atoms: C3_8  and  C4_9 
REMARK    3  A    between atoms: C6_14  and  C7_15 
REMARK       I    between atoms: C7_15  and  N3_17 
REMARK    4  A    between atoms: N3_17  and  C8_19 
REMARK    5  A    between atoms: C11_22  and  C12_23 
REMARK    6  A    between atoms: C12_23  and  N4_24 
ROOT
HETATM    1  C7  UNL     1      15.316 119.428 130.556  1.00  0.00     0.255 C 
HETATM    2  O1  UNL     1      16.457 119.263 131.068  1.00  0.00    -0.268 OA
HETATM    3  N3  UNL     1      15.081 118.866 129.285  1.00  0.00    -0.352 N 
ATOM      4  H3  UNL     1      14.168 118.955 128.838  1.00  0.00     0.163 HD
ENDROOT
BRANCH   1   5
HETATM    5  C6  UNL     1      14.320 120.193 131.324  1.00  0.00     0.076 A 
HETATM    6  C1  UNL     1      13.513 121.149 130.790  1.00  0.00     0.114 A 
HETATM    7  N2  UNL     1      12.572 121.759 131.607  1.00  0.00    -0.351 N 
HETATM    8  C2  UNL     1      12.470 121.412 132.878  1.00  0.00     0.106 A 
ATOM      9  H2  UNL     1      11.957 122.477 131.225  1.00  0.00     0.166 HD
HETATM   10  C3  UNL     1      13.277 120.436 133.476  1.00  0.00     0.064 A 
HETATM   11  C5  UNL     1      14.198 119.837 132.681  1.00  0.00     0.038 A 
BRANCH   6  12
HETATM   12  N1  UNL     1      13.559 121.600 129.610  1.00  0.00    -0.385 N 
ATOM     13  H12 UNL     1      14.194 122.316 129.257  1.00  0.00     0.157 HD
ATOM     14  H11 UNL     1      12.849 121.223 128.982  1.00  0.00     0.157 HD
ENDBRANCH   6  12
BRANCH  10  15
HETATM   15  C4  UNL     1      13.123 120.103 134.907  1.00  0.00     0.418 C 
HETATM   16  F1  UNL     1      14.036 120.858 135.609  1.00  0.00    -0.166 F 
HETATM   17  F2  UNL     1      13.319 118.754 135.140  1.00  0.00    -0.166 F 
HETATM   18  F3  UNL     1      11.847 120.483 135.280  1.00  0.00    -0.166 F 
ENDBRANCH  10  15
ENDBRANCH   1   5
BRANCH   3  19
HETATM   19  C8  UNL     1      16.179 118.148 128.613  1.00  0.00     0.084 C 
HETATM   20  C9  UNL     1      15.697 116.786 128.288  1.00  0.00     0.026 C 
HETATM   21  C10 UNL     1      15.885 116.481 126.820  1.00  0.00     0.008 C 
HETATM   22  C11 UNL     1      17.209 116.837 126.294  1.00  0.00     0.014 C 
HETATM   23  C18 UNL     1      17.328 118.357 126.331  1.00  0.00     0.008 C 
HETATM   24  C19 UNL     1      16.726 118.982 127.514  1.00  0.00     0.026 C 
BRANCH  22  25
HETATM   25  C12 UNL     1      18.434 116.167 126.751  1.00  0.00     0.277 C 
BRANCH  25  26
HETATM   26  N4  UNL     1      19.005 115.100 126.021  1.00  0.00     0.088 N 
HETATM   27  C13 UNL     1      19.282 115.361 124.687  1.00  0.00     0.272 C 
HETATM   28  C14 UNL     1      19.458 114.131 123.806  1.00  0.00     0.030 C 
HETATM   29  C15 UNL     1      18.495 113.032 124.094  1.00  0.00     0.003 C 
HETATM   30  C16 UNL     1      18.670 112.691 125.585  1.00  0.00     0.030 C 
HETATM   31  C17 UNL     1      18.239 113.916 126.314  1.00  0.00     0.272 C 
ENDBRANCH  25  26
ENDBRANCH  22  25
ENDBRANCH   3  19
TORSDOF 6
ENDMDL
