MODEL 1
REMARK VINA RESULT: -9.463693560      0.000      0.000
REMARK  5 active torsions:
REMARK  status: ('A' for Active; 'I' for Inactive)
REMARK    1  A    between atoms: O1_1  and  C1_3 
REMARK    2  A    between atoms: C1_3  and  C2_4 
REMARK    3  A    between atoms: C2_4  and  C3_7 
REMARK    4  A    between atoms: C9_13  and  C10_14 
REMARK    5  A    between atoms: C14_18  and  C15_19 
ROOT
HETATM    1  C3  UNL     1      15.970 115.528 128.044  1.00  0.00     0.099 C 
HETATM    2  C4  UNL     1      16.130 114.031 127.715  1.00  0.00     0.046 C 
HETATM    3  C5  UNL     1      16.030 113.193 128.964  1.00  0.00     0.188 C 
HETATM    4  C6  UNL     1      17.311 112.529 129.351  1.00  0.00     0.033 C 
HETATM    5  C7  UNL     1      18.217 113.369 130.190  1.00  0.00     0.005 C 
HETATM    6  C8  UNL     1      17.504 114.347 131.105  1.00  0.00     0.047 C 
HETATM    7  C9  UNL     1      16.330 115.029 130.428  1.00  0.00     0.184 C 
HETATM    8  N2  UNL     1      15.419 113.978 129.999  1.00  0.00    -0.055 N 
ATOM      9  H21 UNL     1      15.104 113.402 130.780  1.00  0.00     0.279 HD
ATOM     10  H22 UNL     1      14.513 114.349 129.712  1.00  0.00     0.279 HD
HETATM   11  C21 UNL     1      16.877 115.751 129.245  1.00  0.00     0.221 C 
HETATM   12  F3  UNL     1      17.289 117.035 129.427  1.00  0.00    -0.246 F 
ENDROOT
BRANCH   7  13
HETATM   13  C10 UNL     1      15.601 115.833 131.407  1.00  0.00    -0.019 A 
HETATM   14  C11 UNL     1      14.935 115.307 132.491  1.00  0.00     0.010 A 
HETATM   15  C12 UNL     1      14.249 116.151 133.353  1.00  0.00     0.001 A 
HETATM   16  C13 UNL     1      14.241 117.504 133.127  1.00  0.00     0.007 A 
HETATM   17  C14 UNL     1      14.900 118.055 132.055  1.00  0.00    -0.053 A 
HETATM   18  C20 UNL     1      15.574 117.206 131.206  1.00  0.00     0.017 A 
BRANCH  17  19
HETATM   19  C15 UNL     1      14.997 119.538 131.840  1.00  0.00     0.022 C 
HETATM   20  C16 UNL     1      15.114 119.862 130.409  1.00  0.00     0.037 C 
HETATM   21  C17 UNL     1      13.731 120.243 129.862  1.00  0.00     0.233 C 
HETATM   22  N1  UNL     1      13.420 121.501 130.548  1.00  0.00    -0.075 N 
HETATM   23  C18 UNL     1      13.042 121.167 131.873  1.00  0.00     0.233 C 
ATOM     24  H12 UNL     1      14.180 122.179 130.506  1.00  0.00     0.277 HD
ATOM     25  H11 UNL     1      12.721 122.061 130.061  1.00  0.00     0.277 HD
HETATM   26  C19 UNL     1      13.767 120.091 132.537  1.00  0.00     0.037 C 
ENDBRANCH  17  19
ENDBRANCH   7  13
BRANCH   1  27
HETATM   27  C2  UNL     1      16.580 116.247 126.860  1.00  0.00     0.270 C 
HETATM   28  F1  UNL     1      16.199 117.579 126.828  1.00  0.00    -0.203 F 
HETATM   29  F2  UNL     1      17.948 116.119 126.956  1.00  0.00    -0.203 F 
BRANCH  27  30
HETATM   30  C1  UNL     1      16.136 115.620 125.558  1.00  0.00     0.243 C 
BRANCH  30  31
HETATM   31  O1  UNL     1      15.948 116.670 124.657  1.00  0.00    -0.395 OA
ATOM     32  H1  UNL     1      16.812 117.013 124.460  1.00  0.00     0.209 HD
ENDBRANCH  30  31
ENDBRANCH  27  30
ENDBRANCH   1  27
TORSDOF 5
ENDMDL
MODEL 2
REMARK VINA RESULT: -9.217043436      3.297      4.613
REMARK  5 active torsions:
REMARK  status: ('A' for Active; 'I' for Inactive)
REMARK    1  A    between atoms: O1_1  and  C1_3 
REMARK    2  A    between atoms: C1_3  and  C2_4 
REMARK    3  A    between atoms: C2_4  and  C3_7 
REMARK    4  A    between atoms: C9_13  and  C10_14 
REMARK    5  A    between atoms: C14_18  and  C15_19 
ROOT
HETATM    1  C3  UNL     1      18.022 115.707 131.836  1.00  0.00     0.099 C 
HETATM    2  C4  UNL     1      17.700 114.473 130.972  1.00  0.00     0.046 C 
HETATM    3  C5  UNL     1      16.286 114.532 130.454  1.00  0.00     0.188 C 
HETATM    4  C6  UNL     1      15.385 113.493 131.034  1.00  0.00     0.033 C 
HETATM    5  C7  UNL     1      14.748 113.876 132.329  1.00  0.00     0.005 C 
HETATM    6  C8  UNL     1      14.475 115.360 132.484  1.00  0.00     0.047 C 
HETATM    7  C9  UNL     1      15.617 116.219 131.974  1.00  0.00     0.184 C 
HETATM    8  N2  UNL     1      15.808 115.880 130.571  1.00  0.00    -0.055 N 
ATOM      9  H21 UNL     1      14.963 116.036 130.021  1.00  0.00     0.279 HD
ATOM     10  H22 UNL     1      16.420 116.546 130.096  1.00  0.00     0.279 HD
HETATM   11  C21 UNL     1      16.823 115.842 132.763  1.00  0.00     0.221 C 
HETATM   12  F3  UNL     1      17.059 116.525 133.917  1.00  0.00    -0.246 F 
ENDROOT
BRANCH   7  13
HETATM   13  C10 UNL     1      15.224 117.626 132.009  1.00  0.00    -0.019 A 
HETATM   14  C11 UNL     1      15.713 118.583 131.148  1.00  0.00     0.010 A 
HETATM   15  C12 UNL     1      15.297 119.901 131.278  1.00  0.00     0.001 A 
HETATM   16  C13 UNL     1      14.398 120.245 132.255  1.00  0.00     0.007 A 
HETATM   17  C14 UNL     1      13.892 119.309 133.125  1.00  0.00    -0.053 A 
HETATM   18  C20 UNL     1      14.316 118.006 132.988  1.00  0.00     0.017 A 
BRANCH  17  19
HETATM   19  C15 UNL     1      12.831 119.635 134.135  1.00  0.00     0.022 C 
HETATM   20  C16 UNL     1      13.348 119.511 135.509  1.00  0.00     0.037 C 
HETATM   21  C17 UNL     1      13.749 120.900 136.025  1.00  0.00     0.233 C 
HETATM   22  N1  UNL     1      12.473 121.616 136.125  1.00  0.00    -0.075 N 
HETATM   23  C18 UNL     1      12.097 121.977 134.806  1.00  0.00     0.233 C 
ATOM     24  H12 UNL     1      11.753 121.086 136.616  1.00  0.00     0.277 HD
ATOM     25  H11 UNL     1      12.507 122.410 136.763  1.00  0.00     0.277 HD
HETATM   26  C19 UNL     1      12.358 121.021 133.738  1.00  0.00     0.037 C 
ENDBRANCH  17  19
ENDBRANCH   7  13
BRANCH   1  27
HETATM   27  C2  UNL     1      19.213 115.290 132.672  1.00  0.00     0.270 C 
HETATM   28  F1  UNL     1      18.820 114.551 133.776  1.00  0.00    -0.203 F 
HETATM   29  F2  UNL     1      20.058 114.566 131.859  1.00  0.00    -0.203 F 
BRANCH  27  30
HETATM   30  C1  UNL     1      19.965 116.497 133.181  1.00  0.00     0.243 C 
BRANCH  30  31
HETATM   31  O1  UNL     1      19.969 117.429 132.141  1.00  0.00    -0.395 OA
ATOM     32  H1  UNL     1      19.088 117.779 132.090  1.00  0.00     0.209 HD
ENDBRANCH  30  31
ENDBRANCH  27  30
ENDBRANCH   1  27
TORSDOF 5
ENDMDL
MODEL 3
REMARK VINA RESULT: -9.167296245      1.804      2.894
REMARK  5 active torsions:
REMARK  status: ('A' for Active; 'I' for Inactive)
REMARK    1  A    between atoms: O1_1  and  C1_3 
REMARK    2  A    between atoms: C1_3  and  C2_4 
REMARK    3  A    between atoms: C2_4  and  C3_7 
REMARK    4  A    between atoms: C9_13  and  C10_14 
REMARK    5  A    between atoms: C14_18  and  C15_19 
ROOT
HETATM    1  C3  UNL     1      16.472 116.603 127.186  1.00  0.00     0.099 C 
HETATM    2  C4  UNL     1      16.336 115.864 125.841  1.00  0.00     0.046 C 
HETATM    3  C5  UNL     1      16.003 114.410 126.058  1.00  0.00     0.188 C 
HETATM    4  C6  UNL     1      17.097 113.473 125.665  1.00  0.00     0.033 C 
HETATM    5  C7  UNL     1      18.115 113.225 126.730  1.00  0.00     0.005 C 
HETATM    6  C8  UNL     1      17.574 113.289 128.147  1.00  0.00     0.047 C 
HETATM    7  C9  UNL     1      16.602 114.437 128.348  1.00  0.00     0.184 C 
HETATM    8  N2  UNL     1      15.516 114.243 127.398  1.00  0.00    -0.055 N 
ATOM      9  H21 UNL     1      15.050 113.345 127.527  1.00  0.00     0.279 HD
ATOM     10  H22 UNL     1      14.721 114.853 127.595  1.00  0.00     0.279 HD
HETATM   11  C21 UNL     1      17.345 115.689 128.034  1.00  0.00     0.221 C 
HETATM   12  F3  UNL     1      18.004 116.303 129.054  1.00  0.00    -0.246 F 
ENDROOT
BRANCH   7  13
HETATM   13  C10 UNL     1      16.007 114.344 129.680  1.00  0.00    -0.019 A 
HETATM   14  C11 UNL     1      15.398 113.212 130.173  1.00  0.00     0.010 A 
HETATM   15  C12 UNL     1      14.839 113.231 131.444  1.00  0.00     0.001 A 
HETATM   16  C13 UNL     1      14.900 114.370 132.205  1.00  0.00     0.007 A 
HETATM   17  C14 UNL     1      15.505 115.512 131.738  1.00  0.00    -0.053 A 
HETATM   18  C20 UNL     1      16.053 115.481 130.475  1.00  0.00     0.017 A 
BRANCH  17  19
HETATM   19  C15 UNL     1      15.679 116.739 132.585  1.00  0.00     0.022 C 
HETATM   20  C16 UNL     1      16.078 117.897 131.768  1.00  0.00     0.037 C 
HETATM   21  C17 UNL     1      14.837 118.741 131.447  1.00  0.00     0.233 C 
HETATM   22  N1  UNL     1      14.432 119.274 132.752  1.00  0.00    -0.075 N 
HETATM   23  C18 UNL     1      13.797 118.216 133.452  1.00  0.00     0.233 C 
ATOM     24  H12 UNL     1      15.203 119.692 133.272  1.00  0.00     0.277 HD
ATOM     25  H11 UNL     1      13.854 120.111 132.682  1.00  0.00     0.277 HD
HETATM   26  C19 UNL     1      14.353 116.877 133.310  1.00  0.00     0.037 C 
ENDBRANCH  17  19
ENDBRANCH   7  13
BRANCH   1  27
HETATM   27  C2  UNL     1      17.276 117.844 126.861  1.00  0.00     0.270 C 
HETATM   28  F1  UNL     1      18.617 117.668 127.160  1.00  0.00    -0.203 F 
HETATM   29  F2  UNL     1      17.092 118.119 125.523  1.00  0.00    -0.203 F 
BRANCH  27  30
HETATM   30  C1  UNL     1      16.787 119.030 127.660  1.00  0.00     0.243 C 
BRANCH  30  31
HETATM   31  O1  UNL     1      17.166 120.170 126.948  1.00  0.00    -0.395 OA
ATOM     32  H1  UNL     1      18.018 119.982 126.573  1.00  0.00     0.209 HD
ENDBRANCH  30  31
ENDBRANCH  27  30
ENDBRANCH   1  27
TORSDOF 5
ENDMDL
MODEL 4
REMARK VINA RESULT: -9.141944185      2.260      5.486
REMARK  5 active torsions:
REMARK  status: ('A' for Active; 'I' for Inactive)
REMARK    1  A    between atoms: O1_1  and  C1_3 
REMARK    2  A    between atoms: C1_3  and  C2_4 
REMARK    3  A    between atoms: C2_4  and  C3_7 
REMARK    4  A    between atoms: C9_13  and  C10_14 
REMARK    5  A    between atoms: C14_18  and  C15_19 
ROOT
HETATM    1  C3  UNL     1      17.580 116.734 127.635  1.00  0.00     0.099 C 
HETATM    2  C4  UNL     1      18.404 118.033 127.713  1.00  0.00     0.046 C 
HETATM    3  C5  UNL     1      18.153 118.752 129.012  1.00  0.00     0.188 C 
HETATM    4  C6  UNL     1      17.426 120.047 128.857  1.00  0.00     0.033 C 
HETATM    5  C7  UNL     1      15.938 119.925 128.831  1.00  0.00     0.005 C 
HETATM    6  C8  UNL     1      15.384 118.781 129.661  1.00  0.00     0.047 C 
HETATM    7  C9  UNL     1      16.203 117.511 129.522  1.00  0.00     0.184 C 
HETATM    8  N2  UNL     1      17.559 117.833 129.941  1.00  0.00    -0.055 N 
ATOM      9  H21 UNL     1      17.590 118.183 130.899  1.00  0.00     0.279 HD
ATOM     10  H22 UNL     1      18.129 116.996 130.069  1.00  0.00     0.279 HD
HETATM   11  C21 UNL     1      16.184 117.144 128.078  1.00  0.00     0.221 C 
HETATM   12  F3  UNL     1      15.179 116.333 127.648  1.00  0.00    -0.246 F 
ENDROOT
BRANCH   7  13
HETATM   13  C10 UNL     1      15.707 116.506 130.460  1.00  0.00    -0.019 A 
HETATM   14  C11 UNL     1      15.150 116.804 131.683  1.00  0.00     0.010 A 
HETATM   15  C12 UNL     1      14.731 115.776 132.517  1.00  0.00     0.001 A 
HETATM   16  C13 UNL     1      14.866 114.471 132.118  1.00  0.00     0.007 A 
HETATM   17  C14 UNL     1      15.415 114.146 130.902  1.00  0.00    -0.053 A 
HETATM   18  C20 UNL     1      15.830 115.175 130.086  1.00  0.00     0.017 A 
BRANCH  17  19
HETATM   19  C15 UNL     1      15.481 112.734 130.395  1.00  0.00     0.022 C 
HETATM   20  C16 UNL     1      16.332 112.638 129.198  1.00  0.00     0.037 C 
HETATM   21  C17 UNL     1      17.734 112.167 129.610  1.00  0.00     0.233 C 
HETATM   22  N1  UNL     1      17.516 110.793 130.076  1.00  0.00    -0.075 N 
HETATM   23  C18 UNL     1      16.932 110.882 131.365  1.00  0.00     0.233 C 
ATOM     24  H12 UNL     1      16.969 110.231 129.425  1.00  0.00     0.277 HD
ATOM     25  H11 UNL     1      18.363 110.225 130.058  1.00  0.00     0.277 HD
HETATM   26  C19 UNL     1      15.951 111.934 131.596  1.00  0.00     0.037 C 
ENDBRANCH  17  19
ENDBRANCH   7  13
BRANCH   1  27
HETATM   27  C2  UNL     1      17.523 116.404 126.158  1.00  0.00     0.270 C 
HETATM   28  F1  UNL     1      17.106 115.100 125.949  1.00  0.00    -0.203 F 
HETATM   29  F2  UNL     1      16.667 117.306 125.565  1.00  0.00    -0.203 F 
BRANCH  27  30
HETATM   30  C1  UNL     1      18.884 116.552 125.517  1.00  0.00     0.243 C 
BRANCH  30  31
HETATM   31  O1  UNL     1      18.873 115.746 124.377  1.00  0.00    -0.395 OA
ATOM     32  H1  UNL     1      18.751 114.853 124.679  1.00  0.00     0.209 HD
ENDBRANCH  30  31
ENDBRANCH  27  30
ENDBRANCH   1  27
TORSDOF 5
ENDMDL
MODEL 5
REMARK VINA RESULT: -9.060640914      2.335      3.594
REMARK  5 active torsions:
REMARK  status: ('A' for Active; 'I' for Inactive)
REMARK    1  A    between atoms: O1_1  and  C1_3 
REMARK    2  A    between atoms: C1_3  and  C2_4 
REMARK    3  A    between atoms: C2_4  and  C3_7 
REMARK    4  A    between atoms: C9_13  and  C10_14 
REMARK    5  A    between atoms: C14_18  and  C15_19 
ROOT
HETATM    1  C3  UNL     1      15.603 115.044 130.248  1.00  0.00     0.099 C 
HETATM    2  C4  UNL     1      15.369 113.788 131.109  1.00  0.00     0.046 C 
HETATM    3  C5  UNL     1      14.957 114.164 132.509  1.00  0.00     0.188 C 
HETATM    4  C6  UNL     1      15.976 113.834 133.550  1.00  0.00     0.033 C 
HETATM    5  C7  UNL     1      17.017 114.885 133.754  1.00  0.00     0.005 C 
HETATM    6  C8  UNL     1      16.537 116.305 133.513  1.00  0.00     0.047 C 
HETATM    7  C9  UNL     1      15.645 116.418 132.291  1.00  0.00     0.184 C 
HETATM    8  N2  UNL     1      14.513 115.529 132.508  1.00  0.00    -0.055 N 
ATOM      9  H21 UNL     1      13.999 115.765 133.356  1.00  0.00     0.279 HD
ATOM     10  H22 UNL     1      13.766 115.688 131.831  1.00  0.00     0.279 HD
HETATM   11  C21 UNL     1      16.451 115.952 131.127  1.00  0.00     0.221 C 
HETATM   12  F3  UNL     1      17.186 116.882 130.458  1.00  0.00    -0.246 F 
ENDROOT
BRANCH   7  13
HETATM   13  C10 UNL     1      15.098 117.772 132.210  1.00  0.00    -0.019 A 
HETATM   14  C11 UNL     1      15.384 118.657 131.195  1.00  0.00     0.010 A 
HETATM   15  C12 UNL     1      14.835 119.931 131.219  1.00  0.00     0.001 A 
HETATM   16  C13 UNL     1      14.006 120.302 132.247  1.00  0.00     0.007 A 
HETATM   17  C14 UNL     1      13.701 119.437 133.269  1.00  0.00    -0.053 A 
HETATM   18  C20 UNL     1      14.256 118.177 133.235  1.00  0.00     0.017 A 
BRANCH  17  19
HETATM   19  C15 UNL     1      12.717 119.778 134.351  1.00  0.00     0.022 C 
HETATM   20  C16 UNL     1      13.317 119.620 135.686  1.00  0.00     0.037 C 
HETATM   21  C17 UNL     1      13.791 120.989 136.193  1.00  0.00     0.233 C 
HETATM   22  N1  UNL     1      12.545 121.739 136.384  1.00  0.00    -0.075 N 
HETATM   23  C18 UNL     1      12.096 122.130 135.097  1.00  0.00     0.233 C 
ATOM     24  H12 UNL     1      11.844 121.223 136.914  1.00  0.00     0.277 HD
ATOM     25  H11 UNL     1      12.644 122.522 137.029  1.00  0.00     0.277 HD
HETATM   26  C19 UNL     1      12.260 121.183 134.002  1.00  0.00     0.037 C 
ENDBRANCH  17  19
ENDBRANCH   7  13
BRANCH   1  27
HETATM   27  C2  UNL     1      16.468 114.567 129.102  1.00  0.00     0.270 C 
HETATM   28  F1  UNL     1      16.526 115.509 128.088  1.00  0.00    -0.203 F 
HETATM   29  F2  UNL     1      17.721 114.299 129.610  1.00  0.00    -0.203 F 
BRANCH  27  30
HETATM   30  C1  UNL     1      15.918 113.292 128.503  1.00  0.00     0.243 C 
BRANCH  30  31
HETATM   31  O1  UNL     1      15.271 113.658 127.320  1.00  0.00    -0.395 OA
ATOM     32  H1  UNL     1      14.339 113.621 127.501  1.00  0.00     0.209 HD
ENDBRANCH  30  31
ENDBRANCH  27  30
ENDBRANCH   1  27
TORSDOF 5
ENDMDL
