MODEL 1
REMARK VINA RESULT: -8.098042300      0.000      0.000
REMARK  6 active torsions:
REMARK  status: ('A' for Active; 'I' for Inactive)
REMARK    1  A    between atoms: C2_3  and  C3_4 
REMARK    2  A    between atoms: C2_3  and  N4_20 
REMARK    3  A    between atoms: C3_4  and  N2_5 
REMARK    4  A    between atoms: N2_5  and  C4_7 
REMARK    5  A    between atoms: C4_7  and  N3_9 
REMARK    6  A    between atoms: N3_9  and  C5_11 
ROOT
HETATM    1  N1  UNL     1      12.678 121.885 131.233  1.00  0.00    -0.195 NA
HETATM    2  C1  UNL     1      12.850 121.111 132.092  1.00  0.00     0.097 C 
HETATM    3  C2  UNL     1      13.066 120.144 133.174  1.00  0.00     0.346 C 
ENDROOT
BRANCH   3   4
HETATM    4  C3  UNL     1      14.195 119.239 132.801  1.00  0.00     0.173 C 
BRANCH   4   5
HETATM    5  N2  UNL     1      14.345 119.287 131.349  1.00  0.00    -0.364 N 
ATOM      6  H2  UNL     1      13.658 119.800 130.796  1.00  0.00     0.162 HD
BRANCH   5   7
HETATM    7  C4  UNL     1      15.442 118.628 130.674  1.00  0.00     0.172 C 
HETATM    8  S1  UNL     1      16.467 117.842 131.636  1.00  0.00    -0.041 SA
BRANCH   7   9
HETATM    9  N3  UNL     1      15.511 118.732 129.282  1.00  0.00    -0.332 N 
ATOM     10  H3  UNL     1      15.264 119.651 128.915  1.00  0.00     0.168 HD
BRANCH   9  11
HETATM   11  C5  UNL     1      15.860 117.794 128.305  1.00  0.00     0.059 A 
HETATM   12  C6  UNL     1      15.517 116.468 128.294  1.00  0.00     0.055 A 
HETATM   13  C7  UNL     1      15.911 115.590 127.271  1.00  0.00     0.037 A 
HETATM   14 CL1  UNL     1      15.415 113.921 127.361  1.00  0.00    -0.084 Cl
HETATM   15  C8  UNL     1      16.673 116.047 126.227  1.00  0.00     0.049 A 
HETATM   16  C9  UNL     1      17.032 117.378 126.216  1.00  0.00     0.059 A 
HETATM   17 CL2  UNL     1      18.010 118.023 124.900  1.00  0.00    -0.082 Cl
HETATM   18  C10 UNL     1      16.642 118.223 127.216  1.00  0.00     0.082 A 
HETATM   19 CL3  UNL     1      17.144 119.905 127.123  1.00  0.00    -0.080 Cl
ENDBRANCH   9  11
ENDBRANCH   7   9
ENDBRANCH   5   7
ENDBRANCH   4   5
ENDBRANCH   3   4
BRANCH   3  20
HETATM   20  N4  UNL     1      13.245 120.836 134.412  1.00  0.00     0.108 N 
HETATM   21  C11 UNL     1      12.212 121.755 134.757  1.00  0.00     0.274 C 
HETATM   22  C12 UNL     1      11.488 121.191 135.959  1.00  0.00     0.032 C 
HETATM   23  C13 UNL     1      12.271 119.995 136.412  1.00  0.00     0.032 C 
HETATM   24  C14 UNL     1      13.439 119.911 135.478  1.00  0.00     0.274 C 
ENDBRANCH   3  20
TORSDOF 6
ENDMDL
MODEL 2
REMARK VINA RESULT: -7.744009953      2.358      3.444
REMARK  6 active torsions:
REMARK  status: ('A' for Active; 'I' for Inactive)
REMARK    1  A    between atoms: C2_3  and  C3_4 
REMARK    2  A    between atoms: C2_3  and  N4_20 
REMARK    3  A    between atoms: C3_4  and  N2_5 
REMARK    4  A    between atoms: N2_5  and  C4_7 
REMARK    5  A    between atoms: C4_7  and  N3_9 
REMARK    6  A    between atoms: N3_9  and  C5_11 
ROOT
HETATM    1  N1  UNL     1      12.489 121.951 131.252  1.00  0.00    -0.195 NA
HETATM    2  C1  UNL     1      12.728 121.172 132.091  1.00  0.00     0.097 C 
HETATM    3  C2  UNL     1      13.028 120.200 133.148  1.00  0.00     0.346 C 
ENDROOT
BRANCH   3   4
HETATM    4  C3  UNL     1      14.170 119.341 132.710  1.00  0.00     0.173 C 
BRANCH   4   5
HETATM    5  N2  UNL     1      14.148 119.278 131.252  1.00  0.00    -0.364 N 
ATOM      6  H2  UNL     1      13.309 119.578 130.755  1.00  0.00     0.162 HD
BRANCH   5   7
HETATM    7  C4  UNL     1      15.283 118.801 130.492  1.00  0.00     0.172 C 
HETATM    8  S1  UNL     1      15.657 119.679 129.193  1.00  0.00    -0.041 SA
BRANCH   7   9
HETATM    9  N3  UNL     1      15.936 117.651 130.942  1.00  0.00    -0.332 N 
ATOM     10  H3  UNL     1      16.568 117.804 131.727  1.00  0.00     0.168 HD
BRANCH   9  11
HETATM   11  C5  UNL     1      15.873 116.325 130.501  1.00  0.00     0.059 A 
HETATM   12  C6  UNL     1      16.285 115.854 129.283  1.00  0.00     0.055 A 
HETATM   13  C7  UNL     1      16.185 114.502 128.918  1.00  0.00     0.037 A 
HETATM   14 CL1  UNL     1      16.743 114.016 127.339  1.00  0.00    -0.084 Cl
HETATM   15  C8  UNL     1      15.658 113.589 129.793  1.00  0.00     0.049 A 
HETATM   16  C9  UNL     1      15.235 114.039 131.027  1.00  0.00     0.059 A 
HETATM   17 CL2  UNL     1      14.548 112.912 132.194  1.00  0.00    -0.082 Cl
HETATM   18  C10 UNL     1      15.338 115.357 131.370  1.00  0.00     0.082 A 
HETATM   19 CL3  UNL     1      14.775 115.843 132.964  1.00  0.00    -0.080 Cl
ENDBRANCH   9  11
ENDBRANCH   7   9
ENDBRANCH   5   7
ENDBRANCH   4   5
ENDBRANCH   3   4
BRANCH   3  20
HETATM   20  N4  UNL     1      13.240 120.883 134.386  1.00  0.00     0.108 N 
HETATM   21  C11 UNL     1      12.236 121.826 134.748  1.00  0.00     0.274 C 
HETATM   22  C12 UNL     1      11.512 121.276 135.956  1.00  0.00     0.032 C 
HETATM   23  C13 UNL     1      12.269 120.058 136.396  1.00  0.00     0.032 C 
HETATM   24  C14 UNL     1      13.424 119.948 135.446  1.00  0.00     0.274 C 
ENDBRANCH   3  20
TORSDOF 6
ENDMDL
MODEL 3
REMARK VINA RESULT: -7.714707733      3.359      7.803
REMARK  6 active torsions:
REMARK  status: ('A' for Active; 'I' for Inactive)
REMARK    1  A    between atoms: C2_3  and  C3_4 
REMARK    2  A    between atoms: C2_3  and  N4_20 
REMARK    3  A    between atoms: C3_4  and  N2_5 
REMARK    4  A    between atoms: N2_5  and  C4_7 
REMARK    5  A    between atoms: C4_7  and  N3_9 
REMARK    6  A    between atoms: N3_9  and  C5_11 
ROOT
HETATM    1  N1  UNL     1      17.341 119.697 129.972  1.00  0.00    -0.195 NA
HETATM    2  C1  UNL     1      17.109 118.669 129.465  1.00  0.00     0.097 C 
HETATM    3  C2  UNL     1      16.815 117.383 128.823  1.00  0.00     0.346 C 
ENDROOT
BRANCH   3   4
HETATM    4  C3  UNL     1      16.033 116.532 129.771  1.00  0.00     0.173 C 
BRANCH   4   5
HETATM    5  N2  UNL     1      16.302 117.009 131.125  1.00  0.00    -0.364 N 
ATOM      6  H2  UNL     1      17.203 117.443 131.329  1.00  0.00     0.162 HD
BRANCH   5   7
HETATM    7  C4  UNL     1      15.326 116.884 132.185  1.00  0.00     0.172 C 
HETATM    8  S1  UNL     1      14.676 115.419 132.350  1.00  0.00    -0.041 SA
BRANCH   7   9
HETATM    9  N3  UNL     1      15.042 118.018 132.951  1.00  0.00    -0.332 N 
ATOM     10  H3  UNL     1      15.490 118.032 133.867  1.00  0.00     0.168 HD
BRANCH   9  11
HETATM   11  C5  UNL     1      14.248 119.137 132.679  1.00  0.00     0.059 A 
HETATM   12  C6  UNL     1      14.133 119.777 131.473  1.00  0.00     0.055 A 
HETATM   13  C7  UNL     1      13.312 120.899 131.285  1.00  0.00     0.037 A 
HETATM   14 CL1  UNL     1      13.243 121.633 129.704  1.00  0.00    -0.084 Cl
HETATM   15  C8  UNL     1      12.581 121.402 132.330  1.00  0.00     0.049 A 
HETATM   16  C9  UNL     1      12.680 120.775 133.554  1.00  0.00     0.059 A 
HETATM   17 CL2  UNL     1      11.765 121.376 134.935  1.00  0.00    -0.082 Cl
HETATM   18  C10 UNL     1      13.483 119.684 133.726  1.00  0.00     0.082 A 
HETATM   19 CL3  UNL     1      13.549 118.947 135.321  1.00  0.00    -0.080 Cl
ENDBRANCH   9  11
ENDBRANCH   7   9
ENDBRANCH   5   7
ENDBRANCH   4   5
ENDBRANCH   3   4
BRANCH   3  20
HETATM   20  N4  UNL     1      16.179 117.605 127.563  1.00  0.00     0.108 N 
HETATM   21  C11 UNL     1      16.958 118.303 126.595  1.00  0.00     0.274 C 
HETATM   22  C12 UNL     1      17.287 117.326 125.489  1.00  0.00     0.032 C 
HETATM   23  C13 UNL     1      16.500 116.079 125.767  1.00  0.00     0.032 C 
HETATM   24  C14 UNL     1      15.719 116.374 127.011  1.00  0.00     0.274 C 
ENDBRANCH   3  20
TORSDOF 6
ENDMDL
MODEL 4
REMARK VINA RESULT: -7.606340544      1.400      1.626
REMARK  6 active torsions:
REMARK  status: ('A' for Active; 'I' for Inactive)
REMARK    1  A    between atoms: C2_3  and  C3_4 
REMARK    2  A    between atoms: C2_3  and  N4_20 
REMARK    3  A    between atoms: C3_4  and  N2_5 
REMARK    4  A    between atoms: N2_5  and  C4_7 
REMARK    5  A    between atoms: C4_7  and  N3_9 
REMARK    6  A    between atoms: N3_9  and  C5_11 
ROOT
HETATM    1  N1  UNL     1      12.478 121.699 131.245  1.00  0.00    -0.195 NA
HETATM    2  C1  UNL     1      12.770 120.988 132.126  1.00  0.00     0.097 C 
HETATM    3  C2  UNL     1      13.135 120.101 133.236  1.00  0.00     0.346 C 
ENDROOT
BRANCH   3   4
HETATM    4  C3  UNL     1      14.359 119.330 132.861  1.00  0.00     0.173 C 
BRANCH   4   5
HETATM    5  N2  UNL     1      13.974 117.931 132.702  1.00  0.00    -0.364 N 
ATOM      6  H2  UNL     1      13.023 117.647 132.941  1.00  0.00     0.162 HD
BRANCH   5   7
HETATM    7  C4  UNL     1      14.903 116.935 132.214  1.00  0.00     0.172 C 
HETATM    8  S1  UNL     1      14.641 115.435 132.742  1.00  0.00    -0.041 SA
BRANCH   7   9
HETATM    9  N3  UNL     1      15.919 117.354 131.351  1.00  0.00    -0.332 N 
ATOM     10  H3  UNL     1      16.679 117.858 131.808  1.00  0.00     0.168 HD
BRANCH   9  11
HETATM   11  C5  UNL     1      16.073 117.202 129.969  1.00  0.00     0.059 A 
HETATM   12  C6  UNL     1      15.884 116.050 129.253  1.00  0.00     0.055 A 
HETATM   13  C7  UNL     1      16.062 115.983 127.862  1.00  0.00     0.037 A 
HETATM   14 CL1  UNL     1      15.792 114.462 127.054  1.00  0.00    -0.084 Cl
HETATM   15  C8  UNL     1      16.442 117.098 127.161  1.00  0.00     0.049 A 
HETATM   16  C9  UNL     1      16.639 118.270 127.861  1.00  0.00     0.059 A 
HETATM   17 CL2  UNL     1      17.128 119.736 127.014  1.00  0.00    -0.082 Cl
HETATM   18  C10 UNL     1      16.463 118.324 129.214  1.00  0.00     0.082 A 
HETATM   19 CL3  UNL     1      16.736 119.860 130.024  1.00  0.00    -0.080 Cl
ENDBRANCH   9  11
ENDBRANCH   7   9
ENDBRANCH   5   7
ENDBRANCH   4   5
ENDBRANCH   3   4
BRANCH   3  20
HETATM   20  N4  UNL     1      13.258 120.861 134.441  1.00  0.00     0.108 N 
HETATM   21  C11 UNL     1      12.206 121.787 134.694  1.00  0.00     0.274 C 
HETATM   22  C12 UNL     1      11.437 121.282 135.895  1.00  0.00     0.032 C 
HETATM   23  C13 UNL     1      12.210 120.119 136.443  1.00  0.00     0.032 C 
HETATM   24  C14 UNL     1      13.416 119.996 135.563  1.00  0.00     0.274 C 
ENDBRANCH   3  20
TORSDOF 6
ENDMDL
MODEL 5
REMARK VINA RESULT: -7.531854881      2.041      2.558
REMARK  6 active torsions:
REMARK  status: ('A' for Active; 'I' for Inactive)
REMARK    1  A    between atoms: C2_3  and  C3_4 
REMARK    2  A    between atoms: C2_3  and  N4_20 
REMARK    3  A    between atoms: C3_4  and  N2_5 
REMARK    4  A    between atoms: N2_5  and  C4_7 
REMARK    5  A    between atoms: C4_7  and  N3_9 
REMARK    6  A    between atoms: N3_9  and  C5_11 
ROOT
HETATM    1  N1  UNL     1      12.573 121.879 131.339  1.00  0.00    -0.195 NA
HETATM    2  C1  UNL     1      12.746 121.113 132.206  1.00  0.00     0.097 C 
HETATM    3  C2  UNL     1      12.963 120.158 133.298  1.00  0.00     0.346 C 
ENDROOT
BRANCH   3   4
HETATM    4  C3  UNL     1      14.086 119.243 132.929  1.00  0.00     0.173 C 
BRANCH   4   5
HETATM    5  N2  UNL     1      14.878 119.903 131.896  1.00  0.00    -0.364 N 
ATOM      6  H2  UNL     1      15.078 120.900 131.984  1.00  0.00     0.162 HD
BRANCH   5   7
HETATM    7  C4  UNL     1      15.389 119.183 130.749  1.00  0.00     0.172 C 
HETATM    8  S1  UNL     1      14.934 119.763 129.316  1.00  0.00    -0.041 SA
BRANCH   7   9
HETATM    9  N3  UNL     1      16.209 118.076 130.983  1.00  0.00    -0.332 N 
ATOM     10  H3  UNL     1      17.082 118.293 131.464  1.00  0.00     0.168 HD
BRANCH   9  11
HETATM   11  C5  UNL     1      16.040 116.723 130.672  1.00  0.00     0.059 A 
HETATM   12  C6  UNL     1      15.384 115.792 131.432  1.00  0.00     0.055 A 
HETATM   13  C7  UNL     1      15.260 114.448 131.046  1.00  0.00     0.037 A 
HETATM   14 CL1  UNL     1      14.401 113.350 132.093  1.00  0.00    -0.084 Cl
HETATM   15  C8  UNL     1      15.807 114.017 129.865  1.00  0.00     0.049 A 
HETATM   16  C9  UNL     1      16.473 114.936 129.083  1.00  0.00     0.059 A 
HETATM   17 CL2  UNL     1      17.198 114.441 127.555  1.00  0.00    -0.082 Cl
HETATM   18  C10 UNL     1      16.588 116.241 129.469  1.00  0.00     0.082 A 
HETATM   19 CL3  UNL     1      17.454 117.345 128.410  1.00  0.00    -0.080 Cl
ENDBRANCH   9  11
ENDBRANCH   7   9
ENDBRANCH   5   7
ENDBRANCH   4   5
ENDBRANCH   3   4
BRANCH   3  20
HETATM   20  N4  UNL     1      13.152 120.863 134.527  1.00  0.00     0.108 N 
HETATM   21  C11 UNL     1      12.123 121.787 134.870  1.00  0.00     0.274 C 
HETATM   22  C12 UNL     1      11.407 121.236 136.084  1.00  0.00     0.032 C 
HETATM   23  C13 UNL     1      12.193 120.044 136.544  1.00  0.00     0.032 C 
HETATM   24  C14 UNL     1      13.354 119.949 135.601  1.00  0.00     0.274 C 
ENDBRANCH   3  20
TORSDOF 6
ENDMDL
