MODEL 1
REMARK VINA RESULT: -8.185451471      0.000      0.000
REMARK  5 active torsions:
REMARK  status: ('A' for Active; 'I' for Inactive)
REMARK    1  A    between atoms: C3_4  and  N2_5 
REMARK       I    between atoms: N2_5  and  C4_7 
REMARK    2  A    between atoms: C4_7  and  C5_9 
REMARK    3  A    between atoms: C5_9  and  C6_10 
REMARK    4  A    between atoms: C6_10  and  N3_11 
REMARK    5  A    between atoms: C6_10  and  C7_15 
ROOT
HETATM    1  C1  UNL     1      17.421 118.154 125.861  1.00  0.00     0.150 C 
HETATM    2  N1  UNL     1      17.138 118.267 127.250  1.00  0.00    -0.381 N 
HETATM    3  C2  UNL     1      16.764 119.425 128.067  1.00  0.00     0.152 C 
HETATM    4  C3  UNL     1      15.768 118.796 128.987  1.00  0.00     0.139 C 
HETATM    5  C10 UNL     1      16.353 117.458 129.249  1.00  0.00     0.018 A 
HETATM    6  C11 UNL     1      16.195 116.570 130.307  1.00  0.00     0.068 A 
HETATM    7 CL1  UNL     1      15.133 117.057 131.612  1.00  0.00    -0.082 Cl
HETATM    8  C12 UNL     1      16.860 115.386 130.282  1.00  0.00     0.080 A 
HETATM    9 CL2  UNL     1      16.641 114.288 131.630  1.00  0.00    -0.081 Cl
HETATM   10  C13 UNL     1      17.677 115.069 129.224  1.00  0.00     0.084 A 
HETATM   11 CL3  UNL     1      18.516 113.553 129.212  1.00  0.00    -0.080 Cl
HETATM   12  C14 UNL     1      17.835 115.950 128.174  1.00  0.00     0.097 A 
HETATM   13  N4  UNL     1      18.673 115.638 127.076  1.00  0.00    -0.098 NA
HETATM   14  C15 UNL     1      17.167 117.166 128.174  1.00  0.00     0.066 A 
ENDROOT
BRANCH   4  15
HETATM   15  N2  UNL     1      15.470 119.558 130.156  1.00  0.00    -0.351 N 
HETATM   16  C4  UNL     1      14.162 120.085 130.322  1.00  0.00     0.220 C 
HETATM   17  O1  UNL     1      13.265 119.894 129.458  1.00  0.00    -0.274 OA
ATOM     18  H2  UNL     1      16.186 119.721 130.863  1.00  0.00     0.163 HD
BRANCH  16  19
HETATM   19  C5  UNL     1      13.770 120.889 131.514  1.00  0.00     0.135 C 
BRANCH  19  20
HETATM   20  C6  UNL     1      12.316 120.775 131.824  1.00  0.00     0.196 C 
BRANCH  20  21
HETATM   21  N3  UNL     1      11.571 121.681 130.988  1.00  0.00    -0.074 N 
ATOM     22  H33 UNL     1      11.516 122.616 131.390  1.00  0.00     0.274 HD
ATOM     23  H32 UNL     1      12.075 121.918 130.133  1.00  0.00     0.274 HD
ATOM     24  H31 UNL     1      10.650 121.289 130.795  1.00  0.00     0.274 HD
ENDBRANCH  20  21
BRANCH  20  25
HETATM   25  C7  UNL     1      12.094 121.173 133.263  1.00  0.00     0.016 A 
HETATM   26  C8  UNL     1      12.855 120.507 134.346  1.00  0.00     0.007 A 
HETATM   27  C9  UNL     1      13.214 121.954 133.940  1.00  0.00     0.007 A 
ENDBRANCH  20  25
ENDBRANCH  19  20
ENDBRANCH  16  19
ENDBRANCH   4  15
TORSDOF 5
ENDMDL
MODEL 2
REMARK VINA RESULT: -8.070212724      1.324      1.571
REMARK  5 active torsions:
REMARK  status: ('A' for Active; 'I' for Inactive)
REMARK    1  A    between atoms: C3_4  and  N2_5 
REMARK       I    between atoms: N2_5  and  C4_7 
REMARK    2  A    between atoms: C4_7  and  C5_9 
REMARK    3  A    between atoms: C5_9  and  C6_10 
REMARK    4  A    between atoms: C6_10  and  N3_11 
REMARK    5  A    between atoms: C6_10  and  C7_15 
ROOT
HETATM    1  C1  UNL     1      17.371 119.465 127.230  1.00  0.00     0.150 C 
HETATM    2  N1  UNL     1      17.032 118.978 128.523  1.00  0.00    -0.381 N 
HETATM    3  C2  UNL     1      16.637 119.684 129.745  1.00  0.00     0.152 C 
HETATM    4  C3  UNL     1      15.598 118.747 130.273  1.00  0.00     0.139 C 
HETATM    5  C10 UNL     1      16.159 117.412 129.954  1.00  0.00     0.018 A 
HETATM    6  C11 UNL     1      15.949 116.160 130.521  1.00  0.00     0.068 A 
HETATM    7 CL1  UNL     1      14.840 116.068 131.874  1.00  0.00    -0.082 Cl
HETATM    8  C12 UNL     1      16.603 115.084 130.012  1.00  0.00     0.080 A 
HETATM    9 CL2  UNL     1      16.319 113.520 130.749  1.00  0.00    -0.081 Cl
HETATM   10  C13 UNL     1      17.459 115.231 128.948  1.00  0.00     0.084 A 
HETATM   11 CL3  UNL     1      18.283 113.845 128.312  1.00  0.00    -0.080 Cl
HETATM   12  C14 UNL     1      17.669 116.472 128.383  1.00  0.00     0.097 A 
HETATM   13  N4  UNL     1      18.548 116.639 127.286  1.00  0.00    -0.098 NA
HETATM   14  C15 UNL     1      17.013 117.588 128.884  1.00  0.00     0.066 A 
ENDROOT
BRANCH   4  15
HETATM   15  N2  UNL     1      15.260 118.941 131.645  1.00  0.00    -0.351 N 
HETATM   16  C4  UNL     1      14.064 119.634 131.971  1.00  0.00     0.220 C 
HETATM   17  O1  UNL     1      13.300 120.078 131.073  1.00  0.00    -0.274 OA
ATOM     18  H2  UNL     1      15.869 118.587 132.382  1.00  0.00     0.163 HD
BRANCH  16  19
HETATM   19  C5  UNL     1      13.638 119.876 133.378  1.00  0.00     0.135 C 
BRANCH  19  20
HETATM   20  C6  UNL     1      12.928 121.176 133.543  1.00  0.00     0.196 C 
BRANCH  20  21
HETATM   21  N3  UNL     1      13.688 122.224 132.912  1.00  0.00    -0.074 N 
ATOM     22  H33 UNL     1      14.239 121.880 132.126  1.00  0.00     0.274 HD
ATOM     23  H32 UNL     1      13.093 122.876 132.400  1.00  0.00     0.274 HD
ATOM     24  H31 UNL     1      14.264 122.696 133.609  1.00  0.00     0.274 HD
ENDBRANCH  20  21
BRANCH  20  25
HETATM   25  C7  UNL     1      12.826 121.490 135.016  1.00  0.00     0.016 A 
HETATM   26  C8  UNL     1      11.567 121.222 135.750  1.00  0.00     0.007 A 
HETATM   27  C9  UNL     1      12.788 120.303 135.970  1.00  0.00     0.007 A 
ENDBRANCH  20  25
ENDBRANCH  19  20
ENDBRANCH  16  19
ENDBRANCH   4  15
TORSDOF 5
ENDMDL
MODEL 3
REMARK VINA RESULT: -7.986796529      1.679      1.894
REMARK  5 active torsions:
REMARK  status: ('A' for Active; 'I' for Inactive)
REMARK    1  A    between atoms: C3_4  and  N2_5 
REMARK       I    between atoms: N2_5  and  C4_7 
REMARK    2  A    between atoms: C4_7  and  C5_9 
REMARK    3  A    between atoms: C5_9  and  C6_10 
REMARK    4  A    between atoms: C6_10  and  N3_11 
REMARK    5  A    between atoms: C6_10  and  C7_15 
ROOT
HETATM    1  C1  UNL     1      18.312 117.808 127.794  1.00  0.00     0.150 C 
HETATM    2  N1  UNL     1      17.657 118.240 128.980  1.00  0.00    -0.381 N 
HETATM    3  C2  UNL     1      16.978 119.498 129.303  1.00  0.00     0.152 C 
HETATM    4  C3  UNL     1      15.830 118.986 130.112  1.00  0.00     0.139 C 
HETATM    5  C10 UNL     1      16.438 117.879 130.891  1.00  0.00     0.018 A 
HETATM    6  C11 UNL     1      16.080 117.292 132.099  1.00  0.00     0.068 A 
HETATM    7 CL1  UNL     1      14.668 117.932 132.915  1.00  0.00    -0.082 Cl
HETATM    8  C12 UNL     1      16.828 116.267 132.585  1.00  0.00     0.080 A 
HETATM    9 CL2  UNL     1      16.352 115.549 134.110  1.00  0.00    -0.081 Cl
HETATM   10  C13 UNL     1      17.924 115.816 131.889  1.00  0.00     0.084 A 
HETATM   11 CL3  UNL     1      18.865 114.507 132.526  1.00  0.00    -0.080 Cl
HETATM   12  C14 UNL     1      18.280 116.397 130.691  1.00  0.00     0.097 A 
HETATM   13  N4  UNL     1      19.406 115.943 129.962  1.00  0.00    -0.098 NA
HETATM   14  C15 UNL     1      17.534 117.446 130.172  1.00  0.00     0.066 A 
ENDROOT
BRANCH   4  15
HETATM   15  N2  UNL     1      15.164 119.973 130.897  1.00  0.00    -0.351 N 
HETATM   16  C4  UNL     1      13.863 120.395 130.517  1.00  0.00     0.220 C 
HETATM   17  O1  UNL     1      13.290 119.916 129.502  1.00  0.00    -0.274 OA
ATOM     18  H2  UNL     1      15.616 120.370 131.720  1.00  0.00     0.163 HD
BRANCH  16  19
HETATM   19  C5  UNL     1      13.099 121.420 131.283  1.00  0.00     0.135 C 
BRANCH  19  20
HETATM   20  C6  UNL     1      12.358 120.833 132.436  1.00  0.00     0.196 C 
BRANCH  20  21
HETATM   21  N3  UNL     1      10.961 120.723 132.106  1.00  0.00    -0.074 N 
ATOM     22  H33 UNL     1      10.521 121.635 131.987  1.00  0.00     0.274 HD
ATOM     23  H32 UNL     1      10.815 120.365 131.162  1.00  0.00     0.274 HD
ATOM     24  H31 UNL     1      10.487 120.156 132.810  1.00  0.00     0.274 HD
ENDBRANCH  20  21
BRANCH  20  25
HETATM   25  C7  UNL     1      12.491 121.760 133.620  1.00  0.00     0.016 A 
HETATM   26  C8  UNL     1      11.802 121.446 134.894  1.00  0.00     0.007 A 
HETATM   27  C9  UNL     1      13.333 121.265 134.790  1.00  0.00     0.007 A 
ENDBRANCH  20  25
ENDBRANCH  19  20
ENDBRANCH  16  19
ENDBRANCH   4  15
TORSDOF 5
ENDMDL
MODEL 4
REMARK VINA RESULT: -7.770810662      1.543      1.884
REMARK  5 active torsions:
REMARK  status: ('A' for Active; 'I' for Inactive)
REMARK    1  A    between atoms: C3_4  and  N2_5 
REMARK       I    between atoms: N2_5  and  C4_7 
REMARK    2  A    between atoms: C4_7  and  C5_9 
REMARK    3  A    between atoms: C5_9  and  C6_10 
REMARK    4  A    between atoms: C6_10  and  N3_11 
REMARK    5  A    between atoms: C6_10  and  C7_15 
ROOT
HETATM    1  C1  UNL     1      16.675 118.350 127.083  1.00  0.00     0.150 C 
HETATM    2  N1  UNL     1      16.443 118.475 128.481  1.00  0.00    -0.381 N 
HETATM    3  C2  UNL     1      16.325 119.660 129.336  1.00  0.00     0.152 C 
HETATM    4  C3  UNL     1      15.238 119.217 130.262  1.00  0.00     0.139 C 
HETATM    5  C10 UNL     1      15.546 117.781 130.475  1.00  0.00     0.018 A 
HETATM    6  C11 UNL     1      15.230 116.912 131.513  1.00  0.00     0.068 A 
HETATM    7 CL1  UNL     1      14.310 117.563 132.855  1.00  0.00    -0.082 Cl
HETATM    8  C12 UNL     1      15.641 115.619 131.442  1.00  0.00     0.080 A 
HETATM    9 CL2  UNL     1      15.229 114.548 132.765  1.00  0.00    -0.081 Cl
HETATM   10  C13 UNL     1      16.359 115.177 130.358  1.00  0.00     0.084 A 
HETATM   11 CL3  UNL     1      16.875 113.524 130.287  1.00  0.00    -0.080 Cl
HETATM   12  C14 UNL     1      16.674 116.038 129.328  1.00  0.00     0.097 A 
HETATM   13  N4  UNL     1      17.413 115.597 128.203  1.00  0.00    -0.098 NA
HETATM   14  C15 UNL     1      16.266 117.364 129.375  1.00  0.00     0.066 A 
ENDROOT
BRANCH   4  15
HETATM   15  N2  UNL     1      15.120 119.987 131.457  1.00  0.00    -0.351 N 
HETATM   16  C4  UNL     1      13.875 120.596 131.765  1.00  0.00     0.220 C 
HETATM   17  O1  UNL     1      12.879 120.470 131.005  1.00  0.00    -0.274 OA
ATOM     18  H2  UNL     1      15.919 120.099 132.081  1.00  0.00     0.163 HD
BRANCH  16  19
HETATM   19  C5  UNL     1      13.669 121.415 132.994  1.00  0.00     0.135 C 
BRANCH  19  20
HETATM   20  C6  UNL     1      12.599 120.862 133.873  1.00  0.00     0.196 C 
BRANCH  20  21
HETATM   21  N3  UNL     1      11.766 121.935 134.351  1.00  0.00    -0.074 N 
ATOM     22  H33 UNL     1      11.975 122.820 133.888  1.00  0.00     0.274 HD
ATOM     23  H32 UNL     1      10.797 121.836 134.048  1.00  0.00     0.274 HD
ATOM     24  H31 UNL     1      11.846 122.004 135.366  1.00  0.00     0.274 HD
ENDBRANCH  20  21
BRANCH  20  25
HETATM   25  C7  UNL     1      13.245 120.200 135.065  1.00  0.00     0.016 A 
HETATM   26  C8  UNL     1      13.609 121.001 136.257  1.00  0.00     0.007 A 
HETATM   27  C9  UNL     1      12.389 120.054 136.318  1.00  0.00     0.007 A 
ENDBRANCH  20  25
ENDBRANCH  19  20
ENDBRANCH  16  19
ENDBRANCH   4  15
TORSDOF 5
ENDMDL
MODEL 5
REMARK VINA RESULT: -7.725725143      1.969      2.444
REMARK  5 active torsions:
REMARK  status: ('A' for Active; 'I' for Inactive)
REMARK    1  A    between atoms: C3_4  and  N2_5 
REMARK       I    between atoms: N2_5  and  C4_7 
REMARK    2  A    between atoms: C4_7  and  C5_9 
REMARK    3  A    between atoms: C5_9  and  C6_10 
REMARK    4  A    between atoms: C6_10  and  N3_11 
REMARK    5  A    between atoms: C6_10  and  C7_15 
ROOT
HETATM    1  C1  UNL     1      17.519 119.376 128.703  1.00  0.00     0.150 C 
HETATM    2  N1  UNL     1      16.838 119.119 129.925  1.00  0.00    -0.381 N 
HETATM    3  C2  UNL     1      16.005 119.985 130.765  1.00  0.00     0.152 C 
HETATM    4  C3  UNL     1      14.953 119.014 131.194  1.00  0.00     0.139 C 
HETATM    5  C10 UNL     1      15.718 117.759 131.396  1.00  0.00     0.018 A 
HETATM    6  C11 UNL     1      15.467 116.637 132.178  1.00  0.00     0.068 A 
HETATM    7 CL1  UNL     1      14.000 116.639 133.136  1.00  0.00    -0.082 Cl
HETATM    8  C12 UNL     1      16.354 115.608 132.164  1.00  0.00     0.080 A 
HETATM    9 CL2  UNL     1      16.010 114.209 133.160  1.00  0.00    -0.081 Cl
HETATM   10  C13 UNL     1      17.484 115.676 131.387  1.00  0.00     0.084 A 
HETATM   11 CL3  UNL     1      18.604 114.353 131.384  1.00  0.00    -0.080 Cl
HETATM   12  C14 UNL     1      17.736 116.788 130.611  1.00  0.00     0.097 A 
HETATM   13  N4  UNL     1      18.896 116.873 129.804  1.00  0.00    -0.098 NA
HETATM   14  C15 UNL     1      16.846 117.853 130.606  1.00  0.00     0.066 A 
ENDROOT
BRANCH   4  15
HETATM   15  N2  UNL     1      14.178 119.429 132.318  1.00  0.00    -0.351 N 
HETATM   16  C4  UNL     1      13.109 120.342 132.120  1.00  0.00     0.220 C 
HETATM   17  O1  UNL     1      12.834 120.790 130.976  1.00  0.00    -0.274 OA
ATOM     18  H2  UNL     1      14.390 119.074 133.251  1.00  0.00     0.163 HD
BRANCH  16  19
HETATM   19  C5  UNL     1      12.252 120.823 133.241  1.00  0.00     0.135 C 
BRANCH  19  20
HETATM   20  C6  UNL     1      12.830 122.011 133.931  1.00  0.00     0.196 C 
BRANCH  20  21
HETATM   21  N3  UNL     1      13.988 122.471 133.209  1.00  0.00    -0.074 N 
ATOM     22  H33 UNL     1      14.829 122.466 133.787  1.00  0.00     0.274 HD
ATOM     23  H32 UNL     1      14.292 121.802 132.502  1.00  0.00     0.274 HD
ATOM     24  H31 UNL     1      13.800 123.392 132.812  1.00  0.00     0.274 HD
ENDBRANCH  20  21
BRANCH  20  25
HETATM   25  C7  UNL     1      13.271 121.600 135.315  1.00  0.00     0.016 A 
HETATM   26  C8  UNL     1      12.266 121.228 136.338  1.00  0.00     0.007 A 
HETATM   27  C9  UNL     1      13.122 120.127 135.675  1.00  0.00     0.007 A 
ENDBRANCH  20  25
ENDBRANCH  19  20
ENDBRANCH  16  19
ENDBRANCH   4  15
TORSDOF 5
ENDMDL
