MODEL 1
REMARK VINA RESULT: -8.662410780      0.000      0.000
REMARK  7 active torsions:
REMARK  status: ('A' for Active; 'I' for Inactive)
REMARK    1  A    between atoms: C2_2  and  C4_4 
REMARK    2  A    between atoms: C4_4  and  C5_5 
REMARK    3  A    between atoms: C4_4  and  C18_30 
REMARK    4  A    between atoms: C5_5  and  C6_6 
REMARK    5  A    between atoms: C8_12  and  N3_13 
REMARK    6  A    between atoms: C10_18  and  N5_19 
REMARK    7  A    between atoms: N5_19  and  C11_21 
ROOT
HETATM    1  C6  UNL     1      15.617 119.357 129.060  1.00  0.00     0.084 A 
HETATM    2  N1  UNL     1      14.807 120.406 129.274  1.00  0.00    -0.330 N 
ATOM      3  H1  UNL     1      14.624 121.152 128.602  1.00  0.00     0.168 HD
HETATM    4  C7  UNL     1      14.266 120.326 130.527  1.00  0.00     0.153 A 
HETATM    5  N2  UNL     1      13.419 121.114 131.191  1.00  0.00    -0.174 N 
ATOM      6  H2  UNL     1      13.055 121.960 130.753  1.00  0.00     0.186 HD
HETATM    7  C8  UNL     1      13.049 120.785 132.436  1.00  0.00     0.681 A 
HETATM    8  N4  UNL     1      13.534 119.684 132.982  1.00  0.00    -0.175 N 
ATOM      9  H4  UNL     1      13.238 119.455 133.931  1.00  0.00     0.186 HD
HETATM   10  C10 UNL     1      14.410 118.823 132.361  1.00  0.00     0.148 A 
HETATM   11  C17 UNL     1      14.790 119.173 131.064  1.00  0.00     0.123 A 
HETATM   12  N6  UNL     1      15.602 118.582 130.191  1.00  0.00    -0.340 N 
ATOM     13  H6  UNL     1      16.118 117.714 130.337  1.00  0.00     0.167 HD
ENDROOT
BRANCH   1  14
HETATM   14  C5  UNL     1      16.411 119.015 127.867  1.00  0.00     0.094 C 
BRANCH  14  15
HETATM   15  C4  UNL     1      16.723 117.554 127.750  1.00  0.00     0.128 C 
BRANCH  15  16
HETATM   16  C2  UNL     1      16.757 117.170 126.279  1.00  0.00    -0.080 C 
HETATM   17  C1  UNL     1      16.053 116.122 125.901  1.00  0.00     0.014 C 
HETATM   18  C3  UNL     1      17.547 117.933 125.288  1.00  0.00     0.043 C 
ENDBRANCH  15  16
BRANCH  15  19
HETATM   19  C18 UNL     1      18.023 117.125 128.366  1.00  0.00     0.395 C 
HETATM   20  F1  UNL     1      18.857 118.267 128.278  1.00  0.00    -0.170 F 
HETATM   21  F2  UNL     1      17.908 116.676 129.643  1.00  0.00    -0.170 F 
HETATM   22  F3  UNL     1      18.700 116.198 127.573  1.00  0.00    -0.170 F 
ENDBRANCH  15  19
ENDBRANCH  14  15
ENDBRANCH   1  14
BRANCH  10  23
HETATM   23  N5  UNL     1      14.792 117.819 132.982  1.00  0.00    -0.369 N 
ATOM     24  H5  UNL     1      15.721 118.022 133.350  1.00  0.00     0.161 HD
BRANCH  23  25
HETATM   25  C11 UNL     1      14.464 116.547 133.371  1.00  0.00     0.083 C 
HETATM   26  C12 UNL     1      15.200 116.011 134.585  1.00  0.00     0.025 C 
HETATM   27  C13 UNL     1      16.629 115.664 134.284  1.00  0.00     0.002 C 
HETATM   28  C14 UNL     1      16.639 114.611 133.176  1.00  0.00     0.000 C 
HETATM   29  C15 UNL     1      16.110 115.321 131.941  1.00  0.00     0.002 C 
HETATM   30  C16 UNL     1      14.656 115.596 132.182  1.00  0.00     0.025 C 
ENDBRANCH  23  25
ENDBRANCH  10  23
BRANCH   7  31
HETATM   31  N3  UNL     1      12.209 121.562 133.101  1.00  0.00    -0.230 N 
HETATM   32  C9  UNL     1      12.217 121.508 134.550  1.00  0.00     0.165 C 
ATOM     33  H3  UNL     1      11.570 122.184 132.606  1.00  0.00     0.177 HD
ENDBRANCH   7  31
TORSDOF 7
ENDMDL
MODEL 2
REMARK VINA RESULT: -8.497762198      4.404      7.715
REMARK  7 active torsions:
REMARK  status: ('A' for Active; 'I' for Inactive)
REMARK    1  A    between atoms: C2_2  and  C4_4 
REMARK    2  A    between atoms: C4_4  and  C5_5 
REMARK    3  A    between atoms: C4_4  and  C18_30 
REMARK    4  A    between atoms: C5_5  and  C6_6 
REMARK    5  A    between atoms: C8_12  and  N3_13 
REMARK    6  A    between atoms: C10_18  and  N5_19 
REMARK    7  A    between atoms: N5_19  and  C11_21 
ROOT
HETATM    1  C6  UNL     1      12.450 120.997 134.681  1.00  0.00     0.084 A 
HETATM    2  N1  UNL     1      12.480 121.643 133.504  1.00  0.00    -0.330 N 
ATOM      3  H1  UNL     1      12.032 122.540 133.316  1.00  0.00     0.168 HD
HETATM    4  C7  UNL     1      13.200 120.917 132.596  1.00  0.00     0.153 A 
HETATM    5  N2  UNL     1      13.509 121.134 131.317  1.00  0.00    -0.174 N 
ATOM      6  H2  UNL     1      13.187 121.980 130.847  1.00  0.00     0.186 HD
HETATM    7  C8  UNL     1      14.246 120.232 130.654  1.00  0.00     0.681 A 
HETATM    8  N4  UNL     1      14.651 119.143 131.284  1.00  0.00    -0.175 N 
ATOM      9  H4  UNL     1      15.211 118.472 130.757  1.00  0.00     0.186 HD
HETATM   10  C10 UNL     1      14.373 118.852 132.599  1.00  0.00     0.148 A 
HETATM   11  C17 UNL     1      13.605 119.796 133.283  1.00  0.00     0.123 A 
HETATM   12  N6  UNL     1      13.160 119.833 134.536  1.00  0.00    -0.340 N 
ATOM     13  H6  UNL     1      13.319 119.127 135.255  1.00  0.00     0.167 HD
ENDROOT
BRANCH   1  14
HETATM   14  C5  UNL     1      11.803 121.387 135.945  1.00  0.00     0.094 C 
BRANCH  14  15
HETATM   15  C4  UNL     1      12.456 120.801 137.161  1.00  0.00     0.128 C 
BRANCH  15  16
HETATM   16  C2  UNL     1      13.393 121.833 137.768  1.00  0.00    -0.080 C 
HETATM   17  C1  UNL     1      14.558 122.026 137.181  1.00  0.00     0.014 C 
HETATM   18  C3  UNL     1      13.031 122.607 138.975  1.00  0.00     0.043 C 
ENDBRANCH  15  16
BRANCH  15  19
HETATM   19  C18 UNL     1      11.514 120.347 138.238  1.00  0.00     0.395 C 
HETATM   20  F1  UNL     1      11.495 118.935 138.127  1.00  0.00    -0.170 F 
HETATM   21  F2  UNL     1      11.863 120.756 139.485  1.00  0.00    -0.170 F 
HETATM   22  F3  UNL     1      10.190 120.688 137.956  1.00  0.00    -0.170 F 
ENDBRANCH  15  19
ENDBRANCH  14  15
ENDBRANCH   1  14
BRANCH  10  23
HETATM   23  N5  UNL     1      14.813 117.794 133.075  1.00  0.00    -0.369 N 
ATOM     24  H5  UNL     1      15.810 117.927 133.248  1.00  0.00     0.161 HD
BRANCH  23  25
HETATM   25  C11 UNL     1      14.495 116.518 133.462  1.00  0.00     0.083 C 
HETATM   26  C12 UNL     1      15.270 115.968 134.645  1.00  0.00     0.025 C 
HETATM   27  C13 UNL     1      16.687 115.621 134.293  1.00  0.00     0.002 C 
HETATM   28  C14 UNL     1      16.658 114.580 133.174  1.00  0.00     0.000 C 
HETATM   29  C15 UNL     1      16.090 115.304 131.965  1.00  0.00     0.002 C 
HETATM   30  C16 UNL     1      14.645 115.579 132.257  1.00  0.00     0.025 C 
ENDBRANCH  23  25
ENDBRANCH  10  23
BRANCH   7  31
HETATM   31  N3  UNL     1      14.557 120.440 129.384  1.00  0.00    -0.230 N 
HETATM   32  C9  UNL     1      15.652 119.684 128.808  1.00  0.00     0.165 C 
ATOM     33  H3  UNL     1      14.038 121.117 128.824  1.00  0.00     0.177 HD
ENDBRANCH   7  31
TORSDOF 7
ENDMDL
MODEL 3
REMARK VINA RESULT: -8.386794159      0.890      1.230
REMARK  7 active torsions:
REMARK  status: ('A' for Active; 'I' for Inactive)
REMARK    1  A    between atoms: C2_2  and  C4_4 
REMARK    2  A    between atoms: C4_4  and  C5_5 
REMARK    3  A    between atoms: C4_4  and  C18_30 
REMARK    4  A    between atoms: C5_5  and  C6_6 
REMARK    5  A    between atoms: C8_12  and  N3_13 
REMARK    6  A    between atoms: C10_18  and  N5_19 
REMARK    7  A    between atoms: N5_19  and  C11_21 
ROOT
HETATM    1  C6  UNL     1      15.194 119.119 129.387  1.00  0.00     0.084 A 
HETATM    2  N1  UNL     1      14.489 120.236 129.630  1.00  0.00    -0.330 N 
ATOM      3  H1  UNL     1      14.286 120.963 128.943  1.00  0.00     0.168 HD
HETATM    4  C7  UNL     1      14.083 120.253 130.935  1.00  0.00     0.153 A 
HETATM    5  N2  UNL     1      13.372 121.131 131.643  1.00  0.00    -0.174 N 
ATOM      6  H2  UNL     1      13.022 121.982 131.203  1.00  0.00     0.186 HD
HETATM    7  C8  UNL     1      13.119 120.887 132.936  1.00  0.00     0.681 A 
HETATM    8  N4  UNL     1      13.582 119.778 133.485  1.00  0.00    -0.175 N 
ATOM      9  H4  UNL     1      13.375 119.615 134.470  1.00  0.00     0.186 HD
HETATM   10  C10 UNL     1      14.321 118.827 132.820  1.00  0.00     0.148 A 
HETATM   11  C17 UNL     1      14.581 119.088 131.474  1.00  0.00     0.123 A 
HETATM   12  N6  UNL     1      15.249 118.399 130.553  1.00  0.00    -0.340 N 
ATOM     13  H6  UNL     1      15.716 117.502 130.688  1.00  0.00     0.167 HD
ENDROOT
BRANCH   1  14
HETATM   14  C5  UNL     1      15.827 118.667 128.137  1.00  0.00     0.094 C 
BRANCH  14  15
HETATM   15  C4  UNL     1      16.802 117.544 128.327  1.00  0.00     0.128 C 
BRANCH  15  16
HETATM   16  C2  UNL     1      16.151 116.242 127.889  1.00  0.00    -0.080 C 
HETATM   17  C1  UNL     1      16.060 115.270 128.776  1.00  0.00     0.014 C 
HETATM   18  C3  UNL     1      15.632 116.048 126.517  1.00  0.00     0.043 C 
ENDBRANCH  15  16
BRANCH  15  19
HETATM   19  C18 UNL     1      18.096 117.685 127.581  1.00  0.00     0.395 C 
HETATM   20  F1  UNL     1      18.883 118.546 128.385  1.00  0.00    -0.170 F 
HETATM   21  F2  UNL     1      18.721 116.506 127.331  1.00  0.00    -0.170 F 
HETATM   22  F3  UNL     1      17.947 118.426 126.407  1.00  0.00    -0.170 F 
ENDBRANCH  15  19
ENDBRANCH  14  15
ENDBRANCH   1  14
BRANCH  10  23
HETATM   23  N5  UNL     1      14.698 117.826 133.450  1.00  0.00    -0.369 N 
ATOM     24  H5  UNL     1      15.641 118.014 133.789  1.00  0.00     0.161 HD
BRANCH  23  25
HETATM   25  C11 UNL     1      14.353 116.568 133.871  1.00  0.00     0.083 C 
HETATM   26  C12 UNL     1      15.132 116.025 135.054  1.00  0.00     0.025 C 
HETATM   27  C13 UNL     1      16.533 115.631 134.686  1.00  0.00     0.002 C 
HETATM   28  C14 UNL     1      16.457 114.566 133.593  1.00  0.00     0.000 C 
HETATM   29  C15 UNL     1      15.888 115.277 132.377  1.00  0.00     0.002 C 
HETATM   30  C16 UNL     1      14.457 115.598 132.686  1.00  0.00     0.025 C 
ENDBRANCH  23  25
ENDBRANCH  10  23
BRANCH   7  31
HETATM   31  N3  UNL     1      12.413 121.754 133.645  1.00  0.00    -0.230 N 
HETATM   32  C9  UNL     1      12.038 121.397 134.999  1.00  0.00     0.165 C 
ATOM     33  H3  UNL     1      12.139 122.653 133.247  1.00  0.00     0.177 HD
ENDBRANCH   7  31
TORSDOF 7
ENDMDL
MODEL 4
REMARK VINA RESULT: -8.357179914      3.308      6.427
REMARK  7 active torsions:
REMARK  status: ('A' for Active; 'I' for Inactive)
REMARK    1  A    between atoms: C2_2  and  C4_4 
REMARK    2  A    between atoms: C4_4  and  C5_5 
REMARK    3  A    between atoms: C4_4  and  C18_30 
REMARK    4  A    between atoms: C5_5  and  C6_6 
REMARK    5  A    between atoms: C8_12  and  N3_13 
REMARK    6  A    between atoms: C10_18  and  N5_19 
REMARK    7  A    between atoms: N5_19  and  C11_21 
ROOT
HETATM    1  C6  UNL     1      15.507 119.657 130.684  1.00  0.00     0.084 A 
HETATM    2  N1  UNL     1      15.870 120.158 129.493  1.00  0.00    -0.330 N 
ATOM      3  H1  UNL     1      15.869 121.149 129.248  1.00  0.00     0.168 HD
HETATM    4  C7  UNL     1      16.243 119.142 128.657  1.00  0.00     0.153 A 
HETATM    5  N2  UNL     1      16.675 119.131 127.395  1.00  0.00    -0.174 N 
ATOM      6  H2  UNL     1      16.777 120.005 126.880  1.00  0.00     0.186 HD
HETATM    7  C8  UNL     1      16.975 117.963 126.810  1.00  0.00     0.681 A 
HETATM    8  N4  UNL     1      16.835 116.844 127.498  1.00  0.00    -0.175 N 
ATOM      9  H4  UNL     1      17.070 115.968 127.031  1.00  0.00     0.186 HD
HETATM   10  C10 UNL     1      16.396 116.776 128.800  1.00  0.00     0.148 A 
HETATM   11  C17 UNL     1      16.086 117.997 129.402  1.00  0.00     0.123 A 
HETATM   12  N6  UNL     1      15.644 118.294 130.622  1.00  0.00    -0.340 N 
ATOM     13  H6  UNL     1      15.445 117.630 131.371  1.00  0.00     0.167 HD
ENDROOT
BRANCH   1  14
HETATM   14  C5  UNL     1      15.037 120.359 131.890  1.00  0.00     0.094 C 
BRANCH  14  15
HETATM   15  C4  UNL     1      13.640 119.994 132.293  1.00  0.00     0.128 C 
BRANCH  15  16
HETATM   16  C2  UNL     1      13.682 119.276 133.633  1.00  0.00    -0.080 C 
HETATM   17  C1  UNL     1      13.963 117.988 133.633  1.00  0.00     0.014 C 
HETATM   18  C3  UNL     1      13.419 119.980 134.908  1.00  0.00     0.043 C 
ENDBRANCH  15  16
BRANCH  15  19
HETATM   19  C18 UNL     1      12.687 121.146 132.419  1.00  0.00     0.395 C 
HETATM   20  F1  UNL     1      12.559 121.653 131.103  1.00  0.00    -0.170 F 
HETATM   21  F2  UNL     1      11.485 120.813 132.957  1.00  0.00    -0.170 F 
HETATM   22  F3  UNL     1      13.254 122.224 133.102  1.00  0.00    -0.170 F 
ENDBRANCH  15  19
ENDBRANCH  14  15
ENDBRANCH   1  14
BRANCH  10  23
HETATM   23  N5  UNL     1      16.308 115.660 129.337  1.00  0.00    -0.369 N 
ATOM     24  H5  UNL     1      15.525 115.172 128.902  1.00  0.00     0.161 HD
BRANCH  23  25
HETATM   25  C11 UNL     1      16.843 114.822 130.280  1.00  0.00     0.083 C 
HETATM   26  C12 UNL     1      16.713 113.337 130.001  1.00  0.00     0.025 C 
HETATM   27  C13 UNL     1      15.311 112.836 130.198  1.00  0.00     0.002 C 
HETATM   28  C14 UNL     1      14.902 113.121 131.643  1.00  0.00     0.000 C 
HETATM   29  C15 UNL     1      14.826 114.635 131.748  1.00  0.00     0.002 C 
HETATM   30  C16 UNL     1      16.229 115.153 131.647  1.00  0.00     0.025 C 
ENDBRANCH  23  25
ENDBRANCH  10  23
BRANCH   7  31
HETATM   31  N3  UNL     1      17.404 117.944 125.558  1.00  0.00    -0.230 N 
HETATM   32  C9  UNL     1      18.519 117.079 125.223  1.00  0.00     0.165 C 
ATOM     33  H3  UNL     1      16.961 118.524 124.846  1.00  0.00     0.177 HD
ENDBRANCH   7  31
TORSDOF 7
ENDMDL
MODEL 5
REMARK VINA RESULT: -8.314378003      3.106      6.879
REMARK  7 active torsions:
REMARK  status: ('A' for Active; 'I' for Inactive)
REMARK    1  A    between atoms: C2_2  and  C4_4 
REMARK    2  A    between atoms: C4_4  and  C5_5 
REMARK    3  A    between atoms: C4_4  and  C18_30 
REMARK    4  A    between atoms: C5_5  and  C6_6 
REMARK    5  A    between atoms: C8_12  and  N3_13 
REMARK    6  A    between atoms: C10_18  and  N5_19 
REMARK    7  A    between atoms: N5_19  and  C11_21 
ROOT
HETATM    1  C6  UNL     1      14.637 118.737 132.291  1.00  0.00     0.084 A 
HETATM    2  N1  UNL     1      14.131 117.733 133.025  1.00  0.00    -0.330 N 
ATOM      3  H1  UNL     1      13.534 117.848 133.844  1.00  0.00     0.168 HD
HETATM    4  C7  UNL     1      14.538 116.533 132.510  1.00  0.00     0.153 A 
HETATM    5  N2  UNL     1      14.304 115.273 132.878  1.00  0.00    -0.174 N 
ATOM      6  H2  UNL     1      13.719 115.075 133.690  1.00  0.00     0.186 HD
HETATM    7  C8  UNL     1      14.843 114.268 132.174  1.00  0.00     0.681 A 
HETATM    8  N4  UNL     1      15.598 114.549 131.126  1.00  0.00    -0.175 N 
ATOM      9  H4  UNL     1      15.997 113.767 130.607  1.00  0.00     0.186 HD
HETATM   10  C10 UNL     1      15.884 115.821 130.686  1.00  0.00     0.148 A 
HETATM   11  C17 UNL     1      15.318 116.861 131.425  1.00  0.00     0.123 A 
HETATM   12  N6  UNL     1      15.385 118.183 131.284  1.00  0.00    -0.340 N 
ATOM     13  H6  UNL     1      15.896 118.689 130.561  1.00  0.00     0.167 HD
ENDROOT
BRANCH   1  14
HETATM   14  C5  UNL     1      14.474 120.191 132.458  1.00  0.00     0.094 C 
BRANCH  14  15
HETATM   15  C4  UNL     1      13.050 120.620 132.646  1.00  0.00     0.128 C 
BRANCH  15  16
HETATM   16  C2  UNL     1      12.985 121.652 133.760  1.00  0.00    -0.080 C 
HETATM   17  C1  UNL     1      12.002 121.555 134.633  1.00  0.00     0.014 C 
HETATM   18  C3  UNL     1      13.981 122.739 133.880  1.00  0.00     0.043 C 
ENDBRANCH  15  16
BRANCH  15  19
HETATM   19  C18 UNL     1      12.393 121.211 131.433  1.00  0.00     0.395 C 
HETATM   20  F1  UNL     1      12.967 120.519 130.339  1.00  0.00    -0.170 F 
HETATM   21  F2  UNL     1      11.038 121.120 131.439  1.00  0.00    -0.170 F 
HETATM   22  F3  UNL     1      12.801 122.526 131.204  1.00  0.00    -0.170 F 
ENDBRANCH  15  19
ENDBRANCH  14  15
ENDBRANCH   1  14
BRANCH  10  23
HETATM   23  N5  UNL     1      16.607 115.951 129.687  1.00  0.00    -0.369 N 
ATOM     24  H5  UNL     1      17.535 116.221 130.013  1.00  0.00     0.161 HD
BRANCH  23  25
HETATM   25  C11 UNL     1      16.658 115.877 128.319  1.00  0.00     0.083 C 
HETATM   26  C12 UNL     1      17.996 116.205 127.683  1.00  0.00     0.025 C 
HETATM   27  C13 UNL     1      18.305 117.674 127.721  1.00  0.00     0.002 C 
HETATM   28  C14 UNL     1      17.192 118.413 126.978  1.00  0.00     0.000 C 
HETATM   29  C15 UNL     1      15.947 118.225 127.827  1.00  0.00     0.002 C 
HETATM   30  C16 UNL     1      15.564 116.778 127.730  1.00  0.00     0.025 C 
ENDBRANCH  23  25
ENDBRANCH  10  23
BRANCH   7  31
HETATM   31  N3  UNL     1      14.616 113.015 132.534  1.00  0.00    -0.230 N 
HETATM   32  C9  UNL     1      15.655 112.301 133.249  1.00  0.00     0.165 C 
ATOM     33  H3  UNL     1      13.729 112.561 132.311  1.00  0.00     0.177 HD
ENDBRANCH   7  31
TORSDOF 7
ENDMDL
