MODEL 1
REMARK VINA RESULT: -7.894509594      0.000      0.000
REMARK  7 active torsions:
REMARK  status: ('A' for Active; 'I' for Inactive)
REMARK    1  A    between atoms: C2_2  and  C3_3 
REMARK    2  A    between atoms: C3_3  and  C5_5 
REMARK    3  A    between atoms: C5_5  and  N1_6 
REMARK    4  A    between atoms: N1_6  and  C6_8 
REMARK    5  A    between atoms: C8_13  and  C9_14 
REMARK    6  A    between atoms: N3_15  and  C10_17 
REMARK    7  A    between atoms: C16_23  and  O2_24 
ROOT
HETATM    1  C6  UNL     1      98.464 240.805  -9.221  1.00  0.00     0.173 C 
HETATM    2  N2  UNL     1      97.769 239.668  -9.357  1.00  0.00    -0.304 N 
ATOM      3  H2  UNL     1      97.274 239.570 -10.244  1.00  0.00     0.171 HD
HETATM    4  C7  UNL     1      97.621 238.635  -8.509  1.00  0.00     0.263 C 
HETATM    5  O1  UNL     1      97.084 237.602  -8.977  1.00  0.00    -0.267 OA
HETATM    6  C8  UNL     1      98.003 238.592  -7.162  1.00  0.00     0.098 C 
HETATM    7  C16 UNL     1      98.350 239.653  -6.332  1.00  0.00     0.160 C 
HETATM    8  N4  UNL     1      98.629 240.896  -6.753  1.00  0.00    -0.300 N 
ATOM      9  H4  UNL     1      98.737 241.585  -6.009  1.00  0.00     0.171 HD
HETATM   10  C17 UNL     1      98.790 241.379  -7.998  1.00  0.00     0.291 C 
HETATM   11  O3  UNL     1      99.307 242.509  -8.105  1.00  0.00    -0.264 OA
ENDROOT
BRANCH   6  12
HETATM   12  C9  UNL     1      98.042 237.280  -6.554  1.00  0.00     0.105 C 
HETATM   13  N3  UNL     1      96.980 236.712  -6.192  1.00  0.00    -0.393 N 
ATOM     14  H3  UNL     1      96.121 237.235  -6.357  1.00  0.00     0.159 HD
BRANCH  13  15
HETATM   15  C10 UNL     1      96.820 235.438  -5.584  1.00  0.00     0.081 C 
HETATM   16  C11 UNL     1      95.858 235.413  -4.429  1.00  0.00     0.025 C 
HETATM   17  C12 UNL     1      94.424 235.411  -4.841  1.00  0.00     0.002 C 
HETATM   18  C13 UNL     1      94.149 234.283  -5.806  1.00  0.00     0.000 C 
HETATM   19  C14 UNL     1      95.029 234.468  -7.019  1.00  0.00     0.002 C 
HETATM   20  C15 UNL     1      96.465 234.359  -6.575  1.00  0.00     0.025 C 
ENDBRANCH  13  15
ENDBRANCH   6  12
BRANCH   7  21
HETATM   21  O2  UNL     1      98.396 239.349  -4.980  1.00  0.00    -0.345 OA
ATOM     22  H2  UNL     1      98.348 240.098  -4.398  1.00  0.00     0.219 HD
ENDBRANCH   7  21
BRANCH   1  23
HETATM   23  N1  UNL     1      98.854 241.402 -10.288  1.00  0.00    -0.371 N 
ATOM     24  H1  UNL     1      99.086 242.396 -10.279  1.00  0.00     0.161 HD
BRANCH  23  25
HETATM   25  C5  UNL     1      98.953 240.625 -11.506  1.00  0.00     0.125 C 
BRANCH  25  26
HETATM   26  C3  UNL     1     100.039 241.304 -12.350  1.00  0.00    -0.001 C 
HETATM   27  C4  UNL     1     101.067 240.252 -12.657  1.00  0.00     0.011 C 
BRANCH  26  28
HETATM   28  C2  UNL     1      99.371 241.820 -13.592  1.00  0.00     0.001 C 
HETATM   29  C1  UNL     1     100.301 241.941 -14.756  1.00  0.00     0.005 C 
ENDBRANCH  26  28
ENDBRANCH  25  26
ENDBRANCH  23  25
ENDBRANCH   1  23
TORSDOF 7
ENDMDL
MODEL 2
REMARK VINA RESULT: -7.678943964      2.703      8.830
REMARK  7 active torsions:
REMARK  status: ('A' for Active; 'I' for Inactive)
REMARK    1  A    between atoms: C2_2  and  C3_3 
REMARK    2  A    between atoms: C3_3  and  C5_5 
REMARK    3  A    between atoms: C5_5  and  N1_6 
REMARK    4  A    between atoms: N1_6  and  C6_8 
REMARK    5  A    between atoms: C8_13  and  C9_14 
REMARK    6  A    between atoms: N3_15  and  C10_17 
REMARK    7  A    between atoms: C16_23  and  O2_24 
ROOT
HETATM    1  C6  UNL     1      98.964 240.367  -9.874  1.00  0.00     0.173 C 
HETATM    2  N2  UNL     1     100.104 241.022 -10.136  1.00  0.00    -0.304 N 
ATOM      3  H2  UNL     1     100.648 241.283  -9.314  1.00  0.00     0.171 HD
HETATM    4  C7  UNL     1     100.643 241.387 -11.312  1.00  0.00     0.263 C 
HETATM    5  O1  UNL     1     101.826 241.805 -11.278  1.00  0.00    -0.267 OA
HETATM    6  C8  UNL     1     100.024 241.350 -12.568  1.00  0.00     0.098 C 
HETATM    7  C16 UNL     1      98.672 241.205 -12.857  1.00  0.00     0.160 C 
HETATM    8  N4  UNL     1      97.737 240.814 -11.976  1.00  0.00    -0.300 N 
ATOM      9  H4  UNL     1      96.777 240.885 -12.313  1.00  0.00     0.171 HD
HETATM   10  C17 UNL     1      97.863 240.345 -10.722  1.00  0.00     0.291 C 
HETATM   11  O3  UNL     1      96.861 239.804 -10.216  1.00  0.00    -0.264 OA
ENDROOT
BRANCH   6  12
HETATM   12  C9  UNL     1     100.900 241.478 -13.713  1.00  0.00     0.105 C 
HETATM   13  N3  UNL     1     100.929 240.585 -14.599  1.00  0.00    -0.393 N 
ATOM     14  H3  UNL     1     100.306 239.792 -14.447  1.00  0.00     0.159 HD
BRANCH  13  15
HETATM   15  C10 UNL     1     101.714 240.535 -15.781  1.00  0.00     0.081 C 
HETATM   16  C11 UNL     1     102.064 239.148 -16.240  1.00  0.00     0.025 C 
HETATM   17  C12 UNL     1     100.948 238.444 -16.937  1.00  0.00     0.002 C 
HETATM   18  C13 UNL     1     100.421 239.282 -18.078  1.00  0.00     0.000 C 
HETATM   19  C14 UNL     1      99.929 240.595 -17.518  1.00  0.00     0.002 C 
HETATM   20  C15 UNL     1     101.107 241.318 -16.918  1.00  0.00     0.025 C 
ENDBRANCH  13  15
ENDBRANCH   6  12
BRANCH   7  21
HETATM   21  O2  UNL     1      98.316 241.497 -14.165  1.00  0.00    -0.345 OA
ATOM     22  H2  UNL     1      97.592 240.987 -14.508  1.00  0.00     0.219 HD
ENDBRANCH   7  21
BRANCH   1  23
HETATM   23  N1  UNL     1      98.885 239.719  -8.770  1.00  0.00    -0.371 N 
ATOM     24  H1  UNL     1      98.827 238.701  -8.761  1.00  0.00     0.161 HD
BRANCH  23  25
HETATM   25  C5  UNL     1      98.879 240.476  -7.534  1.00  0.00     0.125 C 
BRANCH  25  26
HETATM   26  C3  UNL     1      98.204 239.575  -6.492  1.00  0.00    -0.001 C 
HETATM   27  C4  UNL     1      96.737 239.567  -6.815  1.00  0.00     0.011 C 
BRANCH  26  28
HETATM   28  C2  UNL     1      98.821 238.213  -6.626  1.00  0.00     0.001 C 
HETATM   29  C1  UNL     1      97.851 237.100  -6.386  1.00  0.00     0.005 C 
ENDBRANCH  26  28
ENDBRANCH  25  26
ENDBRANCH  23  25
ENDBRANCH   1  23
TORSDOF 7
ENDMDL
MODEL 3
REMARK VINA RESULT: -7.381748655      1.893      8.293
REMARK  7 active torsions:
REMARK  status: ('A' for Active; 'I' for Inactive)
REMARK    1  A    between atoms: C2_2  and  C3_3 
REMARK    2  A    between atoms: C3_3  and  C5_5 
REMARK    3  A    between atoms: C5_5  and  N1_6 
REMARK    4  A    between atoms: N1_6  and  C6_8 
REMARK    5  A    between atoms: C8_13  and  C9_14 
REMARK    6  A    between atoms: N3_15  and  C10_17 
REMARK    7  A    between atoms: C16_23  and  O2_24 
ROOT
HETATM    1  C6  UNL     1      96.262 236.656  -7.354  1.00  0.00     0.173 C 
HETATM    2  N2  UNL     1      97.261 237.428  -6.906  1.00  0.00    -0.304 N 
ATOM      3  H2  UNL     1      97.478 237.318  -5.916  1.00  0.00     0.171 HD
HETATM    4  C7  UNL     1      98.022 238.325  -7.557  1.00  0.00     0.263 C 
HETATM    5  O1  UNL     1      99.027 238.756  -6.941  1.00  0.00    -0.267 OA
HETATM    6  C8  UNL     1      97.810 238.828  -8.847  1.00  0.00     0.098 C 
HETATM    7  C16 UNL     1      96.660 238.745  -9.625  1.00  0.00     0.160 C 
HETATM    8  N4  UNL     1      95.620 237.936  -9.372  1.00  0.00    -0.300 N 
ATOM      9  H4  UNL     1      94.804 238.092  -9.964  1.00  0.00     0.171 HD
HETATM   10  C17 UNL     1      95.481 236.954  -8.464  1.00  0.00     0.291 C 
HETATM   11  O3  UNL     1      94.516 236.178  -8.612  1.00  0.00    -0.264 OA
ENDROOT
BRANCH   6  12
HETATM   12  C9  UNL     1      98.927 239.522  -9.450  1.00  0.00     0.105 C 
HETATM   13  N3  UNL     1      99.446 239.095 -10.514  1.00  0.00    -0.393 N 
ATOM     14  H3  UNL     1      99.028 238.249 -10.901  1.00  0.00     0.159 HD
BRANCH  13  15
HETATM   15  C10 UNL     1     100.536 239.634 -11.247  1.00  0.00     0.081 C 
HETATM   16  C11 UNL     1     100.909 238.854 -12.477  1.00  0.00     0.025 C 
HETATM   17  C12 UNL     1      99.999 239.086 -13.636  1.00  0.00     0.002 C 
HETATM   18  C13 UNL     1      99.887 240.561 -13.938  1.00  0.00     0.000 C 
HETATM   19  C14 UNL     1      99.343 241.258 -12.713  1.00  0.00     0.002 C 
HETATM   20  C15 UNL     1     100.342 241.088 -11.598  1.00  0.00     0.025 C 
ENDBRANCH  13  15
ENDBRANCH   6  12
BRANCH   7  21
HETATM   21  O2  UNL     1      96.639 239.581 -10.731  1.00  0.00    -0.345 OA
ATOM     22  H2  UNL     1      96.326 239.179 -11.533  1.00  0.00     0.219 HD
ENDBRANCH   7  21
BRANCH   1  23
HETATM   23  N1  UNL     1      96.011 235.570  -6.718  1.00  0.00    -0.371 N 
ATOM     24  H1  UNL     1      95.990 234.671  -7.200  1.00  0.00     0.161 HD
BRANCH  23  25
HETATM   25  C5  UNL     1      95.760 235.657  -5.294  1.00  0.00     0.125 C 
BRANCH  25  26
HETATM   26  C3  UNL     1      94.248 235.462  -5.121  1.00  0.00    -0.001 C 
HETATM   27  C4  UNL     1      94.012 233.980  -5.038  1.00  0.00     0.011 C 
BRANCH  26  28
HETATM   28  C2  UNL     1      93.856 236.169  -3.856  1.00  0.00     0.001 C 
HETATM   29  C1  UNL     1      94.311 235.462  -2.619  1.00  0.00     0.005 C 
ENDBRANCH  26  28
ENDBRANCH  25  26
ENDBRANCH  23  25
ENDBRANCH   1  23
TORSDOF 7
ENDMDL
MODEL 4
REMARK VINA RESULT: -7.375485053      1.557      7.666
REMARK  7 active torsions:
REMARK  status: ('A' for Active; 'I' for Inactive)
REMARK    1  A    between atoms: C2_2  and  C3_3 
REMARK    2  A    between atoms: C3_3  and  C5_5 
REMARK    3  A    between atoms: C5_5  and  N1_6 
REMARK    4  A    between atoms: N1_6  and  C6_8 
REMARK    5  A    between atoms: C8_13  and  C9_14 
REMARK    6  A    between atoms: N3_15  and  C10_17 
REMARK    7  A    between atoms: C16_23  and  O2_24 
ROOT
HETATM    1  C6  UNL     1      97.243 239.211  -7.689  1.00  0.00     0.173 C 
HETATM    2  N2  UNL     1      97.986 238.678  -8.669  1.00  0.00    -0.304 N 
ATOM      3  H2  UNL     1      97.923 237.663  -8.752  1.00  0.00     0.171 HD
HETATM    4  C7  UNL     1      98.800 239.270  -9.560  1.00  0.00     0.263 C 
HETATM    5  O1  UNL     1      99.210 238.553 -10.504  1.00  0.00    -0.267 OA
HETATM    6  C8  UNL     1      99.236 240.601  -9.544  1.00  0.00     0.098 C 
HETATM    7  C16 UNL     1      99.170 241.516  -8.498  1.00  0.00     0.160 C 
HETATM    8  N4  UNL     1      98.435 241.358  -7.386  1.00  0.00    -0.300 N 
ATOM      9  H4  UNL     1      98.600 242.057  -6.662  1.00  0.00     0.171 HD
HETATM   10  C17 UNL     1      97.518 240.426  -7.073  1.00  0.00     0.291 C 
HETATM   11  O3  UNL     1      96.788 240.657  -6.089  1.00  0.00    -0.264 OA
ENDROOT
BRANCH   6  12
HETATM   12  C9  UNL     1      99.831 241.090 -10.769  1.00  0.00     0.105 C 
HETATM   13  N3  UNL     1      99.144 241.187 -11.818  1.00  0.00    -0.393 N 
ATOM     14  H3  UNL     1      98.169 240.902 -11.736  1.00  0.00     0.159 HD
BRANCH  13  15
HETATM   15  C10 UNL     1      99.547 241.641 -13.102  1.00  0.00     0.081 C 
HETATM   16  C11 UNL     1     100.950 241.263 -13.487  1.00  0.00     0.025 C 
HETATM   17  C12 UNL     1     101.091 239.845 -13.931  1.00  0.00     0.002 C 
HETATM   18  C13 UNL     1     100.117 239.536 -15.042  1.00  0.00     0.000 C 
HETATM   19  C14 UNL     1      98.716 239.776 -14.529  1.00  0.00     0.002 C 
HETATM   20  C15 UNL     1      98.586 241.238 -14.192  1.00  0.00     0.025 C 
ENDBRANCH  13  15
ENDBRANCH   6  12
BRANCH   7  21
HETATM   21  O2  UNL     1      99.939 242.658  -8.668  1.00  0.00    -0.345 OA
ATOM     22  H2  UNL     1      99.820 243.324  -8.002  1.00  0.00     0.219 HD
ENDBRANCH   7  21
BRANCH   1  23
HETATM   23  N1  UNL     1      96.212 238.556  -7.294  1.00  0.00    -0.371 N 
ATOM     24  H1  UNL     1      95.420 239.034  -6.865  1.00  0.00     0.161 HD
BRANCH  23  25
HETATM   25  C5  UNL     1      96.207 237.119  -7.474  1.00  0.00     0.125 C 
BRANCH  25  26
HETATM   26  C3  UNL     1      95.996 236.521  -6.077  1.00  0.00    -0.001 C 
HETATM   27  C4  UNL     1      94.835 235.573  -6.185  1.00  0.00     0.011 C 
BRANCH  26  28
HETATM   28  C2  UNL     1      97.268 235.817  -5.704  1.00  0.00     0.001 C 
HETATM   29  C1  UNL     1      97.246 234.354  -6.016  1.00  0.00     0.005 C 
ENDBRANCH  26  28
ENDBRANCH  25  26
ENDBRANCH  23  25
ENDBRANCH   1  23
TORSDOF 7
ENDMDL
MODEL 5
REMARK VINA RESULT: -7.307923541      1.744      8.116
REMARK  7 active torsions:
REMARK  status: ('A' for Active; 'I' for Inactive)
REMARK    1  A    between atoms: C2_2  and  C3_3 
REMARK    2  A    between atoms: C3_3  and  C5_5 
REMARK    3  A    between atoms: C5_5  and  N1_6 
REMARK    4  A    between atoms: N1_6  and  C6_8 
REMARK    5  A    between atoms: C8_13  and  C9_14 
REMARK    6  A    between atoms: N3_15  and  C10_17 
REMARK    7  A    between atoms: C16_23  and  O2_24 
ROOT
HETATM    1  C6  UNL     1      97.065 237.578  -7.431  1.00  0.00     0.173 C 
HETATM    2  N2  UNL     1      96.608 237.315  -8.663  1.00  0.00    -0.304 N 
ATOM      3  H2  UNL     1      96.046 236.469  -8.741  1.00  0.00     0.171 HD
HETATM    4  C7  UNL     1      96.776 237.993  -9.812  1.00  0.00     0.263 C 
HETATM    5  O1  UNL     1      96.062 237.635 -10.779  1.00  0.00    -0.267 OA
HETATM    6  C8  UNL     1      97.662 239.054 -10.040  1.00  0.00     0.098 C 
HETATM    7  C16 UNL     1      98.738 239.460  -9.259  1.00  0.00     0.160 C 
HETATM    8  N4  UNL     1      98.965 239.058  -7.999  1.00  0.00    -0.300 N 
ATOM      9  H4  UNL     1      99.865 239.345  -7.614  1.00  0.00     0.171 HD
HETATM   10  C17 UNL     1      98.198 238.337  -7.162  1.00  0.00     0.291 C 
HETATM   11  O3  UNL     1      98.524 238.328  -5.959  1.00  0.00    -0.264 OA
ENDROOT
BRANCH   6  12
HETATM   12  C9  UNL     1      97.431 239.827 -11.241  1.00  0.00     0.105 C 
HETATM   13  N3  UNL     1      97.980 239.503 -12.325  1.00  0.00    -0.393 N 
ATOM     14  H3  UNL     1      98.580 238.680 -12.288  1.00  0.00     0.159 HD
BRANCH  13  15
HETATM   15  C10 UNL     1      97.875 240.132 -13.594  1.00  0.00     0.081 C 
HETATM   16  C11 UNL     1      98.150 241.610 -13.585  1.00  0.00     0.025 C 
HETATM   17  C12 UNL     1      99.601 241.951 -13.522  1.00  0.00     0.002 C 
HETATM   18  C13 UNL     1     100.358 241.261 -14.632  1.00  0.00     0.000 C 
HETATM   19  C14 UNL     1     100.176 239.769 -14.477  1.00  0.00     0.002 C 
HETATM   20  C15 UNL     1      98.712 239.458 -14.651  1.00  0.00     0.025 C 
ENDBRANCH  13  15
ENDBRANCH   6  12
BRANCH   7  21
HETATM   21  O2  UNL     1      99.609 240.345  -9.874  1.00  0.00    -0.345 OA
ATOM     22  H2  UNL     1     100.299 239.940 -10.387  1.00  0.00     0.219 HD
ENDBRANCH   7  21
BRANCH   1  23
HETATM   23  N1  UNL     1      96.414 237.097  -6.434  1.00  0.00    -0.371 N 
ATOM     24  H1  UNL     1      96.729 237.254  -5.477  1.00  0.00     0.161 HD
BRANCH  23  25
HETATM   25  C5  UNL     1      95.219 236.326  -6.710  1.00  0.00     0.125 C 
BRANCH  25  26
HETATM   26  C3  UNL     1      95.029 235.400  -5.501  1.00  0.00    -0.001 C 
HETATM   27  C4  UNL     1      96.394 235.168  -4.918  1.00  0.00     0.011 C 
BRANCH  26  28
HETATM   28  C2  UNL     1      94.117 236.110  -4.543  1.00  0.00     0.001 C 
HETATM   29  C1  UNL     1      94.279 235.655  -3.128  1.00  0.00     0.005 C 
ENDBRANCH  26  28
ENDBRANCH  25  26
ENDBRANCH  23  25
ENDBRANCH   1  23
TORSDOF 7
ENDMDL
