MODEL 1
REMARK VINA RESULT: -8.649382640      0.000      0.000
REMARK  7 active torsions:
REMARK  status: ('A' for Active; 'I' for Inactive)
REMARK    1  A    between atoms: C3_4  and  C4_5 
REMARK    2  A    between atoms: C4_5  and  C5_6 
REMARK    3  A    between atoms: C5_6  and  C6_7 
REMARK    4  A    between atoms: C15_17  and  O3_18 
REMARK    5  A    between atoms: C15_17  and  C16_20 
REMARK    6  A    between atoms: C16_20  and  O4_21 
REMARK    7  A    between atoms: C18_24  and  O5_25 
ROOT
HETATM    1  O1  UNL     1      94.537 236.710 -10.179  1.00  0.00    -0.288 OA
HETATM    2  C1  UNL     1      95.457 236.829  -9.354  1.00  0.00     0.173 C 
HETATM    3  C2  UNL     1      95.608 235.837  -8.380  1.00  0.00     0.061 C 
HETATM    4  C3  UNL     1      96.325 235.860  -7.202  1.00  0.00    -0.054 C 
HETATM    5  C11 UNL     1      96.979 236.965  -6.657  1.00  0.00     0.017 C 
HETATM    6  C12 UNL     1      97.461 238.107  -7.271  1.00  0.00    -0.019 C 
HETATM    7  C13 UNL     1      97.213 238.450  -8.585  1.00  0.00    -0.009 C 
HETATM    8  C14 UNL     1      96.262 237.944  -9.472  1.00  0.00     0.065 C 
HETATM    9  C15 UNL     1      98.189 239.515  -8.922  1.00  0.00     0.109 C 
HETATM   10  C17 UNL     1      98.264 240.285  -7.625  1.00  0.00     0.081 C 
HETATM   11  C18 UNL     1      98.313 239.132  -6.613  1.00  0.00     0.155 C 
ENDROOT
BRANCH   4  12
HETATM   12  C4  UNL     1      96.420 234.597  -6.429  1.00  0.00     0.041 C 
BRANCH  12  13
HETATM   13  C5  UNL     1      95.110 234.225  -5.770  1.00  0.00     0.036 C 
BRANCH  13  14
HETATM   14  C6  UNL     1      95.117 234.827  -4.386  1.00  0.00     0.121 C 
HETATM   15  C7  UNL     1      93.783 235.463  -4.107  1.00  0.00     0.032 C 
HETATM   16  C8  UNL     1      93.893 236.117  -2.727  1.00  0.00     0.004 C 
HETATM   17  C9  UNL     1      94.208 235.027  -1.736  1.00  0.00     0.026 C 
HETATM   18  C10 UNL     1      95.453 234.309  -2.167  1.00  0.00     0.168 C 
HETATM   19  O2  UNL     1      95.400 233.835  -3.463  1.00  0.00    -0.386 OA
ENDBRANCH  13  14
ENDBRANCH  12  13
ENDBRANCH   4  12
BRANCH  11  20
HETATM   20  O5  UNL     1      99.632 238.723  -6.505  1.00  0.00    -0.391 OA
ATOM     21  H5  UNL     1      99.984 238.430  -7.338  1.00  0.00     0.210 HD
ENDBRANCH  11  20
BRANCH   9  22
HETATM   22  O3  UNL     1      99.413 238.931  -9.183  1.00  0.00    -0.383 OA
ATOM     23  H3  UNL     1      99.894 239.483  -9.787  1.00  0.00     0.211 HD
ENDBRANCH   9  22
BRANCH   9  24
HETATM   24  C16 UNL     1      97.717 240.373 -10.072  1.00  0.00     0.207 C 
BRANCH  24  25
HETATM   25  O4  UNL     1      97.706 241.699  -9.599  1.00  0.00    -0.398 OA
ATOM     26  H4  UNL     1      98.604 242.004  -9.638  1.00  0.00     0.209 HD
ENDBRANCH  24  25
ENDBRANCH   9  24
TORSDOF 7
ENDMDL
MODEL 2
REMARK VINA RESULT: -8.491586817      0.675      1.031
REMARK  7 active torsions:
REMARK  status: ('A' for Active; 'I' for Inactive)
REMARK    1  A    between atoms: C3_4  and  C4_5 
REMARK    2  A    between atoms: C4_5  and  C5_6 
REMARK    3  A    between atoms: C5_6  and  C6_7 
REMARK    4  A    between atoms: C15_17  and  O3_18 
REMARK    5  A    between atoms: C15_17  and  C16_20 
REMARK    6  A    between atoms: C16_20  and  O4_21 
REMARK    7  A    between atoms: C18_24  and  O5_25 
ROOT
HETATM    1  O1  UNL     1      94.357 236.848 -10.029  1.00  0.00    -0.288 OA
HETATM    2  C1  UNL     1      95.297 236.945  -9.223  1.00  0.00     0.173 C 
HETATM    3  C2  UNL     1      95.413 235.976  -8.220  1.00  0.00     0.061 C 
HETATM    4  C3  UNL     1      96.152 235.998  -7.055  1.00  0.00    -0.054 C 
HETATM    5  C11 UNL     1      96.872 237.083  -6.556  1.00  0.00     0.017 C 
HETATM    6  C12 UNL     1      97.401 238.179  -7.215  1.00  0.00    -0.019 C 
HETATM    7  C13 UNL     1      97.148 238.494  -8.534  1.00  0.00    -0.009 C 
HETATM    8  C14 UNL     1      96.156 238.012  -9.389  1.00  0.00     0.065 C 
HETATM    9  C15 UNL     1      98.172 239.495  -8.921  1.00  0.00     0.109 C 
HETATM   10  C17 UNL     1      98.310 240.300  -7.650  1.00  0.00     0.081 C 
HETATM   11  C18 UNL     1      98.317 239.177  -6.603  1.00  0.00     0.155 C 
ENDROOT
BRANCH   4  12
HETATM   12  C4  UNL     1      96.195 234.756  -6.245  1.00  0.00     0.041 C 
BRANCH  12  13
HETATM   13  C5  UNL     1      94.826 234.141  -6.060  1.00  0.00     0.036 C 
BRANCH  13  14
HETATM   14  C6  UNL     1      94.523 234.157  -4.581  1.00  0.00     0.121 C 
HETATM   15  C7  UNL     1      95.763 234.531  -3.817  1.00  0.00     0.032 C 
HETATM   16  C8  UNL     1      95.400 234.450  -2.331  1.00  0.00     0.004 C 
HETATM   17  C9  UNL     1      94.280 235.427  -2.087  1.00  0.00     0.026 C 
HETATM   18  C10 UNL     1      93.138 235.112  -3.008  1.00  0.00     0.168 C 
HETATM   19  O2  UNL     1      93.498 235.056  -4.340  1.00  0.00    -0.386 OA
ENDBRANCH  13  14
ENDBRANCH  12  13
ENDBRANCH   4  12
BRANCH  11  20
HETATM   20  O5  UNL     1      99.615 238.703  -6.504  1.00  0.00    -0.391 OA
ATOM     21  H5  UNL     1     100.063 239.045  -5.740  1.00  0.00     0.210 HD
ENDBRANCH  11  20
BRANCH   9  22
HETATM   22  O3  UNL     1      99.359 238.840  -9.183  1.00  0.00    -0.383 OA
ATOM     23  H3  UNL     1      99.563 238.932 -10.106  1.00  0.00     0.211 HD
ENDBRANCH   9  22
BRANCH   9  24
HETATM   24  C16 UNL     1      97.724 240.341 -10.089  1.00  0.00     0.207 C 
BRANCH  24  25
HETATM   25  O4  UNL     1      97.700 241.671  -9.629  1.00  0.00    -0.398 OA
ATOM     26  H4  UNL     1      97.147 242.153 -10.233  1.00  0.00     0.209 HD
ENDBRANCH  24  25
ENDBRANCH   9  24
TORSDOF 7
ENDMDL
MODEL 3
REMARK VINA RESULT: -8.431080160      1.657      3.256
REMARK  7 active torsions:
REMARK  status: ('A' for Active; 'I' for Inactive)
REMARK    1  A    between atoms: C3_4  and  C4_5 
REMARK    2  A    between atoms: C4_5  and  C5_6 
REMARK    3  A    between atoms: C5_6  and  C6_7 
REMARK    4  A    between atoms: C15_17  and  O3_18 
REMARK    5  A    between atoms: C15_17  and  C16_20 
REMARK    6  A    between atoms: C16_20  and  O4_21 
REMARK    7  A    between atoms: C18_24  and  O5_25 
ROOT
HETATM    1  O1  UNL     1      98.854 238.169  -5.223  1.00  0.00    -0.288 OA
HETATM    2  C1  UNL     1      98.249 238.333  -6.295  1.00  0.00     0.173 C 
HETATM    3  C2  UNL     1      97.228 237.436  -6.624  1.00  0.00     0.061 C 
HETATM    4  C3  UNL     1      96.613 237.207  -7.837  1.00  0.00    -0.054 C 
HETATM    5  C11 UNL     1      96.979 237.760  -9.064  1.00  0.00     0.017 C 
HETATM    6  C12 UNL     1      97.671 238.925  -9.344  1.00  0.00    -0.019 C 
HETATM    7  C13 UNL     1      98.305 239.703  -8.398  1.00  0.00    -0.009 C 
HETATM    8  C14 UNL     1      98.641 239.401  -7.077  1.00  0.00     0.065 C 
HETATM    9  C15 UNL     1      98.589 241.002  -9.057  1.00  0.00     0.109 C 
HETATM   10  C17 UNL     1      98.925 240.565 -10.463  1.00  0.00     0.081 C 
HETATM   11  C18 UNL     1      97.835 239.510 -10.701  1.00  0.00     0.155 C 
ENDROOT
BRANCH   4  12
HETATM   12  C4  UNL     1      95.449 236.286  -7.856  1.00  0.00     0.041 C 
BRANCH  12  13
HETATM   13  C5  UNL     1      95.830 234.869  -7.492  1.00  0.00     0.036 C 
BRANCH  13  14
HETATM   14  C6  UNL     1      95.156 234.547  -6.180  1.00  0.00     0.121 C 
HETATM   15  C7  UNL     1      96.193 234.159  -5.162  1.00  0.00     0.032 C 
HETATM   16  C8  UNL     1      95.432 233.773  -3.890  1.00  0.00     0.004 C 
HETATM   17  C9  UNL     1      94.647 234.981  -3.452  1.00  0.00     0.026 C 
HETATM   18  C10 UNL     1      93.760 235.432  -4.575  1.00  0.00     0.168 C 
HETATM   19  O2  UNL     1      94.434 235.652  -5.760  1.00  0.00    -0.386 OA
ENDBRANCH  13  14
ENDBRANCH  12  13
ENDBRANCH   4  12
BRANCH  11  20
HETATM   20  O5  UNL     1      96.695 240.173 -11.125  1.00  0.00    -0.391 OA
ATOM     21  H5  UNL     1      96.543 240.062 -12.056  1.00  0.00     0.210 HD
ENDBRANCH  11  20
BRANCH   9  22
HETATM   22  O3  UNL     1      97.432 241.756  -9.073  1.00  0.00    -0.383 OA
ATOM     23  H3  UNL     1      97.487 242.417  -8.393  1.00  0.00     0.211 HD
ENDBRANCH   9  22
BRANCH   9  24
HETATM   24  C16 UNL     1      99.732 241.735  -8.395  1.00  0.00     0.207 C 
BRANCH  24  25
HETATM   25  O4  UNL     1      99.198 242.939  -7.901  1.00  0.00    -0.398 OA
ATOM     26  H4  UNL     1      99.713 243.167  -7.137  1.00  0.00     0.209 HD
ENDBRANCH  24  25
ENDBRANCH   9  24
TORSDOF 7
ENDMDL
MODEL 4
REMARK VINA RESULT: -8.168134565      1.511      3.031
REMARK  7 active torsions:
REMARK  status: ('A' for Active; 'I' for Inactive)
REMARK    1  A    between atoms: C3_4  and  C4_5 
REMARK    2  A    between atoms: C4_5  and  C5_6 
REMARK    3  A    between atoms: C5_6  and  C6_7 
REMARK    4  A    between atoms: C15_17  and  O3_18 
REMARK    5  A    between atoms: C15_17  and  C16_20 
REMARK    6  A    between atoms: C16_20  and  O4_21 
REMARK    7  A    between atoms: C18_24  and  O5_25 
ROOT
HETATM    1  O1  UNL     1      99.036 238.208  -5.252  1.00  0.00    -0.288 OA
HETATM    2  C1  UNL     1      98.389 238.354  -6.302  1.00  0.00     0.173 C 
HETATM    3  C2  UNL     1      97.373 237.436  -6.589  1.00  0.00     0.061 C 
HETATM    4  C3  UNL     1      96.719 237.189  -7.778  1.00  0.00    -0.054 C 
HETATM    5  C11 UNL     1      97.030 237.741  -9.020  1.00  0.00     0.017 C 
HETATM    6  C12 UNL     1      97.689 238.917  -9.331  1.00  0.00    -0.019 C 
HETATM    7  C13 UNL     1      98.343 239.712  -8.413  1.00  0.00    -0.009 C 
HETATM    8  C14 UNL     1      98.732 239.424  -7.104  1.00  0.00     0.065 C 
HETATM    9  C15 UNL     1      98.579 241.012  -9.088  1.00  0.00     0.109 C 
HETATM   10  C17 UNL     1      98.872 240.573 -10.504  1.00  0.00     0.081 C 
HETATM   11  C18 UNL     1      97.793 239.497 -10.696  1.00  0.00     0.155 C 
ENDROOT
BRANCH   4  12
HETATM   12  C4  UNL     1      95.572 236.247  -7.749  1.00  0.00     0.041 C 
BRANCH  12  13
HETATM   13  C5  UNL     1      95.859 235.015  -6.921  1.00  0.00     0.036 C 
BRANCH  13  14
HETATM   14  C6  UNL     1      95.514 235.346  -5.489  1.00  0.00     0.121 C 
HETATM   15  C7  UNL     1      94.089 235.819  -5.411  1.00  0.00     0.032 C 
HETATM   16  C8  UNL     1      93.838 236.209  -3.951  1.00  0.00     0.004 C 
HETATM   17  C9  UNL     1      94.064 234.979  -3.112  1.00  0.00     0.026 C 
HETATM   18  C10 UNL     1      95.443 234.448  -3.369  1.00  0.00     0.168 C 
HETATM   19  O2  UNL     1      95.710 234.222  -4.705  1.00  0.00    -0.386 OA
ENDBRANCH  13  14
ENDBRANCH  12  13
ENDBRANCH   4  12
BRANCH  11  20
HETATM   20  O5  UNL     1      96.626 240.136 -11.081  1.00  0.00    -0.391 OA
ATOM     21  H5  UNL     1      96.367 240.810 -10.464  1.00  0.00     0.210 HD
ENDBRANCH  11  20
BRANCH   9  22
HETATM   22  O3  UNL     1      97.408 241.745  -9.066  1.00  0.00    -0.383 OA
ATOM     23  H3  UNL     1      97.250 242.044  -8.179  1.00  0.00     0.211 HD
ENDBRANCH   9  22
BRANCH   9  24
HETATM   24  C16 UNL     1      99.731 241.770  -8.473  1.00  0.00     0.207 C 
BRANCH  24  25
HETATM   25  O4  UNL     1      99.182 242.933  -7.902  1.00  0.00    -0.398 OA
ATOM     26  H4  UNL     1      98.531 242.642  -7.275  1.00  0.00     0.209 HD
ENDBRANCH  24  25
ENDBRANCH   9  24
TORSDOF 7
ENDMDL
MODEL 5
REMARK VINA RESULT: -7.687340518      1.450      3.627
REMARK  7 active torsions:
REMARK  status: ('A' for Active; 'I' for Inactive)
REMARK    1  A    between atoms: C3_4  and  C4_5 
REMARK    2  A    between atoms: C4_5  and  C5_6 
REMARK    3  A    between atoms: C5_6  and  C6_7 
REMARK    4  A    between atoms: C15_17  and  O3_18 
REMARK    5  A    between atoms: C15_17  and  C16_20 
REMARK    6  A    between atoms: C16_20  and  O4_21 
REMARK    7  A    between atoms: C18_24  and  O5_25 
ROOT
HETATM    1  O1  UNL     1      98.880 239.328  -8.139  1.00  0.00    -0.288 OA
HETATM    2  C1  UNL     1      97.927 238.533  -8.097  1.00  0.00     0.173 C 
HETATM    3  C2  UNL     1      97.805 237.703  -6.977  1.00  0.00     0.061 C 
HETATM    4  C3  UNL     1      97.047 236.564  -6.804  1.00  0.00    -0.054 C 
HETATM    5  C11 UNL     1      96.309 235.908  -7.788  1.00  0.00     0.017 C 
HETATM    6  C12 UNL     1      95.778 236.389  -8.972  1.00  0.00    -0.019 C 
HETATM    7  C13 UNL     1      96.049 237.635  -9.499  1.00  0.00    -0.009 C 
HETATM    8  C14 UNL     1      97.060 238.539  -9.170  1.00  0.00     0.065 C 
HETATM    9  C15 UNL     1      95.021 237.872 -10.542  1.00  0.00     0.109 C 
HETATM   10  C17 UNL     1      94.854 236.490 -11.129  1.00  0.00     0.081 C 
HETATM   11  C18 UNL     1      94.842 235.639  -9.851  1.00  0.00     0.155 C 
ENDROOT
BRANCH   4  12
HETATM   12  C4  UNL     1      97.005 235.966  -5.446  1.00  0.00     0.041 C 
BRANCH  12  13
HETATM   13  C5  UNL     1      96.273 234.642  -5.422  1.00  0.00     0.036 C 
BRANCH  13  14
HETATM   14  C6  UNL     1      95.150 234.770  -4.421  1.00  0.00     0.121 C 
HETATM   15  C7  UNL     1      95.699 234.638  -3.028  1.00  0.00     0.032 C 
HETATM   16  C8  UNL     1      94.498 234.697  -2.079  1.00  0.00     0.004 C 
HETATM   17  C9  UNL     1      93.825 236.029  -2.288  1.00  0.00     0.026 C 
HETATM   18  C10 UNL     1      93.462 236.179  -3.736  1.00  0.00     0.168 C 
HETATM   19  O2  UNL     1      94.525 235.993  -4.597  1.00  0.00    -0.386 OA
ENDBRANCH  13  14
ENDBRANCH  12  13
ENDBRANCH   4  12
BRANCH  11  20
HETATM   20  O5  UNL     1      93.548 235.641  -9.356  1.00  0.00    -0.391 OA
ATOM     21  H5  UNL     1      92.904 235.501 -10.040  1.00  0.00     0.210 HD
ENDBRANCH  11  20
BRANCH   9  22
HETATM   22  O3  UNL     1      93.845 238.257  -9.929  1.00  0.00    -0.383 OA
ATOM     23  H3  UNL     1      93.723 237.736  -9.144  1.00  0.00     0.211 HD
ENDBRANCH   9  22
BRANCH   9  24
HETATM   24  C16 UNL     1      95.478 238.879 -11.570  1.00  0.00     0.207 C 
BRANCH  24  25
HETATM   25  O4  UNL     1      94.397 239.756 -11.775  1.00  0.00    -0.398 OA
ATOM     26  H4  UNL     1      93.777 239.294 -12.325  1.00  0.00     0.209 HD
ENDBRANCH  24  25
ENDBRANCH   9  24
TORSDOF 7
ENDMDL
