MODEL 1
REMARK VINA RESULT: -8.239797539      0.000      0.000
REMARK  7 active torsions:
REMARK  status: ('A' for Active; 'I' for Inactive)
REMARK    1  A    between atoms: C2_2  and  C3_3 
REMARK    2  A    between atoms: C5_5  and  N1_6 
REMARK    3  A    between atoms: N1_6  and  C6_8 
REMARK    4  A    between atoms: C6_8  and  C14_18 
REMARK    5  A    between atoms: N2_9  and  C7_11 
REMARK    6  A    between atoms: C7_11  and  C8_12 
REMARK    7  A    between atoms: C16_24  and  O3_25 
ROOT
HETATM    1  C6  UNL     1      96.823 237.876  -8.101  1.00  0.00     0.142 C 
HETATM    2  N2  UNL     1      96.567 237.459  -6.914  1.00  0.00    -0.373 N 
ATOM      3  H2  UNL     1      96.955 237.947  -6.107  1.00  0.00     0.161 HD
ENDROOT
BRANCH   1   4
HETATM    4  N1  UNL     1      96.288 237.201  -9.201  1.00  0.00    -0.319 N 
ATOM      5  H1  UNL     1      96.615 236.257  -9.406  1.00  0.00     0.169 HD
BRANCH   4   6
HETATM    6  C5  UNL     1      95.372 237.745  -9.984  1.00  0.00     0.173 A 
HETATM    7  C4  UNL     1      95.380 237.741 -11.359  1.00  0.00     0.085 A 
HETATM    8  C3  UNL     1      94.247 238.413 -11.751  1.00  0.00     0.036 A 
HETATM    9  N4  UNL     1      93.630 238.780 -10.616  1.00  0.00    -0.263 N 
HETATM   10  O4  UNL     1      94.307 238.379  -9.600  1.00  0.00    -0.220 OA
ATOM     11  H4  UNL     1      92.754 239.300 -10.567  1.00  0.00     0.194 HD
BRANCH   8  12
HETATM   12  C2  UNL     1      93.801 238.678 -13.149  1.00  0.00     0.055 C 
HETATM   13  C1  UNL     1      93.036 239.980 -13.169  1.00  0.00     0.011 C 
ENDBRANCH   8  12
ENDBRANCH   4   6
ENDBRANCH   1   4
BRANCH   1  14
HETATM   14  C14 UNL     1      97.674 239.054  -8.254  1.00  0.00     0.175 A 
HETATM   15  O1  UNL     1      97.751 240.117  -7.501  1.00  0.00    -0.253 OA
HETATM   16  C15 UNL     1      98.621 240.970  -7.939  1.00  0.00     0.372 A 
HETATM   17  O2  UNL     1      98.903 242.077  -7.418  1.00  0.00    -0.238 OA
HETATM   18  N3  UNL     1      99.168 240.453  -9.057  1.00  0.00    -0.280 N 
HETATM   19  C16 UNL     1      98.588 239.252  -9.272  1.00  0.00     0.183 A 
ATOM     20  H3  UNL     1      99.887 240.888  -9.635  1.00  0.00     0.173 HD
BRANCH  19  21
HETATM   21  O3  UNL     1      98.878 238.414 -10.316  1.00  0.00    -0.344 OA
ATOM     22  H3  UNL     1      99.521 238.541 -11.003  1.00  0.00     0.219 HD
ENDBRANCH  19  21
ENDBRANCH   1  14
BRANCH   2  23
HETATM   23  C7  UNL     1      95.732 236.301  -6.724  1.00  0.00     0.126 C 
BRANCH  23  24
HETATM   24  C8  UNL     1      95.749 235.816  -5.289  1.00  0.00     0.003 C 
HETATM   25  C9  UNL     1      96.189 234.389  -5.225  1.00  0.00     0.006 C 
HETATM   26  C10 UNL     1      95.450 233.639  -4.126  1.00  0.00     0.000 C 
HETATM   27  C11 UNL     1      95.319 234.564  -2.939  1.00  0.00     0.000 C 
HETATM   28  C12 UNL     1      94.297 235.634  -3.257  1.00  0.00     0.000 C 
HETATM   29  C13 UNL     1      94.360 236.035  -4.713  1.00  0.00     0.006 C 
ENDBRANCH  23  24
ENDBRANCH   2  23
TORSDOF 7
ENDMDL
MODEL 2
REMARK VINA RESULT: -8.077050558      0.967      1.187
REMARK  7 active torsions:
REMARK  status: ('A' for Active; 'I' for Inactive)
REMARK    1  A    between atoms: C2_2  and  C3_3 
REMARK    2  A    between atoms: C5_5  and  N1_6 
REMARK    3  A    between atoms: N1_6  and  C6_8 
REMARK    4  A    between atoms: C6_8  and  C14_18 
REMARK    5  A    between atoms: N2_9  and  C7_11 
REMARK    6  A    between atoms: C7_11  and  C8_12 
REMARK    7  A    between atoms: C16_24  and  O3_25 
ROOT
HETATM    1  C6  UNL     1      96.736 237.785  -7.590  1.00  0.00     0.142 C 
HETATM    2  N2  UNL     1      96.392 237.388  -6.419  1.00  0.00    -0.373 N 
ATOM      3  H2  UNL     1      96.697 237.904  -5.595  1.00  0.00     0.161 HD
ENDROOT
BRANCH   1   4
HETATM    4  N1  UNL     1      96.314 237.072  -8.714  1.00  0.00    -0.319 N 
ATOM      5  H1  UNL     1      96.679 236.132  -8.867  1.00  0.00     0.169 HD
BRANCH   4   6
HETATM    6  C5  UNL     1      95.456 237.575  -9.586  1.00  0.00     0.173 A 
HETATM    7  C4  UNL     1      95.547 237.479 -10.954  1.00  0.00     0.085 A 
HETATM    8  C3  UNL     1      94.452 238.138 -11.459  1.00  0.00     0.036 A 
HETATM    9  N4  UNL     1      93.774 238.587 -10.390  1.00  0.00    -0.263 N 
HETATM   10  O4  UNL     1      94.380 238.245  -9.310  1.00  0.00    -0.220 OA
ATOM     11  H4  UNL     1      92.905 239.120 -10.430  1.00  0.00     0.194 HD
BRANCH   8  12
HETATM   12  C2  UNL     1      94.095 238.315 -12.896  1.00  0.00     0.055 C 
HETATM   13  C1  UNL     1      93.357 239.624 -13.048  1.00  0.00     0.011 C 
ENDBRANCH   8  12
ENDBRANCH   4   6
ENDBRANCH   1   4
BRANCH   1  14
HETATM   14  C14 UNL     1      97.567 238.982  -7.700  1.00  0.00     0.175 A 
HETATM   15  O1  UNL     1      97.392 240.041  -8.443  1.00  0.00    -0.253 OA
HETATM   16  C15 UNL     1      98.334 240.916  -8.286  1.00  0.00     0.372 A 
HETATM   17  O2  UNL     1      98.423 242.023  -8.871  1.00  0.00    -0.238 OA
HETATM   18  N3  UNL     1      99.199 240.421  -7.380  1.00  0.00    -0.280 N 
HETATM   19  C16 UNL     1      98.737 239.210  -7.000  1.00  0.00     0.183 A 
ATOM     20  H3  UNL     1     100.048 240.876  -7.043  1.00  0.00     0.173 HD
BRANCH  19  21
HETATM   21  O3  UNL     1      99.344 238.387  -6.088  1.00  0.00    -0.344 OA
ATOM     22  H3  UNL     1      99.828 237.587  -6.257  1.00  0.00     0.219 HD
ENDBRANCH  19  21
ENDBRANCH   1  14
BRANCH   2  23
HETATM   23  C7  UNL     1      95.573 236.212  -6.272  1.00  0.00     0.126 C 
BRANCH  23  24
HETATM   24  C8  UNL     1      95.666 235.625  -4.878  1.00  0.00     0.003 C 
HETATM   25  C9  UNL     1      96.066 234.187  -4.942  1.00  0.00     0.006 C 
HETATM   26  C10 UNL     1      95.375 233.378  -3.853  1.00  0.00     0.000 C 
HETATM   27  C11 UNL     1      95.345 234.218  -2.599  1.00  0.00     0.000 C 
HETATM   28  C12 UNL     1      94.338 235.335  -2.775  1.00  0.00     0.000 C 
HETATM   29  C13 UNL     1      94.322 235.837  -4.200  1.00  0.00     0.006 C 
ENDBRANCH  23  24
ENDBRANCH   2  23
TORSDOF 7
ENDMDL
MODEL 3
REMARK VINA RESULT: -7.982775159      3.815      7.520
REMARK  7 active torsions:
REMARK  status: ('A' for Active; 'I' for Inactive)
REMARK    1  A    between atoms: C2_2  and  C3_3 
REMARK    2  A    between atoms: C5_5  and  N1_6 
REMARK    3  A    between atoms: N1_6  and  C6_8 
REMARK    4  A    between atoms: C6_8  and  C14_18 
REMARK    5  A    between atoms: N2_9  and  C7_11 
REMARK    6  A    between atoms: C7_11  and  C8_12 
REMARK    7  A    between atoms: C16_24  and  O3_25 
ROOT
HETATM    1  C6  UNL     1      98.406 240.448 -10.582  1.00  0.00     0.142 C 
HETATM    2  N2  UNL     1      99.316 241.135 -11.171  1.00  0.00    -0.373 N 
ATOM      3  H2  UNL     1     100.158 241.408 -10.665  1.00  0.00     0.161 HD
ENDROOT
BRANCH   1   4
HETATM    4  N1  UNL     1      97.255 240.080 -11.283  1.00  0.00    -0.319 N 
ATOM      5  H1  UNL     1      96.807 240.767 -11.889  1.00  0.00     0.169 HD
BRANCH   4   6
HETATM    6  C5  UNL     1      96.729 238.871 -11.188  1.00  0.00     0.173 A 
HETATM    7  C4  UNL     1      97.247 237.720 -11.736  1.00  0.00     0.085 A 
HETATM    8  C3  UNL     1      96.383 236.709 -11.390  1.00  0.00     0.036 A 
HETATM    9  N4  UNL     1      95.411 237.291 -10.670  1.00  0.00    -0.263 N 
HETATM   10  O4  UNL     1      95.636 238.551 -10.567  1.00  0.00    -0.220 OA
ATOM     11  H4  UNL     1      94.612 236.804 -10.264  1.00  0.00     0.194 HD
BRANCH   8  12
HETATM   12  C2  UNL     1      96.505 235.265 -11.746  1.00  0.00     0.055 C 
HETATM   13  C1  UNL     1      97.812 235.061 -12.476  1.00  0.00     0.011 C 
ENDBRANCH   8  12
ENDBRANCH   4   6
ENDBRANCH   1   4
BRANCH   1  14
HETATM   14  C14 UNL     1      98.614 240.075  -9.184  1.00  0.00     0.175 A 
HETATM   15  O1  UNL     1      98.700 238.885  -8.655  1.00  0.00    -0.253 OA
HETATM   16  C15 UNL     1      98.888 238.927  -7.374  1.00  0.00     0.372 A 
HETATM   17  O2  UNL     1      99.007 237.940  -6.608  1.00  0.00    -0.238 OA
HETATM   18  N3  UNL     1      98.933 240.226  -7.014  1.00  0.00    -0.280 N 
HETATM   19  C16 UNL     1      98.763 240.961  -8.134  1.00  0.00     0.183 A 
ATOM     20  H3  UNL     1      99.069 240.587  -6.070  1.00  0.00     0.173 HD
BRANCH  19  21
HETATM   21  O3  UNL     1      98.747 242.329  -8.182  1.00  0.00    -0.344 OA
ATOM     22  H3  UNL     1      98.640 242.884  -8.946  1.00  0.00     0.219 HD
ENDBRANCH  19  21
ENDBRANCH   1  14
BRANCH   2  23
HETATM   23  C7  UNL     1      99.146 241.522 -12.548  1.00  0.00     0.126 C 
BRANCH  23  24
HETATM   24  C8  UNL     1     100.414 241.328 -13.354  1.00  0.00     0.003 C 
HETATM   25  C9  UNL     1     100.308 242.027 -14.671  1.00  0.00     0.006 C 
HETATM   26  C10 UNL     1     101.013 241.237 -15.766  1.00  0.00     0.000 C 
HETATM   27  C11 UNL     1     102.283 240.667 -15.183  1.00  0.00     0.000 C 
HETATM   28  C12 UNL     1     101.931 239.540 -14.235  1.00  0.00     0.000 C 
HETATM   29  C13 UNL     1     100.647 239.833 -13.493  1.00  0.00     0.006 C 
ENDBRANCH  23  24
ENDBRANCH   2  23
TORSDOF 7
ENDMDL
MODEL 4
REMARK VINA RESULT: -7.935674679      3.213      7.184
REMARK  7 active torsions:
REMARK  status: ('A' for Active; 'I' for Inactive)
REMARK    1  A    between atoms: C2_2  and  C3_3 
REMARK    2  A    between atoms: C5_5  and  N1_6 
REMARK    3  A    between atoms: N1_6  and  C6_8 
REMARK    4  A    between atoms: C6_8  and  C14_18 
REMARK    5  A    between atoms: N2_9  and  C7_11 
REMARK    6  A    between atoms: C7_11  and  C8_12 
REMARK    7  A    between atoms: C16_24  and  O3_25 
ROOT
HETATM    1  C6  UNL     1      98.182 239.760 -10.100  1.00  0.00     0.142 C 
HETATM    2  N2  UNL     1      98.578 240.825 -10.697  1.00  0.00    -0.373 N 
ATOM      3  H2  UNL     1      99.022 241.573 -10.165  1.00  0.00     0.161 HD
ENDROOT
BRANCH   1   4
HETATM    4  N1  UNL     1      97.575 238.740 -10.835  1.00  0.00    -0.319 N 
ATOM      5  H1  UNL     1      98.048 238.382 -11.665  1.00  0.00     0.169 HD
BRANCH   4   6
HETATM    6  C5  UNL     1      96.408 238.222 -10.491  1.00  0.00     0.173 A 
HETATM    7  C4  UNL     1      96.208 236.978  -9.941  1.00  0.00     0.085 A 
HETATM    8  C3  UNL     1      94.853 236.858  -9.746  1.00  0.00     0.036 A 
HETATM    9  N4  UNL     1      94.320 238.012 -10.181  1.00  0.00    -0.263 N 
HETATM   10  O4  UNL     1      95.247 238.789 -10.610  1.00  0.00    -0.220 OA
ATOM     11  H4  UNL     1      93.325 238.237 -10.171  1.00  0.00     0.194 HD
BRANCH   8  12
HETATM   12  C2  UNL     1      94.130 235.687  -9.172  1.00  0.00     0.055 C 
HETATM   13  C1  UNL     1      94.267 235.730  -7.668  1.00  0.00     0.011 C 
ENDBRANCH   8  12
ENDBRANCH   4   6
ENDBRANCH   1   4
BRANCH   1  14
HETATM   14  C14 UNL     1      98.386 239.658  -8.656  1.00  0.00     0.175 A 
HETATM   15  O1  UNL     1      98.539 238.591  -7.920  1.00  0.00    -0.253 OA
HETATM   16  C15 UNL     1      98.698 238.875  -6.667  1.00  0.00     0.372 A 
HETATM   17  O2  UNL     1      98.865 238.051  -5.734  1.00  0.00    -0.238 OA
HETATM   18  N3  UNL     1      98.652 240.216  -6.546  1.00  0.00    -0.280 N 
HETATM   19  C16 UNL     1      98.457 240.726  -7.782  1.00  0.00     0.183 A 
ATOM     20  H3  UNL     1      98.746 240.749  -5.682  1.00  0.00     0.173 HD
BRANCH  19  21
HETATM   21  O3  UNL     1      98.353 242.059  -8.075  1.00  0.00    -0.344 OA
ATOM     22  H3  UNL     1      97.678 242.667  -7.794  1.00  0.00     0.219 HD
ENDBRANCH  19  21
ENDBRANCH   1  14
BRANCH   2  23
HETATM   23  C7  UNL     1      98.394 240.961 -12.119  1.00  0.00     0.126 C 
BRANCH  23  24
HETATM   24  C8  UNL     1      99.711 241.108 -12.852  1.00  0.00     0.003 C 
HETATM   25  C9  UNL     1      99.584 242.102 -13.961  1.00  0.00     0.006 C 
HETATM   26  C10 UNL     1     100.427 241.690 -15.161  1.00  0.00     0.000 C 
HETATM   27  C11 UNL     1     101.728 241.125 -14.644  1.00  0.00     0.000 C 
HETATM   28  C12 UNL     1     101.467 239.765 -14.030  1.00  0.00     0.000 C 
HETATM   29  C13 UNL     1     100.125 239.728 -13.336  1.00  0.00     0.006 C 
ENDBRANCH  23  24
ENDBRANCH   2  23
TORSDOF 7
ENDMDL
MODEL 5
REMARK VINA RESULT: -7.926116048      2.030      2.581
REMARK  7 active torsions:
REMARK  status: ('A' for Active; 'I' for Inactive)
REMARK    1  A    between atoms: C2_2  and  C3_3 
REMARK    2  A    between atoms: C5_5  and  N1_6 
REMARK    3  A    between atoms: N1_6  and  C6_8 
REMARK    4  A    between atoms: C6_8  and  C14_18 
REMARK    5  A    between atoms: N2_9  and  C7_11 
REMARK    6  A    between atoms: C7_11  and  C8_12 
REMARK    7  A    between atoms: C16_24  and  O3_25 
ROOT
HETATM    1  C6  UNL     1      96.861 238.156  -8.282  1.00  0.00     0.142 C 
HETATM    2  N2  UNL     1      96.094 237.630  -7.397  1.00  0.00    -0.373 N 
ATOM      3  H2  UNL     1      96.095 237.988  -6.442  1.00  0.00     0.161 HD
ENDROOT
BRANCH   1   4
HETATM    4  N1  UNL     1      96.853 237.659  -9.587  1.00  0.00    -0.319 N 
ATOM      5  H1  UNL     1      96.840 236.648  -9.729  1.00  0.00     0.169 HD
BRANCH   4   6
HETATM    6  C5  UNL     1      96.863 238.453 -10.644  1.00  0.00     0.173 A 
HETATM    7  C4  UNL     1      97.935 238.676 -11.475  1.00  0.00     0.085 A 
HETATM    8  C3  UNL     1      97.501 239.562 -12.431  1.00  0.00     0.036 A 
HETATM    9  N4  UNL     1      96.217 239.820 -12.132  1.00  0.00    -0.263 N 
HETATM   10  O4  UNL     1      95.870 239.162 -11.085  1.00  0.00    -0.220 OA
ATOM     11  H4  UNL     1      95.608 240.447 -12.658  1.00  0.00     0.194 HD
BRANCH   8  12
HETATM   12  C2  UNL     1      98.295 240.119 -13.565  1.00  0.00     0.055 C 
HETATM   13  C1  UNL     1      98.452 241.606 -13.354  1.00  0.00     0.011 C 
ENDBRANCH   8  12
ENDBRANCH   4   6
ENDBRANCH   1   4
BRANCH   1  14
HETATM   14  C14 UNL     1      97.720 239.269  -7.882  1.00  0.00     0.175 A 
HETATM   15  O1  UNL     1      97.743 240.494  -8.332  1.00  0.00    -0.253 OA
HETATM   16  C15 UNL     1      98.641 241.218  -7.745  1.00  0.00     0.372 A 
HETATM   17  O2  UNL     1      98.887 242.428  -7.975  1.00  0.00    -0.238 OA
HETATM   18  N3  UNL     1      99.264 240.437  -6.840  1.00  0.00    -0.280 N 
HETATM   19  C16 UNL     1      98.701 239.211  -6.911  1.00  0.00     0.183 A 
ATOM     20  H3  UNL     1     100.022 240.718  -6.218  1.00  0.00     0.173 HD
BRANCH  19  21
HETATM   21  O3  UNL     1      99.064 238.134  -6.146  1.00  0.00    -0.344 OA
ATOM     22  H3  UNL     1      99.261 238.120  -5.217  1.00  0.00     0.219 HD
ENDBRANCH  19  21
ENDBRANCH   1  14
BRANCH   2  23
HETATM   23  C7  UNL     1      95.233 236.531  -7.754  1.00  0.00     0.126 C 
BRANCH  23  24
HETATM   24  C8  UNL     1      95.173 235.479  -6.667  1.00  0.00     0.003 C 
HETATM   25  C9  UNL     1      94.399 235.984  -5.492  1.00  0.00     0.006 C 
HETATM   26  C10 UNL     1      94.988 235.467  -4.187  1.00  0.00     0.000 C 
HETATM   27  C11 UNL     1      95.405 234.032  -4.402  1.00  0.00     0.000 C 
HETATM   28  C12 UNL     1      96.641 234.001  -5.276  1.00  0.00     0.000 C 
HETATM   29  C13 UNL     1      96.601 235.097  -6.316  1.00  0.00     0.006 C 
ENDBRANCH  23  24
ENDBRANCH   2  23
TORSDOF 7
ENDMDL
