MODEL 1
REMARK VINA RESULT: -8.266896438      0.000      0.000
REMARK  9 active torsions:
REMARK  status: ('A' for Active; 'I' for Inactive)
REMARK    1  A    between atoms: C1_2  and  C2_3 
REMARK       I    between atoms: C1_2  and  N4_42 
REMARK       I    between atoms: N1_6  and  C5_7 
REMARK    2  A    between atoms: C5_7  and  C6_9 
REMARK    3  A    between atoms: C14_22  and  C15_23 
REMARK    4  A    between atoms: C15_23  and  C16_24 
REMARK    5  A    between atoms: C16_24  and  C17_25 
REMARK    6  A    between atoms: C17_25  and  C18_26 
REMARK    7  A    between atoms: C18_26  and  C19_27 
REMARK    8  A    between atoms: C19_27  and  N3_28 
REMARK       I    between atoms: N3_28  and  C20_30 
REMARK    9  A    between atoms: C20_30  and  C21_32 
ROOT
HETATM    1  C2  UNL     1      -9.330 -11.596  -3.162  1.00  0.00     0.126 C 
HETATM    2  C3  UNL     1      -9.514 -10.858  -4.471  1.00  0.00     0.042 C 
HETATM    3  C4  UNL     1      -8.401  -9.929  -4.806  1.00  0.00     0.153 C 
HETATM    4  N1  UNL     1      -7.397  -9.850  -3.757  1.00  0.00    -0.259 N 
HETATM    5  C5  UNL     1      -6.877  -8.613  -3.381  1.00  0.00     0.270 C 
HETATM    6  O2  UNL     1      -7.313  -7.562  -3.944  1.00  0.00    -0.269 OA
HETATM    7  N2  UNL     1      -7.011 -11.044  -3.140  1.00  0.00    -0.303 N 
ATOM      8  H2  UNL     1      -6.030 -11.228  -2.932  1.00  0.00     0.186 HD
HETATM    9  C14 UNL     1      -7.950 -11.932  -2.832  1.00  0.00     0.017 C 
ENDROOT
BRANCH   9  10
HETATM   10  C15 UNL     1      -7.456 -13.151  -2.159  1.00  0.00     0.055 C 
BRANCH  10  11
HETATM   11  C16 UNL     1      -6.982 -12.876  -0.752  1.00  0.00     0.006 C 
BRANCH  11  12
HETATM   12  C17 UNL     1      -5.538 -13.267  -0.548  1.00  0.00     0.002 C 
BRANCH  12  13
HETATM   13  C18 UNL     1      -4.639 -12.058  -0.388  1.00  0.00     0.020 C 
BRANCH  13  14
HETATM   14  C19 UNL     1      -4.803 -11.428   0.975  1.00  0.00     0.122 C 
BRANCH  14  15
HETATM   15  N3  UNL     1      -4.363 -10.076   0.999  1.00  0.00    -0.360 N 
HETATM   16  C20 UNL     1      -3.466  -9.491   1.919  1.00  0.00     0.226 C 
HETATM   17  O5  UNL     1      -2.978 -10.200   2.827  1.00  0.00    -0.273 OA
ATOM     18  H3  UNL     1      -4.736  -9.463   0.275  1.00  0.00     0.162 HD
BRANCH  16  19
HETATM   19  C21 UNL     1      -3.064  -8.066   1.872  1.00  0.00     0.042 C 
HETATM   20  C22 UNL     1      -2.014  -7.811   0.817  1.00  0.00     0.024 C 
HETATM   21  C23 UNL     1      -1.754  -6.340   0.755  1.00  0.00    -0.013 C 
HETATM   22  C24 UNL     1      -2.982  -5.560   0.386  1.00  0.00     0.009 C 
HETATM   23  C28 UNL     1      -1.217  -5.808   2.066  1.00  0.00     0.009 C 
HETATM   24  C25 UNL     1      -4.011  -5.793   1.480  1.00  0.00    -0.013 C 
HETATM   25  C26 UNL     1      -3.494  -5.334   2.827  1.00  0.00     0.009 C 
HETATM   26  C30 UNL     1      -4.315  -7.260   1.512  1.00  0.00     0.024 C 
HETATM   27  C27 UNL     1      -2.257  -6.115   3.141  1.00  0.00    -0.013 C 
HETATM   28  C29 UNL     1      -2.541  -7.595   3.202  1.00  0.00     0.024 C 
ENDBRANCH  16  19
ENDBRANCH  14  15
ENDBRANCH  13  14
ENDBRANCH  12  13
ENDBRANCH  11  12
ENDBRANCH  10  11
ENDBRANCH   9  10
BRANCH   1  29
HETATM   29  C1  UNL     1     -10.302 -12.701  -3.160  1.00  0.00     0.229 C 
HETATM   30  O1  UNL     1     -10.158 -13.678  -3.958  1.00  0.00    -0.273 OA
HETATM   31  N4  UNL     1     -11.423 -12.741  -2.303  1.00  0.00    -0.351 N 
HETATM   32  C31 UNL     1     -12.425 -13.772  -2.264  1.00  0.00     0.126 C 
HETATM   33  C34 UNL     1     -11.766 -11.772  -1.298  1.00  0.00     0.126 C 
HETATM   34  C32 UNL     1     -13.699 -12.929  -2.192  1.00  0.00     0.021 C 
HETATM   35  C33 UNL     1     -13.288 -11.658  -1.488  1.00  0.00     0.021 C 
ENDBRANCH   1  29
BRANCH   5  36
HETATM   36  C6  UNL     1      -5.826  -8.526  -2.329  1.00  0.00     0.246 C 
HETATM   37  C7  UNL     1      -5.661  -7.054  -1.986  1.00  0.00     0.218 C 
HETATM   38  O3  UNL     1      -6.677  -6.620  -1.128  1.00  0.00    -0.345 OA
HETATM   39  C8  UNL     1      -7.522  -7.415  -0.392  1.00  0.00     0.103 A 
HETATM   40  C9  UNL     1      -8.566  -6.900   0.342  1.00  0.00     0.058 A 
HETATM   41  C13 UNL     1      -7.280  -8.791  -0.413  1.00  0.00     0.103 A 
HETATM   42  C10 UNL     1      -9.394  -7.738   1.071  1.00  0.00     0.013 A 
HETATM   43 BR1  UNL     1     -10.831  -7.006   2.077  1.00  0.00    -0.051 Br
HETATM   44  C11 UNL     1      -9.141  -9.088   1.039  1.00  0.00     0.022 A 
HETATM   45  C12 UNL     1      -8.107  -9.595   0.312  1.00  0.00     0.041 A 
HETATM   46  O4  UNL     1      -6.223  -9.239  -1.164  1.00  0.00    -0.331 OA
ENDBRANCH   5  36
TORSDOF 9
ENDMDL
MODEL 2
REMARK VINA RESULT: -8.050636943      2.416      5.145
REMARK  9 active torsions:
REMARK  status: ('A' for Active; 'I' for Inactive)
REMARK    1  A    between atoms: C1_2  and  C2_3 
REMARK       I    between atoms: C1_2  and  N4_42 
REMARK       I    between atoms: N1_6  and  C5_7 
REMARK    2  A    between atoms: C5_7  and  C6_9 
REMARK    3  A    between atoms: C14_22  and  C15_23 
REMARK    4  A    between atoms: C15_23  and  C16_24 
REMARK    5  A    between atoms: C16_24  and  C17_25 
REMARK    6  A    between atoms: C17_25  and  C18_26 
REMARK    7  A    between atoms: C18_26  and  C19_27 
REMARK    8  A    between atoms: C19_27  and  N3_28 
REMARK       I    between atoms: N3_28  and  C20_30 
REMARK    9  A    between atoms: C20_30  and  C21_32 
ROOT
HETATM    1  C2  UNL     1      -7.687  -9.065   0.713  1.00  0.00     0.126 C 
HETATM    2  C3  UNL     1      -6.902  -9.789   1.786  1.00  0.00     0.042 C 
HETATM    3  C4  UNL     1      -5.806 -10.648   1.262  1.00  0.00     0.153 C 
HETATM    4  N1  UNL     1      -5.769 -10.689  -0.191  1.00  0.00    -0.259 N 
HETATM    5  C5  UNL     1      -5.572 -11.901  -0.850  1.00  0.00     0.270 C 
HETATM    6  O2  UNL     1      -5.458 -12.965  -0.166  1.00  0.00    -0.269 OA
HETATM    7  N2  UNL     1      -5.963  -9.487  -0.879  1.00  0.00    -0.303 N 
ATOM      8  H2  UNL     1      -5.391  -9.251  -1.689  1.00  0.00     0.186 HD
HETATM    9  C14 UNL     1      -6.911  -8.659  -0.452  1.00  0.00     0.017 C 
ENDROOT
BRANCH   9  10
HETATM   10  C15 UNL     1      -7.065  -7.426  -1.252  1.00  0.00     0.055 C 
BRANCH  10  11
HETATM   11  C16 UNL     1      -6.805  -7.661  -2.722  1.00  0.00     0.006 C 
BRANCH  11  12
HETATM   12  C17 UNL     1      -5.517  -7.024  -3.183  1.00  0.00     0.002 C 
BRANCH  12  13
HETATM   13  C18 UNL     1      -4.475  -8.058  -3.559  1.00  0.00     0.020 C 
BRANCH  13  14
HETATM   14  C19 UNL     1      -3.093  -7.627  -3.127  1.00  0.00     0.122 C 
BRANCH  14  15
HETATM   15  N3  UNL     1      -3.095  -7.030  -1.837  1.00  0.00    -0.360 N 
HETATM   16  C20 UNL     1      -3.085  -7.696  -0.593  1.00  0.00     0.226 C 
HETATM   17  O5  UNL     1      -3.071  -8.947  -0.573  1.00  0.00    -0.273 OA
ATOM     18  H3  UNL     1      -3.104  -6.011  -1.808  1.00  0.00     0.162 HD
BRANCH  16  19
HETATM   19  C21 UNL     1      -3.091  -6.990   0.710  1.00  0.00     0.042 C 
HETATM   20  C22 UNL     1      -4.273  -6.059   0.841  1.00  0.00     0.024 C 
HETATM   21  C23 UNL     1      -4.270  -5.482   2.220  1.00  0.00    -0.013 C 
HETATM   22  C24 UNL     1      -4.391  -6.538   3.280  1.00  0.00     0.009 C 
HETATM   23  C28 UNL     1      -3.022  -4.668   2.487  1.00  0.00     0.009 C 
HETATM   24  C25 UNL     1      -3.172  -7.438   3.161  1.00  0.00    -0.013 C 
HETATM   25  C26 UNL     1      -1.891  -6.657   3.358  1.00  0.00     0.009 C 
HETATM   26  C30 UNL     1      -3.198  -8.061   1.798  1.00  0.00     0.024 C 
HETATM   27  C27 UNL     1      -1.825  -5.599   2.301  1.00  0.00    -0.013 C 
HETATM   28  C29 UNL     1      -1.827  -6.202   0.918  1.00  0.00     0.024 C 
ENDBRANCH  16  19
ENDBRANCH  14  15
ENDBRANCH  13  14
ENDBRANCH  12  13
ENDBRANCH  11  12
ENDBRANCH  10  11
ENDBRANCH   9  10
BRANCH   1  29
HETATM   29  C1  UNL     1      -8.465  -8.016   1.394  1.00  0.00     0.229 C 
HETATM   30  O1  UNL     1      -7.925  -7.310   2.300  1.00  0.00    -0.273 OA
HETATM   31  N4  UNL     1      -9.816  -7.742   1.094  1.00  0.00    -0.351 N 
HETATM   32  C31 UNL     1     -10.643  -6.753   1.734  1.00  0.00     0.126 C 
HETATM   33  C34 UNL     1     -10.617  -8.383   0.087  1.00  0.00     0.126 C 
HETATM   34  C32 UNL     1     -11.930  -7.553   1.948  1.00  0.00     0.021 C 
HETATM   35  C33 UNL     1     -11.955  -8.562   0.825  1.00  0.00     0.021 C 
ENDBRANCH   1  29
BRANCH   5  36
HETATM   36  C6  UNL     1      -5.502 -11.949  -2.337  1.00  0.00     0.246 C 
HETATM   37  C7  UNL     1      -5.609 -13.411  -2.742  1.00  0.00     0.218 C 
HETATM   38  O3  UNL     1      -6.937 -13.847  -2.705  1.00  0.00    -0.345 OA
HETATM   39  C8  UNL     1      -8.059 -13.054  -2.660  1.00  0.00     0.103 A 
HETATM   40  C9  UNL     1      -9.324 -13.574  -2.516  1.00  0.00     0.058 A 
HETATM   41  C13 UNL     1      -7.867 -11.674  -2.770  1.00  0.00     0.103 A 
HETATM   42  C10 UNL     1     -10.428 -12.738  -2.476  1.00  0.00     0.013 A 
HETATM   43 BR1  UNL     1     -12.168 -13.477  -2.274  1.00  0.00    -0.051 Br
HETATM   44  C11 UNL     1     -10.220 -11.384  -2.586  1.00  0.00     0.022 A 
HETATM   45  C12 UNL     1      -8.967 -10.872  -2.729  1.00  0.00     0.041 A 
HETATM   46  O4  UNL     1      -6.580 -11.221  -2.913  1.00  0.00    -0.331 OA
ENDBRANCH   5  36
TORSDOF 9
ENDMDL
MODEL 3
REMARK VINA RESULT: -7.934296045      2.121      6.704
REMARK  9 active torsions:
REMARK  status: ('A' for Active; 'I' for Inactive)
REMARK    1  A    between atoms: C1_2  and  C2_3 
REMARK       I    between atoms: C1_2  and  N4_42 
REMARK       I    between atoms: N1_6  and  C5_7 
REMARK    2  A    between atoms: C5_7  and  C6_9 
REMARK    3  A    between atoms: C14_22  and  C15_23 
REMARK    4  A    between atoms: C15_23  and  C16_24 
REMARK    5  A    between atoms: C16_24  and  C17_25 
REMARK    6  A    between atoms: C17_25  and  C18_26 
REMARK    7  A    between atoms: C18_26  and  C19_27 
REMARK    8  A    between atoms: C19_27  and  N3_28 
REMARK       I    between atoms: N3_28  and  C20_30 
REMARK    9  A    between atoms: C20_30  and  C21_32 
ROOT
HETATM    1  C2  UNL     1      -4.771  -8.269  -2.442  1.00  0.00     0.126 C 
HETATM    2  C3  UNL     1      -3.636  -7.333  -2.798  1.00  0.00     0.042 C 
HETATM    3  C4  UNL     1      -2.620  -7.174  -1.723  1.00  0.00     0.153 C 
HETATM    4  N1  UNL     1      -2.973  -7.885  -0.505  1.00  0.00    -0.259 N 
HETATM    5  C5  UNL     1      -2.804  -7.272   0.735  1.00  0.00     0.270 C 
HETATM    6  O2  UNL     1      -2.369  -6.079   0.781  1.00  0.00    -0.269 OA
HETATM    7  N2  UNL     1      -3.503  -9.172  -0.637  1.00  0.00    -0.303 N 
ATOM      8  H2  UNL     1      -3.208  -9.924  -0.014  1.00  0.00     0.186 HD
HETATM    9  C14 UNL     1      -4.401  -9.394  -1.592  1.00  0.00     0.017 C 
ENDROOT
BRANCH   9  10
HETATM   10  C15 UNL     1      -4.927 -10.774  -1.642  1.00  0.00     0.055 C 
BRANCH  10  11
HETATM   11  C16 UNL     1      -5.014 -11.403  -0.272  1.00  0.00     0.006 C 
BRANCH  11  12
HETATM   12  C17 UNL     1      -6.271 -12.221  -0.097  1.00  0.00     0.002 C 
BRANCH  12  13
HETATM   13  C18 UNL     1      -6.315 -13.404  -1.043  1.00  0.00     0.020 C 
BRANCH  13  14
HETATM   14  C19 UNL     1      -7.486 -13.303  -1.992  1.00  0.00     0.122 C 
BRANCH  14  15
HETATM   15  N3  UNL     1      -8.346 -12.218  -1.673  1.00  0.00    -0.360 N 
HETATM   16  C20 UNL     1      -9.685 -12.044  -2.085  1.00  0.00     0.226 C 
HETATM   17  O5  UNL     1     -10.216 -12.916  -2.809  1.00  0.00    -0.273 OA
ATOM     18  H3  UNL     1      -7.953 -11.484  -1.083  1.00  0.00     0.162 HD
BRANCH  16  19
HETATM   19  C21 UNL     1     -10.510 -10.873  -1.706  1.00  0.00     0.042 C 
HETATM   20  C22 UNL     1     -10.695  -9.917  -2.861  1.00  0.00     0.024 C 
HETATM   21  C23 UNL     1     -11.630  -8.834  -2.431  1.00  0.00    -0.013 C 
HETATM   22  C24 UNL     1     -12.981  -9.365  -2.048  1.00  0.00     0.009 C 
HETATM   23  C28 UNL     1     -11.075  -8.038  -1.270  1.00  0.00     0.009 C 
HETATM   24  C25 UNL     1     -12.780 -10.290  -0.858  1.00  0.00    -0.013 C 
HETATM   25  C26 UNL     1     -12.166  -9.553   0.313  1.00  0.00     0.009 C 
HETATM   26  C30 UNL     1     -11.885 -11.408  -1.298  1.00  0.00     0.024 C 
HETATM   27  C27 UNL     1     -10.838  -9.017  -0.121  1.00  0.00    -0.013 C 
HETATM   28  C29 UNL     1      -9.909 -10.125  -0.548  1.00  0.00     0.024 C 
ENDBRANCH  16  19
ENDBRANCH  14  15
ENDBRANCH  13  14
ENDBRANCH  12  13
ENDBRANCH  11  12
ENDBRANCH  10  11
ENDBRANCH   9  10
BRANCH   1  29
HETATM   29  C1  UNL     1      -5.466  -8.587  -3.701  1.00  0.00     0.229 C 
HETATM   30  O1  UNL     1      -4.825  -9.092  -4.673  1.00  0.00    -0.273 OA
HETATM   31  N4  UNL     1      -6.844  -8.354  -3.901  1.00  0.00    -0.351 N 
HETATM   32  C31 UNL     1      -7.581  -8.615  -5.108  1.00  0.00     0.126 C 
HETATM   33  C34 UNL     1      -7.772  -7.829  -2.936  1.00  0.00     0.126 C 
HETATM   34  C32 UNL     1      -8.404  -7.330  -5.222  1.00  0.00     0.021 C 
HETATM   35  C33 UNL     1      -8.599  -6.862  -3.800  1.00  0.00     0.021 C 
ENDBRANCH   1  29
BRANCH   5  36
HETATM   36  C6  UNL     1      -3.134  -8.004   1.990  1.00  0.00     0.246 C 
HETATM   37  C7  UNL     1      -3.178  -6.974   3.108  1.00  0.00     0.218 C 
HETATM   38  O3  UNL     1      -4.388  -6.272   3.097  1.00  0.00    -0.345 OA
HETATM   39  C8  UNL     1      -5.539  -6.633   2.438  1.00  0.00     0.103 A 
HETATM   40  C9  UNL     1      -6.650  -5.823   2.397  1.00  0.00     0.058 A 
HETATM   41  C13 UNL     1      -5.543  -7.877   1.801  1.00  0.00     0.103 A 
HETATM   42  C10 UNL     1      -7.790  -6.226   1.721  1.00  0.00     0.013 A 
HETATM   43 BR1  UNL     1      -9.314  -5.091   1.673  1.00  0.00    -0.051 Br
HETATM   44  C11 UNL     1      -7.776  -7.452   1.100  1.00  0.00     0.022 A 
HETATM   45  C12 UNL     1      -6.675  -8.253   1.143  1.00  0.00     0.041 A 
HETATM   46  O4  UNL     1      -4.404  -8.636   1.882  1.00  0.00    -0.331 OA
ENDBRANCH   5  36
TORSDOF 9
ENDMDL
MODEL 4
REMARK VINA RESULT: -7.856883237      2.171      6.804
REMARK  9 active torsions:
REMARK  status: ('A' for Active; 'I' for Inactive)
REMARK    1  A    between atoms: C1_2  and  C2_3 
REMARK       I    between atoms: C1_2  and  N4_42 
REMARK       I    between atoms: N1_6  and  C5_7 
REMARK    2  A    between atoms: C5_7  and  C6_9 
REMARK    3  A    between atoms: C14_22  and  C15_23 
REMARK    4  A    between atoms: C15_23  and  C16_24 
REMARK    5  A    between atoms: C16_24  and  C17_25 
REMARK    6  A    between atoms: C17_25  and  C18_26 
REMARK    7  A    between atoms: C18_26  and  C19_27 
REMARK    8  A    between atoms: C19_27  and  N3_28 
REMARK       I    between atoms: N3_28  and  C20_30 
REMARK    9  A    between atoms: C20_30  and  C21_32 
ROOT
HETATM    1  C2  UNL     1      -4.755  -8.248  -2.466  1.00  0.00     0.126 C 
HETATM    2  C3  UNL     1      -3.627  -7.303  -2.818  1.00  0.00     0.042 C 
HETATM    3  C4  UNL     1      -2.618  -7.133  -1.738  1.00  0.00     0.153 C 
HETATM    4  N1  UNL     1      -2.971  -7.844  -0.520  1.00  0.00    -0.259 N 
HETATM    5  C5  UNL     1      -2.814  -7.227   0.719  1.00  0.00     0.270 C 
HETATM    6  O2  UNL     1      -2.391  -6.031   0.765  1.00  0.00    -0.269 OA
HETATM    7  N2  UNL     1      -3.490  -9.137  -0.652  1.00  0.00    -0.303 N 
ATOM      8  H2  UNL     1      -3.192  -9.884  -0.026  1.00  0.00     0.186 HD
HETATM    9  C14 UNL     1      -4.380  -9.368  -1.612  1.00  0.00     0.017 C 
ENDROOT
BRANCH   9  10
HETATM   10  C15 UNL     1      -4.894 -10.752  -1.661  1.00  0.00     0.055 C 
BRANCH  10  11
HETATM   11  C16 UNL     1      -5.082 -11.343  -0.284  1.00  0.00     0.006 C 
BRANCH  11  12
HETATM   12  C17 UNL     1      -6.446 -11.965  -0.110  1.00  0.00     0.002 C 
BRANCH  12  13
HETATM   13  C18 UNL     1      -6.612 -13.215  -0.950  1.00  0.00     0.020 C 
BRANCH  13  14
HETATM   14  C19 UNL     1      -7.695 -13.038  -1.988  1.00  0.00     0.122 C 
BRANCH  14  15
HETATM   15  N3  UNL     1      -8.580 -11.974  -1.666  1.00  0.00    -0.360 N 
HETATM   16  C20 UNL     1      -9.936 -11.854  -2.038  1.00  0.00     0.226 C 
HETATM   17  O5  UNL     1     -10.461 -12.760  -2.725  1.00  0.00    -0.273 OA
ATOM     18  H3  UNL     1      -8.194 -11.214  -1.106  1.00  0.00     0.162 HD
BRANCH  16  19
HETATM   19  C21 UNL     1     -10.788 -10.702  -1.660  1.00  0.00     0.042 C 
HETATM   20  C22 UNL     1     -12.184 -11.134  -1.279  1.00  0.00     0.024 C 
HETATM   21  C23 UNL     1     -12.935  -9.934  -0.800  1.00  0.00    -0.013 C 
HETATM   22  C24 UNL     1     -12.298  -9.306   0.406  1.00  0.00     0.009 C 
HETATM   23  C28 UNL     1     -13.067  -8.883  -1.881  1.00  0.00     0.009 C 
HETATM   24  C25 UNL     1     -10.913  -8.839  -0.008  1.00  0.00    -0.013 C 
HETATM   25  C26 UNL     1     -10.987  -7.830  -1.134  1.00  0.00     0.009 C 
HETATM   26  C30 UNL     1     -10.136 -10.046  -0.441  1.00  0.00     0.024 C 
HETATM   27  C27 UNL     1     -11.653  -8.487  -2.303  1.00  0.00    -0.013 C 
HETATM   28  C29 UNL     1     -10.879  -9.693  -2.772  1.00  0.00     0.024 C 
ENDBRANCH  16  19
ENDBRANCH  14  15
ENDBRANCH  13  14
ENDBRANCH  12  13
ENDBRANCH  11  12
ENDBRANCH  10  11
ENDBRANCH   9  10
BRANCH   1  29
HETATM   29  C1  UNL     1      -5.441  -8.575  -3.728  1.00  0.00     0.229 C 
HETATM   30  O1  UNL     1      -4.788  -9.069  -4.698  1.00  0.00    -0.273 OA
HETATM   31  N4  UNL     1      -6.821  -8.362  -3.933  1.00  0.00    -0.351 N 
HETATM   32  C31 UNL     1      -7.550  -8.633  -5.143  1.00  0.00     0.126 C 
HETATM   33  C34 UNL     1      -7.760  -7.852  -2.971  1.00  0.00     0.126 C 
HETATM   34  C32 UNL     1      -8.391  -7.360  -5.259  1.00  0.00     0.021 C 
HETATM   35  C33 UNL     1      -8.599  -6.897  -3.837  1.00  0.00     0.021 C 
ENDBRANCH   1  29
BRANCH   5  36
HETATM   36  C6  UNL     1      -3.145  -7.959   1.974  1.00  0.00     0.246 C 
HETATM   37  C7  UNL     1      -3.198  -6.928   3.090  1.00  0.00     0.218 C 
HETATM   38  O3  UNL     1      -4.411  -6.233   3.075  1.00  0.00    -0.345 OA
HETATM   39  C8  UNL     1      -5.558  -6.600   2.413  1.00  0.00     0.103 A 
HETATM   40  C9  UNL     1      -6.673  -5.795   2.367  1.00  0.00     0.058 A 
HETATM   41  C13 UNL     1      -5.554  -7.844   1.777  1.00  0.00     0.103 A 
HETATM   42  C10 UNL     1      -7.809  -6.205   1.688  1.00  0.00     0.013 A 
HETATM   43 BR1  UNL     1      -9.338  -5.077   1.634  1.00  0.00    -0.051 Br
HETATM   44  C11 UNL     1      -7.786  -7.432   1.068  1.00  0.00     0.022 A 
HETATM   45  C12 UNL     1      -6.682  -8.227   1.116  1.00  0.00     0.041 A 
HETATM   46  O4  UNL     1      -4.411  -8.598   1.863  1.00  0.00    -0.331 OA
ENDBRANCH   5  36
TORSDOF 9
ENDMDL
MODEL 5
REMARK VINA RESULT: -7.798287645      3.070      6.247
REMARK  9 active torsions:
REMARK  status: ('A' for Active; 'I' for Inactive)
REMARK    1  A    between atoms: C1_2  and  C2_3 
REMARK       I    between atoms: C1_2  and  N4_42 
REMARK       I    between atoms: N1_6  and  C5_7 
REMARK    2  A    between atoms: C5_7  and  C6_9 
REMARK    3  A    between atoms: C14_22  and  C15_23 
REMARK    4  A    between atoms: C15_23  and  C16_24 
REMARK    5  A    between atoms: C16_24  and  C17_25 
REMARK    6  A    between atoms: C17_25  and  C18_26 
REMARK    7  A    between atoms: C18_26  and  C19_27 
REMARK    8  A    between atoms: C19_27  and  N3_28 
REMARK       I    between atoms: N3_28  and  C20_30 
REMARK    9  A    between atoms: C20_30  and  C21_32 
ROOT
HETATM    1  C2  UNL     1      -9.321  -7.170  -3.423  1.00  0.00     0.126 C 
HETATM    2  C3  UNL     1     -10.153  -5.911  -3.523  1.00  0.00     0.042 C 
HETATM    3  C4  UNL     1     -10.551  -5.338  -2.208  1.00  0.00     0.153 C 
HETATM    4  N1  UNL     1     -10.132  -6.162  -1.086  1.00  0.00    -0.259 N 
HETATM    5  C5  UNL     1     -11.009  -6.399  -0.029  1.00  0.00     0.270 C 
HETATM    6  O2  UNL     1     -12.181  -5.913  -0.077  1.00  0.00    -0.269 OA
HETATM    7  N2  UNL     1      -8.848  -6.714  -1.131  1.00  0.00    -0.303 N 
ATOM      8  H2  UNL     1      -8.255  -6.725  -0.301  1.00  0.00     0.186 HD
HETATM    9  C14 UNL     1      -8.417  -7.224  -2.281  1.00  0.00     0.017 C 
ENDROOT
BRANCH   9  10
HETATM   10  C15 UNL     1      -7.061  -7.809  -2.231  1.00  0.00     0.055 C 
BRANCH  10  11
HETATM   11  C16 UNL     1      -6.005  -6.854  -2.736  1.00  0.00     0.006 C 
BRANCH  11  12
HETATM   12  C17 UNL     1      -4.732  -7.564  -3.126  1.00  0.00     0.002 C 
BRANCH  12  13
HETATM   13  C18 UNL     1      -3.592  -7.246  -2.179  1.00  0.00     0.020 C 
BRANCH  13  14
HETATM   14  C19 UNL     1      -3.510  -8.256  -1.059  1.00  0.00     0.122 C 
BRANCH  14  15
HETATM   15  N3  UNL     1      -4.159  -9.477  -1.388  1.00  0.00    -0.360 N 
HETATM   16  C20 UNL     1      -4.915 -10.298  -0.523  1.00  0.00     0.226 C 
HETATM   17  O5  UNL     1      -5.058  -9.953   0.671  1.00  0.00    -0.273 OA
ATOM     18  H3  UNL     1      -4.068  -9.795  -2.353  1.00  0.00     0.162 HD
BRANCH  16  19
HETATM   19  C21 UNL     1      -5.556 -11.563  -0.952  1.00  0.00     0.042 C 
HETATM   20  C22 UNL     1      -6.110 -11.467  -2.354  1.00  0.00     0.024 C 
HETATM   21  C23 UNL     1      -6.629 -12.811  -2.750  1.00  0.00    -0.013 C 
HETATM   22  C24 UNL     1      -5.555 -13.860  -2.747  1.00  0.00     0.009 C 
HETATM   23  C28 UNL     1      -7.756 -13.268  -1.849  1.00  0.00     0.009 C 
HETATM   24  C25 UNL     1      -5.041 -13.974  -1.321  1.00  0.00    -0.013 C 
HETATM   25  C26 UNL     1      -6.147 -14.368  -0.367  1.00  0.00     0.009 C 
HETATM   26  C30 UNL     1      -4.471 -12.642  -0.936  1.00  0.00     0.024 C 
HETATM   27  C27 UNL     1      -7.207 -13.313  -0.424  1.00  0.00    -0.013 C 
HETATM   28  C29 UNL     1      -6.665 -11.965  -0.018  1.00  0.00     0.024 C 
ENDBRANCH  16  19
ENDBRANCH  14  15
ENDBRANCH  13  14
ENDBRANCH  12  13
ENDBRANCH  11  12
ENDBRANCH  10  11
ENDBRANCH   9  10
BRANCH   1  29
HETATM   29  C1  UNL     1      -8.728  -7.392  -4.752  1.00  0.00     0.229 C 
HETATM   30  O1  UNL     1      -8.379  -6.402  -5.467  1.00  0.00    -0.273 OA
HETATM   31  N4  UNL     1      -8.520  -8.675  -5.300  1.00  0.00    -0.351 N 
HETATM   32  C31 UNL     1      -7.972  -8.965  -6.598  1.00  0.00     0.126 C 
HETATM   33  C34 UNL     1      -8.801  -9.934  -4.663  1.00  0.00     0.126 C 
HETATM   34  C32 UNL     1      -8.938 -10.049  -7.080  1.00  0.00     0.021 C 
HETATM   35  C33 UNL     1      -9.415 -10.735  -5.823  1.00  0.00     0.021 C 
ENDBRANCH   1  29
BRANCH   5  36
HETATM   36  C6  UNL     1     -10.577  -7.217   1.139  1.00  0.00     0.246 C 
HETATM   37  C7  UNL     1     -11.830  -7.555   1.933  1.00  0.00     0.218 C 
HETATM   38  O3  UNL     1     -12.529  -8.612   1.342  1.00  0.00    -0.345 OA
HETATM   39  C8  UNL     1     -12.049  -9.486   0.397  1.00  0.00     0.103 A 
HETATM   40  C9  UNL     1     -12.846 -10.430  -0.208  1.00  0.00     0.058 A 
HETATM   41  C13 UNL     1     -10.695  -9.382   0.066  1.00  0.00     0.103 A 
HETATM   42  C10 UNL     1     -12.319 -11.292  -1.156  1.00  0.00     0.013 A 
HETATM   43 BR1  UNL     1     -13.439 -12.587  -1.982  1.00  0.00    -0.051 Br
HETATM   44  C11 UNL     1     -10.986 -11.175  -1.470  1.00  0.00     0.022 A 
HETATM   45  C12 UNL     1     -10.199 -10.240  -0.869  1.00  0.00     0.041 A 
HETATM   46  O4  UNL     1      -9.956  -8.421   0.707  1.00  0.00    -0.331 OA
ENDBRANCH   5  36
TORSDOF 9
ENDMDL
