MODEL 1
REMARK VINA RESULT: -8.610362506      0.000      0.000
REMARK  13 active torsions:
REMARK  status: ('A' for Active; 'I' for Inactive)
REMARK    1  A    between atoms: N1_5  and  C5_6 
REMARK    2  A    between atoms: C5_6  and  O1_7 
REMARK    3  A    between atoms: C5_6  and  C6_9 
REMARK    4  A    between atoms: C15_19  and  C20_25 
REMARK    5  A    between atoms: N4_26  and  C21_27 
REMARK    6  A    between atoms: C21_27  and  C22_28 
REMARK    7  A    between atoms: C22_28  and  C23_29 
REMARK    8  A    between atoms: C23_29  and  N5_30 
REMARK    9  A    between atoms: N5_30  and  C26_33 
REMARK   10  A    between atoms: C26_33  and  C27_34 
REMARK   11  A    between atoms: C27_34  and  C28_35 
REMARK   12  A    between atoms: C28_35  and  N6_36 
REMARK       I    between atoms: N6_36  and  C29_38 
REMARK   13  A    between atoms: C29_38  and  C30_40 
ROOT
HETATM    1  C6  UNL     1      -7.589 -11.775  -1.271  1.00  0.00     0.177 C 
HETATM    2  C7  UNL     1      -8.095 -10.897  -2.399  1.00  0.00     0.105 C 
HETATM    3  N2  UNL     1      -8.845 -11.164  -3.462  1.00  0.00    -0.272 NA
HETATM    4  C8  UNL     1     -10.227 -11.130  -3.126  1.00  0.00     0.096 C 
HETATM    5  C9  UNL     1     -10.569 -11.060  -1.664  1.00  0.00     0.016 C 
HETATM    6  C10 UNL     1      -9.662 -10.250  -0.768  1.00  0.00     0.014 C 
HETATM    7  C11 UNL     1      -8.545  -9.748  -1.629  1.00  0.00    -0.001 C 
HETATM    8  C12 UNL     1      -9.165  -8.517  -2.131  1.00  0.00     0.015 C 
HETATM    9  C13 UNL     1      -8.557  -7.699  -3.170  1.00  0.00     0.026 C 
HETATM   10  C14 UNL     1      -7.243  -8.319  -3.378  1.00  0.00     0.090 C 
HETATM   11  C15 UNL     1      -6.504  -8.622  -2.057  1.00  0.00     0.032 C 
HETATM   12  C16 UNL     1      -5.128  -8.880  -2.516  1.00  0.00     0.010 C 
HETATM   13  C17 UNL     1      -4.931  -8.937  -4.023  1.00  0.00     0.020 C 
HETATM   14  C18 UNL     1      -6.043  -9.568  -4.823  1.00  0.00     0.123 C 
HETATM   15  N3  UNL     1      -7.325  -9.396  -4.247  1.00  0.00    -0.376 N 
HETATM   16  C19 UNL     1      -8.430 -10.158  -4.487  1.00  0.00     0.149 C 
HETATM   17  C20 UNL     1      -7.198  -9.471  -1.078  1.00  0.00     0.100 C 
HETATM   18  N4  UNL     1      -6.698 -10.797  -0.789  1.00  0.00    -0.374 N 
ENDROOT
BRANCH  18  19
HETATM   19  C21 UNL     1      -6.001 -10.965   0.393  1.00  0.00     0.061 C 
BRANCH  19  20
HETATM   20  C22 UNL     1      -4.510 -10.735   0.420  1.00  0.00     0.072 C 
BRANCH  20  21
HETATM   21  C23 UNL     1      -4.098 -10.037   1.663  1.00  0.00     0.241 C 
BRANCH  21  22
HETATM   22  N5  UNL     1      -3.709  -8.687   1.535  1.00  0.00    -0.074 N 
HETATM   23  C24 UNL     1      -4.848  -7.773   1.554  1.00  0.00     0.272 C 
HETATM   24  C25 UNL     1      -2.994  -8.365   2.801  1.00  0.00     0.272 C 
BRANCH  22  25
HETATM   25  C26 UNL     1      -2.817  -8.458   0.453  1.00  0.00     0.238 C 
BRANCH  25  26
HETATM   26  C27 UNL     1      -2.954  -7.052  -0.124  1.00  0.00     0.048 C 
BRANCH  26  27
HETATM   27  C28 UNL     1      -1.572  -6.442  -0.164  1.00  0.00     0.124 C 
BRANCH  27  28
HETATM   28  N6  UNL     1      -1.589  -5.221   0.610  1.00  0.00    -0.356 N 
HETATM   29  C29 UNL     1      -1.002  -5.146   1.884  1.00  0.00     0.258 C 
HETATM   30  O2  UNL     1      -0.446  -6.128   2.409  1.00  0.00    -0.267 OA
ATOM     31  H6  UNL     1      -2.039  -4.393   0.220  1.00  0.00     0.162 HD
BRANCH  29  32
HETATM   32  C30 UNL     1      -1.066  -3.844   2.596  1.00  0.00     0.074 A 
HETATM   33  C31 UNL     1      -0.160  -2.821   2.562  1.00  0.00     0.027 A 
HETATM   34  C32 UNL     1      -0.443  -1.729   3.290  1.00  0.00     0.033 A 
HETATM   35  C33 UNL     1      -1.611  -1.734   4.003  1.00  0.00     0.075 A 
HETATM   36 CL1  UNL     1      -2.233  -0.437   5.047  1.00  0.00    -0.076 Cl
HETATM   37  S1  UNL     1      -2.279  -3.253   3.640  1.00  0.00    -0.072 SA
ENDBRANCH  29  32
ENDBRANCH  27  28
ENDBRANCH  26  27
ENDBRANCH  25  26
ENDBRANCH  22  25
ENDBRANCH  21  22
ENDBRANCH  20  21
ENDBRANCH  19  20
ENDBRANCH  18  19
BRANCH   1  38
HETATM   38  C5  UNL     1      -7.052 -13.039  -1.751  1.00  0.00     0.138 C 
BRANCH  38  39
HETATM   39  N1  UNL     1      -5.841 -13.708  -1.672  1.00  0.00    -0.364 N 
HETATM   40  C4  UNL     1      -5.471 -14.275  -0.359  1.00  0.00     0.125 C 
HETATM   41  C3  UNL     1      -5.101 -15.733  -0.501  1.00  0.00     0.024 C 
HETATM   42  C2  UNL     1      -4.032 -15.909  -1.567  1.00  0.00    -0.015 C 
HETATM   43  C1  UNL     1      -4.637 -16.722  -2.688  1.00  0.00     0.010 C 
HETATM   44  C35 UNL     1      -3.643 -14.564  -2.136  1.00  0.00     0.024 C 
HETATM   45  C34 UNL     1      -4.937 -13.959  -2.725  1.00  0.00     0.125 C 
ENDBRANCH  38  39
BRANCH  38  46
HETATM   46  O1  UNL     1      -7.940 -13.741  -2.451  1.00  0.00    -0.348 OA
ATOM     47  H1  UNL     1      -8.803 -13.687  -2.057  1.00  0.00     0.219 HD
ENDBRANCH  38  46
ENDBRANCH   1  38
TORSDOF 13
ENDMDL
MODEL 2
REMARK VINA RESULT: -8.365556458      3.493      4.744
REMARK  13 active torsions:
REMARK  status: ('A' for Active; 'I' for Inactive)
REMARK    1  A    between atoms: N1_5  and  C5_6 
REMARK    2  A    between atoms: C5_6  and  O1_7 
REMARK    3  A    between atoms: C5_6  and  C6_9 
REMARK    4  A    between atoms: C15_19  and  C20_25 
REMARK    5  A    between atoms: N4_26  and  C21_27 
REMARK    6  A    between atoms: C21_27  and  C22_28 
REMARK    7  A    between atoms: C22_28  and  C23_29 
REMARK    8  A    between atoms: C23_29  and  N5_30 
REMARK    9  A    between atoms: N5_30  and  C26_33 
REMARK   10  A    between atoms: C26_33  and  C27_34 
REMARK   11  A    between atoms: C27_34  and  C28_35 
REMARK   12  A    between atoms: C28_35  and  N6_36 
REMARK       I    between atoms: N6_36  and  C29_38 
REMARK   13  A    between atoms: C29_38  and  C30_40 
ROOT
HETATM    1  C6  UNL     1      -7.564 -11.688  -1.292  1.00  0.00     0.177 C 
HETATM    2  C7  UNL     1      -8.091 -10.821  -2.420  1.00  0.00     0.105 C 
HETATM    3  N2  UNL     1      -8.857 -11.100  -3.468  1.00  0.00    -0.272 NA
HETATM    4  C8  UNL     1     -10.234 -11.066  -3.110  1.00  0.00     0.096 C 
HETATM    5  C9  UNL     1     -10.553 -10.985  -1.643  1.00  0.00     0.016 C 
HETATM    6  C10 UNL     1      -9.634 -10.165  -0.770  1.00  0.00     0.014 C 
HETATM    7  C11 UNL     1      -8.532  -9.667  -1.652  1.00  0.00    -0.001 C 
HETATM    8  C12 UNL     1      -9.164  -8.442  -2.155  1.00  0.00     0.015 C 
HETATM    9  C13 UNL     1      -8.575  -7.632  -3.211  1.00  0.00     0.026 C 
HETATM   10  C14 UNL     1      -7.263  -8.249  -3.435  1.00  0.00     0.090 C 
HETATM   11  C15 UNL     1      -6.502  -8.540  -2.123  1.00  0.00     0.032 C 
HETATM   12  C16 UNL     1      -5.132  -8.797  -2.602  1.00  0.00     0.010 C 
HETATM   13  C17 UNL     1      -4.959  -8.867  -4.111  1.00  0.00     0.020 C 
HETATM   14  C18 UNL     1      -6.083  -9.509  -4.888  1.00  0.00     0.123 C 
HETATM   15  N3  UNL     1      -7.355  -9.335  -4.293  1.00  0.00    -0.376 N 
HETATM   16  C19 UNL     1      -8.462 -10.102  -4.509  1.00  0.00     0.149 C 
HETATM   17  C20 UNL     1      -7.178  -9.382  -1.126  1.00  0.00     0.100 C 
HETATM   18  N4  UNL     1      -6.669 -10.703  -0.833  1.00  0.00    -0.374 N 
ENDROOT
BRANCH  18  19
HETATM   19  C21 UNL     1      -5.952 -10.859   0.338  1.00  0.00     0.061 C 
BRANCH  19  20
HETATM   20  C22 UNL     1      -4.461 -10.635   0.337  1.00  0.00     0.072 C 
BRANCH  20  21
HETATM   21  C23 UNL     1      -3.997 -10.103   1.642  1.00  0.00     0.241 C 
BRANCH  21  22
HETATM   22  N5  UNL     1      -3.763  -8.713   1.715  1.00  0.00    -0.074 N 
HETATM   23  C24 UNL     1      -2.799  -8.362   2.754  1.00  0.00     0.272 C 
HETATM   24  C25 UNL     1      -3.045  -8.371   0.456  1.00  0.00     0.272 C 
BRANCH  22  25
HETATM   25  C26 UNL     1      -4.956  -7.943   1.764  1.00  0.00     0.238 C 
BRANCH  25  26
HETATM   26  C27 UNL     1      -4.972  -6.831   0.720  1.00  0.00     0.048 C 
BRANCH  26  27
HETATM   27  C28 UNL     1      -5.995  -5.810   1.161  1.00  0.00     0.124 C 
BRANCH  27  28
HETATM   28  N6  UNL     1      -7.310  -6.396   1.029  1.00  0.00    -0.356 N 
HETATM   29  C29 UNL     1      -8.169  -6.540   2.133  1.00  0.00     0.258 C 
HETATM   30  O2  UNL     1      -7.834  -6.176   3.275  1.00  0.00    -0.267 OA
ATOM     31  H6  UNL     1      -7.623  -6.713   0.112  1.00  0.00     0.162 HD
BRANCH  29  32
HETATM   32  C30 UNL     1      -9.503  -7.146   1.893  1.00  0.00     0.074 A 
HETATM   33  C31 UNL     1     -10.064  -8.222   2.520  1.00  0.00     0.027 A 
HETATM   34  C32 UNL     1     -11.298  -8.582   2.134  1.00  0.00     0.033 A 
HETATM   35  C33 UNL     1     -11.887  -7.841   1.145  1.00  0.00     0.075 A 
HETATM   36 CL1  UNL     1     -13.500  -8.089   0.440  1.00  0.00    -0.076 Cl
HETATM   37  S1  UNL     1     -10.710  -6.670   0.786  1.00  0.00    -0.072 SA
ENDBRANCH  29  32
ENDBRANCH  27  28
ENDBRANCH  26  27
ENDBRANCH  25  26
ENDBRANCH  22  25
ENDBRANCH  21  22
ENDBRANCH  20  21
ENDBRANCH  19  20
ENDBRANCH  18  19
BRANCH   1  38
HETATM   38  C5  UNL     1      -7.031 -12.955  -1.770  1.00  0.00     0.138 C 
BRANCH  38  39
HETATM   39  N1  UNL     1      -5.833 -13.642  -1.662  1.00  0.00    -0.364 N 
HETATM   40  C4  UNL     1      -5.504 -14.218  -0.343  1.00  0.00     0.125 C 
HETATM   41  C3  UNL     1      -5.153 -15.681  -0.479  1.00  0.00     0.024 C 
HETATM   42  C2  UNL     1      -4.060 -15.870  -1.519  1.00  0.00    -0.015 C 
HETATM   43  C1  UNL     1      -4.649 -16.671  -2.656  1.00  0.00     0.010 C 
HETATM   44  C35 UNL     1      -3.638 -14.530  -2.074  1.00  0.00     0.024 C 
HETATM   45  C34 UNL     1      -4.907 -13.904  -2.693  1.00  0.00     0.125 C 
ENDBRANCH  38  39
BRANCH  38  46
HETATM   46  O1  UNL     1      -7.909 -13.637  -2.503  1.00  0.00    -0.348 OA
ATOM     47  H1  UNL     1      -8.430 -13.053  -3.041  1.00  0.00     0.219 HD
ENDBRANCH  38  46
ENDBRANCH   1  38
TORSDOF 13
ENDMDL
MODEL 3
REMARK VINA RESULT: -8.331545868      2.607      3.165
REMARK  13 active torsions:
REMARK  status: ('A' for Active; 'I' for Inactive)
REMARK    1  A    between atoms: N1_5  and  C5_6 
REMARK    2  A    between atoms: C5_6  and  O1_7 
REMARK    3  A    between atoms: C5_6  and  C6_9 
REMARK    4  A    between atoms: C15_19  and  C20_25 
REMARK    5  A    between atoms: N4_26  and  C21_27 
REMARK    6  A    between atoms: C21_27  and  C22_28 
REMARK    7  A    between atoms: C22_28  and  C23_29 
REMARK    8  A    between atoms: C23_29  and  N5_30 
REMARK    9  A    between atoms: N5_30  and  C26_33 
REMARK   10  A    between atoms: C26_33  and  C27_34 
REMARK   11  A    between atoms: C27_34  and  C28_35 
REMARK   12  A    between atoms: C28_35  and  N6_36 
REMARK       I    between atoms: N6_36  and  C29_38 
REMARK   13  A    between atoms: C29_38  and  C30_40 
ROOT
HETATM    1  C6  UNL     1      -7.624 -11.725  -1.375  1.00  0.00     0.177 C 
HETATM    2  C7  UNL     1      -8.119 -10.855  -2.514  1.00  0.00     0.105 C 
HETATM    3  N2  UNL     1      -8.840 -11.134  -3.594  1.00  0.00    -0.272 NA
HETATM    4  C8  UNL     1     -10.230 -11.123  -3.290  1.00  0.00     0.096 C 
HETATM    5  C9  UNL     1     -10.607 -11.061  -1.836  1.00  0.00     0.016 C 
HETATM    6  C10 UNL     1      -9.734 -10.237  -0.919  1.00  0.00     0.014 C 
HETATM    7  C11 UNL     1      -8.606  -9.715  -1.754  1.00  0.00    -0.001 C 
HETATM    8  C12 UNL     1      -9.236  -8.494  -2.269  1.00  0.00     0.015 C 
HETATM    9  C13 UNL     1      -8.619  -7.665  -3.294  1.00  0.00     0.026 C 
HETATM   10  C14 UNL     1      -7.290  -8.261  -3.472  1.00  0.00     0.090 C 
HETATM   11  C15 UNL     1      -6.576  -8.554  -2.134  1.00  0.00     0.032 C 
HETATM   12  C16 UNL     1      -5.185  -8.787  -2.562  1.00  0.00     0.010 C 
HETATM   13  C17 UNL     1      -4.953  -8.839  -4.064  1.00  0.00     0.020 C 
HETATM   14  C18 UNL     1      -6.036  -9.489  -4.890  1.00  0.00     0.123 C 
HETATM   15  N3  UNL     1      -7.333  -9.340  -4.343  1.00  0.00    -0.376 N 
HETATM   16  C19 UNL     1      -8.419 -10.120  -4.609  1.00  0.00     0.149 C 
HETATM   17  C20 UNL     1      -7.278  -9.415  -1.172  1.00  0.00     0.100 C 
HETATM   18  N4  UNL     1      -6.761 -10.732  -0.872  1.00  0.00    -0.374 N 
ENDROOT
BRANCH  18  19
HETATM   19  C21 UNL     1      -6.089 -10.890   0.325  1.00  0.00     0.061 C 
BRANCH  19  20
HETATM   20  C22 UNL     1      -4.589 -10.735   0.365  1.00  0.00     0.072 C 
BRANCH  20  21
HETATM   21  C23 UNL     1      -4.151 -10.071   1.617  1.00  0.00     0.241 C 
BRANCH  21  22
HETATM   22  N5  UNL     1      -3.768  -8.716   1.518  1.00  0.00    -0.074 N 
HETATM   23  C24 UNL     1      -4.904  -7.805   1.621  1.00  0.00     0.272 C 
HETATM   24  C25 UNL     1      -2.994  -8.438   2.760  1.00  0.00     0.272 C 
BRANCH  22  25
HETATM   25  C26 UNL     1      -2.925  -8.449   0.405  1.00  0.00     0.238 C 
BRANCH  25  26
HETATM   26  C27 UNL     1      -1.899  -7.360   0.703  1.00  0.00     0.048 C 
BRANCH  26  27
HETATM   27  C28 UNL     1      -1.731  -6.541  -0.555  1.00  0.00     0.124 C 
BRANCH  27  28
HETATM   28  N6  UNL     1      -3.043  -6.251  -1.089  1.00  0.00    -0.356 N 
HETATM   29  C29 UNL     1      -3.726  -5.065  -0.766  1.00  0.00     0.258 C 
HETATM   30  O2  UNL     1      -3.236  -4.214  -0.001  1.00  0.00    -0.267 OA
ATOM     31  H6  UNL     1      -3.485  -6.923  -1.716  1.00  0.00     0.162 HD
BRANCH  29  32
HETATM   32  C30 UNL     1      -5.066  -4.855  -1.372  1.00  0.00     0.074 A 
HETATM   33  C31 UNL     1      -5.391  -4.798  -2.697  1.00  0.00     0.027 A 
HETATM   34  C32 UNL     1      -6.684  -4.606  -3.003  1.00  0.00     0.033 A 
HETATM   35  C33 UNL     1      -7.564  -4.482  -1.962  1.00  0.00     0.075 A 
HETATM   36 CL1  UNL     1      -9.318  -4.220  -2.070  1.00  0.00    -0.076 Cl
HETATM   37  S1  UNL     1      -6.569  -4.639  -0.594  1.00  0.00    -0.072 SA
ENDBRANCH  29  32
ENDBRANCH  27  28
ENDBRANCH  26  27
ENDBRANCH  25  26
ENDBRANCH  22  25
ENDBRANCH  21  22
ENDBRANCH  20  21
ENDBRANCH  19  20
ENDBRANCH  18  19
BRANCH   1  38
HETATM   38  C5  UNL     1      -7.054 -12.979  -1.843  1.00  0.00     0.138 C 
BRANCH  38  39
HETATM   39  N1  UNL     1      -5.849 -13.648  -1.701  1.00  0.00    -0.364 N 
HETATM   40  C4  UNL     1      -5.542 -14.205  -0.368  1.00  0.00     0.125 C 
HETATM   41  C3  UNL     1      -5.166 -15.664  -0.481  1.00  0.00     0.024 C 
HETATM   42  C2  UNL     1      -4.047 -15.847  -1.493  1.00  0.00    -0.015 C 
HETATM   43  C1  UNL     1      -4.598 -16.669  -2.635  1.00  0.00     0.010 C 
HETATM   44  C35 UNL     1      -3.632 -14.506  -2.053  1.00  0.00     0.024 C 
HETATM   45  C34 UNL     1      -4.896 -13.906  -2.707  1.00  0.00     0.125 C 
ENDBRANCH  38  39
BRANCH  38  46
HETATM   46  O1  UNL     1      -7.896 -13.670  -2.609  1.00  0.00    -0.348 OA
ATOM     47  H1  UNL     1      -8.601 -14.041  -2.092  1.00  0.00     0.219 HD
ENDBRANCH  38  46
ENDBRANCH   1  38
TORSDOF 13
ENDMDL
MODEL 4
REMARK VINA RESULT: -8.263976920      4.501      9.233
REMARK  13 active torsions:
REMARK  status: ('A' for Active; 'I' for Inactive)
REMARK    1  A    between atoms: N1_5  and  C5_6 
REMARK    2  A    between atoms: C5_6  and  O1_7 
REMARK    3  A    between atoms: C5_6  and  C6_9 
REMARK    4  A    between atoms: C15_19  and  C20_25 
REMARK    5  A    between atoms: N4_26  and  C21_27 
REMARK    6  A    between atoms: C21_27  and  C22_28 
REMARK    7  A    between atoms: C22_28  and  C23_29 
REMARK    8  A    between atoms: C23_29  and  N5_30 
REMARK    9  A    between atoms: N5_30  and  C26_33 
REMARK   10  A    between atoms: C26_33  and  C27_34 
REMARK   11  A    between atoms: C27_34  and  C28_35 
REMARK   12  A    between atoms: C28_35  and  N6_36 
REMARK       I    between atoms: N6_36  and  C29_38 
REMARK   13  A    between atoms: C29_38  and  C30_40 
ROOT
HETATM    1  C6  UNL     1      -5.085  -8.292   1.018  1.00  0.00     0.177 C 
HETATM    2  C7  UNL     1      -4.621  -7.206   0.066  1.00  0.00     0.105 C 
HETATM    3  N2  UNL     1      -4.848  -5.897   0.037  1.00  0.00    -0.272 NA
HETATM    4  C8  UNL     1      -3.942  -5.210   0.893  1.00  0.00     0.096 C 
HETATM    5  C9  UNL     1      -3.114  -6.053   1.823  1.00  0.00     0.016 C 
HETATM    6  C10 UNL     1      -2.640  -7.395   1.319  1.00  0.00     0.014 C 
HETATM    7  C11 UNL     1      -3.218  -7.569  -0.051  1.00  0.00    -0.001 C 
HETATM    8  C12 UNL     1      -2.178  -6.895  -0.836  1.00  0.00     0.015 C 
HETATM    9  C13 UNL     1      -2.322  -6.622  -2.259  1.00  0.00     0.026 C 
HETATM   10  C14 UNL     1      -3.571  -7.303  -2.621  1.00  0.00     0.090 C 
HETATM   11  C15 UNL     1      -3.657  -8.741  -2.063  1.00  0.00     0.032 C 
HETATM   12  C16 UNL     1      -4.773  -9.314  -2.836  1.00  0.00     0.010 C 
HETATM   13  C17 UNL     1      -5.532  -8.341  -3.725  1.00  0.00     0.020 C 
HETATM   14  C18 UNL     1      -5.726  -6.946  -3.184  1.00  0.00     0.123 C 
HETATM   15  N3  UNL     1      -4.676  -6.515  -2.338  1.00  0.00    -0.376 N 
HETATM   16  C19 UNL     1      -4.742  -5.521  -1.406  1.00  0.00     0.149 C 
HETATM   17  C20 UNL     1      -3.514  -8.908  -0.610  1.00  0.00     0.100 C 
HETATM   18  N4  UNL     1      -4.645  -9.337   0.182  1.00  0.00    -0.374 N 
ENDROOT
BRANCH  18  19
HETATM   19  C21 UNL     1      -4.665 -10.656   0.593  1.00  0.00     0.061 C 
BRANCH  19  20
HETATM   20  C22 UNL     1      -5.692 -11.602   0.021  1.00  0.00     0.072 C 
BRANCH  20  21
HETATM   21  C23 UNL     1      -5.127 -12.393  -1.100  1.00  0.00     0.241 C 
BRANCH  21  22
HETATM   22  N5  UNL     1      -5.974 -13.355  -1.689  1.00  0.00    -0.074 N 
HETATM   23  C24 UNL     1      -5.234 -14.371  -2.434  1.00  0.00     0.272 C 
HETATM   24  C25 UNL     1      -6.548 -14.121  -0.548  1.00  0.00     0.272 C 
BRANCH  22  25
HETATM   25  C26 UNL     1      -7.049 -12.785  -2.423  1.00  0.00     0.238 C 
BRANCH  25  26
HETATM   26  C27 UNL     1      -8.410 -13.232  -1.898  1.00  0.00     0.048 C 
BRANCH  26  27
HETATM   27  C28 UNL     1      -9.355 -13.284  -3.076  1.00  0.00     0.124 C 
BRANCH  27  28
HETATM   28  N6  UNL     1     -10.558 -12.563  -2.728  1.00  0.00    -0.356 N 
HETATM   29  C29 UNL     1     -11.691 -13.219  -2.218  1.00  0.00     0.258 C 
HETATM   30  O2  UNL     1     -11.713 -14.452  -2.048  1.00  0.00    -0.267 OA
ATOM     31  H6  UNL     1     -10.586 -11.551  -2.856  1.00  0.00     0.162 HD
BRANCH  29  32
HETATM   32  C30 UNL     1     -12.876 -12.388  -1.882  1.00  0.00     0.074 A 
HETATM   33  C31 UNL     1     -12.933 -11.294  -1.066  1.00  0.00     0.027 A 
HETATM   34  C32 UNL     1     -14.128 -10.699  -0.923  1.00  0.00     0.033 A 
HETATM   35  C33 UNL     1     -15.184 -11.239  -1.605  1.00  0.00     0.075 A 
HETATM   36 CL1  UNL     1     -16.866 -10.665  -1.600  1.00  0.00    -0.076 Cl
HETATM   37  S1  UNL     1     -14.485 -12.554  -2.423  1.00  0.00    -0.072 SA
ENDBRANCH  29  32
ENDBRANCH  27  28
ENDBRANCH  26  27
ENDBRANCH  25  26
ENDBRANCH  22  25
ENDBRANCH  21  22
ENDBRANCH  20  21
ENDBRANCH  19  20
ENDBRANCH  18  19
BRANCH   1  38
HETATM   38  C5  UNL     1      -6.503  -8.189   1.327  1.00  0.00     0.138 C 
BRANCH  38  39
HETATM   39  N1  UNL     1      -7.673  -8.778   0.874  1.00  0.00    -0.364 N 
HETATM   40  C4  UNL     1      -8.662  -9.178   1.895  1.00  0.00     0.125 C 
HETATM   41  C3  UNL     1     -10.023  -8.615   1.559  1.00  0.00     0.024 C 
HETATM   42  C2  UNL     1     -10.419  -8.993   0.141  1.00  0.00    -0.015 C 
HETATM   43  C1  UNL     1     -10.516  -7.715  -0.659  1.00  0.00     0.010 C 
HETATM   44  C35 UNL     1      -9.342  -9.845  -0.487  1.00  0.00     0.024 C 
HETATM   45  C34 UNL     1      -8.054  -8.991  -0.466  1.00  0.00     0.125 C 
ENDBRANCH  38  39
BRANCH  38  46
HETATM   46  O1  UNL     1      -6.756  -7.303   2.288  1.00  0.00    -0.348 OA
ATOM     47  H1  UNL     1      -6.471  -6.433   2.032  1.00  0.00     0.219 HD
ENDBRANCH  38  46
ENDBRANCH   1  38
TORSDOF 13
ENDMDL
MODEL 5
REMARK VINA RESULT: -8.139913837      2.428      3.204
REMARK  13 active torsions:
REMARK  status: ('A' for Active; 'I' for Inactive)
REMARK    1  A    between atoms: N1_5  and  C5_6 
REMARK    2  A    between atoms: C5_6  and  O1_7 
REMARK    3  A    between atoms: C5_6  and  C6_9 
REMARK    4  A    between atoms: C15_19  and  C20_25 
REMARK    5  A    between atoms: N4_26  and  C21_27 
REMARK    6  A    between atoms: C21_27  and  C22_28 
REMARK    7  A    between atoms: C22_28  and  C23_29 
REMARK    8  A    between atoms: C23_29  and  N5_30 
REMARK    9  A    between atoms: N5_30  and  C26_33 
REMARK   10  A    between atoms: C26_33  and  C27_34 
REMARK   11  A    between atoms: C27_34  and  C28_35 
REMARK   12  A    between atoms: C28_35  and  N6_36 
REMARK       I    between atoms: N6_36  and  C29_38 
REMARK   13  A    between atoms: C29_38  and  C30_40 
ROOT
HETATM    1  C6  UNL     1      -7.708 -11.729  -1.399  1.00  0.00     0.177 C 
HETATM    2  C7  UNL     1      -8.226 -10.892  -2.553  1.00  0.00     0.105 C 
HETATM    3  N2  UNL     1      -8.954 -11.206  -3.619  1.00  0.00    -0.272 NA
HETATM    4  C8  UNL     1     -10.340 -11.205  -3.300  1.00  0.00     0.096 C 
HETATM    5  C9  UNL     1     -10.703 -11.113  -1.844  1.00  0.00     0.016 C 
HETATM    6  C10 UNL     1      -9.832 -10.256  -0.956  1.00  0.00     0.014 C 
HETATM    7  C11 UNL     1      -8.719  -9.740  -1.815  1.00  0.00    -0.001 C 
HETATM    8  C12 UNL     1      -9.370  -8.540  -2.352  1.00  0.00     0.015 C 
HETATM    9  C13 UNL     1      -8.773  -7.727  -3.402  1.00  0.00     0.026 C 
HETATM   10  C14 UNL     1      -7.439  -8.312  -3.580  1.00  0.00     0.090 C 
HETATM   11  C15 UNL     1      -6.708  -8.564  -2.244  1.00  0.00     0.032 C 
HETATM   12  C16 UNL     1      -5.319  -8.789  -2.680  1.00  0.00     0.010 C 
HETATM   13  C17 UNL     1      -5.101  -8.874  -4.183  1.00  0.00     0.020 C 
HETATM   14  C18 UNL     1      -6.184  -9.557  -4.982  1.00  0.00     0.123 C 
HETATM   15  N3  UNL     1      -7.477  -9.410  -4.425  1.00  0.00    -0.376 N 
HETATM   16  C19 UNL     1      -8.556 -10.210  -4.662  1.00  0.00     0.149 C 
HETATM   17  C20 UNL     1      -7.389  -9.411  -1.254  1.00  0.00     0.100 C 
HETATM   18  N4  UNL     1      -6.853 -10.714  -0.929  1.00  0.00    -0.374 N 
ENDROOT
BRANCH  18  19
HETATM   19  C21 UNL     1      -6.166 -10.835   0.264  1.00  0.00     0.061 C 
BRANCH  19  20
HETATM   20  C22 UNL     1      -4.713 -10.434   0.334  1.00  0.00     0.072 C 
BRANCH  20  21
HETATM   21  C23 UNL     1      -4.549  -9.126   1.015  1.00  0.00     0.241 C 
BRANCH  21  22
HETATM   22  N5  UNL     1      -3.414  -8.977   1.840  1.00  0.00    -0.074 N 
HETATM   23  C24 UNL     1      -3.024 -10.227   2.486  1.00  0.00     0.272 C 
HETATM   24  C25 UNL     1      -2.285  -8.708   0.907  1.00  0.00     0.272 C 
BRANCH  22  25
HETATM   25  C26 UNL     1      -3.513  -7.882   2.740  1.00  0.00     0.238 C 
BRANCH  25  26
HETATM   26  C27 UNL     1      -2.286  -6.976   2.688  1.00  0.00     0.048 C 
BRANCH  26  27
HETATM   27  C28 UNL     1      -2.778  -5.548   2.668  1.00  0.00     0.124 C 
BRANCH  27  28
HETATM   28  N6  UNL     1      -3.826  -5.440   1.678  1.00  0.00    -0.356 N 
HETATM   29  C29 UNL     1      -3.540  -5.191   0.325  1.00  0.00     0.258 C 
HETATM   30  O2  UNL     1      -2.373  -5.046  -0.082  1.00  0.00    -0.267 OA
ATOM     31  H6  UNL     1      -4.798  -5.548   1.968  1.00  0.00     0.162 HD
BRANCH  29  32
HETATM   32  C30 UNL     1      -4.685  -5.106  -0.618  1.00  0.00     0.074 A 
HETATM   33  C31 UNL     1      -6.013  -5.274  -0.345  1.00  0.00     0.027 A 
HETATM   34  C32 UNL     1      -6.870  -5.139  -1.370  1.00  0.00     0.033 A 
HETATM   35  C33 UNL     1      -6.340  -4.847  -2.597  1.00  0.00     0.075 A 
HETATM   36 CL1  UNL     1      -7.229  -4.617  -4.119  1.00  0.00    -0.076 Cl
HETATM   37  S1  UNL     1      -4.671  -4.767  -2.289  1.00  0.00    -0.072 SA
ENDBRANCH  29  32
ENDBRANCH  27  28
ENDBRANCH  26  27
ENDBRANCH  25  26
ENDBRANCH  22  25
ENDBRANCH  21  22
ENDBRANCH  20  21
ENDBRANCH  19  20
ENDBRANCH  18  19
BRANCH   1  38
HETATM   38  C5  UNL     1      -7.127 -12.987  -1.844  1.00  0.00     0.138 C 
BRANCH  38  39
HETATM   39  N1  UNL     1      -5.911 -13.635  -1.702  1.00  0.00    -0.364 N 
HETATM   40  C4  UNL     1      -5.578 -14.154  -0.360  1.00  0.00     0.125 C 
HETATM   41  C3  UNL     1      -5.184 -15.610  -0.441  1.00  0.00     0.024 C 
HETATM   42  C2  UNL     1      -4.076 -15.803  -1.464  1.00  0.00    -0.015 C 
HETATM   43  C1  UNL     1      -4.630 -16.661  -2.577  1.00  0.00     0.010 C 
HETATM   44  C35 UNL     1      -3.687 -14.472  -2.063  1.00  0.00     0.024 C 
HETATM   45  C34 UNL     1      -4.968 -13.906  -2.715  1.00  0.00     0.125 C 
ENDBRANCH  38  39
BRANCH  38  46
HETATM   46  O1  UNL     1      -7.969 -13.708  -2.581  1.00  0.00    -0.348 OA
ATOM     47  H1  UNL     1      -8.168 -14.536  -2.159  1.00  0.00     0.219 HD
ENDBRANCH  38  46
ENDBRANCH   1  38
TORSDOF 13
ENDMDL
