MODEL 1
REMARK VINA RESULT: -7.353605452      0.000      0.000
REMARK  10 active torsions:
REMARK  status: ('A' for Active; 'I' for Inactive)
REMARK    1  A    between atoms: N1_1  and  C1_5 
REMARK    2  A    between atoms: C4_8  and  O1_9 
REMARK    3  A    between atoms: O1_9  and  C5_10 
REMARK    4  A    between atoms: C6_12  and  C7_13 
REMARK    5  A    between atoms: C8_15  and  O4_16 
REMARK    6  A    between atoms: C9_18  and  O5_19 
REMARK    7  A    between atoms: C10_21  and  O6_22 
REMARK    8  A    between atoms: C11_24  and  O7_25 
REMARK    9  A    between atoms: O7_25  and  C12_26 
REMARK   10  A    between atoms: C17_31  and  O8_32 
ROOT
HETATM    1  C1  UNL     1       7.713   3.870  94.099  1.00  0.00     0.214 C 
HETATM    2  C2  UNL     1       8.731   2.809  93.903  1.00  0.00     0.038 C 
HETATM    3  C3  UNL     1       8.684   2.121  92.580  1.00  0.00     0.037 C 
HETATM    4  C4  UNL     1       7.262   1.558  92.452  1.00  0.00     0.156 C 
HETATM    5  C11 UNL     1       6.415   2.805  92.207  1.00  0.00     0.181 C 
HETATM    6  C17 UNL     1       6.473   3.779  93.322  1.00  0.00     0.180 C 
ENDROOT
BRANCH   4   7
HETATM    7  O1  UNL     1       6.966   0.968  93.664  1.00  0.00    -0.351 OA
BRANCH   7   8
HETATM    8  C5  UNL     1       6.915  -0.403  93.636  1.00  0.00     0.292 C 
HETATM    9  O2  UNL     1       5.674  -0.808  94.081  1.00  0.00    -0.344 OA
HETATM   10  C6  UNL     1       5.673  -2.023  94.728  1.00  0.00     0.217 C 
HETATM   11  C8  UNL     1       6.386  -1.983  96.069  1.00  0.00     0.185 C 
HETATM   12  C9  UNL     1       7.553  -1.033  95.916  1.00  0.00     0.183 C 
HETATM   13  C10 UNL     1       7.973  -1.069  94.478  1.00  0.00     0.204 C 
BRANCH  10  14
HETATM   14  C7  UNL     1       4.236  -2.353  95.034  1.00  0.00     0.265 C 
HETATM   15  O3  UNL     1       3.909  -3.328  95.669  1.00  0.00    -0.304 OA
ENDBRANCH  10  14
BRANCH  11  16
HETATM   16  O4  UNL     1       5.531  -1.607  97.101  1.00  0.00    -0.390 OA
ATOM     17  H4  UNL     1       4.783  -1.117  96.781  1.00  0.00     0.210 HD
ENDBRANCH  11  16
BRANCH  12  18
HETATM   18  O5  UNL     1       7.133   0.236  96.319  1.00  0.00    -0.390 OA
ATOM     19  H5  UNL     1       7.255   0.301  97.258  1.00  0.00     0.210 HD
ENDBRANCH  12  18
BRANCH  13  20
HETATM   20  O6  UNL     1       9.219  -0.492  94.339  1.00  0.00    -0.388 OA
ATOM     21  H6  UNL     1       9.193   0.458  94.352  1.00  0.00     0.210 HD
ENDBRANCH  13  20
ENDBRANCH   7   8
ENDBRANCH   4   7
BRANCH   5  22
HETATM   22  O7  UNL     1       5.095   2.456  91.903  1.00  0.00    -0.375 OA
BRANCH  22  23
HETATM   23  C12 UNL     1       4.672   2.927  90.687  1.00  0.00     0.122 C 
HETATM   24  C13 UNL     1       3.240   2.602  90.367  1.00  0.00     0.032 C 
HETATM   25  C14 UNL     1       2.814   3.659  89.342  1.00  0.00     0.002 C 
HETATM   26  C15 UNL     1       3.903   4.677  89.299  1.00  0.00     0.002 C 
HETATM   27  C16 UNL     1       4.692   4.432  90.586  1.00  0.00     0.032 C 
ENDBRANCH  22  23
ENDBRANCH   5  22
BRANCH   6  28
HETATM   28  O8  UNL     1       5.355   3.524  94.154  1.00  0.00    -0.391 OA
ATOM     29  H8  UNL     1       4.537   3.693  93.702  1.00  0.00     0.210 HD
ENDBRANCH   6  28
BRANCH   1  30
HETATM   30  N1  UNL     1       8.387   5.165  93.890  1.00  0.00    -0.072 N 
ATOM     31  H13 UNL     1       8.473   5.713  94.746  1.00  0.00     0.274 HD
ATOM     32  H12 UNL     1       9.384   5.070  93.693  1.00  0.00     0.274 HD
ATOM     33  H11 UNL     1       7.880   5.654  93.152  1.00  0.00     0.274 HD
ENDBRANCH   1  30
TORSDOF 10
ENDMDL
MODEL 2
REMARK VINA RESULT: -7.318604380      6.873     11.573
REMARK  10 active torsions:
REMARK  status: ('A' for Active; 'I' for Inactive)
REMARK    1  A    between atoms: N1_1  and  C1_5 
REMARK    2  A    between atoms: C4_8  and  O1_9 
REMARK    3  A    between atoms: O1_9  and  C5_10 
REMARK    4  A    between atoms: C6_12  and  C7_13 
REMARK    5  A    between atoms: C8_15  and  O4_16 
REMARK    6  A    between atoms: C9_18  and  O5_19 
REMARK    7  A    between atoms: C10_21  and  O6_22 
REMARK    8  A    between atoms: C11_24  and  O7_25 
REMARK    9  A    between atoms: O7_25  and  C12_26 
REMARK   10  A    between atoms: C17_31  and  O8_32 
ROOT
HETATM    1  C1  UNL     1       3.935   7.769  85.680  1.00  0.00     0.214 C 
HETATM    2  C2  UNL     1       2.883   8.790  85.910  1.00  0.00     0.038 C 
HETATM    3  C3  UNL     1       2.230   8.737  87.251  1.00  0.00     0.037 C 
HETATM    4  C4  UNL     1       1.665   7.316  87.384  1.00  0.00     0.156 C 
HETATM    5  C11 UNL     1       2.914   6.462  87.590  1.00  0.00     0.181 C 
HETATM    6  C17 UNL     1       3.859   6.524  86.449  1.00  0.00     0.180 C 
ENDROOT
BRANCH   4   7
HETATM    7  O1  UNL     1       1.042   7.031  86.186  1.00  0.00    -0.351 OA
BRANCH   7   8
HETATM    8  C5  UNL     1      -0.329   7.012  86.244  1.00  0.00     0.292 C 
HETATM    9  O2  UNL     1      -0.771   5.760  85.872  1.00  0.00    -0.344 OA
HETATM   10  C6  UNL     1      -1.998   5.753  85.250  1.00  0.00     0.217 C 
HETATM   11  C8  UNL     1      -1.971   6.394  83.874  1.00  0.00     0.185 C 
HETATM   12  C9  UNL     1      -0.994   7.546  83.946  1.00  0.00     0.183 C 
HETATM   13  C10 UNL     1      -0.990   8.041  85.362  1.00  0.00     0.204 C 
BRANCH  10  14
HETATM   14  C7  UNL     1      -2.366   4.310  85.026  1.00  0.00     0.265 C 
HETATM   15  O3  UNL     1      -3.422   3.970  84.547  1.00  0.00    -0.304 OA
ENDBRANCH  10  14
BRANCH  11  16
HETATM   16  O4  UNL     1      -1.636   5.479  82.881  1.00  0.00    -0.390 OA
ATOM     17  H4  UNL     1      -1.495   5.902  82.042  1.00  0.00     0.210 HD
ENDBRANCH  11  16
BRANCH  12  18
HETATM   18  O5  UNL     1       0.257   7.077  83.541  1.00  0.00    -0.390 OA
ATOM     19  H5  UNL     1       0.767   7.820  83.242  1.00  0.00     0.210 HD
ENDBRANCH  12  18
BRANCH  13  20
HETATM   20  O6  UNL     1      -0.383   9.279  85.424  1.00  0.00    -0.388 OA
ATOM     21  H6  UNL     1      -0.632   9.853  84.709  1.00  0.00     0.210 HD
ENDBRANCH  13  20
ENDBRANCH   7   8
ENDBRANCH   4   7
BRANCH   5  22
HETATM   22  O7  UNL     1       2.568   5.141  87.893  1.00  0.00    -0.375 OA
BRANCH  22  23
HETATM   23  C12 UNL     1       3.033   4.721  89.113  1.00  0.00     0.122 C 
HETATM   24  C13 UNL     1       2.685   3.298  89.446  1.00  0.00     0.032 C 
HETATM   25  C14 UNL     1       3.735   2.863  90.474  1.00  0.00     0.002 C 
HETATM   26  C15 UNL     1       4.772   3.936  90.506  1.00  0.00     0.002 C 
HETATM   27  C16 UNL     1       4.539   4.717  89.212  1.00  0.00     0.032 C 
ENDBRANCH  22  23
ENDBRANCH   5  22
BRANCH   6  28
HETATM   28  O8  UNL     1       3.577   5.413  85.616  1.00  0.00    -0.391 OA
ATOM     29  H8  UNL     1       3.116   4.730  86.090  1.00  0.00     0.210 HD
ENDBRANCH   6  28
BRANCH   1  30
HETATM   30  N1  UNL     1       5.237   8.436  85.859  1.00  0.00    -0.072 N 
ATOM     31  H13 UNL     1       5.181   9.451  85.773  1.00  0.00     0.274 HD
ATOM     32  H12 UNL     1       5.574   8.404  86.821  1.00  0.00     0.274 HD
ATOM     33  H11 UNL     1       5.886   8.015  85.195  1.00  0.00     0.274 HD
ENDBRANCH   1  30
TORSDOF 10
ENDMDL
MODEL 3
REMARK VINA RESULT: -6.902399155      3.929      7.417
REMARK  10 active torsions:
REMARK  status: ('A' for Active; 'I' for Inactive)
REMARK    1  A    between atoms: N1_1  and  C1_5 
REMARK    2  A    between atoms: C4_8  and  O1_9 
REMARK    3  A    between atoms: O1_9  and  C5_10 
REMARK    4  A    between atoms: C6_12  and  C7_13 
REMARK    5  A    between atoms: C8_15  and  O4_16 
REMARK    6  A    between atoms: C9_18  and  O5_19 
REMARK    7  A    between atoms: C10_21  and  O6_22 
REMARK    8  A    between atoms: C11_24  and  O7_25 
REMARK    9  A    between atoms: O7_25  and  C12_26 
REMARK   10  A    between atoms: C17_31  and  O8_32 
ROOT
HETATM    1  C1  UNL     1       5.283   5.502  90.687  1.00  0.00     0.214 C 
HETATM    2  C2  UNL     1       6.426   5.463  89.742  1.00  0.00     0.038 C 
HETATM    3  C3  UNL     1       7.207   4.192  89.743  1.00  0.00     0.037 C 
HETATM    4  C4  UNL     1       7.675   3.990  91.191  1.00  0.00     0.156 C 
HETATM    5  C11 UNL     1       6.393   3.591  91.919  1.00  0.00     0.181 C 
HETATM    6  C17 UNL     1       5.344   4.637  91.869  1.00  0.00     0.180 C 
ENDROOT
BRANCH   4   7
HETATM    7  O1  UNL     1       8.148   5.213  91.621  1.00  0.00    -0.351 OA
BRANCH   7   8
HETATM    8  C5  UNL     1       9.422   5.186  92.132  1.00  0.00     0.292 C 
HETATM    9  O2  UNL     1       9.456   5.953  93.277  1.00  0.00    -0.344 OA
HETATM   10  C6  UNL     1      10.666   6.563  93.516  1.00  0.00     0.217 C 
HETATM   11  C8  UNL     1      10.991   7.654  92.511  1.00  0.00     0.185 C 
HETATM   12  C9  UNL     1      10.451   7.195  91.175  1.00  0.00     0.183 C 
HETATM   13  C10 UNL     1      10.472   5.695  91.177  1.00  0.00     0.204 C 
BRANCH  10  14
HETATM   14  C7  UNL     1      10.553   7.251  94.850  1.00  0.00     0.265 C 
HETATM   15  O3  UNL     1       9.491   7.541  95.350  1.00  0.00    -0.304 OA
ENDBRANCH  10  14
BRANCH  11  16
HETATM   16  O4  UNL     1      10.470   8.886  92.895  1.00  0.00    -0.390 OA
ATOM     17  H4  UNL     1      10.514   9.524  92.193  1.00  0.00     0.210 HD
ENDBRANCH  11  16
BRANCH  12  18
HETATM   18  O5  UNL     1       9.162   7.710  91.030  1.00  0.00    -0.390 OA
ATOM     19  H5  UNL     1       8.784   7.805  91.896  1.00  0.00     0.210 HD
ENDBRANCH  12  18
BRANCH  13  20
HETATM   20  O6  UNL     1      10.309   5.223  89.890  1.00  0.00    -0.388 OA
ATOM     21  H6  UNL     1      11.036   5.440  89.319  1.00  0.00     0.210 HD
ENDBRANCH  13  20
ENDBRANCH   7   8
ENDBRANCH   4   7
BRANCH   5  22
HETATM   22  O7  UNL     1       6.669   3.209  93.235  1.00  0.00    -0.375 OA
BRANCH  22  23
HETATM   23  C12 UNL     1       7.556   2.166  93.326  1.00  0.00     0.122 C 
HETATM   24  C13 UNL     1       8.417   2.198  94.557  1.00  0.00     0.032 C 
HETATM   25  C14 UNL     1       8.859   0.747  94.769  1.00  0.00     0.002 C 
HETATM   26  C15 UNL     1       8.057  -0.087  93.827  1.00  0.00     0.002 C 
HETATM   27  C16 UNL     1       6.889   0.817  93.433  1.00  0.00     0.032 C 
ENDBRANCH  22  23
ENDBRANCH   5  22
BRANCH   6  28
HETATM   28  O8  UNL     1       5.455   5.393  93.062  1.00  0.00    -0.391 OA
ATOM     29  H8  UNL     1       6.001   4.954  93.704  1.00  0.00     0.210 HD
ENDBRANCH   6  28
BRANCH   1  30
HETATM   30  N1  UNL     1       4.059   5.257  89.901  1.00  0.00    -0.072 N 
ATOM     31  H13 UNL     1       3.985   4.296  89.567  1.00  0.00     0.274 HD
ATOM     32  H12 UNL     1       3.211   5.265  90.469  1.00  0.00     0.274 HD
ATOM     33  H11 UNL     1       4.042   5.944  89.148  1.00  0.00     0.274 HD
ENDBRANCH   1  30
TORSDOF 10
ENDMDL
MODEL 4
REMARK VINA RESULT: -6.902050770      7.699     10.727
REMARK  10 active torsions:
REMARK  status: ('A' for Active; 'I' for Inactive)
REMARK    1  A    between atoms: N1_1  and  C1_5 
REMARK    2  A    between atoms: C4_8  and  O1_9 
REMARK    3  A    between atoms: O1_9  and  C5_10 
REMARK    4  A    between atoms: C6_12  and  C7_13 
REMARK    5  A    between atoms: C8_15  and  O4_16 
REMARK    6  A    between atoms: C9_18  and  O5_19 
REMARK    7  A    between atoms: C10_21  and  O6_22 
REMARK    8  A    between atoms: C11_24  and  O7_25 
REMARK    9  A    between atoms: O7_25  and  C12_26 
REMARK   10  A    between atoms: C17_31  and  O8_32 
ROOT
HETATM    1  C1  UNL     1       5.486   5.292  89.085  1.00  0.00     0.214 C 
HETATM    2  C2  UNL     1       5.450   6.438  90.026  1.00  0.00     0.038 C 
HETATM    3  C3  UNL     1       4.182   7.224  90.021  1.00  0.00     0.037 C 
HETATM    4  C4  UNL     1       3.985   7.690  88.572  1.00  0.00     0.156 C 
HETATM    5  C11 UNL     1       3.583   6.407  87.846  1.00  0.00     0.181 C 
HETATM    6  C17 UNL     1       4.624   5.354  87.900  1.00  0.00     0.180 C 
ENDROOT
BRANCH   4   7
HETATM    7  O1  UNL     1       5.211   8.157  88.143  1.00  0.00    -0.351 OA
BRANCH   7   8
HETATM    8  C5  UNL     1       5.192   9.434  87.640  1.00  0.00     0.292 C 
HETATM    9  O2  UNL     1       5.970   9.473  86.501  1.00  0.00    -0.344 OA
HETATM   10  C6  UNL     1       6.584  10.683  86.276  1.00  0.00     0.217 C 
HETATM   11  C8  UNL     1       7.668  10.998  87.292  1.00  0.00     0.185 C 
HETATM   12  C9  UNL     1       7.195  10.451  88.621  1.00  0.00     0.183 C 
HETATM   13  C10 UNL     1       5.696  10.477  88.606  1.00  0.00     0.204 C 
BRANCH  10  14
HETATM   14  C7  UNL     1       7.285  10.575  84.947  1.00  0.00     0.265 C 
HETATM   15  O3  UNL     1       7.578   9.516  84.444  1.00  0.00    -0.304 OA
ENDBRANCH  10  14
BRANCH  11  16
HETATM   16  O4  UNL     1       8.902  10.476  86.916  1.00  0.00    -0.390 OA
ATOM     17  H4  UNL     1       8.884   9.528  86.862  1.00  0.00     0.210 HD
ENDBRANCH  11  16
BRANCH  12  18
HETATM   18  O5  UNL     1       7.706   9.159  88.763  1.00  0.00    -0.390 OA
ATOM     19  H5  UNL     1       7.365   8.629  88.052  1.00  0.00     0.210 HD
ENDBRANCH  12  18
BRANCH  13  20
HETATM   20  O6  UNL     1       5.212  10.307  89.887  1.00  0.00    -0.388 OA
ATOM     21  H6  UNL     1       4.715  11.053  90.200  1.00  0.00     0.210 HD
ENDBRANCH  13  20
ENDBRANCH   7   8
ENDBRANCH   4   7
BRANCH   5  22
HETATM   22  O7  UNL     1       3.204   6.682  86.528  1.00  0.00    -0.375 OA
BRANCH  22  23
HETATM   23  C12 UNL     1       2.161   7.568  86.433  1.00  0.00     0.122 C 
HETATM   24  C13 UNL     1       2.188   8.417  85.194  1.00  0.00     0.032 C 
HETATM   25  C14 UNL     1       0.736   8.858  84.984  1.00  0.00     0.002 C 
HETATM   26  C15 UNL     1      -0.094   8.064  85.936  1.00  0.00     0.002 C 
HETATM   27  C16 UNL     1       0.812   6.899  86.337  1.00  0.00     0.032 C 
ENDBRANCH  22  23
ENDBRANCH   5  22
BRANCH   6  28
HETATM   28  O8  UNL     1       5.383   5.459  86.708  1.00  0.00    -0.391 OA
ATOM     29  H8  UNL     1       5.306   4.676  86.175  1.00  0.00     0.210 HD
ENDBRANCH   6  28
BRANCH   1  30
HETATM   30  N1  UNL     1       5.235   4.072  89.872  1.00  0.00    -0.072 N 
ATOM     31  H13 UNL     1       6.012   3.826  90.487  1.00  0.00     0.274 HD
ATOM     32  H12 UNL     1       4.530   4.202  90.598  1.00  0.00     0.274 HD
ATOM     33  H11 UNL     1       4.997   3.331  89.213  1.00  0.00     0.274 HD
ENDBRANCH   1  30
TORSDOF 10
ENDMDL
MODEL 5
REMARK VINA RESULT: -6.683808558      9.910     12.900
REMARK  10 active torsions:
REMARK  status: ('A' for Active; 'I' for Inactive)
REMARK    1  A    between atoms: N1_1  and  C1_5 
REMARK    2  A    between atoms: C4_8  and  O1_9 
REMARK    3  A    between atoms: O1_9  and  C5_10 
REMARK    4  A    between atoms: C6_12  and  C7_13 
REMARK    5  A    between atoms: C8_15  and  O4_16 
REMARK    6  A    between atoms: C9_18  and  O5_19 
REMARK    7  A    between atoms: C10_21  and  O6_22 
REMARK    8  A    between atoms: C11_24  and  O7_25 
REMARK    9  A    between atoms: O7_25  and  C12_26 
REMARK   10  A    between atoms: C17_31  and  O8_32 
ROOT
HETATM    1  C1  UNL     1      -5.249   5.475  83.924  1.00  0.00     0.214 C 
HETATM    2  C2  UNL     1      -6.289   5.093  84.911  1.00  0.00     0.038 C 
HETATM    3  C3  UNL     1      -5.873   5.190  86.340  1.00  0.00     0.037 C 
HETATM    4  C4  UNL     1      -4.628   4.302  86.474  1.00  0.00     0.156 C 
HETATM    5  C11 UNL     1      -3.547   5.110  85.759  1.00  0.00     0.181 C 
HETATM    6  C17 UNL     1      -3.845   5.348  84.327  1.00  0.00     0.180 C 
ENDROOT
BRANCH   4   7
HETATM    7  O1  UNL     1      -4.913   3.128  85.808  1.00  0.00    -0.351 OA
BRANCH   7   8
HETATM    8  C5  UNL     1      -4.758   1.991  86.561  1.00  0.00     0.292 C 
HETATM    9  O2  UNL     1      -3.757   2.205  87.485  1.00  0.00    -0.344 OA
HETATM   10  C6  UNL     1      -3.045   1.077  87.822  1.00  0.00     0.217 C 
HETATM   11  C8  UNL     1      -2.186   0.554  86.684  1.00  0.00     0.185 C 
HETATM   12  C9  UNL     1      -2.957   0.796  85.405  1.00  0.00     0.183 C 
HETATM   13  C10 UNL     1      -4.415   0.766  85.751  1.00  0.00     0.204 C 
BRANCH  10  14
HETATM   14  C7  UNL     1      -2.087   1.475  88.913  1.00  0.00     0.265 C 
HETATM   15  O3  UNL     1      -1.855   2.627  89.194  1.00  0.00    -0.304 OA
ENDBRANCH  10  14
BRANCH  11  16
HETATM   16  O4  UNL     1      -0.930   1.152  86.664  1.00  0.00    -0.390 OA
ATOM     17  H4  UNL     1      -0.966   2.043  86.336  1.00  0.00     0.210 HD
ENDBRANCH  11  16
BRANCH  12  18
HETATM   18  O5  UNL     1      -2.556   2.028  84.886  1.00  0.00    -0.390 OA
ATOM     19  H5  UNL     1      -2.103   1.869  84.067  1.00  0.00     0.210 HD
ENDBRANCH  12  18
BRANCH  13  20
HETATM   20  O6  UNL     1      -5.167   0.650  84.599  1.00  0.00    -0.388 OA
ATOM     21  H6  UNL     1      -4.654   0.755  83.807  1.00  0.00     0.210 HD
ENDBRANCH  13  20
ENDBRANCH   7   8
ENDBRANCH   4   7
BRANCH   5  22
HETATM   22  O7  UNL     1      -2.291   4.516  85.926  1.00  0.00    -0.375 OA
BRANCH  22  23
HETATM   23  C12 UNL     1      -1.369   5.344  86.513  1.00  0.00     0.122 C 
HETATM   24  C13 UNL     1      -0.172   4.630  87.075  1.00  0.00     0.032 C 
HETATM   25  C14 UNL     1       0.935   5.688  87.122  1.00  0.00     0.002 C 
HETATM   26  C15 UNL     1       0.426   6.873  86.372  1.00  0.00     0.002 C 
HETATM   27  C16 UNL     1      -0.740   6.321  85.551  1.00  0.00     0.032 C 
ENDBRANCH  22  23
ENDBRANCH   5  22
BRANCH   6  28
HETATM   28  O8  UNL     1      -3.181   4.335  83.592  1.00  0.00    -0.391 OA
ATOM     29  H8  UNL     1      -3.244   3.491  84.024  1.00  0.00     0.210 HD
ENDBRANCH   6  28
BRANCH   1  30
HETATM   30  N1  UNL     1      -5.559   6.843  83.471  1.00  0.00    -0.072 N 
ATOM     31  H13 UNL     1      -5.830   6.886  82.488  1.00  0.00     0.274 HD
ATOM     32  H12 UNL     1      -6.428   7.207  83.863  1.00  0.00     0.274 HD
ATOM     33  H11 UNL     1      -4.749   7.424  83.688  1.00  0.00     0.274 HD
ENDBRANCH   1  30
TORSDOF 10
ENDMDL
