MODEL 1
REMARK VINA RESULT: -7.697101117      0.000      0.000
REMARK  10 active torsions:
REMARK  status: ('A' for Active; 'I' for Inactive)
REMARK    1  A    between atoms: O1_1  and  C1_3 
REMARK    2  A    between atoms: C1_3  and  C2_4 
REMARK    3  A    between atoms: C3_6  and  O3_7 
REMARK    4  A    between atoms: O3_7  and  C4_8 
REMARK    5  A    between atoms: C4_8  and  C5_9 
REMARK    6  A    between atoms: C6_11  and  C7_12 
REMARK    7  A    between atoms: C14_20  and  O6_21 
REMARK    8  A    between atoms: C15_23  and  O7_24 
REMARK    9  A    between atoms: C16_26  and  O8_27 
REMARK   10  A    between atoms: C17_29  and  O9_30 
ROOT
HETATM    1  O3  UNL     1       5.073   3.798  89.969  1.00  0.00    -0.356 OA
ENDROOT
BRANCH   1   2
HETATM    2  C3  UNL     1       5.427   3.601  91.281  1.00  0.00     0.291 C 
HETATM    3  O2  UNL     1       6.124   2.388  91.457  1.00  0.00    -0.348 OA
HETATM    4  C2  UNL     1       6.087   2.091  92.836  1.00  0.00     0.179 C 
HETATM    5  C17 UNL     1       6.796   3.152  93.649  1.00  0.00     0.180 C 
HETATM    6  C16 UNL     1       7.359   4.161  92.677  1.00  0.00     0.183 C 
HETATM    7  C15 UNL     1       6.213   4.732  91.872  1.00  0.00     0.204 C 
BRANCH   4   8
HETATM    8  C1  UNL     1       6.712   0.764  93.112  1.00  0.00     0.198 C 
BRANCH   8   9
HETATM    9  O1  UNL     1       7.868   0.633  92.352  1.00  0.00    -0.398 OA
ATOM     10  H1  UNL     1       7.923  -0.253  92.014  1.00  0.00     0.209 HD
ENDBRANCH   8   9
ENDBRANCH   4   8
BRANCH   5  11
HETATM   11  O9  UNL     1       7.787   2.594  94.450  1.00  0.00    -0.390 OA
ATOM     12  H9  UNL     1       8.359   2.027  93.947  1.00  0.00     0.210 HD
ENDBRANCH   5  11
BRANCH   6  13
HETATM   13  O8  UNL     1       8.262   3.471  91.859  1.00  0.00    -0.390 OA
ATOM     14  H8  UNL     1       8.588   2.687  92.286  1.00  0.00     0.210 HD
ENDBRANCH   6  13
BRANCH   7  15
HETATM   15  O7  UNL     1       5.422   5.468  92.766  1.00  0.00    -0.388 OA
ATOM     16  H7  UNL     1       5.782   6.338  92.894  1.00  0.00     0.210 HD
ENDBRANCH   7  15
ENDBRANCH   1   2
BRANCH   1  17
HETATM   17  C4  UNL     1       3.704   3.853  89.838  1.00  0.00     0.208 C 
BRANCH  17  18
HETATM   18  C5  UNL     1       3.262   5.039  89.004  1.00  0.00     0.200 C 
HETATM   19  O4  UNL     1       2.328   4.695  88.066  1.00  0.00    -0.371 OA
HETATM   20  C6  UNL     1       2.238   5.511  86.970  1.00  0.00     0.150 C 
HETATM   21  C13 UNL     1       3.520   6.120  86.520  1.00  0.00     0.203 C 
HETATM   22  O5  UNL     1       4.603   5.447  87.055  1.00  0.00    -0.356 OA
HETATM   23  C14 UNL     1       4.506   5.669  88.448  1.00  0.00     0.287 C 
BRANCH  20  24
HETATM   24  C7  UNL     1       1.223   6.644  87.181  1.00  0.00     0.017 C 
HETATM   25  C8  UNL     1       1.790   7.923  86.619  1.00  0.00     0.007 C 
HETATM   26  C9  UNL     1       0.812   8.640  85.720  1.00  0.00     0.000 C 
HETATM   27  C10 UNL     1       0.399   7.665  84.641  1.00  0.00     0.000 C 
HETATM   28  C11 UNL     1      -0.406   6.582  85.265  1.00  0.00     0.000 C 
HETATM   29  C12 UNL     1      -0.131   6.304  86.693  1.00  0.00     0.007 C 
ENDBRANCH  20  24
BRANCH  23  30
HETATM   30  O6  UNL     1       4.525   7.040  88.697  1.00  0.00    -0.369 OA
ATOM     31  H6  UNL     1       5.393   7.399  88.553  1.00  0.00     0.212 HD
ENDBRANCH  23  30
ENDBRANCH  17  18
ENDBRANCH   1  17
TORSDOF 10
ENDMDL
MODEL 2
REMARK VINA RESULT: -7.690924436      1.593      8.508
REMARK  10 active torsions:
REMARK  status: ('A' for Active; 'I' for Inactive)
REMARK    1  A    between atoms: O1_1  and  C1_3 
REMARK    2  A    between atoms: C1_3  and  C2_4 
REMARK    3  A    between atoms: C3_6  and  O3_7 
REMARK    4  A    between atoms: O3_7  and  C4_8 
REMARK    5  A    between atoms: C4_8  and  C5_9 
REMARK    6  A    between atoms: C6_11  and  C7_12 
REMARK    7  A    between atoms: C14_20  and  O6_21 
REMARK    8  A    between atoms: C15_23  and  O7_24 
REMARK    9  A    between atoms: C16_26  and  O8_27 
REMARK   10  A    between atoms: C17_29  and  O9_30 
ROOT
HETATM    1  O3  UNL     1       3.807   5.092  89.799  1.00  0.00    -0.356 OA
ENDROOT
BRANCH   1   2
HETATM    2  C3  UNL     1       3.607   5.440  88.486  1.00  0.00     0.291 C 
HETATM    3  O2  UNL     1       2.395   6.138  88.310  1.00  0.00    -0.348 OA
HETATM    4  C2  UNL     1       2.093   6.096  86.933  1.00  0.00     0.179 C 
HETATM    5  C17 UNL     1       3.152   6.798  86.112  1.00  0.00     0.180 C 
HETATM    6  C16 UNL     1       4.165   7.364  87.079  1.00  0.00     0.183 C 
HETATM    7  C15 UNL     1       4.737   6.220  87.887  1.00  0.00     0.204 C 
BRANCH   4   8
HETATM    8  C1  UNL     1       0.766   6.721  86.657  1.00  0.00     0.198 C 
BRANCH   8   9
HETATM    9  O1  UNL     1       0.634   7.874  87.422  1.00  0.00    -0.398 OA
ATOM     10  H1  UNL     1      -0.114   8.372  87.114  1.00  0.00     0.209 HD
ENDBRANCH   8   9
ENDBRANCH   4   8
BRANCH   5  11
HETATM   11  O9  UNL     1       2.595   7.787  85.308  1.00  0.00    -0.390 OA
ATOM     12  H9  UNL     1       3.160   8.548  85.255  1.00  0.00     0.210 HD
ENDBRANCH   5  11
BRANCH   6  13
HETATM   13  O8  UNL     1       3.480   8.273  87.894  1.00  0.00    -0.390 OA
ATOM     14  H8  UNL     1       3.310   9.088  87.438  1.00  0.00     0.210 HD
ENDBRANCH   6  13
BRANCH   7  15
HETATM   15  O7  UNL     1       5.469   5.424  86.994  1.00  0.00    -0.388 OA
ATOM     16  H7  UNL     1       6.247   5.881  86.698  1.00  0.00     0.210 HD
ENDBRANCH   7  15
ENDBRANCH   1   2
BRANCH   1  17
HETATM   17  C4  UNL     1       3.857   3.723  89.937  1.00  0.00     0.208 C 
BRANCH  17  18
HETATM   18  C5  UNL     1       5.043   3.281  90.771  1.00  0.00     0.200 C 
HETATM   19  O4  UNL     1       4.698   2.346  91.708  1.00  0.00    -0.371 OA
HETATM   20  C6  UNL     1       5.513   2.255  92.805  1.00  0.00     0.150 C 
HETATM   21  C13 UNL     1       6.120   3.538  93.258  1.00  0.00     0.203 C 
HETATM   22  O5  UNL     1       5.447   4.620  92.723  1.00  0.00    -0.356 OA
HETATM   23  C14 UNL     1       5.671   4.526  91.330  1.00  0.00     0.287 C 
BRANCH  20  24
HETATM   24  C7  UNL     1       6.647   1.242  92.594  1.00  0.00     0.017 C 
HETATM   25  C8  UNL     1       7.927   1.813  93.151  1.00  0.00     0.007 C 
HETATM   26  C9  UNL     1       8.649   0.840  94.051  1.00  0.00     0.000 C 
HETATM   27  C10 UNL     1       7.678   0.430  95.134  1.00  0.00     0.000 C 
HETATM   28  C11 UNL     1       6.595  -0.380  94.516  1.00  0.00     0.000 C 
HETATM   29  C12 UNL     1       6.312  -0.111  93.089  1.00  0.00     0.007 C 
ENDBRANCH  20  24
BRANCH  23  30
HETATM   30  O6  UNL     1       7.042   4.546  91.083  1.00  0.00    -0.369 OA
ATOM     31  H6  UNL     1       7.533   4.361  91.875  1.00  0.00     0.212 HD
ENDBRANCH  23  30
ENDBRANCH  17  18
ENDBRANCH   1  17
TORSDOF 10
ENDMDL
MODEL 3
REMARK VINA RESULT: -7.614579012      5.819      8.892
REMARK  10 active torsions:
REMARK  status: ('A' for Active; 'I' for Inactive)
REMARK    1  A    between atoms: O1_1  and  C1_3 
REMARK    2  A    between atoms: C1_3  and  C2_4 
REMARK    3  A    between atoms: C3_6  and  O3_7 
REMARK    4  A    between atoms: O3_7  and  C4_8 
REMARK    5  A    between atoms: C4_8  and  C5_9 
REMARK    6  A    between atoms: C6_11  and  C7_12 
REMARK    7  A    between atoms: C14_20  and  O6_21 
REMARK    8  A    between atoms: C15_23  and  O7_24 
REMARK    9  A    between atoms: C16_26  and  O8_27 
REMARK   10  A    between atoms: C17_29  and  O9_30 
ROOT
HETATM    1  O3  UNL     1      -2.500   5.387  83.799  1.00  0.00    -0.356 OA
ENDROOT
BRANCH   1   2
HETATM    2  C3  UNL     1      -3.225   4.448  84.491  1.00  0.00     0.291 C 
HETATM    3  O2  UNL     1      -2.459   3.298  84.771  1.00  0.00    -0.348 OA
HETATM    4  C2  UNL     1      -3.366   2.272  85.108  1.00  0.00     0.179 C 
HETATM    5  C17 UNL     1      -4.153   2.616  86.353  1.00  0.00     0.180 C 
HETATM    6  C16 UNL     1      -3.645   3.949  86.850  1.00  0.00     0.183 C 
HETATM    7  C15 UNL     1      -3.844   4.969  85.752  1.00  0.00     0.204 C 
BRANCH   4   8
HETATM    8  C1  UNL     1      -2.653   0.978  85.321  1.00  0.00     0.198 C 
BRANCH   8   9
HETATM    9  O1  UNL     1      -1.400   1.228  85.865  1.00  0.00    -0.398 OA
ATOM     10  H1  UNL     1      -1.189   0.548  86.494  1.00  0.00     0.209 HD
ENDBRANCH   8   9
ENDBRANCH   4   8
BRANCH   5  11
HETATM   11  O9  UNL     1      -4.030   1.622  87.318  1.00  0.00    -0.390 OA
ATOM     12  H9  UNL     1      -4.830   1.530  87.823  1.00  0.00     0.210 HD
ENDBRANCH   5  11
BRANCH   6  13
HETATM   13  O8  UNL     1      -2.288   3.777  87.148  1.00  0.00    -0.390 OA
ATOM     14  H8  UNL     1      -2.080   4.098  88.017  1.00  0.00     0.210 HD
ENDBRANCH   6  13
BRANCH   7  15
HETATM   15  O7  UNL     1      -5.229   5.126  85.595  1.00  0.00    -0.388 OA
ATOM     16  H7  UNL     1      -5.418   5.751  84.905  1.00  0.00     0.210 HD
ENDBRANCH   7  15
ENDBRANCH   1   2
BRANCH   1  17
HETATM   17  C4  UNL     1      -2.230   6.476  84.596  1.00  0.00     0.208 C 
BRANCH  17  18
HETATM   18  C5  UNL     1      -0.765   6.549  84.977  1.00  0.00     0.200 C 
HETATM   19  O4  UNL     1      -0.533   6.074  86.239  1.00  0.00    -0.371 OA
HETATM   20  C6  UNL     1       0.592   6.538  86.866  1.00  0.00     0.150 C 
HETATM   21  C13 UNL     1       0.968   7.943  86.546  1.00  0.00     0.203 C 
HETATM   22  O5  UNL     1      -0.095   8.624  85.983  1.00  0.00    -0.356 OA
HETATM   23  C14 UNL     1      -0.326   7.967  84.752  1.00  0.00     0.287 C 
BRANCH  20  24
HETATM   24  C7  UNL     1       1.812   5.646  86.591  1.00  0.00     0.017 C 
HETATM   25  C8  UNL     1       3.039   6.515  86.472  1.00  0.00     0.007 C 
HETATM   26  C9  UNL     1       4.185   6.010  87.315  1.00  0.00     0.000 C 
HETATM   27  C10 UNL     1       3.683   5.908  88.737  1.00  0.00     0.000 C 
HETATM   28  C11 UNL     1       2.673   4.819  88.804  1.00  0.00     0.000 C 
HETATM   29  C12 UNL     1       1.939   4.530  87.552  1.00  0.00     0.007 C 
ENDBRANCH  20  24
BRANCH  23  30
HETATM   30  O6  UNL     1       0.835   8.013  83.982  1.00  0.00    -0.369 OA
ATOM     31  H6  UNL     1       0.653   8.349  83.113  1.00  0.00     0.212 HD
ENDBRANCH  23  30
ENDBRANCH  17  18
ENDBRANCH   1  17
TORSDOF 10
ENDMDL
MODEL 4
REMARK VINA RESULT: -7.613123611      5.638      8.719
REMARK  10 active torsions:
REMARK  status: ('A' for Active; 'I' for Inactive)
REMARK    1  A    between atoms: O1_1  and  C1_3 
REMARK    2  A    between atoms: C1_3  and  C2_4 
REMARK    3  A    between atoms: C3_6  and  O3_7 
REMARK    4  A    between atoms: O3_7  and  C4_8 
REMARK    5  A    between atoms: C4_8  and  C5_9 
REMARK    6  A    between atoms: C6_11  and  C7_12 
REMARK    7  A    between atoms: C14_20  and  O6_21 
REMARK    8  A    between atoms: C15_23  and  O7_24 
REMARK    9  A    between atoms: C16_26  and  O8_27 
REMARK   10  A    between atoms: C17_29  and  O9_30 
ROOT
HETATM    1  O3  UNL     1       5.365  -2.493  95.985  1.00  0.00    -0.356 OA
ENDROOT
BRANCH   1   2
HETATM    2  C3  UNL     1       4.434  -3.221  95.287  1.00  0.00     0.291 C 
HETATM    3  O2  UNL     1       3.289  -2.455  94.988  1.00  0.00    -0.348 OA
HETATM    4  C2  UNL     1       2.265  -3.363  94.644  1.00  0.00     0.179 C 
HETATM    5  C17 UNL     1       2.623  -4.158  93.408  1.00  0.00     0.180 C 
HETATM    6  C16 UNL     1       3.962  -3.656  92.924  1.00  0.00     0.183 C 
HETATM    7  C15 UNL     1       4.969  -3.849  94.036  1.00  0.00     0.204 C 
BRANCH   4   8
HETATM    8  C1  UNL     1       0.975  -2.650  94.411  1.00  0.00     0.198 C 
BRANCH   8   9
HETATM    9  O1  UNL     1       1.233  -1.405  93.850  1.00  0.00    -0.398 OA
ATOM     10  H1  UNL     1       1.155  -1.463  92.905  1.00  0.00     0.209 HD
ENDBRANCH   8   9
ENDBRANCH   4   8
BRANCH   5  11
HETATM   11  O9  UNL     1       1.640  -4.040  92.430  1.00  0.00    -0.390 OA
ATOM     12  H9  UNL     1       0.883  -4.576  92.636  1.00  0.00     0.210 HD
ENDBRANCH   5  11
BRANCH   6  13
HETATM   13  O8  UNL     1       3.796  -2.300  92.615  1.00  0.00    -0.390 OA
ATOM     14  H8  UNL     1       3.596  -2.176  91.695  1.00  0.00     0.210 HD
ENDBRANCH   6  13
BRANCH   7  15
HETATM   15  O7  UNL     1       5.122  -5.233  94.203  1.00  0.00    -0.388 OA
ATOM     16  H7  UNL     1       5.847  -5.421  94.788  1.00  0.00     0.210 HD
ENDBRANCH   7  15
ENDBRANCH   1   2
BRANCH   1  17
HETATM   17  C4  UNL     1       6.462  -2.225  95.197  1.00  0.00     0.208 C 
BRANCH  17  18
HETATM   18  C5  UNL     1       6.536  -0.762  94.808  1.00  0.00     0.200 C 
HETATM   19  O4  UNL     1       6.052  -0.535  93.548  1.00  0.00    -0.371 OA
HETATM   20  C6  UNL     1       6.515   0.586  92.913  1.00  0.00     0.150 C 
HETATM   21  C13 UNL     1       7.924   0.959  93.221  1.00  0.00     0.203 C 
HETATM   22  O5  UNL     1       8.606  -0.102  93.785  1.00  0.00    -0.356 OA
HETATM   23  C14 UNL     1       7.957  -0.325  95.022  1.00  0.00     0.287 C 
BRANCH  20  24
HETATM   24  C7  UNL     1       5.629   1.809  93.188  1.00  0.00     0.017 C 
HETATM   25  C8  UNL     1       6.499   3.037  93.277  1.00  0.00     0.007 C 
HETATM   26  C9  UNL     1       5.980   4.173  92.429  1.00  0.00     0.000 C 
HETATM   27  C10 UNL     1       5.854   3.653  91.016  1.00  0.00     0.000 C 
HETATM   28  C11 UNL     1       4.763   2.643  90.979  1.00  0.00     0.000 C 
HETATM   29  C12 UNL     1       4.495   1.925  92.245  1.00  0.00     0.007 C 
ENDBRANCH  20  24
BRANCH  23  30
HETATM   30  O6  UNL     1       8.011   0.839  95.785  1.00  0.00    -0.369 OA
ATOM     31  H6  UNL     1       8.824   1.307  95.635  1.00  0.00     0.212 HD
ENDBRANCH  23  30
ENDBRANCH  17  18
ENDBRANCH   1  17
TORSDOF 10
ENDMDL
MODEL 5
REMARK VINA RESULT: -7.600636991      1.818      8.518
REMARK  10 active torsions:
REMARK  status: ('A' for Active; 'I' for Inactive)
REMARK    1  A    between atoms: O1_1  and  C1_3 
REMARK    2  A    between atoms: C1_3  and  C2_4 
REMARK    3  A    between atoms: C3_6  and  O3_7 
REMARK    4  A    between atoms: O3_7  and  C4_8 
REMARK    5  A    between atoms: C4_8  and  C5_9 
REMARK    6  A    between atoms: C6_11  and  C7_12 
REMARK    7  A    between atoms: C14_20  and  O6_21 
REMARK    8  A    between atoms: C15_23  and  O7_24 
REMARK    9  A    between atoms: C16_26  and  O8_27 
REMARK   10  A    between atoms: C17_29  and  O9_30 
ROOT
HETATM    1  O3  UNL     1       4.553   5.516  90.228  1.00  0.00    -0.356 OA
ENDROOT
BRANCH   1   2
HETATM    2  C3  UNL     1       3.824   6.053  89.195  1.00  0.00     0.291 C 
HETATM    3  O2  UNL     1       4.529   7.084  88.540  1.00  0.00    -0.348 OA
HETATM    4  C2  UNL     1       3.583   7.815  87.792  1.00  0.00     0.179 C 
HETATM    5  C17 UNL     1       2.932   6.955  86.730  1.00  0.00     0.180 C 
HETATM    6  C16 UNL     1       3.574   5.590  86.804  1.00  0.00     0.183 C 
HETATM    7  C15 UNL     1       3.355   5.040  88.195  1.00  0.00     0.204 C 
BRANCH   4   8
HETATM    8  C1  UNL     1       4.217   8.999  87.141  1.00  0.00     0.198 C 
BRANCH   8   9
HETATM    9  O1  UNL     1       5.429   8.619  86.576  1.00  0.00    -0.398 OA
ATOM     10  H1  UNL     1       5.289   7.873  86.004  1.00  0.00     0.209 HD
ENDBRANCH   8   9
ENDBRANCH   4   8
BRANCH   5  11
HETATM   11  O9  UNL     1       3.066   7.524  85.468  1.00  0.00    -0.390 OA
ATOM     12  H9  UNL     1       2.374   8.153  85.298  1.00  0.00     0.210 HD
ENDBRANCH   5  11
BRANCH   6  13
HETATM   13  O8  UNL     1       4.935   5.771  86.535  1.00  0.00    -0.390 OA
ATOM     14  H8  UNL     1       5.097   6.605  86.109  1.00  0.00     0.210 HD
ENDBRANCH   6  13
BRANCH   7  15
HETATM   15  O7  UNL     1       1.976   4.818  88.328  1.00  0.00    -0.388 OA
ATOM     16  H7  UNL     1       1.568   4.730  87.474  1.00  0.00     0.210 HD
ENDBRANCH   7  15
ENDBRANCH   1   2
BRANCH   1  17
HETATM   17  C4  UNL     1       4.751   4.168  90.034  1.00  0.00     0.208 C 
BRANCH  17  18
HETATM   18  C5  UNL     1       5.749   3.595  91.020  1.00  0.00     0.200 C 
HETATM   19  O4  UNL     1       5.265   2.490  91.665  1.00  0.00    -0.371 OA
HETATM   20  C6  UNL     1       5.823   2.204  92.883  1.00  0.00     0.150 C 
HETATM   21  C13 UNL     1       6.235   3.386  93.690  1.00  0.00     0.203 C 
HETATM   22  O5  UNL     1       5.631   4.539  93.225  1.00  0.00    -0.356 OA
HETATM   23  C14 UNL     1       6.161   4.719  91.927  1.00  0.00     0.287 C 
BRANCH  20  24
HETATM   24  C7  UNL     1       7.036   1.271  92.753  1.00  0.00     0.017 C 
HETATM   25  C8  UNL     1       8.164   1.812  93.595  1.00  0.00     0.007 C 
HETATM   26  C9  UNL     1       8.778   0.756  94.481  1.00  0.00     0.000 C 
HETATM   27  C10 UNL     1       7.663   0.168  95.314  1.00  0.00     0.000 C 
HETATM   28  C11 UNL     1       6.752  -0.593  94.418  1.00  0.00     0.000 C 
HETATM   29  C12 UNL     1       6.704  -0.147  93.007  1.00  0.00     0.007 C 
ENDBRANCH  20  24
BRANCH  23  30
HETATM   30  O6  UNL     1       7.549   4.813  92.006  1.00  0.00    -0.369 OA
ATOM     31  H6  UNL     1       7.965   4.128  91.496  1.00  0.00     0.212 HD
ENDBRANCH  23  30
ENDBRANCH  17  18
ENDBRANCH   1  17
TORSDOF 10
ENDMDL
