MODEL 1
REMARK VINA RESULT: -6.826739253      0.000      0.000
REMARK  9 active torsions:
REMARK  status: ('A' for Active; 'I' for Inactive)
REMARK    1  A    between atoms: N1_2  and  C2_5 
REMARK    2  A    between atoms: C4_7  and  O1_8 
REMARK    3  A    between atoms: O1_8  and  C5_9 
REMARK    4  A    between atoms: C8_13  and  O3_14 
REMARK    5  A    between atoms: C9_16  and  O4_17 
REMARK    6  A    between atoms: C10_19  and  O5_20 
REMARK    7  A    between atoms: C15_26  and  O6_27 
REMARK    8  A    between atoms: C15_26  and  C16_29 
REMARK    9  A    between atoms: C16_29  and  O8_31 
ROOT
HETATM    1  C2  UNL     1       3.892   8.303  88.683  1.00  0.00     0.202 C 
HETATM    2  C3  UNL     1       4.370   7.333  89.785  1.00  0.00     0.068 C 
HETATM    3  C4  UNL     1       5.103   6.228  89.060  1.00  0.00     0.156 C 
HETATM    4  C10 UNL     1       5.110   6.644  87.578  1.00  0.00     0.161 C 
HETATM    5  C11 UNL     1       3.824   7.405  87.521  1.00  0.00     0.057 C 
HETATM    6  C12 UNL     1       2.685   6.397  87.834  1.00  0.00     0.018 C 
HETATM    7  C13 UNL     1       1.470   7.211  87.485  1.00  0.00     0.004 C 
HETATM    8  C14 UNL     1       1.946   8.357  86.577  1.00  0.00     0.049 C 
HETATM    9  C15 UNL     1       3.367   7.889  86.219  1.00  0.00     0.157 C 
ENDROOT
BRANCH   3  10
HETATM   10  O1  UNL     1       6.438   6.120  89.421  1.00  0.00    -0.351 OA
BRANCH  10  11
HETATM   11  C5  UNL     1       6.649   5.442  90.588  1.00  0.00     0.292 C 
HETATM   12  O2  UNL     1       6.155   4.142  90.599  1.00  0.00    -0.351 OA
HETATM   13  C6  UNL     1       6.507   3.721  91.889  1.00  0.00     0.152 C 
HETATM   14  C7  UNL     1       5.601   4.299  92.943  1.00  0.00     0.042 C 
HETATM   15  C8  UNL     1       7.942   4.200  92.086  1.00  0.00     0.180 C 
HETATM   16  C9  UNL     1       8.078   5.247  90.986  1.00  0.00     0.204 C 
BRANCH  15  17
HETATM   17  O3  UNL     1       8.059   4.766  93.357  1.00  0.00    -0.390 OA
ATOM     18  H3  UNL     1       7.928   4.087  94.008  1.00  0.00     0.210 HD
ENDBRANCH  15  17
BRANCH  16  19
HETATM   19  O4  UNL     1       8.843   4.676  89.967  1.00  0.00    -0.388 OA
ATOM     20  H4  UNL     1       8.887   3.730  90.034  1.00  0.00     0.210 HD
ENDBRANCH  16  19
ENDBRANCH  10  11
ENDBRANCH   3  10
BRANCH   4  21
HETATM   21  O5  UNL     1       5.104   5.462  86.858  1.00  0.00    -0.392 OA
ATOM     22  H5  UNL     1       4.304   5.478  86.346  1.00  0.00     0.210 HD
ENDBRANCH   4  21
BRANCH   1  23
HETATM   23  N1  UNL     1       4.891   9.333  88.665  1.00  0.00    -0.074 N 
HETATM   24  C1  UNL     1       4.268  10.538  89.212  1.00  0.00     0.267 C 
ATOM     25  H12 UNL     1       5.304   9.478  87.743  1.00  0.00     0.277 HD
ATOM     26  H11 UNL     1       5.749   9.069  89.149  1.00  0.00     0.277 HD
ENDBRANCH   1  23
BRANCH   9  27
HETATM   27  O6  UNL     1       3.109   6.702  85.447  1.00  0.00    -0.379 OA
ATOM     28  H6  UNL     1       2.733   7.014  84.632  1.00  0.00     0.211 HD
ENDBRANCH   9  27
BRANCH   9  29
HETATM   29  C16 UNL     1       4.140   8.836  85.463  1.00  0.00     0.294 C 
HETATM   30  O7  UNL     1       3.757   9.336  84.392  1.00  0.00    -0.262 OA
BRANCH  29  31
HETATM   31  O8  UNL     1       5.408   9.258  85.914  1.00  0.00    -0.324 OA
HETATM   32  C17 UNL     1       6.311   9.970  85.090  1.00  0.00     0.213 C 
ENDBRANCH  29  31
ENDBRANCH   9  29
TORSDOF 9
ENDMDL
MODEL 2
REMARK VINA RESULT: -6.801978249      2.353      7.712
REMARK  9 active torsions:
REMARK  status: ('A' for Active; 'I' for Inactive)
REMARK    1  A    between atoms: N1_2  and  C2_5 
REMARK    2  A    between atoms: C4_7  and  O1_8 
REMARK    3  A    between atoms: O1_8  and  C5_9 
REMARK    4  A    between atoms: C8_13  and  O3_14 
REMARK    5  A    between atoms: C9_16  and  O4_17 
REMARK    6  A    between atoms: C10_19  and  O5_20 
REMARK    7  A    between atoms: C15_26  and  O6_27 
REMARK    8  A    between atoms: C15_26  and  C16_29 
REMARK    9  A    between atoms: C16_29  and  O8_31 
ROOT
HETATM    1  C2  UNL     1       8.209   3.857  91.123  1.00  0.00     0.202 C 
HETATM    2  C3  UNL     1       7.201   4.338  90.057  1.00  0.00     0.068 C 
HETATM    3  C4  UNL     1       6.111   5.052  90.823  1.00  0.00     0.156 C 
HETATM    4  C10 UNL     1       6.572   5.047  92.292  1.00  0.00     0.161 C 
HETATM    5  C11 UNL     1       7.346   3.768  92.311  1.00  0.00     0.057 C 
HETATM    6  C12 UNL     1       6.340   2.622  92.016  1.00  0.00     0.018 C 
HETATM    7  C13 UNL     1       7.176   1.412  92.326  1.00  0.00     0.004 C 
HETATM    8  C14 UNL     1       8.345   1.889  93.204  1.00  0.00     0.049 C 
HETATM    9  C15 UNL     1       7.875   3.301  93.593  1.00  0.00     0.157 C 
ENDROOT
BRANCH   3  10
HETATM   10  O1  UNL     1       5.980   6.390  90.481  1.00  0.00    -0.351 OA
BRANCH  10  11
HETATM   11  C5  UNL     1       5.335   6.602  89.295  1.00  0.00     0.292 C 
HETATM   12  O2  UNL     1       4.003   6.203  89.281  1.00  0.00    -0.351 OA
HETATM   13  C6  UNL     1       3.627   6.534  87.971  1.00  0.00     0.152 C 
HETATM   14  C7  UNL     1       4.153   5.548  86.963  1.00  0.00     0.042 C 
HETATM   15  C8  UNL     1       4.211   7.922  87.728  1.00  0.00     0.180 C 
HETATM   16  C9  UNL     1       5.250   8.026  88.840  1.00  0.00     0.204 C 
BRANCH  15  17
HETATM   17  O3  UNL     1       4.802   7.948  86.464  1.00  0.00    -0.390 OA
ATOM     18  H3  UNL     1       5.369   7.192  86.374  1.00  0.00     0.210 HD
ENDBRANCH  15  17
BRANCH  16  19
HETATM   19  O4  UNL     1       4.721   8.868  89.819  1.00  0.00    -0.388 OA
ATOM     20  H4  UNL     1       4.460   9.712  89.469  1.00  0.00     0.210 HD
ENDBRANCH  16  19
ENDBRANCH  10  11
ENDBRANCH   3  10
BRANCH   4  21
HETATM   21  O5  UNL     1       5.413   5.021  93.047  1.00  0.00    -0.392 OA
ATOM     22  H5  UNL     1       5.582   4.411  93.755  1.00  0.00     0.210 HD
ENDBRANCH   4  21
BRANCH   1  23
HETATM   23  N1  UNL     1       9.229   4.867  91.122  1.00  0.00    -0.074 N 
HETATM   24  C1  UNL     1      10.428   4.255  90.549  1.00  0.00     0.267 C 
ATOM     25  H12 UNL     1       9.388   5.279  92.041  1.00  0.00     0.277 HD
ATOM     26  H11 UNL     1       8.947   5.722  90.644  1.00  0.00     0.277 HD
ENDBRANCH   1  23
BRANCH   9  27
HETATM   27  O6  UNL     1       6.714   3.023  94.397  1.00  0.00    -0.379 OA
ATOM     28  H6  UNL     1       6.853   2.146  94.737  1.00  0.00     0.211 HD
ENDBRANCH   9  27
BRANCH   9  29
HETATM   29  C16 UNL     1       8.837   4.075  94.329  1.00  0.00     0.294 C 
HETATM   30  O7  UNL     1       9.367   3.688  95.383  1.00  0.00    -0.262 OA
BRANCH  29  31
HETATM   31  O8  UNL     1       9.239   5.348  93.875  1.00  0.00    -0.324 OA
HETATM   32  C17 UNL     1       9.936   6.265  94.697  1.00  0.00     0.213 C 
ENDBRANCH  29  31
ENDBRANCH   9  29
TORSDOF 9
ENDMDL
MODEL 3
REMARK VINA RESULT: -6.428296231      2.264      7.373
REMARK  9 active torsions:
REMARK  status: ('A' for Active; 'I' for Inactive)
REMARK    1  A    between atoms: N1_2  and  C2_5 
REMARK    2  A    between atoms: C4_7  and  O1_8 
REMARK    3  A    between atoms: O1_8  and  C5_9 
REMARK    4  A    between atoms: C8_13  and  O3_14 
REMARK    5  A    between atoms: C9_16  and  O4_17 
REMARK    6  A    between atoms: C10_19  and  O5_20 
REMARK    7  A    between atoms: C15_26  and  O6_27 
REMARK    8  A    between atoms: C15_26  and  C16_29 
REMARK    9  A    between atoms: C16_29  and  O8_31 
ROOT
HETATM    1  C2  UNL     1       7.364   3.896  90.424  1.00  0.00     0.202 C 
HETATM    2  C3  UNL     1       6.660   4.583  89.234  1.00  0.00     0.068 C 
HETATM    3  C4  UNL     1       5.858   5.713  89.837  1.00  0.00     0.156 C 
HETATM    4  C10 UNL     1       6.200   5.704  91.338  1.00  0.00     0.161 C 
HETATM    5  C11 UNL     1       6.460   4.244  91.530  1.00  0.00     0.057 C 
HETATM    6  C12 UNL     1       5.128   3.502  91.236  1.00  0.00     0.018 C 
HETATM    7  C13 UNL     1       5.454   2.115  91.717  1.00  0.00     0.004 C 
HETATM    8  C14 UNL     1       6.663   2.242  92.659  1.00  0.00     0.049 C 
HETATM    9  C15 UNL     1       6.710   3.762  92.889  1.00  0.00     0.157 C 
ENDROOT
BRANCH   3  10
HETATM   10  O1  UNL     1       6.236   6.967  89.378  1.00  0.00    -0.351 OA
BRANCH  10  11
HETATM   11  C5  UNL     1       5.201   7.728  88.915  1.00  0.00     0.292 C 
HETATM   12  O2  UNL     1       5.586   8.877  88.234  1.00  0.00    -0.351 OA
HETATM   13  C6  UNL     1       4.343   9.433  87.899  1.00  0.00     0.152 C 
HETATM   14  C7  UNL     1       3.682  10.098  89.076  1.00  0.00     0.042 C 
HETATM   15  C8  UNL     1       3.505   8.260  87.398  1.00  0.00     0.180 C 
HETATM   16  C9  UNL     1       4.284   7.064  87.936  1.00  0.00     0.204 C 
BRANCH  15  17
HETATM   17  O3  UNL     1       2.231   8.343  87.960  1.00  0.00    -0.390 OA
ATOM     18  H3  UNL     1       1.851   9.185  87.738  1.00  0.00     0.210 HD
ENDBRANCH  15  17
BRANCH  16  19
HETATM   19  O4  UNL     1       4.971   6.503  86.858  1.00  0.00    -0.388 OA
ATOM     20  H4  UNL     1       5.169   7.141  86.182  1.00  0.00     0.210 HD
ENDBRANCH  16  19
ENDBRANCH  10  11
ENDBRANCH   3  10
BRANCH   4  21
HETATM   21  O5  UNL     1       5.067   6.169  91.981  1.00  0.00    -0.392 OA
ATOM     22  H5  UNL     1       4.610   6.704  91.343  1.00  0.00     0.210 HD
ENDBRANCH   4  21
BRANCH   1  23
HETATM   23  N1  UNL     1       8.678   4.475  90.437  1.00  0.00    -0.074 N 
HETATM   24  C1  UNL     1       9.620   3.382  90.674  1.00  0.00     0.267 C 
ATOM     25  H12 UNL     1       8.774   5.241  91.104  1.00  0.00     0.277 HD
ATOM     26  H11 UNL     1       8.888   5.012  89.596  1.00  0.00     0.277 HD
ENDBRANCH   1  23
BRANCH   9  27
HETATM   27  O6  UNL     1       5.482   3.998  93.601  1.00  0.00    -0.379 OA
ATOM     28  H6  UNL     1       5.274   3.170  94.017  1.00  0.00     0.211 HD
ENDBRANCH   9  27
BRANCH   9  29
HETATM   29  C16 UNL     1       7.841   4.222  93.647  1.00  0.00     0.294 C 
HETATM   30  O7  UNL     1       8.484   5.247  93.367  1.00  0.00    -0.262 OA
BRANCH  29  31
HETATM   31  O8  UNL     1       8.290   3.511  94.779  1.00  0.00    -0.324 OA
HETATM   32  C17 UNL     1       9.399   3.929  95.552  1.00  0.00     0.213 C 
ENDBRANCH  29  31
ENDBRANCH   9  29
TORSDOF 9
ENDMDL
MODEL 4
REMARK VINA RESULT: -6.396270221      7.460     10.938
REMARK  9 active torsions:
REMARK  status: ('A' for Active; 'I' for Inactive)
REMARK    1  A    between atoms: N1_2  and  C2_5 
REMARK    2  A    between atoms: C4_7  and  O1_8 
REMARK    3  A    between atoms: O1_8  and  C5_9 
REMARK    4  A    between atoms: C8_13  and  O3_14 
REMARK    5  A    between atoms: C9_16  and  O4_17 
REMARK    6  A    between atoms: C10_19  and  O5_20 
REMARK    7  A    between atoms: C15_26  and  O6_27 
REMARK    8  A    between atoms: C15_26  and  C16_29 
REMARK    9  A    between atoms: C16_29  and  O8_31 
ROOT
HETATM    1  C2  UNL     1      -3.969   2.888  87.055  1.00  0.00     0.202 C 
HETATM    2  C3  UNL     1      -3.058   4.135  87.074  1.00  0.00     0.068 C 
HETATM    3  C4  UNL     1      -2.511   4.256  85.670  1.00  0.00     0.156 C 
HETATM    4  C10 UNL     1      -3.197   3.138  84.864  1.00  0.00     0.161 C 
HETATM    5  C11 UNL     1      -3.382   2.122  85.945  1.00  0.00     0.057 C 
HETATM    6  C12 UNL     1      -1.966   1.704  86.424  1.00  0.00     0.018 C 
HETATM    7  C13 UNL     1      -2.288   0.519  87.292  1.00  0.00     0.004 C 
HETATM    8  C14 UNL     1      -3.692   0.039  86.888  1.00  0.00     0.049 C 
HETATM    9  C15 UNL     1      -3.909   0.809  85.574  1.00  0.00     0.157 C 
ENDROOT
BRANCH   3  10
HETATM   10  O1  UNL     1      -2.866   5.440  85.039  1.00  0.00    -0.351 OA
BRANCH  10  11
HETATM   11  C5  UNL     1      -1.925   6.426  85.131  1.00  0.00     0.292 C 
HETATM   12  O2  UNL     1      -0.610   5.978  85.081  1.00  0.00    -0.351 OA
HETATM   13  C6  UNL     1       0.099   7.182  85.201  1.00  0.00     0.152 C 
HETATM   14  C7  UNL     1       0.107   7.698  86.615  1.00  0.00     0.042 C 
HETATM   15  C8  UNL     1      -0.614   8.158  84.271  1.00  0.00     0.180 C 
HETATM   16  C9  UNL     1      -1.954   7.464  84.053  1.00  0.00     0.204 C 
BRANCH  15  17
HETATM   17  O3  UNL     1      -0.765   9.380  84.929  1.00  0.00    -0.390 OA
ATOM     18  H3  UNL     1      -1.005  10.044  84.294  1.00  0.00     0.210 HD
ENDBRANCH  15  17
BRANCH  16  19
HETATM   19  O4  UNL     1      -1.924   6.906  82.774  1.00  0.00    -0.388 OA
ATOM     20  H4  UNL     1      -1.392   7.410  82.170  1.00  0.00     0.210 HD
ENDBRANCH  16  19
ENDBRANCH  10  11
ENDBRANCH   3  10
BRANCH   4  21
HETATM   21  O5  UNL     1      -2.289   2.771  83.888  1.00  0.00    -0.392 OA
ATOM     22  H5  UNL     1      -2.777   2.237  83.272  1.00  0.00     0.210 HD
ENDBRANCH   4  21
BRANCH   1  23
HETATM   23  N1  UNL     1      -5.289   3.420  86.866  1.00  0.00    -0.074 N 
HETATM   24  C1  UNL     1      -6.129   2.854  87.921  1.00  0.00     0.267 C 
ATOM     25  H12 UNL     1      -5.657   3.259  85.929  1.00  0.00     0.277 HD
ATOM     26  H11 UNL     1      -5.310   4.439  86.839  1.00  0.00     0.277 HD
ENDBRANCH   1  23
BRANCH   9  27
HETATM   27  O6  UNL     1      -2.907   0.233  84.717  1.00  0.00    -0.379 OA
ATOM     28  H6  UNL     1      -3.260  -0.611  84.456  1.00  0.00     0.211 HD
ENDBRANCH   9  27
BRANCH   9  29
HETATM   29  C16 UNL     1      -5.220   0.666  85.002  1.00  0.00     0.294 C 
HETATM   30  O7  UNL     1      -5.838   1.597  84.460  1.00  0.00    -0.262 OA
BRANCH  29  31
HETATM   31  O8  UNL     1      -5.888  -0.576  85.029  1.00  0.00    -0.324 OA
HETATM   32  C17 UNL     1      -6.032  -1.389  83.880  1.00  0.00     0.213 C 
ENDBRANCH  29  31
ENDBRANCH   9  29
TORSDOF 9
ENDMDL
MODEL 5
REMARK VINA RESULT: -6.383143889      1.319      1.941
REMARK  9 active torsions:
REMARK  status: ('A' for Active; 'I' for Inactive)
REMARK    1  A    between atoms: N1_2  and  C2_5 
REMARK    2  A    between atoms: C4_7  and  O1_8 
REMARK    3  A    between atoms: O1_8  and  C5_9 
REMARK    4  A    between atoms: C8_13  and  O3_14 
REMARK    5  A    between atoms: C9_16  and  O4_17 
REMARK    6  A    between atoms: C10_19  and  O5_20 
REMARK    7  A    between atoms: C15_26  and  O6_27 
REMARK    8  A    between atoms: C15_26  and  C16_29 
REMARK    9  A    between atoms: C16_29  and  O8_31 
ROOT
HETATM    1  C2  UNL     1       3.961   7.513  89.407  1.00  0.00     0.202 C 
HETATM    2  C3  UNL     1       4.568   6.723  90.586  1.00  0.00     0.068 C 
HETATM    3  C4  UNL     1       5.675   5.887  89.986  1.00  0.00     0.156 C 
HETATM    4  C10 UNL     1       5.736   6.292  88.502  1.00  0.00     0.161 C 
HETATM    5  C11 UNL     1       4.300   6.638  88.274  1.00  0.00     0.057 C 
HETATM    6  C12 UNL     1       3.479   5.337  88.485  1.00  0.00     0.018 C 
HETATM    7  C13 UNL     1       2.128   5.757  87.974  1.00  0.00     0.004 C 
HETATM    8  C14 UNL     1       2.351   6.996  87.091  1.00  0.00     0.049 C 
HETATM    9  C15 UNL     1       3.879   6.971  86.913  1.00  0.00     0.157 C 
ENDROOT
BRANCH   3  10
HETATM   10  O1  UNL     1       6.930   6.178  90.502  1.00  0.00    -0.351 OA
BRANCH  10  11
HETATM   11  C5  UNL     1       7.598   5.092  90.991  1.00  0.00     0.292 C 
HETATM   12  O2  UNL     1       8.762   5.393  91.689  1.00  0.00    -0.351 OA
HETATM   13  C6  UNL     1       9.211   4.115  92.049  1.00  0.00     0.152 C 
HETATM   14  C7  UNL     1       9.842   3.388  90.893  1.00  0.00     0.042 C 
HETATM   15  C8  UNL     1       7.967   3.380  92.538  1.00  0.00     0.180 C 
HETATM   16  C9  UNL     1       6.846   4.244  91.968  1.00  0.00     0.204 C 
BRANCH  15  17
HETATM   17  O3  UNL     1       7.958   2.095  91.993  1.00  0.00    -0.390 OA
ATOM     18  H3  UNL     1       7.096   1.716  92.114  1.00  0.00     0.210 HD
ENDBRANCH  15  17
BRANCH  16  19
HETATM   19  O4  UNL     1       6.322   4.987  93.027  1.00  0.00    -0.388 OA
ATOM     20  H4  UNL     1       6.985   5.231  93.662  1.00  0.00     0.210 HD
ENDBRANCH  16  19
ENDBRANCH  10  11
ENDBRANCH   3  10
BRANCH   4  21
HETATM   21  O5  UNL     1       6.164   5.164  87.825  1.00  0.00    -0.392 OA
ATOM     22  H5  UNL     1       7.112   5.181  87.871  1.00  0.00     0.210 HD
ENDBRANCH   4  21
BRANCH   1  23
HETATM   23  N1  UNL     1       4.608   8.792  89.470  1.00  0.00    -0.074 N 
HETATM   24  C1  UNL     1       3.577   9.801  89.228  1.00  0.00     0.267 C 
ATOM     25  H12 UNL     1       5.405   8.872  88.838  1.00  0.00     0.277 HD
ATOM     26  H11 UNL     1       5.119   8.941  90.340  1.00  0.00     0.277 HD
ENDBRANCH   1  23
BRANCH   9  27
HETATM   27  O6  UNL     1       4.075   5.763  86.155  1.00  0.00    -0.379 OA
ATOM     28  H6  UNL     1       3.211   5.527  85.837  1.00  0.00     0.211 HD
ENDBRANCH   9  27
BRANCH   9  29
HETATM   29  C16 UNL     1       4.423   8.107  86.221  1.00  0.00     0.294 C 
HETATM   30  O7  UNL     1       3.979   8.531  85.141  1.00  0.00    -0.262 OA
BRANCH  29  31
HETATM   31  O8  UNL     1       5.521   8.817  86.750  1.00  0.00    -0.324 OA
HETATM   32  C17 UNL     1       6.061   9.964  86.121  1.00  0.00     0.213 C 
ENDBRANCH  29  31
ENDBRANCH   9  29
TORSDOF 9
ENDMDL
