MODEL 1
REMARK VINA RESULT: -6.714386329      0.000      0.000
REMARK  5 active torsions:
REMARK  status: ('A' for Active; 'I' for Inactive)
REMARK    1  A    between atoms: C2_2  and  C3_3 
REMARK    2  A    between atoms: C3_3  and  C4_4 
REMARK    3  A    between atoms: C4_4  and  N1_5 
REMARK    4  A    between atoms: N1_5  and  S1_7 
REMARK    5  A    between atoms: S1_7  and  N2_10 
ROOT
HETATM    1  S1  UNL     1       1.991  16.964  55.411  1.00  0.00     0.298 S 
HETATM    2  O1  UNL     1       1.112  17.290  54.214  1.00  0.00    -0.188 OA
HETATM    3  O2  UNL     1       3.375  17.470  55.016  1.00  0.00    -0.188 OA
ENDROOT
BRANCH   1   4
HETATM    4  N1  UNL     1       2.132  15.287  55.648  1.00  0.00    -0.303 N 
ATOM      5  H1  UNL     1       1.400  14.690  56.033  1.00  0.00     0.173 HD
BRANCH   4   6
HETATM    6  C4  UNL     1       3.420  14.832  55.231  1.00  0.00     0.177 C 
BRANCH   6   7
HETATM    7  C3  UNL     1       3.350  13.797  54.127  1.00  0.00     0.116 A 
HETATM    8  C10 UNL     1       4.666  13.272  53.601  1.00  0.00     0.213 A 
HETATM    9  O3  UNL     1       3.843  14.137  52.869  1.00  0.00    -0.369 OA
BRANCH   7  10
HETATM   10  C2  UNL     1       2.230  12.807  54.207  1.00  0.00     0.004 C 
HETATM   11  C1  UNL     1       1.618  12.334  53.150  1.00  0.00     0.010 C 
ENDBRANCH   7  10
ENDBRANCH   6   7
ENDBRANCH   4   6
ENDBRANCH   1   4
BRANCH   1  12
HETATM   12  N2  UNL     1       1.473  17.858  56.757  1.00  0.00    -0.194 NA
HETATM   13  C5  UNL     1       0.602  17.135  57.626  1.00  0.00     0.109 C 
HETATM   14  C6  UNL     1      -0.776  16.929  57.068  1.00  0.00     0.015 C 
HETATM   15  C7  UNL     1      -1.360  18.222  56.539  1.00  0.00     0.002 C 
HETATM   16  C8  UNL     1      -0.459  19.369  56.931  1.00  0.00     0.015 C 
HETATM   17  C9  UNL     1       0.900  19.120  56.316  1.00  0.00     0.109 C 
ENDBRANCH   1  12
TORSDOF 5
ENDMDL
MODEL 2
REMARK VINA RESULT: -6.527891845      5.389      6.815
REMARK  5 active torsions:
REMARK  status: ('A' for Active; 'I' for Inactive)
REMARK    1  A    between atoms: C2_2  and  C3_3 
REMARK    2  A    between atoms: C3_3  and  C4_4 
REMARK    3  A    between atoms: C4_4  and  N1_5 
REMARK    4  A    between atoms: N1_5  and  S1_7 
REMARK    5  A    between atoms: S1_7  and  N2_10 
ROOT
HETATM    1  S1  UNL     1       4.166  11.577  59.144  1.00  0.00     0.298 S 
HETATM    2  O1  UNL     1       5.511  10.872  59.072  1.00  0.00    -0.188 OA
HETATM    3  O2  UNL     1       3.142  10.447  59.087  1.00  0.00    -0.188 OA
ENDROOT
BRANCH   1   4
HETATM    4  N1  UNL     1       3.895  12.554  57.780  1.00  0.00    -0.303 N 
ATOM      5  H1  UNL     1       3.010  13.007  57.555  1.00  0.00     0.173 HD
BRANCH   4   6
HETATM    6  C4  UNL     1       5.083  12.650  56.994  1.00  0.00     0.177 C 
BRANCH   6   7
HETATM    7  C3  UNL     1       5.159  13.935  56.195  1.00  0.00     0.116 A 
HETATM    8  C10 UNL     1       6.089  15.007  56.715  1.00  0.00     0.213 A 
HETATM    9  O3  UNL     1       4.694  15.108  56.785  1.00  0.00    -0.369 OA
BRANCH   7  10
HETATM   10  C2  UNL     1       5.069  13.805  54.707  1.00  0.00     0.004 C 
HETATM   11  C1  UNL     1       4.761  12.683  54.105  1.00  0.00     0.010 C 
ENDBRANCH   7  10
ENDBRANCH   6   7
ENDBRANCH   4   6
ENDBRANCH   1   4
BRANCH   1  12
HETATM   12  N2  UNL     1       4.008  12.348  60.647  1.00  0.00    -0.194 NA
HETATM   13  C5  UNL     1       4.158  13.766  60.583  1.00  0.00     0.109 C 
HETATM   14  C6  UNL     1       5.571  14.215  60.354  1.00  0.00     0.015 C 
HETATM   15  C7  UNL     1       6.533  13.531  61.303  1.00  0.00     0.002 C 
HETATM   16  C8  UNL     1       5.745  12.763  62.338  1.00  0.00     0.015 C 
HETATM   17  C9  UNL     1       4.908  11.734  61.610  1.00  0.00     0.109 C 
ENDBRANCH   1  12
TORSDOF 5
ENDMDL
MODEL 3
REMARK VINA RESULT: -6.521490396      2.006      2.424
REMARK  5 active torsions:
REMARK  status: ('A' for Active; 'I' for Inactive)
REMARK    1  A    between atoms: C2_2  and  C3_3 
REMARK    2  A    between atoms: C3_3  and  C4_4 
REMARK    3  A    between atoms: C4_4  and  N1_5 
REMARK    4  A    between atoms: N1_5  and  S1_7 
REMARK    5  A    between atoms: S1_7  and  N2_10 
ROOT
HETATM    1  S1  UNL     1       2.708  16.639  55.779  1.00  0.00     0.298 S 
HETATM    2  O1  UNL     1       1.718  16.469  54.638  1.00  0.00    -0.188 OA
HETATM    3  O2  UNL     1       4.057  16.812  55.088  1.00  0.00    -0.188 OA
ENDROOT
BRANCH   1   4
HETATM    4  N1  UNL     1       2.820  15.233  56.727  1.00  0.00    -0.303 N 
ATOM      5  H1  UNL     1       2.033  14.634  56.976  1.00  0.00     0.173 HD
BRANCH   4   6
HETATM    6  C4  UNL     1       4.173  15.009  57.126  1.00  0.00     0.177 C 
BRANCH   6   7
HETATM    7  C3  UNL     1       4.642  13.595  56.849  1.00  0.00     0.116 A 
HETATM    8  C10 UNL     1       4.425  12.578  57.947  1.00  0.00     0.213 A 
HETATM    9  O3  UNL     1       5.688  13.083  57.614  1.00  0.00    -0.369 OA
BRANCH   7  10
HETATM   10  C2  UNL     1       4.477  13.097  55.448  1.00  0.00     0.004 C 
HETATM   11  C1  UNL     1       5.187  13.544  54.442  1.00  0.00     0.010 C 
ENDBRANCH   7  10
ENDBRANCH   6   7
ENDBRANCH   4   6
ENDBRANCH   1   4
BRANCH   1  12
HETATM   12  N2  UNL     1       2.365  18.071  56.620  1.00  0.00    -0.194 NA
HETATM   13  C5  UNL     1       1.677  17.862  57.853  1.00  0.00     0.109 C 
HETATM   14  C6  UNL     1       0.241  17.463  57.685  1.00  0.00     0.015 C 
HETATM   15  C7  UNL     1      -0.481  18.379  56.718  1.00  0.00     0.002 C 
HETATM   16  C8  UNL     1       0.413  19.548  56.384  1.00  0.00     0.015 C 
HETATM   17  C9  UNL     1       1.670  19.000  55.744  1.00  0.00     0.109 C 
ENDBRANCH   1  12
TORSDOF 5
ENDMDL
MODEL 4
REMARK VINA RESULT: -6.471356919      1.874      2.279
REMARK  5 active torsions:
REMARK  status: ('A' for Active; 'I' for Inactive)
REMARK    1  A    between atoms: C2_2  and  C3_3 
REMARK    2  A    between atoms: C3_3  and  C4_4 
REMARK    3  A    between atoms: C4_4  and  N1_5 
REMARK    4  A    between atoms: N1_5  and  S1_7 
REMARK    5  A    between atoms: S1_7  and  N2_10 
ROOT
HETATM    1  S1  UNL     1       2.712  16.647  55.805  1.00  0.00     0.298 S 
HETATM    2  O1  UNL     1       1.675  16.408  54.719  1.00  0.00    -0.188 OA
HETATM    3  O2  UNL     1       4.022  16.830  55.045  1.00  0.00    -0.188 OA
ENDROOT
BRANCH   1   4
HETATM    4  N1  UNL     1       2.907  15.282  56.798  1.00  0.00    -0.303 N 
ATOM      5  H1  UNL     1       2.149  14.798  57.278  1.00  0.00     0.173 HD
BRANCH   4   6
HETATM    6  C4  UNL     1       4.284  14.909  56.864  1.00  0.00     0.177 C 
BRANCH   6   7
HETATM    7  C3  UNL     1       4.549  13.530  56.294  1.00  0.00     0.116 A 
HETATM    8  C10 UNL     1       5.099  13.469  54.887  1.00  0.00     0.213 A 
HETATM    9  O3  UNL     1       3.785  13.106  55.208  1.00  0.00    -0.369 OA
BRANCH   7  10
HETATM   10  C2  UNL     1       5.062  12.498  57.248  1.00  0.00     0.004 C 
HETATM   11  C1  UNL     1       4.449  12.188  58.364  1.00  0.00     0.010 C 
ENDBRANCH   7  10
ENDBRANCH   6   7
ENDBRANCH   4   6
ENDBRANCH   1   4
BRANCH   1  12
HETATM   12  N2  UNL     1       2.367  18.100  56.609  1.00  0.00    -0.194 NA
HETATM   13  C5  UNL     1       1.742  17.920  57.879  1.00  0.00     0.109 C 
HETATM   14  C6  UNL     1       0.311  17.477  57.792  1.00  0.00     0.015 C 
HETATM   15  C7  UNL     1      -0.480  18.337  56.827  1.00  0.00     0.002 C 
HETATM   16  C8  UNL     1       0.366  19.516  56.409  1.00  0.00     0.015 C 
HETATM   17  C9  UNL     1       1.608  18.978  55.732  1.00  0.00     0.109 C 
ENDBRANCH   1  12
TORSDOF 5
ENDMDL
MODEL 5
REMARK VINA RESULT: -6.462827307      2.769      5.861
REMARK  5 active torsions:
REMARK  status: ('A' for Active; 'I' for Inactive)
REMARK    1  A    between atoms: C2_2  and  C3_3 
REMARK    2  A    between atoms: C3_3  and  C4_4 
REMARK    3  A    between atoms: C4_4  and  N1_5 
REMARK    4  A    between atoms: N1_5  and  S1_7 
REMARK    5  A    between atoms: S1_7  and  N2_10 
ROOT
HETATM    1  S1  UNL     1       2.806  16.268  55.541  1.00  0.00     0.298 S 
HETATM    2  O1  UNL     1       2.716  17.769  55.320  1.00  0.00    -0.188 OA
HETATM    3  O2  UNL     1       1.810  15.677  54.548  1.00  0.00    -0.188 OA
ENDROOT
BRANCH   1   4
HETATM    4  N1  UNL     1       2.268  15.829  57.093  1.00  0.00    -0.303 N 
ATOM      5  H1  UNL     1       2.012  14.883  57.375  1.00  0.00     0.173 HD
BRANCH   4   6
HETATM    6  C4  UNL     1       2.226  16.974  57.946  1.00  0.00     0.177 C 
BRANCH   6   7
HETATM    7  C3  UNL     1       2.527  16.640  59.393  1.00  0.00     0.116 A 
HETATM    8  C10 UNL     1       1.428  16.905  60.397  1.00  0.00     0.213 A 
HETATM    9  O3  UNL     1       2.589  17.685  60.314  1.00  0.00    -0.369 OA
BRANCH   7  10
HETATM   10  C2  UNL     1       3.366  15.426  59.640  1.00  0.00     0.004 C 
HETATM   11  C1  UNL     1       4.642  15.486  59.933  1.00  0.00     0.010 C 
ENDBRANCH   7  10
ENDBRANCH   6   7
ENDBRANCH   4   6
ENDBRANCH   1   4
BRANCH   1  12
HETATM   12  N2  UNL     1       4.354  15.722  55.117  1.00  0.00    -0.194 NA
HETATM   13  C5  UNL     1       4.362  14.430  54.510  1.00  0.00     0.109 C 
HETATM   14  C6  UNL     1       4.089  13.310  55.470  1.00  0.00     0.015 C 
HETATM   15  C7  UNL     1       4.950  13.419  56.712  1.00  0.00     0.002 C 
HETATM   16  C8  UNL     1       5.978  14.506  56.507  1.00  0.00     0.015 C 
HETATM   17  C9  UNL     1       5.237  15.803  56.270  1.00  0.00     0.109 C 
ENDBRANCH   1  12
TORSDOF 5
ENDMDL
