MODEL 1
REMARK VINA RESULT: -7.047548482      0.000      0.000
REMARK  4 active torsions:
REMARK  status: ('A' for Active; 'I' for Inactive)
REMARK    1  A    between atoms: S1_2  and  N1_4 
REMARK    2  A    between atoms: S1_2  and  N2_12 
REMARK    3  A    between atoms: N1_4  and  C1_6 
REMARK    4  A    between atoms: C1_6  and  C2_7 
ROOT
HETATM    1  O1  UNL     1       1.928  18.084  56.016  1.00  0.00    -0.188 OA
HETATM    2  S1  UNL     1       1.115  16.863  55.408  1.00  0.00     0.298 S 
HETATM    3  O2  UNL     1       1.051  17.096  53.952  1.00  0.00    -0.188 OA
ENDROOT
BRANCH   2   4
HETATM    4  N1  UNL     1       2.167  15.501  55.753  1.00  0.00    -0.304 N 
ATOM      5  H1  UNL     1       1.837  14.553  55.934  1.00  0.00     0.173 HD
BRANCH   4   6
HETATM    6  C1  UNL     1       3.523  15.881  55.749  1.00  0.00     0.165 C 
BRANCH   6   7
HETATM    7  C2  UNL     1       4.186  14.826  54.864  1.00  0.00     0.140 C 
HETATM    8  C3  UNL     1       4.480  13.538  55.525  1.00  0.00     0.035 C 
HETATM    9  C4  UNL     1       4.867  12.690  54.314  1.00  0.00     0.029 C 
HETATM   10  C5  UNL     1       4.106  13.375  53.212  1.00  0.00     0.168 C 
HETATM   11  O3  UNL     1       3.459  14.466  53.761  1.00  0.00    -0.384 OA
ENDBRANCH   6   7
ENDBRANCH   4   6
ENDBRANCH   2   4
BRANCH   2  12
HETATM   12  N2  UNL     1      -0.262  16.821  56.333  1.00  0.00    -0.194 NA
HETATM   13  C6  UNL     1      -1.111  17.983  56.054  1.00  0.00     0.109 C 
HETATM   14  C7  UNL     1      -2.521  17.428  56.390  1.00  0.00     0.015 C 
HETATM   15  C8  UNL     1      -2.382  16.903  57.809  1.00  0.00     0.002 C 
HETATM   16  C9  UNL     1      -1.157  17.492  58.498  1.00  0.00     0.015 C 
HETATM   17  C10 UNL     1       0.123  17.104  57.777  1.00  0.00     0.109 C 
ENDBRANCH   2  12
TORSDOF 4
ENDMDL
MODEL 2
REMARK VINA RESULT: -7.017388659      1.539      6.031
REMARK  4 active torsions:
REMARK  status: ('A' for Active; 'I' for Inactive)
REMARK    1  A    between atoms: S1_2  and  N1_4 
REMARK    2  A    between atoms: S1_2  and  N2_12 
REMARK    3  A    between atoms: N1_4  and  C1_6 
REMARK    4  A    between atoms: C1_6  and  C2_7 
ROOT
HETATM    1  O1  UNL     1       1.369  15.946  54.591  1.00  0.00    -0.188 OA
HETATM    2  S1  UNL     1       2.713  16.261  55.374  1.00  0.00     0.298 S 
HETATM    3  O2  UNL     1       3.042  17.669  55.076  1.00  0.00    -0.188 OA
ENDROOT
BRANCH   2   4
HETATM    4  N1  UNL     1       2.219  16.103  57.051  1.00  0.00    -0.304 N 
ATOM      5  H1  UNL     1       1.906  15.230  57.476  1.00  0.00     0.173 HD
BRANCH   4   6
HETATM    6  C1  UNL     1       2.308  17.331  57.734  1.00  0.00     0.165 C 
BRANCH   6   7
HETATM    7  C2  UNL     1       0.849  17.768  57.873  1.00  0.00     0.140 C 
HETATM    8  C3  UNL     1       0.467  18.961  57.092  1.00  0.00     0.035 C 
HETATM    9  C4  UNL     1      -1.051  18.928  57.263  1.00  0.00     0.029 C 
HETATM   10  C5  UNL     1      -1.295  17.461  57.489  1.00  0.00     0.168 C 
HETATM   11  O3  UNL     1      -0.068  16.824  57.495  1.00  0.00    -0.384 OA
ENDBRANCH   6   7
ENDBRANCH   4   6
ENDBRANCH   2   4
BRANCH   2  12
HETATM   12  N2  UNL     1       3.723  15.027  54.916  1.00  0.00    -0.194 NA
HETATM   13  C6  UNL     1       2.957  13.918  54.338  1.00  0.00     0.109 C 
HETATM   14  C7  UNL     1       4.001  13.283  53.380  1.00  0.00     0.015 C 
HETATM   15  C8  UNL     1       5.199  13.005  54.273  1.00  0.00     0.002 C 
HETATM   16  C9  UNL     1       4.803  13.006  55.744  1.00  0.00     0.015 C 
HETATM   17  C10 UNL     1       4.264  14.360  56.172  1.00  0.00     0.109 C 
ENDBRANCH   2  12
TORSDOF 4
ENDMDL
MODEL 3
REMARK VINA RESULT: -6.970066217      2.170      5.929
REMARK  4 active torsions:
REMARK  status: ('A' for Active; 'I' for Inactive)
REMARK    1  A    between atoms: S1_2  and  N1_4 
REMARK    2  A    between atoms: S1_2  and  N2_12 
REMARK    3  A    between atoms: N1_4  and  C1_6 
REMARK    4  A    between atoms: C1_6  and  C2_7 
ROOT
HETATM    1  O1  UNL     1       1.355  15.912  54.563  1.00  0.00    -0.188 OA
HETATM    2  S1  UNL     1       2.684  16.194  55.385  1.00  0.00     0.298 S 
HETATM    3  O2  UNL     1       3.012  17.615  55.163  1.00  0.00    -0.188 OA
ENDROOT
BRANCH   2   4
HETATM    4  N1  UNL     1       2.160  15.951  57.043  1.00  0.00    -0.304 N 
ATOM      5  H1  UNL     1       2.477  15.187  57.639  1.00  0.00     0.173 HD
BRANCH   4   6
HETATM    6  C1  UNL     1       1.246  16.945  57.447  1.00  0.00     0.165 C 
BRANCH   6   7
HETATM    7  C2  UNL     1       1.958  17.631  58.612  1.00  0.00     0.140 C 
HETATM    8  C3  UNL     1       3.123  16.906  59.159  1.00  0.00     0.035 C 
HETATM    9  C4  UNL     1       3.706  17.977  60.080  1.00  0.00     0.029 C 
HETATM   10  C5  UNL     1       3.230  19.238  59.411  1.00  0.00     0.168 C 
HETATM   11  O3  UNL     1       2.454  18.874  58.327  1.00  0.00    -0.384 OA
ENDBRANCH   6   7
ENDBRANCH   4   6
ENDBRANCH   2   4
BRANCH   2  12
HETATM   12  N2  UNL     1       3.707  14.987  54.886  1.00  0.00    -0.194 NA
HETATM   13  C6  UNL     1       2.950  13.865  54.323  1.00  0.00     0.109 C 
HETATM   14  C7  UNL     1       3.978  13.262  53.328  1.00  0.00     0.015 C 
HETATM   15  C8  UNL     1       5.209  13.006  54.181  1.00  0.00     0.002 C 
HETATM   16  C9  UNL     1       4.859  12.986  55.663  1.00  0.00     0.015 C 
HETATM   17  C10 UNL     1       4.302  14.323  56.119  1.00  0.00     0.109 C 
ENDBRANCH   2  12
TORSDOF 4
ENDMDL
MODEL 4
REMARK VINA RESULT: -6.917793969      2.685      5.848
REMARK  4 active torsions:
REMARK  status: ('A' for Active; 'I' for Inactive)
REMARK    1  A    between atoms: S1_2  and  N1_4 
REMARK    2  A    between atoms: S1_2  and  N2_12 
REMARK    3  A    between atoms: N1_4  and  C1_6 
REMARK    4  A    between atoms: C1_6  and  C2_7 
ROOT
HETATM    1  O1  UNL     1       1.381  15.964  54.642  1.00  0.00    -0.188 OA
HETATM    2  S1  UNL     1       2.734  16.219  55.433  1.00  0.00     0.298 S 
HETATM    3  O2  UNL     1       3.077  17.637  55.214  1.00  0.00    -0.188 OA
ENDROOT
BRANCH   2   4
HETATM    4  N1  UNL     1       2.246  15.971  57.101  1.00  0.00    -0.304 N 
ATOM      5  H1  UNL     1       1.874  15.094  57.465  1.00  0.00     0.173 HD
BRANCH   4   6
HETATM    6  C1  UNL     1       2.434  17.134  57.873  1.00  0.00     0.165 C 
BRANCH   6   7
HETATM    7  C2  UNL     1       2.895  16.593  59.226  1.00  0.00     0.140 C 
HETATM    8  C3  UNL     1       1.940  16.770  60.339  1.00  0.00     0.035 C 
HETATM    9  C4  UNL     1       2.602  15.905  61.410  1.00  0.00     0.029 C 
HETATM   10  C5  UNL     1       3.359  14.913  60.569  1.00  0.00     0.168 C 
HETATM   11  O3  UNL     1       3.168  15.251  59.243  1.00  0.00    -0.384 OA
ENDBRANCH   6   7
ENDBRANCH   4   6
ENDBRANCH   2   4
BRANCH   2  12
HETATM   12  N2  UNL     1       3.726  15.001  54.900  1.00  0.00    -0.194 NA
HETATM   13  C6  UNL     1       2.938  13.891  54.356  1.00  0.00     0.109 C 
HETATM   14  C7  UNL     1       3.928  13.278  53.328  1.00  0.00     0.015 C 
HETATM   15  C8  UNL     1       5.181  13.003  54.144  1.00  0.00     0.002 C 
HETATM   16  C9  UNL     1       4.876  12.983  55.636  1.00  0.00     0.015 C 
HETATM   17  C10 UNL     1       4.349  14.326  56.112  1.00  0.00     0.109 C 
ENDBRANCH   2  12
TORSDOF 4
ENDMDL
MODEL 5
REMARK VINA RESULT: -6.856237730      2.792      6.025
REMARK  4 active torsions:
REMARK  status: ('A' for Active; 'I' for Inactive)
REMARK    1  A    between atoms: S1_2  and  N1_4 
REMARK    2  A    between atoms: S1_2  and  N2_12 
REMARK    3  A    between atoms: N1_4  and  C1_6 
REMARK    4  A    between atoms: C1_6  and  C2_7 
ROOT
HETATM    1  O1  UNL     1       1.399  16.011  54.561  1.00  0.00    -0.188 OA
HETATM    2  S1  UNL     1       2.714  16.248  55.417  1.00  0.00     0.298 S 
HETATM    3  O2  UNL     1       3.076  17.666  55.232  1.00  0.00    -0.188 OA
ENDROOT
BRANCH   2   4
HETATM    4  N1  UNL     1       2.148  15.983  57.058  1.00  0.00    -0.304 N 
ATOM      5  H1  UNL     1       1.508  15.237  57.330  1.00  0.00     0.173 HD
BRANCH   4   6
HETATM    6  C1  UNL     1       2.689  16.929  57.950  1.00  0.00     0.165 C 
BRANCH   6   7
HETATM    7  C2  UNL     1       2.416  16.319  59.325  1.00  0.00     0.140 C 
HETATM    8  C3  UNL     1       3.570  16.284  60.244  1.00  0.00     0.035 C 
HETATM    9  C4  UNL     1       2.876  15.878  61.543  1.00  0.00     0.029 C 
HETATM   10  C5  UNL     1       1.485  16.403  61.316  1.00  0.00     0.168 C 
HETATM   11  O3  UNL     1       1.443  16.954  60.049  1.00  0.00    -0.384 OA
ENDBRANCH   6   7
ENDBRANCH   4   6
ENDBRANCH   2   4
BRANCH   2  12
HETATM   12  N2  UNL     1       3.723  15.030  54.916  1.00  0.00    -0.194 NA
HETATM   13  C6  UNL     1       2.953  13.921  54.345  1.00  0.00     0.109 C 
HETATM   14  C7  UNL     1       3.976  13.309  53.350  1.00  0.00     0.015 C 
HETATM   15  C8  UNL     1       5.201  13.033  54.206  1.00  0.00     0.002 C 
HETATM   16  C9  UNL     1       4.846  13.010  55.687  1.00  0.00     0.015 C 
HETATM   17  C10 UNL     1       4.305  14.353  56.147  1.00  0.00     0.109 C 
ENDBRANCH   2  12
TORSDOF 4
ENDMDL
