MODEL 1
REMARK VINA RESULT: -5.460372081      0.000      0.000
REMARK  5 active torsions:
REMARK  status: ('A' for Active; 'I' for Inactive)
REMARK    1  A    between atoms: O1_1  and  C1_3 
REMARK    2  A    between atoms: C1_3  and  C2_4 
REMARK    3  A    between atoms: C2_4  and  O2_5 
REMARK    4  A    between atoms: C2_4  and  C3_8 
REMARK    5  A    between atoms: C3_8  and  N1_9 
ROOT
HETATM    1  N1  UNL     1      24.150 -23.495   2.616  1.00  0.00    -0.347 N 
HETATM    2  C4  UNL     1      24.826 -22.565   1.924  1.00  0.00     0.093 A 
HETATM    3  C5  UNL     1      26.001 -22.050   2.431  1.00  0.00     0.036 A 
HETATM    4  C6  UNL     1      26.484 -22.486   3.645  1.00  0.00     0.015 A 
HETATM    5 BR2  UNL     1      28.111 -21.746   4.306  1.00  0.00    -0.051 Br
HETATM    6  C7  UNL     1      25.790 -23.442   4.357  1.00  0.00     0.056 A 
HETATM    7  C8  UNL     1      24.617 -23.921   3.797  1.00  0.00     0.083 A 
HETATM    8 BR3  UNL     1      23.686 -25.246   4.846  1.00  0.00    -0.031 Br
ENDROOT
BRANCH   1   9
HETATM    9  C3  UNL     1      22.942 -24.028   2.082  1.00  0.00     0.181 C 
BRANCH   9  10
HETATM   10  C2  UNL     1      21.715 -23.213   2.353  1.00  0.00     0.152 C 
HETATM   11 BR1  UNL     1      20.359 -24.249   3.282  1.00  0.00    -0.051 Br
BRANCH  10  12
HETATM   12  C1  UNL     1      21.079 -22.737   1.063  1.00  0.00     0.215 C 
BRANCH  12  13
HETATM   13  O1  UNL     1      22.007 -22.351   0.114  1.00  0.00    -0.397 OA
ATOM     14  H1  UNL     1      22.464 -21.549   0.345  1.00  0.00     0.209 HD
ENDBRANCH  12  13
ENDBRANCH  10  12
BRANCH  10  15
HETATM   15  O2  UNL     1      21.960 -22.093   3.139  1.00  0.00    -0.375 OA
ATOM     16  H2  UNL     1      22.207 -21.383   2.558  1.00  0.00     0.211 HD
ENDBRANCH  10  15
ENDBRANCH   9  10
ENDBRANCH   1   9
TORSDOF 5
ENDMDL
MODEL 2
REMARK VINA RESULT: -5.391650999      2.597      3.098
REMARK  5 active torsions:
REMARK  status: ('A' for Active; 'I' for Inactive)
REMARK    1  A    between atoms: O1_1  and  C1_3 
REMARK    2  A    between atoms: C1_3  and  C2_4 
REMARK    3  A    between atoms: C2_4  and  O2_5 
REMARK    4  A    between atoms: C2_4  and  C3_8 
REMARK    5  A    between atoms: C3_8  and  N1_9 
ROOT
HETATM    1  N1  UNL     1      24.771 -24.288   4.602  1.00  0.00    -0.347 N 
HETATM    2  C4  UNL     1      25.563 -24.549   5.653  1.00  0.00     0.093 A 
HETATM    3  C5  UNL     1      26.793 -23.931   5.758  1.00  0.00     0.036 A 
HETATM    4  C6  UNL     1      27.210 -23.047   4.789  1.00  0.00     0.015 A 
HETATM    5 BR2  UNL     1      28.916 -22.217   4.975  1.00  0.00    -0.051 Br
HETATM    6  C7  UNL     1      26.396 -22.778   3.708  1.00  0.00     0.056 A 
HETATM    7  C8  UNL     1      25.174 -23.428   3.657  1.00  0.00     0.083 A 
HETATM    8 BR3  UNL     1      24.087 -23.019   2.117  1.00  0.00    -0.031 Br
ENDROOT
BRANCH   1   9
HETATM    9  C3  UNL     1      23.500 -24.924   4.505  1.00  0.00     0.181 C 
BRANCH   9  10
HETATM   10  C2  UNL     1      22.398 -24.257   5.269  1.00  0.00     0.152 C 
HETATM   11 BR1  UNL     1      22.295 -24.912   7.096  1.00  0.00    -0.051 Br
BRANCH  10  12
HETATM   12  C1  UNL     1      21.050 -24.538   4.638  1.00  0.00     0.215 C 
BRANCH  12  13
HETATM   13  O1  UNL     1      21.144 -25.239   3.451  1.00  0.00    -0.397 OA
ATOM     14  H1  UNL     1      20.883 -26.149   3.535  1.00  0.00     0.209 HD
ENDBRANCH  12  13
ENDBRANCH  10  12
BRANCH  10  15
HETATM   15  O2  UNL     1      22.542 -22.878   5.355  1.00  0.00    -0.375 OA
ATOM     16  H2  UNL     1      23.471 -22.682   5.295  1.00  0.00     0.211 HD
ENDBRANCH  10  15
ENDBRANCH   9  10
ENDBRANCH   1   9
TORSDOF 5
ENDMDL
MODEL 3
REMARK VINA RESULT: -5.339744457      1.419      1.551
REMARK  5 active torsions:
REMARK  status: ('A' for Active; 'I' for Inactive)
REMARK    1  A    between atoms: O1_1  and  C1_3 
REMARK    2  A    between atoms: C1_3  and  C2_4 
REMARK    3  A    between atoms: C2_4  and  O2_5 
REMARK    4  A    between atoms: C2_4  and  C3_8 
REMARK    5  A    between atoms: C3_8  and  N1_9 
ROOT
HETATM    1  N1  UNL     1      24.144 -23.593   3.027  1.00  0.00    -0.347 N 
HETATM    2  C4  UNL     1      24.633 -22.702   2.152  1.00  0.00     0.093 A 
HETATM    3  C5  UNL     1      25.861 -22.116   2.378  1.00  0.00     0.036 A 
HETATM    4  C6  UNL     1      26.590 -22.443   3.500  1.00  0.00     0.015 A 
HETATM    5 BR2  UNL     1      28.282 -21.610   3.772  1.00  0.00    -0.051 Br
HETATM    6  C7  UNL     1      26.089 -23.360   4.400  1.00  0.00     0.056 A 
HETATM    7  C8  UNL     1      24.851 -23.914   4.120  1.00  0.00     0.083 A 
HETATM    8 BR3  UNL     1      24.200 -25.179   5.422  1.00  0.00    -0.031 Br
ENDROOT
BRANCH   1   9
HETATM    9  C3  UNL     1      22.879 -24.199   2.782  1.00  0.00     0.181 C 
BRANCH   9  10
HETATM   10  C2  UNL     1      21.698 -23.295   2.959  1.00  0.00     0.152 C 
HETATM   11 BR1  UNL     1      21.873 -22.194   4.551  1.00  0.00    -0.051 Br
BRANCH  10  12
HETATM   12  C1  UNL     1      20.421 -24.092   3.129  1.00  0.00     0.215 C 
BRANCH  12  13
HETATM   13  O1  UNL     1      20.271 -25.081   2.175  1.00  0.00    -0.397 OA
ATOM     14  H1  UNL     1      20.836 -25.831   2.325  1.00  0.00     0.209 HD
ENDBRANCH  12  13
ENDBRANCH  10  12
BRANCH  10  15
HETATM   15  O2  UNL     1      21.509 -22.420   1.896  1.00  0.00    -0.375 OA
ATOM     16  H2  UNL     1      21.886 -22.823   1.122  1.00  0.00     0.211 HD
ENDBRANCH  10  15
ENDBRANCH   9  10
ENDBRANCH   1   9
TORSDOF 5
ENDMDL
MODEL 4
REMARK VINA RESULT: -5.257758353      3.897      5.070
REMARK  5 active torsions:
REMARK  status: ('A' for Active; 'I' for Inactive)
REMARK    1  A    between atoms: O1_1  and  C1_3 
REMARK    2  A    between atoms: C1_3  and  C2_4 
REMARK    3  A    between atoms: C2_4  and  O2_5 
REMARK    4  A    between atoms: C2_4  and  C3_8 
REMARK    5  A    between atoms: C3_8  and  N1_9 
ROOT
HETATM    1  N1  UNL     1      20.425 -21.545   4.339  1.00  0.00    -0.347 N 
HETATM    2  C4  UNL     1      21.526 -21.339   5.077  1.00  0.00     0.093 A 
HETATM    3  C5  UNL     1      22.715 -21.943   4.723  1.00  0.00     0.036 A 
HETATM    4  C6  UNL     1      22.777 -22.756   3.613  1.00  0.00     0.015 A 
HETATM    5 BR2  UNL     1      24.441 -23.569   3.161  1.00  0.00    -0.051 Br
HETATM    6  C7  UNL     1      21.646 -22.968   2.853  1.00  0.00     0.056 A 
HETATM    7  C8  UNL     1      20.482 -22.336   3.258  1.00  0.00     0.083 A 
HETATM    8 BR3  UNL     1      18.933 -22.682   2.162  1.00  0.00    -0.031 Br
ENDROOT
BRANCH   1   9
HETATM    9  C3  UNL     1      19.203 -20.912   4.707  1.00  0.00     0.181 C 
BRANCH   9  10
HETATM   10  C2  UNL     1      18.478 -21.551   5.851  1.00  0.00     0.152 C 
HETATM   11 BR1  UNL     1      19.485 -23.035   6.597  1.00  0.00    -0.051 Br
BRANCH  10  12
HETATM   12  C1  UNL     1      17.147 -22.120   5.404  1.00  0.00     0.215 C 
BRANCH  12  13
HETATM   13  O1  UNL     1      16.239 -21.145   5.035  1.00  0.00    -0.397 OA
ATOM     14  H1  UNL     1      15.645 -20.906   5.737  1.00  0.00     0.209 HD
ENDBRANCH  12  13
ENDBRANCH  10  12
BRANCH  10  15
HETATM   15  O2  UNL     1      18.230 -20.677   6.902  1.00  0.00    -0.375 OA
ATOM     16  H2  UNL     1      18.171 -21.194   7.698  1.00  0.00     0.211 HD
ENDBRANCH  10  15
ENDBRANCH   9  10
ENDBRANCH   1   9
TORSDOF 5
ENDMDL
MODEL 5
REMARK VINA RESULT: -5.242851632      1.356      1.490
REMARK  5 active torsions:
REMARK  status: ('A' for Active; 'I' for Inactive)
REMARK    1  A    between atoms: O1_1  and  C1_3 
REMARK    2  A    between atoms: C1_3  and  C2_4 
REMARK    3  A    between atoms: C2_4  and  O2_5 
REMARK    4  A    between atoms: C2_4  and  C3_8 
REMARK    5  A    between atoms: C3_8  and  N1_9 
ROOT
HETATM    1  N1  UNL     1      24.779 -23.668   3.857  1.00  0.00    -0.347 N 
HETATM    2  C4  UNL     1      25.405 -22.797   3.051  1.00  0.00     0.093 A 
HETATM    3  C5  UNL     1      26.676 -22.360   3.363  1.00  0.00     0.036 A 
HETATM    4  C6  UNL     1      27.306 -22.816   4.500  1.00  0.00     0.015 A 
HETATM    5 BR2  UNL     1      29.062 -22.187   4.892  1.00  0.00    -0.051 Br
HETATM    6  C7  UNL     1      26.664 -23.712   5.329  1.00  0.00     0.056 A 
HETATM    7  C8  UNL     1      25.390 -24.113   4.964  1.00  0.00     0.083 A 
HETATM    8 BR3  UNL     1      24.540 -25.356   6.170  1.00  0.00    -0.031 Br
ENDROOT
BRANCH   1   9
HETATM    9  C3  UNL     1      23.470 -24.119   3.523  1.00  0.00     0.181 C 
BRANCH   9  10
HETATM   10  C2  UNL     1      22.362 -23.183   3.897  1.00  0.00     0.152 C 
HETATM   11 BR1  UNL     1      21.087 -24.027   5.096  1.00  0.00    -0.051 Br
BRANCH  10  12
HETATM   12  C1  UNL     1      21.578 -22.751   2.675  1.00  0.00     0.215 C 
BRANCH  12  13
HETATM   13  O1  UNL     1      22.360 -22.645   1.541  1.00  0.00    -0.397 OA
ATOM     14  H1  UNL     1      21.882 -22.312   0.789  1.00  0.00     0.209 HD
ENDBRANCH  12  13
ENDBRANCH  10  12
BRANCH  10  15
HETATM   15  O2  UNL     1      22.805 -22.034   4.540  1.00  0.00    -0.375 OA
ATOM     16  H2  UNL     1      22.237 -21.887   5.288  1.00  0.00     0.211 HD
ENDBRANCH  10  15
ENDBRANCH   9  10
ENDBRANCH   1   9
TORSDOF 5
ENDMDL
