MODEL 1
REMARK VINA RESULT: -5.794873238      0.000      0.000
REMARK  4 active torsions:
REMARK  status: ('A' for Active; 'I' for Inactive)
REMARK    1  A    between atoms: N1_2  and  C3_5 
REMARK    2  A    between atoms: C3_5  and  C4_7 
REMARK    3  A    between atoms: C4_7  and  C5_9 
REMARK    4  A    between atoms: C9_13  and  O1_14 
ROOT
HETATM    1  C5  UNL     1      22.962 -22.624   4.772  1.00  0.00     0.204 C 
HETATM    2  C6  UNL     1      23.562 -23.896   5.306  1.00  0.00     0.041 C 
HETATM    3  C7  UNL     1      24.682 -24.249   4.325  1.00  0.00     0.023 C 
HETATM    4  C8  UNL     1      25.935 -23.419   4.511  1.00  0.00     0.040 C 
HETATM    5  C9  UNL     1      25.700 -22.763   3.172  1.00  0.00     0.149 C 
HETATM    6  C10 UNL     1      24.365 -23.455   3.110  1.00  0.00     0.219 C 
HETATM    7  N2  UNL     1      23.209 -22.638   3.341  1.00  0.00    -0.063 N 
ATOM      8  H21 UNL     1      23.299 -21.703   2.944  1.00  0.00     0.278 HD
ATOM      9  H22 UNL     1      22.397 -22.936   2.800  1.00  0.00     0.278 HD
ENDROOT
BRANCH   1  10
HETATM   10  C4  UNL     1      21.508 -22.413   5.095  1.00  0.00     0.132 C 
HETATM   11 BR2  UNL     1      20.913 -23.695   6.438  1.00  0.00    -0.086 Br
BRANCH  10  12
HETATM   12  C3  UNL     1      20.557 -22.200   4.020  1.00  0.00     0.296 C 
HETATM   13 BR1  UNL     1      19.652 -23.829   3.536  1.00  0.00    -0.057 Br
BRANCH  12  14
HETATM   14  N1  UNL     1      19.607 -21.167   4.050  1.00  0.00     0.021 N 
HETATM   15  C1  UNL     1      18.334 -21.422   4.616  1.00  0.00     0.296 C 
HETATM   16  C2  UNL     1      19.410 -20.473   2.787  1.00  0.00     0.296 C 
HETATM   17 CL1  UNL     1      20.291 -19.890   5.079  1.00  0.00     0.118 Cl
ENDBRANCH  12  14
ENDBRANCH  10  12
ENDBRANCH   1  10
BRANCH   5  18
HETATM   18  O1  UNL     1      25.528 -21.383   3.222  1.00  0.00    -0.393 OA
ATOM     19  H1  UNL     1      25.002 -21.022   2.518  1.00  0.00     0.210 HD
ENDBRANCH   5  18
TORSDOF 4
ENDMDL
MODEL 2
REMARK VINA RESULT: -5.748363379      2.132      2.432
REMARK  4 active torsions:
REMARK  status: ('A' for Active; 'I' for Inactive)
REMARK    1  A    between atoms: N1_2  and  C3_5 
REMARK    2  A    between atoms: C3_5  and  C4_7 
REMARK    3  A    between atoms: C4_7  and  C5_9 
REMARK    4  A    between atoms: C9_13  and  O1_14 
ROOT
HETATM    1  C5  UNL     1      22.785 -22.612   4.519  1.00  0.00     0.204 C 
HETATM    2  C6  UNL     1      23.301 -23.876   5.150  1.00  0.00     0.041 C 
HETATM    3  C7  UNL     1      24.513 -24.276   4.304  1.00  0.00     0.023 C 
HETATM    4  C8  UNL     1      25.754 -23.459   4.600  1.00  0.00     0.040 C 
HETATM    5  C9  UNL     1      25.674 -22.840   3.225  1.00  0.00     0.149 C 
HETATM    6  C10 UNL     1      24.341 -23.514   3.041  1.00  0.00     0.219 C 
HETATM    7  N2  UNL     1      23.183 -22.673   3.124  1.00  0.00    -0.063 N 
ATOM      8  H21 UNL     1      23.331 -21.752   2.712  1.00  0.00     0.278 HD
ATOM      9  H22 UNL     1      22.427 -22.975   2.508  1.00  0.00     0.278 HD
ENDROOT
BRANCH   1  10
HETATM   10  C4  UNL     1      21.309 -22.369   4.678  1.00  0.00     0.132 C 
HETATM   11 BR2  UNL     1      20.981 -20.557   5.320  1.00  0.00    -0.086 Br
BRANCH  10  12
HETATM   12  C3  UNL     1      20.480 -23.377   5.310  1.00  0.00     0.296 C 
HETATM   13 BR1  UNL     1      19.912 -22.835   7.068  1.00  0.00    -0.057 Br
BRANCH  12  14
HETATM   14  N1  UNL     1      19.382 -23.963   4.659  1.00  0.00     0.021 N 
HETATM   15  C1  UNL     1      19.512 -24.341   3.300  1.00  0.00     0.296 C 
HETATM   16  C2  UNL     1      18.123 -23.251   4.810  1.00  0.00     0.296 C 
HETATM   17 CL1  UNL     1      19.057 -25.491   5.504  1.00  0.00     0.118 Cl
ENDBRANCH  12  14
ENDBRANCH  10  12
ENDBRANCH   1  10
BRANCH   5  18
HETATM   18  O1  UNL     1      25.524 -21.457   3.217  1.00  0.00    -0.393 OA
ATOM     19  H1  UNL     1      26.211 -20.985   2.761  1.00  0.00     0.210 HD
ENDBRANCH   5  18
TORSDOF 4
ENDMDL
MODEL 3
REMARK VINA RESULT: -5.734863366      3.469      4.540
REMARK  4 active torsions:
REMARK  status: ('A' for Active; 'I' for Inactive)
REMARK    1  A    between atoms: N1_2  and  C3_5 
REMARK    2  A    between atoms: C3_5  and  C4_7 
REMARK    3  A    between atoms: C4_7  and  C5_9 
REMARK    4  A    between atoms: C9_13  and  O1_14 
ROOT
HETATM    1  C5  UNL     1      26.061 -23.579   4.171  1.00  0.00     0.204 C 
HETATM    2  C6  UNL     1      26.549 -22.263   3.631  1.00  0.00     0.041 C 
HETATM    3  C7  UNL     1      27.754 -21.899   4.500  1.00  0.00     0.023 C 
HETATM    4  C8  UNL     1      29.012 -22.665   4.145  1.00  0.00     0.040 C 
HETATM    5  C9  UNL     1      28.950 -23.382   5.473  1.00  0.00     0.149 C 
HETATM    6  C10 UNL     1      27.603 -22.752   5.707  1.00  0.00     0.219 C 
HETATM    7  N2  UNL     1      26.463 -23.609   5.566  1.00  0.00    -0.063 N 
ATOM      8  H21 UNL     1      26.632 -24.554   5.911  1.00  0.00     0.278 HD
ATOM      9  H22 UNL     1      25.703 -23.368   6.204  1.00  0.00     0.278 HD
ENDROOT
BRANCH   1  10
HETATM   10  C4  UNL     1      24.590 -23.842   3.998  1.00  0.00     0.132 C 
HETATM   11 BR2  UNL     1      23.967 -23.136   2.290  1.00  0.00    -0.086 Br
BRANCH  10  12
HETATM   12  C3  UNL     1      23.683 -23.600   5.102  1.00  0.00     0.296 C 
HETATM   13 BR1  UNL     1      22.337 -22.300   4.648  1.00  0.00    -0.057 Br
BRANCH  12  14
HETATM   14  N1  UNL     1      23.060 -24.644   5.806  1.00  0.00     0.021 N 
HETATM   15  C1  UNL     1      23.667 -25.131   6.990  1.00  0.00     0.296 C 
HETATM   16  C2  UNL     1      22.668 -25.786   4.997  1.00  0.00     0.296 C 
HETATM   17 CL1  UNL     1      21.493 -24.012   6.352  1.00  0.00     0.118 Cl
ENDBRANCH  12  14
ENDBRANCH  10  12
ENDBRANCH   1  10
BRANCH   5  18
HETATM   18  O1  UNL     1      28.829 -24.765   5.382  1.00  0.00    -0.393 OA
ATOM     19  H1  UNL     1      27.991 -25.110   5.668  1.00  0.00     0.210 HD
ENDBRANCH   5  18
TORSDOF 4
ENDMDL
MODEL 4
REMARK VINA RESULT: -5.724647915      1.863      2.199
REMARK  4 active torsions:
REMARK  status: ('A' for Active; 'I' for Inactive)
REMARK    1  A    between atoms: N1_2  and  C3_5 
REMARK    2  A    between atoms: C3_5  and  C4_7 
REMARK    3  A    between atoms: C4_7  and  C5_9 
REMARK    4  A    between atoms: C9_13  and  O1_14 
ROOT
HETATM    1  C5  UNL     1      22.870 -22.793   4.346  1.00  0.00     0.204 C 
HETATM    2  C6  UNL     1      23.492 -23.962   5.057  1.00  0.00     0.041 C 
HETATM    3  C7  UNL     1      24.805 -24.226   4.317  1.00  0.00     0.023 C 
HETATM    4  C8  UNL     1      25.908 -23.249   4.672  1.00  0.00     0.040 C 
HETATM    5  C9  UNL     1      25.856 -22.682   3.273  1.00  0.00     0.149 C 
HETATM    6  C10 UNL     1      24.636 -23.526   3.018  1.00  0.00     0.219 C 
HETATM    7  N2  UNL     1      23.378 -22.839   2.986  1.00  0.00    -0.063 N 
ATOM      8  H21 UNL     1      23.440 -21.917   2.554  1.00  0.00     0.278 HD
ATOM      9  H22 UNL     1      22.716 -23.251   2.329  1.00  0.00     0.278 HD
ENDROOT
BRANCH   1  10
HETATM   10  C4  UNL     1      21.368 -22.737   4.389  1.00  0.00     0.132 C 
HETATM   11 BR2  UNL     1      20.647 -22.321   2.626  1.00  0.00    -0.086 Br
BRANCH  10  12
HETATM   12  C3  UNL     1      20.707 -22.040   5.476  1.00  0.00     0.296 C 
HETATM   13 BR1  UNL     1      20.527 -20.158   5.111  1.00  0.00    -0.057 Br
BRANCH  12  14
HETATM   14  N1  UNL     1      19.501 -22.492   6.036  1.00  0.00     0.021 N 
HETATM   15  C1  UNL     1      18.970 -23.734   5.610  1.00  0.00     0.296 C 
HETATM   16  C2  UNL     1      18.421 -21.518   6.045  1.00  0.00     0.296 C 
HETATM   17 CL1  UNL     1      19.813 -22.727   7.769  1.00  0.00     0.118 Cl
ENDBRANCH  12  14
ENDBRANCH  10  12
ENDBRANCH   1  10
BRANCH   5  18
HETATM   18  O1  UNL     1      25.533 -21.330   3.205  1.00  0.00    -0.393 OA
ATOM     19  H1  UNL     1      25.230 -21.036   2.354  1.00  0.00     0.210 HD
ENDBRANCH   5  18
TORSDOF 4
ENDMDL
MODEL 5
REMARK VINA RESULT: -5.697420631      4.883      6.520
REMARK  4 active torsions:
REMARK  status: ('A' for Active; 'I' for Inactive)
REMARK    1  A    between atoms: N1_2  and  C3_5 
REMARK    2  A    between atoms: C3_5  and  C4_7 
REMARK    3  A    between atoms: C4_7  and  C5_9 
REMARK    4  A    between atoms: C9_13  and  O1_14 
ROOT
HETATM    1  C5  UNL     1      17.889 -20.781   2.096  1.00  0.00     0.204 C 
HETATM    2  C6  UNL     1      18.776 -20.534   0.906  1.00  0.00     0.041 C 
HETATM    3  C7  UNL     1      18.212 -21.425  -0.202  1.00  0.00     0.023 C 
HETATM    4  C8  UNL     1      16.960 -20.868  -0.849  1.00  0.00     0.040 C 
HETATM    5  C9  UNL     1      16.153 -22.002  -0.264  1.00  0.00     0.149 C 
HETATM    6  C10 UNL     1      17.370 -22.413   0.520  1.00  0.00     0.219 C 
HETATM    7  N2  UNL     1      17.357 -22.120   1.923  1.00  0.00    -0.063 N 
ATOM      8  H21 UNL     1      16.436 -22.239   2.345  1.00  0.00     0.278 HD
ATOM      9  H22 UNL     1      17.850 -22.819   2.480  1.00  0.00     0.278 HD
ENDROOT
BRANCH   1  10
HETATM   10  C4  UNL     1      18.545 -20.598   3.437  1.00  0.00     0.132 C 
HETATM   11 BR2  UNL     1      19.580 -18.946   3.473  1.00  0.00    -0.086 Br
BRANCH  10  12
HETATM   12  C3  UNL     1      19.207 -21.723   4.071  1.00  0.00     0.296 C 
HETATM   13 BR1  UNL     1      20.971 -21.257   4.686  1.00  0.00    -0.057 Br
BRANCH  12  14
HETATM   14  N1  UNL     1      18.588 -22.495   5.068  1.00  0.00     0.021 N 
HETATM   15  C1  UNL     1      18.484 -23.896   4.884  1.00  0.00     0.296 C 
HETATM   16  C2  UNL     1      17.296 -22.001   5.518  1.00  0.00     0.296 C 
HETATM   17 CL1  UNL     1      19.588 -22.322   6.526  1.00  0.00     0.118 Cl
ENDBRANCH  12  14
ENDBRANCH  10  12
ENDBRANCH   1  10
BRANCH   5  18
HETATM   18  O1  UNL     1      15.133 -21.608   0.596  1.00  0.00    -0.393 OA
ATOM     19  H1  UNL     1      15.269 -21.841   1.507  1.00  0.00     0.210 HD
ENDBRANCH   5  18
TORSDOF 4
ENDMDL
