MODEL 1
REMARK VINA RESULT: -6.028951818      0.000      0.000
REMARK  3 active torsions:
REMARK  status: ('A' for Active; 'I' for Inactive)
REMARK    1  A    between atoms: C4_4  and  C5_5 
REMARK       I    between atoms: C5_5  and  N1_7 
REMARK    2  A    between atoms: N1_7  and  N2_9 
REMARK       I    between atoms: N2_9  and  C6_11 
REMARK    3  A    between atoms: C6_11  and  C7_13 
ROOT
HETATM    1  C5  UNL     1      19.361 -21.770   0.055  1.00  0.00     0.243 C 
HETATM    2  O1  UNL     1      20.270 -20.937   0.190  1.00  0.00    -0.271 OA
HETATM    3  N1  UNL     1      19.603 -23.135   0.004  1.00  0.00    -0.267 N 
ATOM      4  H1  UNL     1      18.747 -23.682  -0.088  1.00  0.00     0.190 HD
ENDROOT
BRANCH   1   5
HETATM    5  C4  UNL     1      17.948 -21.273  -0.068  1.00  0.00     0.120 A 
HETATM    6  C2  UNL     1      16.733 -21.991   0.207  1.00  0.00    -0.005 A 
HETATM    7  C1  UNL     1      15.382 -21.342  -0.185  1.00  0.00     0.018 C 
HETATM    8  C3  UNL     1      16.595 -23.485   0.288  1.00  0.00     0.018 C 
HETATM    9  C8  UNL     1      17.323 -21.251   1.379  1.00  0.00     0.096 A 
HETATM   10 BR2  UNL     1      16.606 -19.560   1.936  1.00  0.00    -0.071 Br
HETATM   11 BR3  UNL     1      18.228 -22.231   2.752  1.00  0.00    -0.071 Br
ENDBRANCH   1   5
BRANCH   3  12
HETATM   12  N2  UNL     1      20.712 -23.908   0.047  1.00  0.00    -0.267 N 
HETATM   13  C6  UNL     1      21.216 -24.743  -0.964  1.00  0.00     0.245 C 
HETATM   14  O2  UNL     1      20.718 -24.870  -2.079  1.00  0.00    -0.271 OA
ATOM     15  H2  UNL     1      21.244 -23.881   0.916  1.00  0.00     0.190 HD
BRANCH  13  16
HETATM   16  C7  UNL     1      22.448 -25.561  -0.689  1.00  0.00     0.189 C 
HETATM   17 BR1  UNL     1      21.926 -27.001   0.481  1.00  0.00    -0.087 Br
ENDBRANCH  13  16
ENDBRANCH   3  12
TORSDOF 3
ENDMDL
MODEL 2
REMARK VINA RESULT: -5.959674905      3.887      5.312
REMARK  3 active torsions:
REMARK  status: ('A' for Active; 'I' for Inactive)
REMARK    1  A    between atoms: C4_4  and  C5_5 
REMARK       I    between atoms: C5_5  and  N1_7 
REMARK    2  A    between atoms: N1_7  and  N2_9 
REMARK       I    between atoms: N2_9  and  C6_11 
REMARK    3  A    between atoms: C6_11  and  C7_13 
ROOT
HETATM    1  C5  UNL     1      21.842 -23.250   0.372  1.00  0.00     0.243 C 
HETATM    2  O1  UNL     1      21.339 -22.118   0.319  1.00  0.00    -0.271 OA
HETATM    3  N1  UNL     1      23.122 -23.476   0.854  1.00  0.00    -0.267 N 
ATOM      4  H1  UNL     1      23.375 -24.465   0.850  1.00  0.00     0.190 HD
ENDROOT
BRANCH   1   5
HETATM    5  C4  UNL     1      21.028 -24.417  -0.116  1.00  0.00     0.120 A 
HETATM    6  C2  UNL     1      21.080 -25.780   0.337  1.00  0.00    -0.005 A 
HETATM    7  C1  UNL     1      20.293 -26.855  -0.451  1.00  0.00     0.018 C 
HETATM    8  C3  UNL     1      22.211 -26.410   1.100  1.00  0.00     0.018 C 
HETATM    9  C8  UNL     1      20.113 -24.892   1.075  1.00  0.00     0.096 A 
HETATM   10 BR2  UNL     1      18.233 -24.952   0.690  1.00  0.00    -0.071 Br
HETATM   11 BR3  UNL     1      20.553 -24.276   2.833  1.00  0.00    -0.071 Br
ENDBRANCH   1   5
BRANCH   3  12
HETATM   12  N2  UNL     1      24.114 -22.688   1.329  1.00  0.00    -0.267 N 
HETATM   13  C6  UNL     1      24.861 -22.864   2.505  1.00  0.00     0.245 C 
HETATM   14  O2  UNL     1      24.735 -23.808   3.280  1.00  0.00    -0.271 OA
ATOM     15  H2  UNL     1      24.346 -21.870   0.766  1.00  0.00     0.190 HD
BRANCH  13  16
HETATM   16  C7  UNL     1      25.894 -21.835   2.875  1.00  0.00     0.189 C 
HETATM   17 BR1  UNL     1      27.057 -22.641   4.184  1.00  0.00    -0.087 Br
ENDBRANCH  13  16
ENDBRANCH   3  12
TORSDOF 3
ENDMDL
MODEL 3
REMARK VINA RESULT: -5.883999652      5.965      7.144
REMARK  3 active torsions:
REMARK  status: ('A' for Active; 'I' for Inactive)
REMARK    1  A    between atoms: C4_4  and  C5_5 
REMARK       I    between atoms: C5_5  and  N1_7 
REMARK    2  A    between atoms: N1_7  and  N2_9 
REMARK       I    between atoms: N2_9  and  C6_11 
REMARK    3  A    between atoms: C6_11  and  C7_13 
ROOT
HETATM    1  C5  UNL     1      24.564 -22.828   2.428  1.00  0.00     0.243 C 
HETATM    2  O1  UNL     1      24.799 -21.676   2.033  1.00  0.00    -0.271 OA
HETATM    3  N1  UNL     1      25.302 -23.438   3.431  1.00  0.00    -0.267 N 
ATOM      4  H1  UNL     1      24.965 -24.376   3.652  1.00  0.00     0.190 HD
ENDROOT
BRANCH   1   5
HETATM    5  C4  UNL     1      23.440 -23.590   1.781  1.00  0.00     0.120 A 
HETATM    6  C2  UNL     1      22.614 -24.610   2.366  1.00  0.00    -0.005 A 
HETATM    7  C1  UNL     1      21.649 -25.401   1.449  1.00  0.00     0.018 C 
HETATM    8  C3  UNL     1      22.942 -25.407   3.597  1.00  0.00     0.018 C 
HETATM    9  C8  UNL     1      22.108 -23.201   2.528  1.00  0.00     0.096 A 
HETATM   10 BR2  UNL     1      20.707 -22.524   1.405  1.00  0.00    -0.071 Br
HETATM   11 BR3  UNL     1      22.265 -22.333   4.227  1.00  0.00    -0.071 Br
ENDBRANCH   1   5
BRANCH   3  12
HETATM   12  N2  UNL     1      26.364 -23.076   4.186  1.00  0.00    -0.267 N 
HETATM   13  C6  UNL     1      26.857 -23.715   5.336  1.00  0.00     0.245 C 
HETATM   14  O2  UNL     1      26.393 -24.745   5.817  1.00  0.00    -0.271 OA
ATOM     15  H2  UNL     1      26.867 -22.242   3.884  1.00  0.00     0.190 HD
BRANCH  13  16
HETATM   16  C7  UNL     1      28.033 -23.115   6.058  1.00  0.00     0.189 C 
HETATM   17 BR1  UNL     1      29.140 -22.262   4.731  1.00  0.00    -0.087 Br
ENDBRANCH  13  16
ENDBRANCH   3  12
TORSDOF 3
ENDMDL
MODEL 4
REMARK VINA RESULT: -5.864983377      3.733      5.612
REMARK  3 active torsions:
REMARK  status: ('A' for Active; 'I' for Inactive)
REMARK    1  A    between atoms: C4_4  and  C5_5 
REMARK       I    between atoms: C5_5  and  N1_7 
REMARK    2  A    between atoms: N1_7  and  N2_9 
REMARK       I    between atoms: N2_9  and  C6_11 
REMARK    3  A    between atoms: C6_11  and  C7_13 
ROOT
HETATM    1  C5  UNL     1      19.317 -21.957   2.803  1.00  0.00     0.243 C 
HETATM    2  O1  UNL     1      19.541 -20.743   2.676  1.00  0.00    -0.271 OA
HETATM    3  N1  UNL     1      18.272 -22.595   2.153  1.00  0.00    -0.267 N 
ATOM      4  H1  UNL     1      18.241 -23.596   2.347  1.00  0.00     0.190 HD
ENDROOT
BRANCH   1   5
HETATM    5  C4  UNL     1      20.213 -22.757   3.707  1.00  0.00     0.120 A 
HETATM    6  C2  UNL     1      20.805 -22.347   4.952  1.00  0.00    -0.005 A 
HETATM    7  C1  UNL     1      21.859 -23.269   5.612  1.00  0.00     0.018 C 
HETATM    8  C3  UNL     1      20.983 -20.929   5.414  1.00  0.00     0.018 C 
HETATM    9  C8  UNL     1      19.444 -22.982   5.064  1.00  0.00     0.096 A 
HETATM   10 BR2  UNL     1      19.254 -24.814   5.605  1.00  0.00    -0.071 Br
HETATM   11 BR3  UNL     1      17.917 -21.880   5.411  1.00  0.00    -0.071 Br
ENDBRANCH   1   5
BRANCH   3  12
HETATM   12  N2  UNL     1      17.284 -22.197   1.319  1.00  0.00    -0.267 N 
HETATM   13  C6  UNL     1      17.405 -21.776  -0.016  1.00  0.00     0.245 C 
HETATM   14  O2  UNL     1      18.459 -21.738  -0.644  1.00  0.00    -0.271 OA
ATOM     15  H2  UNL     1      16.340 -22.202   1.706  1.00  0.00     0.190 HD
BRANCH  13  16
HETATM   16  C7  UNL     1      16.174 -21.325  -0.754  1.00  0.00     0.189 C 
HETATM   17 BR1  UNL     1      14.935 -22.801  -0.748  1.00  0.00    -0.087 Br
ENDBRANCH  13  16
ENDBRANCH   3  12
TORSDOF 3
ENDMDL
MODEL 5
REMARK VINA RESULT: -5.829878363      4.282      4.970
REMARK  3 active torsions:
REMARK  status: ('A' for Active; 'I' for Inactive)
REMARK    1  A    between atoms: C4_4  and  C5_5 
REMARK       I    between atoms: C5_5  and  N1_7 
REMARK    2  A    between atoms: N1_7  and  N2_9 
REMARK       I    between atoms: N2_9  and  C6_11 
REMARK    3  A    between atoms: C6_11  and  C7_13 
ROOT
HETATM    1  C5  UNL     1      17.851 -21.505   4.083  1.00  0.00     0.243 C 
HETATM    2  O1  UNL     1      18.546 -21.076   5.017  1.00  0.00    -0.271 OA
HETATM    3  N1  UNL     1      17.352 -22.798   4.058  1.00  0.00    -0.267 N 
ATOM      4  H1  UNL     1      16.782 -22.984   3.232  1.00  0.00     0.190 HD
ENDROOT
BRANCH   1   5
HETATM    5  C4  UNL     1      17.551 -20.583   2.934  1.00  0.00     0.120 A 
HETATM    6  C2  UNL     1      18.377 -19.531   2.408  1.00  0.00    -0.005 A 
HETATM    7  C1  UNL     1      17.777 -18.575   1.347  1.00  0.00     0.018 C 
HETATM    8  C3  UNL     1      19.520 -18.869   3.125  1.00  0.00     0.018 C 
HETATM    9  C8  UNL     1      18.595 -20.888   1.793  1.00  0.00     0.096 A 
HETATM   10 BR2  UNL     1      17.836 -21.327   0.085  1.00  0.00    -0.071 Br
HETATM   11 BR3  UNL     1      20.153 -21.896   2.262  1.00  0.00    -0.071 Br
ENDBRANCH   1   5
BRANCH   3  12
HETATM   12  N2  UNL     1      17.446 -23.872   4.876  1.00  0.00    -0.267 N 
HETATM   13  C6  UNL     1      17.853 -25.174   4.539  1.00  0.00     0.245 C 
HETATM   14  O2  UNL     1      18.222 -25.524   3.422  1.00  0.00    -0.271 OA
ATOM     15  H2  UNL     1      17.191 -23.718   5.851  1.00  0.00     0.190 HD
BRANCH  13  16
HETATM   16  C7  UNL     1      17.840 -26.240   5.600  1.00  0.00     0.189 C 
HETATM   17 BR1  UNL     1      19.640 -26.396   6.272  1.00  0.00    -0.087 Br
ENDBRANCH  13  16
ENDBRANCH   3  12
TORSDOF 3
ENDMDL
