MODEL 1
REMARK VINA RESULT: -6.556489195      0.000      0.000
REMARK  5 active torsions:
REMARK  status: ('A' for Active; 'I' for Inactive)
REMARK    1  A    between atoms: N1_2  and  O1_3 
REMARK    2  A    between atoms: C4_9  and  C5_10 
REMARK    3  A    between atoms: C4_9  and  C6_12 
REMARK    4  A    between atoms: C6_12  and  C7_13 
REMARK    5  A    between atoms: C10_16  and  N2_17 
ROOT
HETATM    1  C1  UNL     1      20.229 -25.426   6.019  1.00  0.00     0.184 C 
HETATM    2  N1  UNL     1      19.943 -24.984   4.683  1.00  0.00    -0.270 N 
HETATM    3  C2  UNL     1      20.732 -24.262   3.979  1.00  0.00     0.056 A 
HETATM    4  C3  UNL     1      20.972 -23.557   2.663  1.00  0.00     0.131 A 
HETATM    5 BR1  UNL     1      19.851 -22.006   2.300  1.00  0.00    -0.065 Br
HETATM    6 BR2  UNL     1      21.308 -24.660   1.139  1.00  0.00    -0.065 Br
HETATM    7  C4  UNL     1      21.994 -23.491   3.721  1.00  0.00     0.052 A 
ENDROOT
BRANCH   7   8
HETATM    8  C5  UNL     1      22.117 -22.238   4.570  1.00  0.00     0.133 C 
HETATM    9 CL1  UNL     1      20.828 -22.060   5.753  1.00  0.00    -0.129 Cl
ENDBRANCH   7   8
BRANCH   7  10
HETATM   10  C6  UNL     1      23.253 -24.251   3.479  1.00  0.00     0.059 C 
BRANCH  10  11
HETATM   11  C7  UNL     1      24.435 -23.425   3.169  1.00  0.00    -0.041 A 
HETATM   12  C8  UNL     1      25.480 -23.389   4.100  1.00  0.00     0.012 A 
HETATM   13  C9  UNL     1      26.579 -22.611   3.798  1.00  0.00     0.048 A 
HETATM   14  C10 UNL     1      26.664 -21.886   2.623  1.00  0.00     0.098 A 
HETATM   15  N3  UNL     1      25.658 -21.929   1.739  1.00  0.00    -0.352 N 
HETATM   16  C11 UNL     1      24.579 -22.689   2.032  1.00  0.00     0.096 A 
ATOM     17  H3  UNL     1      25.704 -21.400   0.868  1.00  0.00     0.166 HD
BRANCH  14  18
HETATM   18  N2  UNL     1      27.703 -21.170   2.371  1.00  0.00    -0.385 N 
ATOM     19  H22 UNL     1      28.626 -21.601   2.375  1.00  0.00     0.157 HD
ATOM     20  H21 UNL     1      27.609 -20.174   2.167  1.00  0.00     0.157 HD
ENDBRANCH  14  18
ENDBRANCH  10  11
ENDBRANCH   7  10
BRANCH   2  21
HETATM   21  O1  UNL     1      18.743 -25.368   4.140  1.00  0.00    -0.288 OA
ATOM     22  H1  UNL     1      18.377 -24.813   3.462  1.00  0.00     0.244 HD
ENDBRANCH   2  21
TORSDOF 5
ENDMDL
MODEL 2
REMARK VINA RESULT: -6.385967864      1.911      2.245
REMARK  5 active torsions:
REMARK  status: ('A' for Active; 'I' for Inactive)
REMARK    1  A    between atoms: N1_2  and  O1_3 
REMARK    2  A    between atoms: C4_9  and  C5_10 
REMARK    3  A    between atoms: C4_9  and  C6_12 
REMARK    4  A    between atoms: C6_12  and  C7_13 
REMARK    5  A    between atoms: C10_16  and  N2_17 
ROOT
HETATM    1  C1  UNL     1      24.027 -26.037   5.221  1.00  0.00     0.184 C 
HETATM    2  N1  UNL     1      23.024 -25.885   4.205  1.00  0.00    -0.270 N 
HETATM    3  C2  UNL     1      22.843 -24.816   3.525  1.00  0.00     0.056 A 
HETATM    4  C3  UNL     1      22.049 -24.118   2.444  1.00  0.00     0.131 A 
HETATM    5 BR1  UNL     1      20.196 -23.700   2.870  1.00  0.00    -0.065 Br
HETATM    6 BR2  UNL     1      22.330 -24.706   0.648  1.00  0.00    -0.065 Br
HETATM    7  C4  UNL     1      23.139 -23.399   3.126  1.00  0.00     0.052 A 
ENDROOT
BRANCH   7   8
HETATM    8  C5  UNL     1      22.809 -22.387   4.210  1.00  0.00     0.133 C 
HETATM    9 CL1  UNL     1      22.167 -23.113   5.678  1.00  0.00    -0.129 Cl
ENDBRANCH   7   8
BRANCH   7  10
HETATM   10  C6  UNL     1      24.364 -23.129   2.321  1.00  0.00     0.059 C 
BRANCH  10  11
HETATM   11  C7  UNL     1      25.548 -22.721   3.099  1.00  0.00    -0.041 A 
HETATM   12  C8  UNL     1      25.950 -23.529   4.169  1.00  0.00     0.012 A 
HETATM   13  C9  UNL     1      27.059 -23.134   4.889  1.00  0.00     0.048 A 
HETATM   14  C10 UNL     1      27.763 -21.984   4.579  1.00  0.00     0.098 A 
HETATM   15  N3  UNL     1      27.370 -21.219   3.551  1.00  0.00    -0.352 N 
HETATM   16  C11 UNL     1      26.283 -21.603   2.845  1.00  0.00     0.096 A 
ATOM     17  H3  UNL     1      27.878 -20.368   3.309  1.00  0.00     0.166 HD
BRANCH  14  18
HETATM   18  N2  UNL     1      28.794 -21.643   5.269  1.00  0.00    -0.385 N 
ATOM     19  H22 UNL     1      29.492 -22.345   5.514  1.00  0.00     0.157 HD
ATOM     20  H21 UNL     1      28.918 -20.677   5.573  1.00  0.00     0.157 HD
ENDBRANCH  14  18
ENDBRANCH  10  11
ENDBRANCH   7  10
BRANCH   2  21
HETATM   21  O1  UNL     1      22.213 -26.965   3.960  1.00  0.00    -0.288 OA
ATOM     22  H1  UNL     1      21.491 -26.837   3.356  1.00  0.00     0.244 HD
ENDBRANCH   2  21
TORSDOF 5
ENDMDL
MODEL 3
REMARK VINA RESULT: -6.379559149      3.291      3.834
REMARK  5 active torsions:
REMARK  status: ('A' for Active; 'I' for Inactive)
REMARK    1  A    between atoms: N1_2  and  O1_3 
REMARK    2  A    between atoms: C4_9  and  C5_10 
REMARK    3  A    between atoms: C4_9  and  C6_12 
REMARK    4  A    between atoms: C6_12  and  C7_13 
REMARK    5  A    between atoms: C10_16  and  N2_17 
ROOT
HETATM    1  C1  UNL     1      20.087 -28.003   7.334  1.00  0.00     0.184 C 
HETATM    2  N1  UNL     1      20.005 -26.875   6.449  1.00  0.00    -0.270 N 
HETATM    3  C2  UNL     1      20.958 -26.044   6.250  1.00  0.00     0.056 A 
HETATM    4  C3  UNL     1      21.430 -24.802   5.528  1.00  0.00     0.131 A 
HETATM    5 BR1  UNL     1      20.594 -23.126   6.058  1.00  0.00    -0.065 Br
HETATM    6 BR2  UNL     1      21.748 -24.964   3.651  1.00  0.00    -0.065 Br
HETATM    7  C4  UNL     1      22.340 -25.495   6.456  1.00  0.00     0.052 A 
ENDROOT
BRANCH   7   8
HETATM    8  C5  UNL     1      22.563 -24.932   7.849  1.00  0.00     0.133 C 
HETATM    9 CL1  UNL     1      22.805 -26.168   9.077  1.00  0.00    -0.129 Cl
ENDBRANCH   7   8
BRANCH   7  10
HETATM   10  C6  UNL     1      23.490 -26.219   5.844  1.00  0.00     0.059 C 
BRANCH  10  11
HETATM   11  C7  UNL     1      24.794 -25.539   5.960  1.00  0.00    -0.041 A 
HETATM   12  C8  UNL     1      25.055 -24.459   5.109  1.00  0.00     0.012 A 
HETATM   13  C9  UNL     1      26.279 -23.833   5.226  1.00  0.00     0.048 A 
HETATM   14  C10 UNL     1      27.227 -24.243   6.147  1.00  0.00     0.098 A 
HETATM   15  N3  UNL     1      26.965 -25.278   6.957  1.00  0.00    -0.352 N 
HETATM   16  C11 UNL     1      25.767 -25.894   6.844  1.00  0.00     0.096 A 
ATOM     17  H3  UNL     1      27.653 -25.594   7.642  1.00  0.00     0.166 HD
BRANCH  14  18
HETATM   18  N2  UNL     1      28.360 -23.639   6.232  1.00  0.00    -0.385 N 
ATOM     19  H22 UNL     1      28.627 -22.965   5.516  1.00  0.00     0.157 HD
ATOM     20  H21 UNL     1      28.991 -23.828   7.011  1.00  0.00     0.157 HD
ENDBRANCH  14  18
ENDBRANCH  10  11
ENDBRANCH   7  10
BRANCH   2  21
HETATM   21  O1  UNL     1      18.821 -26.689   5.780  1.00  0.00    -0.288 OA
ATOM     22  H1  UNL     1      18.576 -27.348   5.142  1.00  0.00     0.244 HD
ENDBRANCH   2  21
TORSDOF 5
ENDMDL
MODEL 4
REMARK VINA RESULT: -6.274689392      4.360      5.071
REMARK  5 active torsions:
REMARK  status: ('A' for Active; 'I' for Inactive)
REMARK    1  A    between atoms: N1_2  and  O1_3 
REMARK    2  A    between atoms: C4_9  and  C5_10 
REMARK    3  A    between atoms: C4_9  and  C6_12 
REMARK    4  A    between atoms: C6_12  and  C7_13 
REMARK    5  A    between atoms: C10_16  and  N2_17 
ROOT
HETATM    1  C1  UNL     1      18.681 -20.088   1.026  1.00  0.00     0.184 C 
HETATM    2  N1  UNL     1      18.802 -19.997   2.454  1.00  0.00    -0.270 N 
HETATM    3  C2  UNL     1      19.243 -20.937   3.202  1.00  0.00     0.056 A 
HETATM    4  C3  UNL     1      19.571 -21.396   4.605  1.00  0.00     0.131 A 
HETATM    5 BR1  UNL     1      18.057 -21.682   5.794  1.00  0.00    -0.065 Br
HETATM    6 BR2  UNL     1      21.090 -20.594   5.442  1.00  0.00    -0.065 Br
HETATM    7  C4  UNL     1      19.795 -22.307   3.469  1.00  0.00     0.052 A 
ENDROOT
BRANCH   7   8
HETATM    8  C5  UNL     1      18.801 -23.422   3.193  1.00  0.00     0.133 C 
HETATM    9 CL1  UNL     1      18.986 -24.809   4.259  1.00  0.00    -0.129 Cl
ENDBRANCH   7   8
BRANCH   7  10
HETATM   10  C6  UNL     1      21.214 -22.583   3.108  1.00  0.00     0.059 C 
BRANCH  10  11
HETATM   11  C7  UNL     1      21.407 -23.362   1.870  1.00  0.00    -0.041 A 
HETATM   12  C8  UNL     1      22.051 -24.601   1.959  1.00  0.00     0.012 A 
HETATM   13  C9  UNL     1      22.226 -25.317   0.793  1.00  0.00     0.048 A 
HETATM   14  C10 UNL     1      21.787 -24.845  -0.431  1.00  0.00     0.098 A 
HETATM   15  N3  UNL     1      21.170 -23.657  -0.504  1.00  0.00    -0.352 N 
HETATM   16  C11 UNL     1      20.998 -22.953   0.637  1.00  0.00     0.096 A 
ATOM     17  H3  UNL     1      20.840 -23.294  -1.399  1.00  0.00     0.166 HD
BRANCH  14  18
HETATM   18  N2  UNL     1      21.965 -25.537  -1.501  1.00  0.00    -0.385 N 
ATOM     19  H22 UNL     1      22.812 -25.405  -2.051  1.00  0.00     0.157 HD
ATOM     20  H21 UNL     1      21.266 -26.216  -1.801  1.00  0.00     0.157 HD
ENDBRANCH  14  18
ENDBRANCH  10  11
ENDBRANCH   7  10
BRANCH   2  21
HETATM   21  O1  UNL     1      18.415 -18.818   3.040  1.00  0.00    -0.288 OA
ATOM     22  H1  UNL     1      18.433 -18.038   2.499  1.00  0.00     0.244 HD
ENDBRANCH   2  21
TORSDOF 5
ENDMDL
MODEL 5
REMARK VINA RESULT: -6.253686594      1.434      1.464
REMARK  5 active torsions:
REMARK  status: ('A' for Active; 'I' for Inactive)
REMARK    1  A    between atoms: N1_2  and  O1_3 
REMARK    2  A    between atoms: C4_9  and  C5_10 
REMARK    3  A    between atoms: C4_9  and  C6_12 
REMARK    4  A    between atoms: C6_12  and  C7_13 
REMARK    5  A    between atoms: C10_16  and  N2_17 
ROOT
HETATM    1  C1  UNL     1      20.710 -26.959   6.192  1.00  0.00     0.184 C 
HETATM    2  N1  UNL     1      20.110 -25.938   5.379  1.00  0.00    -0.270 N 
HETATM    3  C2  UNL     1      20.756 -24.972   4.842  1.00  0.00     0.056 A 
HETATM    4  C3  UNL     1      20.698 -23.731   3.981  1.00  0.00     0.131 A 
HETATM    5 BR1  UNL     1      19.795 -22.188   4.752  1.00  0.00    -0.065 Br
HETATM    6 BR2  UNL     1      20.369 -23.986   2.116  1.00  0.00    -0.065 Br
HETATM    7  C4  UNL     1      21.990 -24.176   4.532  1.00  0.00     0.052 A 
ENDROOT
BRANCH   7   8
HETATM    8  C5  UNL     1      22.571 -23.471   5.746  1.00  0.00     0.133 C 
HETATM    9 CL1  UNL     1      23.305 -24.566   6.910  1.00  0.00    -0.129 Cl
ENDBRANCH   7   8
BRANCH   7  10
HETATM   10  C6  UNL     1      22.971 -24.736   3.561  1.00  0.00     0.059 C 
BRANCH  10  11
HETATM   11  C7  UNL     1      24.022 -23.800   3.120  1.00  0.00    -0.041 A 
HETATM   12  C8  UNL     1      25.153 -23.643   3.931  1.00  0.00     0.012 A 
HETATM   13  C9  UNL     1      26.127 -22.764   3.507  1.00  0.00     0.048 A 
HETATM   14  C10 UNL     1      26.010 -22.052   2.326  1.00  0.00     0.098 A 
HETATM   15  N3  UNL     1      24.924 -22.211   1.557  1.00  0.00    -0.352 N 
HETATM   16  C11 UNL     1      23.967 -23.072   1.970  1.00  0.00     0.096 A 
ATOM     17  H3  UNL     1      24.822 -21.694   0.684  1.00  0.00     0.166 HD
BRANCH  14  18
HETATM   18  N2  UNL     1      26.937 -21.239   1.958  1.00  0.00    -0.385 N 
ATOM     19  H22 UNL     1      27.724 -21.585   1.410  1.00  0.00     0.157 HD
ATOM     20  H21 UNL     1      26.890 -20.252   2.210  1.00  0.00     0.157 HD
ENDBRANCH  14  18
ENDBRANCH  10  11
ENDBRANCH   7  10
BRANCH   2  21
HETATM   21  O1  UNL     1      18.755 -26.017   5.175  1.00  0.00    -0.288 OA
ATOM     22  H1  UNL     1      18.325 -25.249   4.818  1.00  0.00     0.244 HD
ENDBRANCH   2  21
TORSDOF 5
ENDMDL
